data_image0
_chemical_formula_structural       H5CSFeS2FeS2FeSFeS3FeSHFeS2FeSFeS3FeS2FeSFeSFeS3HFeSFeS2FeS3FeSFeHSFeSFeSHFeSHFeSFeS4C7H3C7H4C6H10CHC6H4C6H4C4H4CHC8H4C6H7C2H3C8H9C2H6CH3CH3CNHC2H3C4H3NH2CHCH6CHSCNCHC2H2CH12SH2CH8CHNHCHCHFeHNCSH2C2SCH2CH3CH4CH4CH3CHCHCH5CH5CH3C2HSH4C2HCH4C3H6CH5C2HNCHCH2C2H2C2H3CH2C2HC2H4CHCH7CH2CNH6CNH3CH2SHCHCH2C2HCH4NHC3HCHCH2C2H3FeS2FeSCFeSFeS3FeS2FeS2FeSFeS3FeS2FeS2FeSFeS3H3CFeSHFeS2FeSFeS3CHFeS2FeSFeS3FeSFeSC3H2C6H4C6H4C2HC3H7C7H2C7H4C6H4C4H2C6H4C6H5C5H4C2H5C2H5SC2H2CHCH3CH4CH4CFeH2C2HC2HNH2CH3CHC2H3SHCH3C2HSNH2CH4C2H6C2H3SH2CHCH2CHCH3CH2CH3CNC8H20CH5CHC3HCH3CH3CH8NC2HCNH6CH4NH4C3H3C3H2C3HCNC2HCNHCH2CH2SCH2CHCSH6C2H3C2H3CHCNHSCH2CH2CH2CH6CH3CHCH2NC2H2C2HC2H8CH4C2H5CH6CFeCHC2H3CHCHCH2CH6FeH3CSHCHNH4CFeS2FeSHFeSFeS3FeS2FeS2FeSFeHS2FeSFeS2FeSFeS3CFeHSFeSFeSHSFeSFeS2HFeHSFeS2FeS2FeHFeS3HC6HCH2C6H4C3H9SHCHC2HCH2CHCH2CH2C7H4C6H4NCHSHC8H4C6H4C6H4C2H4C2HNH3CH2SC2HC2H3SC2H2C2H3CHC2H2C3HCH2CSH10CSH4CH2NC2H3SH2S2H2C2H5C3HSH4CHNH3CHCHCH13C2H3CH3CHCH2C2HC2HCH3C2H2CH2CH12C4H3CH4C2HNC3HNH3CHC2SH2SH5C4H7C2H2CH4CH2CHC3H2C2H2C2H2FeH6C2H6CHCH5CH8CHNH5NCH3CSCH2FeS2FeHFeS2FeS2FeS2FeSFeS3FeS2FeS2FeSFeS2HNSFeS2FeSHCHFeSHSHSHSFeSH3FeS2FeSFe2S2H3C3H2CH2C3HC2HC2H2C2HC6H5C4H3CHCHC3HCHCH2CHCHSHC6H5C3H2C6H3C6H4C7H4CH7CH3CNHCHCH4C4HCH2CH9CH2C2H2CH3NH2CH4CH8FeNHFeH6C2H6CHS2C2H11CHCH5C2H9CH2CH2CH3C2HCH3CH4NCSCH2CHFeHCNC8H13SH6C5NH4SH2SHCHCH3C4H8CH6CHCH7CHCH4CH6CNCSH2C2H2C2HC2H5SH3CNC8SHC3SH3C3H6CH3CH4SFeSFeS2FeSCFeS2FeSFeS3FeSFeHSFeCS2FeSHFeS2FeSFeS3FeS2FeSCFeSFeS2FeSHFeS2FeSFeS4H5C6H4C4SH5C6H4C6H4SHCHCH2CH2CHC4HC6H4C6H5C3H2C6H4SHCH3NC8H20CHC3HFeH2SH7C3H3C2H4CH2SH4CNH3C2H2C2HC2HSH6SNC8H21CHCH4CH2CHC2H2CHCSCH7SH3CH7SNHC3HC2H2CH8CHCH4CH2NHC3H2CH7CH2CSCHFeH3CH2NC8H6C2H3FeH4SH6C3H3C2NFeSFeSFeSFeS2FeS2FeSHFeSFeS3FeS2FeNSFeS3CH3NFeS2FeS2FeSFeS3FeCFeS2FeS2FeS2FeS2FeSFeS5HC6H2CHC6H8C6H4C6H4S2HC3H4CSC5H6C6HNH5CHC6H4C4H3C6H4CHC3H2CHC2H3CH2CH2CH2CH4CH3FeH2CH3CH9CH3CHCHSH5FeC2HC3HCH6C2H8C4HCH5CH4C5H5C2NHCHCH3C2HCHCH2C3H3NC2HCH4NHCHC2H4CNHCH8CH2CSH2CSHC3HC2H9CH3C2H2CNC8H20CHCH5CH2NC8H21CHCHCH6SCHCHCH7CH2CHCH2CNH3CH4NCHC2H2CH2NH3C2H14SFeS2FeSHFeSFeS3FeCFeS2HSHS2FeSFeSHFeSHFeS2FeSFeHS2FeS2FeS2FeHFeS3FeS2FeS2FeSFeS4HSH3C7H2CHC6H4C6H4C6H8CHCH3C3H5CH5CH2C2H4C3HC6H4C6H4C6H4S2H2CHFeH2CHC4SH3C3H3CH2CHCH5C2NH4NHCHFe2H3CH3SHSH3CH7C3HSH4CHCH4CHC2HSH4CHCHCH3NH2C2H5C3H3CH6CH2NCH4C2HSCH3CH4C2HC2HCH2C2H7CH8C2HCH4CHCHFeH2SCH2NHNC8H8CHNH14CHCHCH3CHC2H2CH2C3HCNC8SHC2H3CH8C2H6C3H2CHCH4CH5CSHSFeS2FeSFeS2FeS2FeS2FeSFeS3HSH6FeCFeS2FeSHFeSFeS3FeS2FeS2FeSFeS3FeS2FeS2FeSFeS3C2HCH2C6H2FeC4FeCH2C7H4C6H7FeHCH2C3H2CH3C2H5SC2HC3HCH2C6H4C5H3CHC6H4C3H2C6H3C2H2CH3NC8H11C2H8CH2CH6NC8H20NC8H21FeC2H3CHC2HSHC2H4CH2CH4CNHC2HSHCH2NCH5C2H3SHCHCHC2H2CH3NC7H2CH5SH3CH5CHSH2CH2C2HC3H4NHC2H6CH2CH2CH3CSHC2H5CHC2H7CSH2C2HCHCHCH4CHCHCHCH7CH3CH2CH2CH3NHCH5NHCHNCHC2NHCH3C3H2CH2SH11FeCH5SCH4C3H6CHFeH2C3HFeCHSHFeS2FeS2FeSFeS3FeS2FeS2FeSFeS3FeS2FeHFeSHSFeS2FeSHFeSFeS3FeS2FeS2Fe2S2FeS2FeSCHFeS4HC5H2C6H4SCHC6H4C6H4CH2C6H2C2H4C6H4C6H4C6H4C6H4C4H2CH12CH3CH2C2H6CSNC8H23CH2CHNH3CH10NH6CH3CHC3H8NHC2SC2H2CHCHCHC3H3NSH4CHCH3NC2H4CH3C4HNC2H3C2H3C2HCHCHCH6CHCH4CNH5CHC2H10C3HCSC2H4CSH10C5HSNCNC4H2CH11CH6CH2NC8H23CHCH5CHCH2CH2C2HC2H3CHNH3CH2NCHC2H5CH3C2H6NC6H2CH4CHCHCHCH7CH4SC2HCH7CH2FeS2FeS2FeSFeS3FeS2FeHCFe2SH2FeS2FeSFeS3CH2S2CH2CSHFeS2FeS2FeSFeS3FeS2FeS2FeSFeS3CSHFeS2FeSFeS2C6H4C6H4C6H4C6H5C3H6C4H3C6H2CHC6SH3C6H4C4HCH2C8H4C6H5CH3SH2C2H3C4H4CHNHC2H2NCHCHCHCHC3H2C2HNH3C2H3CH3CHCNHCHC2HCH2C2H3SC2HC4H3SH4C3H2CH2CHC2H2NCHCHCH2C3HC2NH12CH3CNH6C2H3CH2CH5NC7H4CH16CSH15CFeCH4SH2C5H3CH4CH3SHNH3CHNH2NC5H2NH7N2C8H14CH3CH3CH6CH4FeH7SH4NC8H23CH7C2H2CHCH5CH4CH3CH4CH2FeH4CH9CHCH9C3H3C2HCHCH3CH3C2H5CHSC2HFeS2FeS2FeSFeS3HFeS2FeS2NSFeS2FeSFeS3FeS2FeS2FeHFeS3FeS2FeS2FeSFeS3FeS2FeS2FeHFeS3H2CH3CH4C6H4C6H4C6H6C2H2C2HCH2C6H4C7H3C6H4C6H4C4H5CH2FeC3HCH2C6H6C3H5FeSH6SH3CH3CNC8H24CH2CH3CH2NH4C2H3C2H2CH2C2HC4SH4C3H3C2HCH5C2H4CH6CHCH2CH6CH2C2H2CHC3H3CH2CH3CH2CH5NHCH9C2H3C4H3NH6NSHCNH5C2H2FeC2H2NH3CHNC8H5CHCH7NC2H3NH2CSCHC2HCHCH2C2H2C2NHCHC2HC2H9CH2CH5CNH2CH2CHCH4FeS2FeSHFeSFeHS2FeS2FeS2FeSFeS3FeS2FeS2FeSFeS3H7FeS2CFeSHSFeS2FeS2FeSFeS3FeS2FeSHFeSHSH5C6H4C6H4C3HCFeH4C6H4C4H9C6H4C6H4C6H4C6H4CH2C6H4C6H4CH3C2HC2H4CSH2CHCHC2HCHNC8H11CH11CH3NCHCH4CH6C2H2CHCH3C3H2CH3CNHC2NH2C2H2CH5CH3C2H2CH5C3H2C2H2CSHC2H3CH2CHCHCNFeCHCH9CHSCH9C2NC8H20CH2CFeHC2HCH3SH5C2H3CH2NC3H2CH8CH2CH6NH2CHNCHSCH5C2H3C2H2CHNH2CNSCH3CH7CH2CH3CNH2CHCH3C2SH4C2H6CHCSCH2CH3CHCHSCHNHNH7C2H4CH10C2H2CHCHC2HC2H2NH5SHC2HCH3CH4CH2CHCH6CH3NCH2CHCH4C2FeS2FeS2FeSFeS3FeS2HSFeSFeS3FeSFeS2HFeS2FeS2FeSFeS3FeS2FeS2FeHFeS3FeS2FeS2FeSFeS3C2HC2NC2H2SCNH3C7H4C6H4C6H6CH4C3H2C4HCH4C6H4C6H4C2H2C2H4C6H4C7H4C6H4NHC3HFeHCH2CH3C3NCH5C2H3CH2CH2C2H3CH3CH5NHNHC3HNC8H20NC8H23CNC2HCHCH2CHCSHC3H8NHCHCH7CHCH5CH3C2HC2NC8H21CHC3H5CH7CH2CHNHCSH3CH4CH2CH7CHCHC3H4CH5CHC2HNCH5C2H2CHCH6CH7FeHC2HSC2HC2H3CH2SH9NH4NCHCH4C2HC4H2SHFeCH2CH4CSH5CH3C2H5C2H7C2H2CHC3HCH3C2H7CHNH2C2H2CHFeH11CH2SH4C2HCHC2H3CSH2C2FeS2FeS2FeSFeS3FeS2FeS2Fe2S3FeS2FeSHFeSFeS3H2FeS2FeS2FeSFeS3FeS2FeSFeS3FeSFeS2Fe2S3C2SCSH3C3HC7H2CHC6H4C4H6C6H4C6H5C7H4C6H4C4H4CHC6H4C6H4CH2CH4SH4CHCHCHC2H3CSH2CSHCH4FeCHCHSCHCHCH3CH3CH6CHCHCHNCHNHC3H4C2NH2C3FeH2CHCH2SH9CH6CNC8H21C2HSH2CHCH5CH9CHNCH8C2HCH4CH2CH3CHNH2CH7CH8NH7CH2NHC3HC2HC2H2CH6CH7CNC4HCH8CH2CHCHC3HCH5CH9C4H10C2H5NC5HCH2NH10CH4CHC2H5C2H4CH2C2H3CH3CH2NH2C3H3CH2C2HC3H9CHNC2H3C4H3C2NH2CH2CH3CH4NCNCSHCH4CHCHCH3CFeS2FeS2FeSFeHS2FeS2HFeSFeS3FeS2FeS2FeSFeS3C2HSNFeS2FeS2Fe2CS2FeS2FeS2FeSFeCS2CSFeSHFeSFeSHCH3C6H3C6H3C6H5CH3C2H7C6H4C6H2C6H4C6H4C6H4C2HCH3C2H5C7H4C2HSH6SH7CHCHCH3CH4SH2CHCNC2HFeCNHNCSH9CH2NC2H2CH2CH6CHNC8H21CHC2SH5CHSH2CH2CH2C2HCH7C3H6CNC4HC3H4C3H2NH4C3H3CHCH2CH2CH14C2H3CH2CH8CNCH2CH7CH2CFeH2CH3CHCH2CHC5H2SNHCH2CH2CH4CH3CHCH4C2HC2HCHNH4CHNC8H21NH2CHCH3CHC3HCH2NH3SCHCH5CH2C2NFeH5CSCH9CH9CHSNCH13CH2C2H5CH2FeSCFeS2FeSHSHFeS2FeS2FeSFeS3FeS2FeSHSCH3CSHFeS2FeS2FeSFeS3FeS2FeS2FeSFeS3FeSHFeS2FeSFeS2H3C6H4C6H4C6H4C6H2CSC5H4CHC6H4C2H2C2HNH2C6H4C6H4C6H3CHCH2C5H8CHC2H8CH2SCH3NHNH2CFeH2SHSFeH2C2H2NHCNC8H22CH2S2HCHCHFeH3C2HC5H3CHCH3CHNC8H20NC8H19C2HSH3CH5CH3CH3FeCH2CH6CH2NC8H21CHCH3NH4CH4C2H2CH2CH3CNHCHCH5C3HC2H5C2HCH2C3H2CH3CHSCSCNHCH9CH4CH5C2HCHCH4C2H2NH4SH2CNH9CH5CH2CH3CHCNH2CH3FeS2FeSCFeSCS2HFeS2FeS2FeSFeS3FeS2FeS2FeSFeS3FeSHFeCFeSFeHFeS2CHSFeS2FeS2FeSH2SH3C3HCHC2HC6H4CH4CHC4HCH2C3H2C6H4C6H4CSCH2C6H4C4HCH6CH3C6H3SHC4H3C3HSH3C2H4NC8H25CH4NC6H15C3H2C2H3CH3Fe2CH5CH15CHC2S3H4SH2CSCSFeH5C3NH2CHCHCH2SC4HSHCNC4HCH4CH7CH2C2H2NCHC3H2CH6SCHCH6C2HFeHFeHCHC2H2CH2CH6NHC2NHCHCH3SCHCH2C2HFeS2FeSHFeSFeS3FeSFeSFeSFeS2FeHSFeCSFeSHSH2CHSHFeS2FeS2FeSFeS3FeSFeS2FeS2FeS2FeS2FeSFeS3H2SC6H4C6H4CH2C3H2C7H3C2H2C5H2CSC2H2C6H4CHC6H3C7H4C6H3C3HC7H14NH2NCHCHCHC3H6SCH6CH4CH8CHCHCH4CH4C3HSH2CH4CH11C2H2CHCH2C2FeH3CHC2HCH3CH2CHNCHC4H7CH6CHCH3CH2CH3S2H5C7H11NCHC4H15CH2SH4CHCH2N2H6CH5CH3CSHNC8H13CH6CH3C2H5CHCHNCH2CHNH2SCH2C2HC2HNCH2CH4CH6C2HSH2C2H2CH9SCHSFeSFeHSFeS2FeS2FeSFeS3HFeS2FeSCFeSFeS3FeS2FeS2Fe2S3FeS2FeSHFeSFeS3HSHCFeSFeH2FeH2CH5C6H4C6H4CH2CHC6H4C6H4C6H5CH2C2HCH2C6H4C3HC3H2C6H4NH6CH2CHC2HCH3SH2CH2SHSH4SHCH3CH4CH2C2H9CH3FeSH4NHCSH6CH5CHCHCH6CSH4NCHC3H2NHCH2CH5C3H2SH4CH4C2H3FeCHC2SH2CH4FeH2NCH2C2H8C3H3SHCHCHCHCH2CNC3SNC2H8CSH2CHCHCHC3HC3HCHC3HCH4C2HC3HC2H3CH11C3HCH2SH2CH4CH2CHCH2C2H5CH5CFeH2CH2C2H3CHC2HNFeSHFeS2FeSFeS3FeS2FeS2FeSFeS3FeS2FeS2FeSFeS3HCH2CH2FeS2FeSHFeSFeS3FeS2FeS2FeS3H2CHCHC4HCH3C3H3CHSCHC6H4NCHC4H4CHCH6C6H8C3H2C6H4SCHCHCHCHC6H4C6H9CH2SHC5H9CHC2H2CH3CHC2H2CH2NHNHC2HCHCH2CH6CH5SHCH3NCH3C2H3CH3CH5CHC2NC8H11CHCHC2H3CH2C2HCHCHSCH4NC2HSHCH3CH2NC8H23C3H3SHCH5NC4HC4H7CNH14CFeH2CH3N2C8H4CH9CH5C2H3CH5CH3CH3C2SHNCH5CHCHCH2SH11CH3C2H6CHCH3C3HFeS2FeS2FeSFeS3FeS2FeS3FeSHFeS2HSHFeSC2SHFeS2FeS2FeSFeS2FeSCFeS2Fe2S3H2SH4CH3SH2CH2C6H2CH2C6H5CFeCHC6H4CHCH2CH3C2HC2HCH3C6H4CHFeH3NH2C7H3C6H5C2FeH4C4H2C2H8CSCHC2HSNSHSC3H2CSH2NH2CHCHCHCSCH21CH4CHC3HCH5C2NC8H20CH5CH6C2FeCH8CHCHC3HSCHC3HFeSHFeCH2NC8H21SCHCH2CHC2H10C2H2NHSHNCH4CNH2C3HC3H4C2H3CHC2HCH5CH4SFeHSFeS2FeCFeS2FeS2FeS2FeSFeS3FeS2FeS2FeSFeCS2FeS2FeS2FeSFeS3FeHSFeSFeS2HFeSFeSHC5H2C2FeHNC3SHC6H4C6H7C2H2C3H2CH2C7H4C6H2C2HC6H4C6H5C4HNHC6H6C4H6CH3NCHSC2HC2H11C2H2C3SCHCHCH2CH3CH2CH2CH6SCH2SH8C2H3CSH5CNCHNHSHC2SHC2H4CHSHCHNH3C3H2C3HC2H4FeCHCH3C2H2CHC2H5C2H3N2CH2C3HCH2SH3NHCH2CH4CHCH2CH2NC5HC2H15NH5CHC2H2CH2CH4C2H5SHCH3CH6CH7CH2CH3SHC2NC8H22C3HCHCH7CH10CHSH2CHCH7CH2CNC2HFeSCH2FeS2FeS2FeSFeS3FeS2FeSCFeSFeS3FeSFeSHFeHFeS3FeS2FeS2FeHFeS3CHSFeHFeS2H5S3HCH3CHCH2C6H4C6H5C2H2C6H4C6HCH2C6H4C6H4C2HC4H2C6H5CH2NSHCH3C2H6SHCH2C2H4NH8CH2CHCH4CHC2H4C2HC2H2CHN2C8H16SH2CHSHCH2SC2HSH8C3SC2FeCH2C4H2CH11C2HCHC2H2CH2SCHCH2C2H2CH3N2SH7SHCH7NC8H24CH10CHCSH2CFeCH2CHC2H6SH2C3H2C2HC2HCH3CHFeCH4CH4CNCSH2CH2FeCNCHC2H3CHC2H3CH2CH2C5HCH3C4SNFeSH5S2FeS2FeH2CHFeSHSFeSFeS2Fe2S3CFeS2FeS2FeS2FeSFeS3FeS2FeHFeS2FeS2FeS2FeSFeS3HC6H4C2HC6H5C3H3C6H4C6H5C6H4C5H2C6H4CH2CH2C3H3SC5H3CH2CHC7H3C2HC2H5C2HFeHNH7C2H2CSFeC3H3CHCHCH3SH3CNH2FeC4HCHCSH2CNC8H21SH2CSH4C3H2CH2FeH3CH2C2HCH2SH5SNH4FeH4NSCH2CH2FeH4C2HCH2CH2C4HC2H2C3H2CHCH5CHCH2CH2NH5SHCH3CHN2C8H20SH2FeHCH3CHCSH3CHCH3CH2CHCH4CHCH3CH6C2HC2H9CNH2SH4C2H3CH3CHC2HCHCH6CNHCH3CH4FeS2FeS2FeSFeS3FeS2FeS2FeHFeS3FeS2FeS2FeSFeCS2FeS2FeS2FeS2FeS2FeSFeS3FeS2FeS2FeSCS2CSHC5HCH2SHC6H4C6H4C6H4C6H4C7H6C3H2CHC6H4CH2CSHC6H4C6H5C2H4C2H3FeCH5CHNC8H3CH12CH3NC8H20NC5HCH3NH4FeHC2H5CH2CHCH6CH5C2H6CHCHCH5C2H2CH2CH11CSH2CH2CNC8H22CHC2H7CHCH3CH2CNC2HCH6NC2H3CH7CHFeCH6C2H3C2H5CHC3H4SCHNC3HCHC2H3C2H2CH6C4H3SH2CH2CH7C2NH3CHCNCSNHCH4CH4CH3CH2CH2CH3NCHCH7CH2CHNH7CHSH3NHFeS2FeS2FeSFeS3FeS2FeS2FeSFeHS2FeSCFeS2FeSFeS3H2FeS2FeSFeS3CHFeS2Fe2S3FeS2FeS2FeSFeS3H2C2H2C2H2C4HCH4C6H4C6H4C6H6CHC3H5NCH2C2H4C6H4C6H4C6H4C6H7C3H7C2H2CH5SCHNC7H18CHCH4C2HC4HC2H6CH2NSHCH4FeH2CH5NH4CHCNH3C2HCHCH2SH3CSHC2H2NH3NC2NCHC3H6CHC3H2FeH2CH3SH3C2H5CH2CNCH3NC8H20CH2C2HC3SHCH3CH2CNH2C2H6C2H5SCNHNH3C2H7NHCH3C2HCH2C2HCHSHC4H3CH6CH2C3HCH11CNH2CH2C2H3CH2CHC4H3C2H5CHCH7CHC2H5C2H9CH6NH3CHC3NH6CHCHC5H3CHC3SH3C3H2CHC6H4CH3CH6FeS2FeS2FeSFeS3FeS2FeS2FeSFeHS2FeS2FeS2HFeS3HNSC2H3SFeS2FeS2FeSH2S2FeH2FeS2FeCFeS2FeS2FeS2FeSFeS2CH3C7H5C2H2C3NHC2HC7H4C6H4C7H4CHC7H4C2H4CHC6H4C6H4C6H8C2H5CH3FeH3C2H4CH7CHCH5CH3CH3CH2CH3CH4NHCH5CHC2H4CH2CHC2HCH2CH3CH3C2HNH2CH3NC2H5NC8H20NC7H17NC8H21SH2C3HC2H4SH3CFeHNH2NCSH2C2H8C3H2C2H3CHC2H3CH2CHSH2CH6C2H3C2HNHCH2CHC2HSH5C2H5CHCHCH5CHC2FeS2FeS2FeSFeHS2FeS2FeH3FeS3FeS2FeS2FeSFeS3H4CH5NFeS2HCHFeSHSFeS2FeSHFeSHSHFeS2FeS2FeSFeS3HC4HCH4C6H7C7H6CSHC2HCH2CHC2HSHCHCHFeC2HC6H4C7H7C6H5C2H2C6H2C6H4C6H3CNCHC3SH7CH8NH3NSHSHCH2CH2CH4NC4H6SHCFeSNC6HCH14C3H3NC8H21C2H3C2H4CHC2H4C4SCHCH4C2HCH5CHCHC2H3CH2NCHC2H3N2C4HCHCH21C2NHC2H2C2HCSCH9FeH2CH4C3HCHCHCH3CHC2HCHCHCH6CHFeC2H11CH3C2HCH3SHCH2CH6CH2NH3CH4CHCH2CH4S2CFeS2FeSFe2CS2FeS2FeS2FeHFeS3FeS2FeS2FeHFeS3H2FeSHFeS2FeSFeS3FeS2CFeSFeS3FeS2FeS2FeSFeS4H3FeH3NH3C3H2C6H4C6H3C7H4C6H5CH3CHCHC6H4C2H3CHCHCH4CH3C7H5SC2H2C6HNHC4HC2H7CH3CH5C2H7CHC2H2CHCHC2HC2HCH2CH2C2SH2CH2CHNH2CHSHCH3CNH3C3H3NC7H20CNC4HCH4CH3CH3CH5CH3NC8H20NC7H10CH4CHNHC3H4CHCHCH5C2H4CH2CNH2C6HCHCH6CHSH7NH4CHCH2S2CH2SH2NCH2FeH7C2HCNC2HCH3CH5CH8C2SCH3C2H2CH9CHCHCHCH2CH7CH2C2H7CH4CHC2H3CHCH2CHCH4CH5C2NFeS2FeS2FeHFeS3FeS2FeHFeSCSFeSFeS2FeSFeS3CH4CH3CSHFeS2FeSFeS2FeS2FeS2FeSFeS3FeS2FeS2FeSFeS3H2C5H2C6H5C6H4C6H4C6HCH2C2FeHCH6C9H4C6H4C6H4CH4SC2H2C6H2NHC6H6CNC8H27NH6SC2H4NHC2HCHNC8H20CH4C2H4C2HCH4SNHC2H5CHC2NC8H21CHC2HCSH2CH3CH3CH4C2H2FeH4CHCHCH4CH2NCH2CH2CH4NH3CH4CSC5H3SC2H3CHC2H7NCFeHCHC2H10CH2CH3CH5CH2SH3C5H7CH6CH3C4SH2SCHNH11C4H3C2H2C2H5CH2C2H4CHCH8CH17CH10CHCH3CH3CFeS2FeS2FeSFeS2FeS2FeS2FeSFeHS2FeS2FeSCH3FeS2FeS2FeSFeS3FeS2FeS2FeSFeS3FeS2FeS2FeSFeCS2HC6H4C6H4C6H5C3HCH2C4H4CH5CH2CH2CH3C2HC4NH2CH2CH4C8H4C6H4C6H3C6H3C2H2SC2H3CH2CNCH4CH8CH4SCSHC3H4CH2CH2C4H2CH3C4H2C2H5CH3CNH2SHNH2CH2CHCH2NHCH2N2H2C2H4CH2C2H2CH3FeCH3CH2C2H2SH2CH2CHNC4H2C2H4CH3C2H2CNHNCH5CHC2SCHCHCH3SHCSH3C2H4N2C6H27FeH4NC8H20C2HCSH5CH2CHNH2C4HCHCH2C2H2CH7CHCH5CH2NH2C2H3CH2SH2CHCH6CH3CH3CH4C2H2CNCH2CHC2H2C4H2NH3CH4CH7CH9C2H3C4SHFeS2FeS2FeSFeS3FeS2H2FeSNS2FeS2FeS2FeS2HCH2FeSHFeS2FeSFeS3FeS2FeSNFeSFeHS2FeS2FeS2FeSFeS3CHC4H4CH2CHCH3C6H4C6H4C6H4NC2H3CHCHC6H3CHC6H4C3H5CHC6H4C6H4SCH2C2H13C2H2C3H2CH3C4H3CHCHC2H5CH5C2SH2C2H2CH5C2FeNC8H23NHCNH8FeH4C4H4C2HC2HCH2C2H4C2H8CH2NH5SH3C3NC6H16CHCH2CHSC2H15CHC5H8CHCHCHNHCH4CH2CHNC2H3CH9CH2FeC3SNH2C2H7C2NHC2H4C2HCHC2H3CH3CHC3H6CH2CHCHCH2CH2C2H4CH2N2HC2H9C2H2NHC2H3CHC2H3
_chemical_formula_sum              "H9216 C5376 S1536 Fe768 N384"
_cell_length_a       83.155
_cell_length_b       84.1431
_cell_length_c       84.3833
_cell_angle_alpha    74.1321
_cell_angle_beta     74.172
_cell_angle_gamma    74.0701

_space_group_name_H-M_alt    "P 1"
_space_group_IT_number       1

loop_
  _space_group_symop_operation_xyz
  'x, y, z'

loop_
  _atom_site_type_symbol
  _atom_site_label
  _atom_site_symmetry_multiplicity
  _atom_site_fract_x
  _atom_site_fract_y
  _atom_site_fract_z
  _atom_site_occupancy
  H   H1        1.0  0.15065  0.01294  0.03901  1.0000
  H   H2        1.0  0.00146  0.07210  0.14368  1.0000
  H   H3        1.0  0.12239  0.14675  0.11297  1.0000
  H   H4        1.0  0.07553  0.48342  0.10944  1.0000
  H   H5        1.0  0.08263  0.46050  0.06617  1.0000
  C   C1        1.0  0.09982  0.13633  0.99151  1.0000
  S   S1        1.0  0.01520  0.01305  0.15160  1.0000
  Fe  Fe1       1.0  0.15651  0.08576  0.06160  1.0000
  S   S2        1.0  0.16762  0.10443  0.06742  1.0000
  S   S3        1.0  0.13890  0.06975  0.08049  1.0000
  Fe  Fe2       1.0  0.17495  0.09231  0.02456  1.0000
  S   S4        1.0  0.18766  0.11137  0.02743  1.0000
  S   S5        1.0  0.17985  0.08424  0.00007  1.0000
  Fe  Fe3       1.0  0.19237  0.09311  0.05155  1.0000
  S   S6        1.0  0.21675  0.08247  0.06144  1.0000
  Fe  Fe4       1.0  0.16167  0.12094  0.04287  1.0000
  S   S7        1.0  0.15035  0.14897  0.04067  1.0000
  S   S8        1.0  0.18160  0.07325  0.04740  1.0000
  S   S9        1.0  0.14869  0.10306  0.03820  1.0000
  Fe  Fe5       1.0  0.02289  0.22467  0.05303  1.0000
  S   S10       1.0  0.02897  0.23366  0.07297  1.0000
  H   H6        1.0  0.07412  0.41349  0.13485  1.0000
  Fe  Fe6       1.0  0.05781  0.20073  0.04699  1.0000
  S   S11       1.0  0.06661  0.20803  0.06633  1.0000
  S   S12       1.0  0.07320  0.17957  0.03369  1.0000
  Fe  Fe7       1.0  0.04039  0.20623  0.08214  1.0000
  S   S13       1.0  0.03623  0.19419  0.10994  1.0000
  Fe  Fe8       1.0  0.05436  0.23476  0.05517  1.0000
  S   S14       1.0  0.06816  0.25618  0.04929  1.0000
  S   S15       1.0  0.03227  0.19717  0.06360  1.0000
  S   S16       1.0  0.04757  0.22756  0.03441  1.0000
  Fe  Fe9       1.0  0.07507  0.09555  0.16007  1.0000
  S   S17       1.0  0.05856  0.08381  0.15165  1.0000
  S   S18       1.0  0.10189  0.09860  0.14653  1.0000
  Fe  Fe10      1.0  0.04685  0.10557  0.18986  1.0000
  S   S19       1.0  0.02801  0.09486  0.18357  1.0000
  Fe  Fe11      1.0  0.05012  0.07312  0.17925  1.0000
  S   S20       1.0  0.04702  0.04645  0.19096  1.0000
  Fe  Fe12      1.0  0.03805  0.10670  0.15670  1.0000
  S   S21       1.0  0.02146  0.12058  0.13786  1.0000
  S   S22       1.0  0.06838  0.08294  0.18750  1.0000
  S   S23       1.0  0.05516  0.11928  0.16321  1.0000
  H   H7        1.0  0.08973  0.42900  0.07597  1.0000
  Fe  Fe13      1.0  0.13554  0.44318  0.08654  1.0000
  S   S24       1.0  0.12528  0.43630  0.11448  1.0000
  Fe  Fe14      1.0  0.16634  0.43683  0.05815  1.0000
  S   S25       1.0  0.15288  0.45490  0.03844  1.0000
  S   S26       1.0  0.19286  0.42179  0.04963  1.0000
  Fe  Fe15      1.0  0.13035  0.44318  0.05241  1.0000
  S   S27       1.0  0.11313  0.43885  0.03819  1.0000
  S   S28       1.0  0.15870  0.45447  0.07590  1.0000
  S   S29       1.0  0.14453  0.42361  0.07067  1.0000
  Fe  Fe16      1.0  0.01669  0.43720  0.18706  1.0000
  S   S30       1.0  0.02002  0.42984  0.21394  1.0000
  Fe  Fe17      1.0  0.01999  0.42284  0.15646  1.0000
  H   H8        1.0  0.00561  0.46594  0.20713  1.0000
  S   S31       1.0  0.02681  0.39895  0.14678  1.0000
  Fe  Fe18      1.0  0.03076  0.45572  0.15198  1.0000
  S   S32       1.0  0.03895  0.42947  0.16663  1.0000
  Fe  Fe19      1.0  0.02685  0.38675  0.06058  1.0000
  S   S33       1.0  0.04349  0.36144  0.06873  1.0000
  H   H9        1.0  0.05148  0.29671  0.01608  1.0000
  Fe  Fe20      1.0  0.04099  0.38659  0.02303  1.0000
  S   S34       1.0  0.05931  0.36157  0.02825  1.0000
  H   H10       1.0  0.02700  0.32035  0.99488  1.0000
  Fe  Fe21      1.0  0.03712  0.35350  0.04814  1.0000
  S   S35       1.0  0.02558  0.33138  0.04992  1.0000
  Fe  Fe22      1.0  0.06402  0.37196  0.04816  1.0000
  S   S36       1.0  0.08957  0.36963  0.05413  1.0000
  S   S37       1.0  0.01857  0.37810  0.04183  1.0000
  S   S38       1.0  0.04758  0.39772  0.04116  1.0000
  S   S39       1.0  0.04812  0.47301  0.13586  1.0000
  C   C2        1.0  0.01315  0.46303  0.21654  1.0000
  C   C3        1.0  0.02168  0.40055  0.12744  1.0000
  C   C4        1.0  0.02932  0.38742  0.11878  1.0000
  C   C5        1.0  0.02544  0.38827  0.10335  1.0000
  C   C6        1.0  0.01368  0.40213  0.09664  1.0000
  C   C7        1.0  0.03755  0.31931  0.00112  1.0000
  C   C8        1.0  0.06976  0.01651  0.14360  1.0000
  H   H11       1.0  0.03831  0.37656  0.12398  1.0000
  H   H12       1.0  0.03137  0.37804  0.09683  1.0000
  H   H13       1.0  0.19128  0.03872  0.10054  1.0000
  C   C9        1.0  0.20615  0.03892  0.07429  1.0000
  C   C10       1.0  0.10654  0.41959  0.04314  1.0000
  C   C11       1.0  0.09664  0.41734  0.03321  1.0000
  C   C12       1.0  0.09130  0.40208  0.03660  1.0000
  C   C13       1.0  0.09586  0.38896  0.04993  1.0000
  C   C14       1.0  0.10573  0.39121  0.05991  1.0000
  C   C15       1.0  0.11097  0.40654  0.05661  1.0000
  H   H14       1.0  0.09313  0.42741  0.02281  1.0000
  H   H15       1.0  0.08388  0.40039  0.02871  1.0000
  H   H16       1.0  0.10914  0.38112  0.07034  1.0000
  H   H17       1.0  0.11838  0.40825  0.06449  1.0000
  C   C16       1.0  0.10415  0.44704  0.12087  1.0000
  C   C17       1.0  0.09355  0.43934  0.13515  1.0000
  C   C18       1.0  0.07632  0.44727  0.13984  1.0000
  C   C19       1.0  0.06971  0.46303  0.13043  1.0000
  C   C20       1.0  0.08052  0.47110  0.11663  1.0000
  C   C21       1.0  0.09770  0.46308  0.11181  1.0000
  H   H18       1.0  0.09855  0.42701  0.14231  1.0000
  H   H19       1.0  0.06825  0.44113  0.15070  1.0000
  H   H20       1.0  0.10592  0.46936  0.10111  1.0000
  H   H21       1.0  0.07488  0.43616  0.11055  1.0000
  H   H22       1.0  0.11481  0.14728  0.00065  1.0000
  H   H23       1.0  0.06825  0.40022  0.12527  1.0000
  H   H24       1.0  0.07947  0.13361  0.17442  1.0000
  H   H25       1.0  0.23497  0.06058  0.03806  1.0000
  H   H26       1.0  0.07521  0.01281  0.17468  1.0000
  H   H27       1.0  0.04494  0.41382  0.07896  1.0000
  C   C22       1.0  0.23446  0.09212  0.05264  1.0000
  H   H28       1.0  0.17993  0.39319  0.04775  1.0000
  C   C23       1.0  0.20188  0.00477  0.09167  1.0000
  C   C24       1.0  0.23874  0.44172  0.05001  1.0000
  C   C25       1.0  0.22214  0.44955  0.05714  1.0000
  C   C26       1.0  0.20793  0.44378  0.05678  1.0000
  C   C27       1.0  0.21028  0.42990  0.04965  1.0000
  C   C28       1.0  0.22690  0.42203  0.04263  1.0000
  H   H29       1.0  0.05885  0.02120  0.15334  1.0000
  H   H30       1.0  0.19519  0.44995  0.06220  1.0000
  H   H31       1.0  0.22882  0.41124  0.03717  1.0000
  H   H32       1.0  0.99970  0.27272  0.02871  1.0000
  C   C29       1.0  0.05622  0.27696  0.04998  1.0000
  C   C30       1.0  0.06480  0.29001  0.04738  1.0000
  C   C31       1.0  0.05558  0.30674  0.04760  1.0000
  C   C32       1.0  0.03772  0.31052  0.05028  1.0000
  C   C33       1.0  0.02916  0.29750  0.05279  1.0000
  C   C34       1.0  0.03836  0.28077  0.05271  1.0000
  H   H33       1.0  0.07862  0.28713  0.04530  1.0000
  H   H34       1.0  0.06229  0.31668  0.04573  1.0000
  H   H35       1.0  0.01535  0.30034  0.05498  1.0000
  H   H36       1.0  0.03167  0.27079  0.05476  1.0000
  C   C35       1.0  0.03125  0.17406  0.11739  1.0000
  C   C36       1.0  0.02861  0.16536  0.10668  1.0000
  C   C37       1.0  0.02507  0.14911  0.11307  1.0000
  C   C38       1.0  0.02434  0.14146  0.13016  1.0000
  H   H37       1.0  0.09871  0.02932  0.16702  1.0000
  H   H38       1.0  0.07423  0.47417  0.15776  1.0000
  H   H39       1.0  0.02955  0.17102  0.09345  1.0000
  H   H40       1.0  0.02357  0.14221  0.10465  1.0000
  C   C39       1.0  0.24762  0.02576  0.09140  1.0000
  H   H41       1.0  0.08405  0.12485  0.21742  1.0000
  C   C40       1.0  0.16940  0.03487  0.04692  1.0000
  C   C41       1.0  0.09358  0.17131  0.18616  1.0000
  C   C42       1.0  0.12897  0.07696  0.09936  1.0000
  C   C43       1.0  0.13685  0.08608  0.10544  1.0000
  C   C44       1.0  0.12856  0.09228  0.12012  1.0000
  C   C45       1.0  0.11228  0.08950  0.12884  1.0000
  C   C46       1.0  0.10452  0.08005  0.12300  1.0000
  C   C47       1.0  0.11289  0.07373  0.10834  1.0000
  H   H42       1.0  0.14940  0.08829  0.09891  1.0000
  H   H43       1.0  0.13474  0.09942  0.12463  1.0000
  H   H44       1.0  0.09204  0.07773  0.12965  1.0000
  H   H45       1.0  0.10674  0.06663  0.10376  1.0000
  C   C48       1.0  0.12889  0.15726  0.03871  1.0000
  C   C49       1.0  0.12092  0.17364  0.04127  1.0000
  C   C50       1.0  0.10374  0.18050  0.04010  1.0000
  C   C51       1.0  0.09449  0.17110  0.03609  1.0000
  C   C52       1.0  0.10246  0.15476  0.03345  1.0000
  C   C53       1.0  0.11959  0.14784  0.03478  1.0000
  H   H46       1.0  0.12804  0.18104  0.04426  1.0000
  H   H47       1.0  0.09778  0.19320  0.04196  1.0000
  H   H48       1.0  0.09534  0.14739  0.03043  1.0000
  H   H49       1.0  0.12559  0.13528  0.03267  1.0000
  H   H50       1.0  0.07178  0.15822  0.10563  1.0000
  H   H51       1.0  0.16258  0.38030  0.99375  1.0000
  H   H52       1.0  0.10995  0.12170  0.17611  1.0000
  C   C54       1.0  0.16608  0.11735  0.98769  1.0000
  C   C55       1.0  0.99975  0.28018  0.03766  1.0000
  H   H53       1.0  0.22649  0.00019  0.06003  1.0000
  H   H54       1.0  0.05510  0.14512  0.20725  1.0000
  H   H55       1.0  0.15033  0.37576  0.01469  1.0000
  C   C56       1.0  0.17276  0.38637  0.01205  1.0000
  C   C57       1.0  0.02316  0.02260  0.16307  1.0000
  C   C58       1.0  0.02755  0.01375  0.17845  1.0000
  C   C59       1.0  0.03458  0.02130  0.18707  1.0000
  C   C60       1.0  0.03717  0.03780  0.18041  1.0000
  C   C61       1.0  0.03245  0.04685  0.16519  1.0000
  C   C62       1.0  0.02556  0.03918  0.15650  1.0000
  C   C63       1.0  0.22479  0.47375  0.01276  1.0000
  H   H56       1.0  0.03819  0.01428  0.19886  1.0000
  H   H57       1.0  0.03452  0.05955  0.15993  1.0000
  H   H58       1.0  0.02268  0.04586  0.14436  1.0000
  H   H59       1.0  0.22023  0.46015  0.06286  1.0000
  H   H60       1.0  0.08441  0.45402  0.08763  1.0000
  H   H61       1.0  0.22801  0.45981  0.01741  1.0000
  H   H62       1.0  0.16130  0.02902  0.07397  1.0000
  H   H63       1.0  0.20207  0.40328  0.02306  1.0000
  H   H64       1.0  0.12972  0.12587  0.08678  1.0000
  C   C64       1.0  0.07618  0.43608  0.07837  1.0000
  C   C65       1.0  0.03512  0.34946  0.98878  1.0000
  H   H65       1.0  0.05954  0.14971  0.08573  1.0000
  H   H66       1.0  0.08157  0.32351  0.01315  1.0000
  H   H67       1.0  0.05139  0.33339  0.01644  1.0000
  H   H68       1.0  0.21016  0.04915  0.06353  1.0000
  H   H69       1.0  0.01555  0.36865  0.00019  1.0000
  H   H70       1.0  0.15773  0.42124  0.99789  1.0000
  C   C66       1.0  0.13537  0.48787  0.09715  1.0000
  H   H71       1.0  0.07738  0.19891  0.99336  1.0000
  H   H72       1.0  0.10794  0.03460  0.06030  1.0000
  H   H73       1.0  0.02561  0.44076  0.08751  1.0000
  C   C67       1.0  0.06701  0.41365  0.12540  1.0000
  H   H74       1.0  0.09047  0.15783  0.16903  1.0000
  H   H75       1.0  0.16670  0.11972  0.99946  1.0000
  H   H76       1.0  0.05927  0.40194  0.10274  1.0000
  C   C68       1.0  0.15223  0.39115  0.03922  1.0000
  N   N1        1.0  0.06591  0.42655  0.09389  1.0000
  H   H77       1.0  0.21450  0.01331  0.10563  1.0000
  C   C69       1.0  0.17149  0.10094  0.98480  1.0000
  C   C70       1.0  0.09837  0.99821  0.13833  1.0000
  H   H78       1.0  0.13276  0.16292  0.99897  1.0000
  H   H79       1.0  0.13926  0.37057  0.05326  1.0000
  H   H80       1.0  0.05346  0.41952  0.13004  1.0000
  C   C71       1.0  0.09162  0.17422  0.98877  1.0000
  C   C72       1.0  0.04365  0.06831  0.23200  1.0000
  C   C73       1.0  0.24108  0.42797  0.04272  1.0000
  C   C74       1.0  0.15755  0.38501  0.00563  1.0000
  H   H81       1.0  0.08233  0.98950  0.09558  1.0000
  H   H82       1.0  0.08077  0.16843  0.98977  1.0000
  H   H83       1.0  0.03961  0.08054  0.22346  1.0000
  N   N2        1.0  0.22168  0.02651  0.07955  1.0000
  H   H84       1.0  0.13676  0.03694  0.04984  1.0000
  H   H85       1.0  0.07011  0.43739  0.20082  1.0000
  C   C75       1.0  0.01515  0.47609  0.22271  1.0000
  H   H86       1.0  0.13202  0.03640  0.07180  1.0000
  C   C76       1.0  0.23419  0.02146  0.06414  1.0000
  H   H87       1.0  0.06204  0.16902  0.17210  1.0000
  H   H88       1.0  0.03995  0.42736  0.10819  1.0000
  H   H89       1.0  0.19870  0.03292  0.06945  1.0000
  H   H90       1.0  0.10349  0.11021  0.19758  1.0000
  H   H91       1.0  0.07744  0.43821  0.17835  1.0000
  H   H92       1.0  0.10200  0.13423  0.20848  1.0000
  C   C77       1.0  0.07651  0.45416  0.07891  1.0000
  H   H93       1.0  0.23428  0.47835  0.03154  1.0000
  S   S40       1.0  0.00972  0.46403  0.17307  1.0000
  C   C78       1.0  0.17230  0.99415  0.04598  1.0000
  N   N3        1.0  0.06371  0.47288  0.18441  1.0000
  C   C79       1.0  0.05538  0.45892  0.18471  1.0000
  H   H94       1.0  0.09486  0.48621  0.17575  1.0000
  C   C80       1.0  0.06969  0.46882  0.20079  1.0000
  C   C81       1.0  0.07855  0.47330  0.16940  1.0000
  H   H95       1.0  0.09642  0.00118  0.17144  1.0000
  H   H96       1.0  0.09203  0.13920  0.12103  1.0000
  C   C82       1.0  0.07029  0.48383  0.20770  1.0000
  H   H97       1.0  0.24754  0.42131  0.08028  1.0000
  H   H98       1.0  0.21132  0.47805  0.01916  1.0000
  H   H99       1.0  0.00209  0.27144  0.04970  1.0000
  H   H100      1.0  0.00067  0.18041  0.08817  1.0000
  H   H101      1.0  0.03460  0.48587  0.16757  1.0000
  H   H102      1.0  0.06103  0.46182  0.21126  1.0000
  H   H103      1.0  0.08260  0.46021  0.19984  1.0000
  H   H104      1.0  0.08837  0.46128  0.17080  1.0000
  H   H105      1.0  0.22196  0.03929  0.09864  1.0000
  H   H106      1.0  0.09778  0.18026  0.17427  1.0000
  H   H107      1.0  0.09252  0.17202  0.00211  1.0000
  H   H108      1.0  0.04178  0.16804  0.18616  1.0000
  S   S41       1.0  0.01370  0.44849  0.14002  1.0000
  H   H109      1.0  0.13250  0.47529  0.10388  1.0000
  H   H110      1.0  0.14115  0.39553  0.03301  1.0000
  C   C83       1.0  0.04743  0.30070  0.00383  1.0000
  H   H111      1.0  0.14071  0.42054  0.01675  1.0000
  H   H112      1.0  0.03967  0.48841  0.19444  1.0000
  H   H113      1.0  0.00376  0.42454  0.12741  1.0000
  H   H114      1.0  0.17386  0.48197  0.05800  1.0000
  H   H115      1.0  0.00247  0.07490  0.17753  1.0000
  H   H116      1.0  0.10269  0.16888  0.19447  1.0000
  H   H117      1.0  0.22267  0.11141  0.03405  1.0000
  H   H118      1.0  0.18036  0.37317  0.01491  1.0000
  C   C84       1.0  0.03786  0.44496  0.08448  1.0000
  H   H119      1.0  0.18116  0.39315  0.00115  1.0000
  N   N4        1.0  0.08158  0.14401  0.19453  1.0000
  H   H120      1.0  0.21038  0.38288  0.03421  1.0000
  C   C85       1.0  0.14601  0.00300  0.08179  1.0000
  H   H121      1.0  0.03437  0.45885  0.08361  1.0000
  C   C86       1.0  0.12707  0.17539  0.99177  1.0000
  H   H122      1.0  0.10547  0.12330  0.99774  1.0000
  Fe  Fe23      1.0  0.14360  0.47169  0.05704  1.0000
  H   H123      1.0  0.11801  0.15606  0.09276  1.0000
  N   N5        1.0  0.08296  0.00301  0.15188  1.0000
  C   C87       1.0  0.23701  0.48162  0.01753  1.0000
  S   S42       1.0  0.03569  0.40069  0.99741  1.0000
  H   H124      1.0  0.22609  0.47591  0.99897  1.0000
  H   H125      1.0  0.16025  0.04731  0.04672  1.0000
  C   C88       1.0  0.22787  0.01323  0.05346  1.0000
  C   C89       1.0  0.11177  0.15197  0.10611  1.0000
  S   S43       1.0  0.11973  0.46181  0.06915  1.0000
  C   C90       1.0  0.23030  0.03567  0.08684  1.0000
  H   H126      1.0  0.07192  0.43713  0.06674  1.0000
  H   H127      1.0  0.08322  0.16098  0.21954  1.0000
  C   C91       1.0  0.03004  0.16655  0.13454  1.0000
  H   H128      1.0  0.10956  0.15089  0.07275  1.0000
  H   H129      1.0  0.10336  0.16328  0.11071  1.0000
  H   H130      1.0  0.08267  0.03782  0.15488  1.0000
  C   C92       1.0  0.16454  0.02213  0.06353  1.0000
  H   H131      1.0  0.06351  0.11353  0.11687  1.0000
  H   H132      1.0  0.21655  0.14627  0.98840  1.0000
  H   H133      1.0  0.10999  0.12553  0.11214  1.0000
  H   H134      1.0  0.15861  0.36916  0.05937  1.0000
  C   C93       1.0  0.06648  0.40931  0.09133  1.0000
  H   H135      1.0  0.17638  0.01263  0.06553  1.0000
  H   H136      1.0  0.10056  0.00963  0.12826  1.0000
  H   H137      1.0  0.09375  0.11251  0.10168  1.0000
  H   H138      1.0  0.06177  0.34709  0.99900  1.0000
  C   C94       1.0  0.08233  0.12921  0.18724  1.0000
  H   H139      1.0  0.15936  0.36355  0.03993  1.0000
  H   H140      1.0  0.20145  0.99244  0.10076  1.0000
  H   H141      1.0  0.05866  0.29787  0.99367  1.0000
  C   C95       1.0  0.04711  0.11452  0.22832  1.0000
  H   H142      1.0  0.08675  0.16685  0.08852  1.0000
  C   C96       1.0  0.08424  0.12468  0.09970  1.0000
  H   H143      1.0  0.05998  0.13566  0.11564  1.0000
  C   C97       1.0  0.09956  0.11618  0.18539  1.0000
  H   H144      1.0  0.06825  0.09570  0.21882  1.0000
  H   H145      1.0  0.13694  0.18310  0.98805  1.0000
  H   H146      1.0  0.22850  0.00017  0.09222  1.0000
  H   H147      1.0  0.07994  0.40186  0.08933  1.0000
  H   H148      1.0  0.23904  0.03260  0.05557  1.0000
  C   C98       1.0  0.08006  0.15611  0.09324  1.0000
  H   H149      1.0  0.06085  0.39528  0.07621  1.0000
  H   H150      1.0  0.05809  0.43163  0.18979  1.0000
  H   H151      1.0  0.05401  0.02285  0.12506  1.0000
  H   H152      1.0  0.18093  0.05323  0.08448  1.0000
  H   H153      1.0  0.14942  0.48575  0.09235  1.0000
  C   C99       1.0  0.01001  0.41451  0.12068  1.0000
  H   H154      1.0  0.07560  0.15750  0.06820  1.0000
  H   H155      1.0  0.21601  0.02089  0.04934  1.0000
  H   H156      1.0  0.16437  0.41915  0.03260  1.0000
  C   C100      1.0  0.20091  0.38991  0.02626  1.0000
  C   C101      1.0  0.16705  0.41344  0.02142  1.0000
  H   H157      1.0  0.04461  0.44264  0.07185  1.0000
  S   S44       1.0  0.03683  0.11935  0.21133  1.0000
  H   H158      1.0  0.17002  0.03032  0.03558  1.0000
  H   H159      1.0  0.24780  0.40061  0.09374  1.0000
  H   H160      1.0  0.09808  0.10577  0.18051  1.0000
  H   H161      1.0  0.01093  0.28623  0.03222  1.0000
  C   C102      1.0  0.06995  0.12386  0.11579  1.0000
  C   C103      1.0  0.23412  0.10606  0.03906  1.0000
  H   H162      1.0  0.08778  0.14069  0.00032  1.0000
  C   C104      1.0  0.10157  0.13822  0.10900  1.0000
  H   H163      1.0  0.24696  0.01292  0.09922  1.0000
  H   H164      1.0  0.03190  0.17327  0.14293  1.0000
  H   H165      1.0  0.18006  0.99061  0.05564  1.0000
  H   H166      1.0  0.05321  0.15022  0.17734  1.0000
  C   C105      1.0  0.10540  0.13872  0.07852  1.0000
  C   C106      1.0  0.09312  0.15478  0.18189  1.0000
  C   C107      1.0  0.19349  0.04761  0.08817  1.0000
  H   H167      1.0  0.11851  0.11180  0.08328  1.0000
  H   H168      1.0  0.08855  0.41743  0.10474  1.0000
  H   H169      1.0  0.23383  0.07830  0.02093  1.0000
  H   H170      1.0  0.07880  0.12430  0.08916  1.0000
  H   H171      1.0  0.04724  0.44592  0.10553  1.0000
  H   H172      1.0  0.08092  0.17819  0.19192  1.0000
  C   C108      1.0  0.02097  0.44625  0.22253  1.0000
  H   H173      1.0  0.10663  0.14755  0.18011  1.0000
  H   H174      1.0  0.23253  0.04778  0.07795  1.0000
  H   H175      1.0  0.17226  0.99063  0.08596  1.0000
  H   H176      1.0  0.11914  0.01451  0.05561  1.0000
  H   H177      1.0  0.06020  0.17160  0.08004  1.0000
  C   C109      1.0  0.04770  0.43603  0.09881  1.0000
  C   C110      1.0  0.06829  0.15861  0.08107  1.0000
  H   H178      1.0  0.20478  0.38483  0.01465  1.0000
  N   N6        1.0  0.16855  0.39454  0.02699  1.0000
  C   C111      1.0  0.21730  0.01109  0.09262  1.0000
  H   H179      1.0  0.07522  0.12076  0.12726  1.0000
  C   C112      1.0  0.12162  0.12447  0.07898  1.0000
  H   H180      1.0  0.09925  0.13700  0.06911  1.0000
  H   H181      1.0  0.14254  0.01059  0.09166  1.0000
  C   C113      1.0  0.07597  0.32174  0.00336  1.0000
  C   C114      1.0  0.15256  0.37248  0.04833  1.0000
  H   H182      1.0  0.06267  0.99220  0.16991  1.0000
  H   H183      1.0  0.01678  0.34800  0.01354  1.0000
  C   C115      1.0  0.06228  0.01142  0.13134  1.0000
  C   C116      1.0  0.06610  0.44066  0.18863  1.0000
  H   H184      1.0  0.09596  0.98936  0.13197  1.0000
  H   H185      1.0  0.02557  0.00108  0.18374  1.0000
  H   H186      1.0  0.07511  0.02774  0.13618  1.0000
  C   C117      1.0  0.05486  0.16049  0.18227  1.0000
  H   H187      1.0  0.14506  0.99518  0.05452  1.0000
  H   H188      1.0  0.24565  0.01213  0.06771  1.0000
  C   C118      1.0  0.08812  0.48760  0.16565  1.0000
  C   C119      1.0  0.11767  0.02309  0.06405  1.0000
  H   H189      1.0  0.23775  0.05697  0.01761  1.0000
  C   C120      1.0  0.15352  0.42335  0.01094  1.0000
  C   C121      1.0  0.08100  0.14799  0.22436  1.0000
  H   H190      1.0  0.11227  0.01724  0.07724  1.0000
  H   H191      1.0  0.08523  0.32426  0.99118  1.0000
  H   H192      1.0  0.03067  0.32133  0.01397  1.0000
  H   H193      1.0  0.13470  0.99773  0.08325  1.0000
  C   C122      1.0  0.11277  0.14760  0.98810  1.0000
  H   H194      1.0  0.07493  0.30839  0.00668  1.0000
  C   C123      1.0  0.02456  0.35668  0.00438  1.0000
  H   H195      1.0  0.00900  0.20290  0.03978  1.0000
  H   H196      1.0  0.17922  0.00096  0.03396  1.0000
  H   H197      1.0  0.06131  0.16430  0.20360  1.0000
  H   H198      1.0  0.07237  0.12208  0.19505  1.0000
  H   H199      1.0  0.03272  0.36004  0.01082  1.0000
  H   H200      1.0  0.06539  0.41502  0.06426  1.0000
  H   H201      1.0  0.12954  0.12503  0.06601  1.0000
  C   C124      1.0  0.00600  0.41526  0.10531  1.0000
  H   H202      1.0  0.05198  0.46047  0.17242  1.0000
  H   H203      1.0  0.18956  0.01354  0.09535  1.0000
  C   C125      1.0  0.18288  0.38756  0.03647  1.0000
  N   N7        1.0  0.09282  0.13944  0.09514  1.0000
  H   H204      1.0  0.05384  0.00239  0.13804  1.0000
  H   H205      1.0  0.02564  0.14468  0.15419  1.0000
  H   H206      1.0  0.06356  0.46202  0.08233  1.0000
  H   H207      1.0  0.07662  0.47885  0.21863  1.0000
  H   H208      1.0  0.06896  0.37837  0.99239  1.0000
  H   H209      1.0  0.18433  0.37368  0.04142  1.0000
  C   C126      1.0  0.07482  0.42385  0.10813  1.0000
  N   N8        1.0  0.04771  0.33277  0.99215  1.0000
  H   H210      1.0  0.04311  0.45942  0.19417  1.0000
  H   H211      1.0  0.24820  0.12416  0.02174  1.0000
  H   H212      1.0  0.12364  0.99973  0.14052  1.0000
  C   C127      1.0  0.08775  0.13711  0.21089  1.0000
  H   H213      1.0  0.14881  0.39859  0.04919  1.0000
  H   H214      1.0  0.06717  0.14844  0.22992  1.0000
  S   S45       1.0  0.00805  0.40313  0.07770  1.0000
  H   H215      1.0  0.05005  0.05891  0.22395  1.0000
  C   C128      1.0  0.06314  0.15345  0.19777  1.0000
  H   H216      1.0  0.11591  0.18188  0.00009  1.0000
  C   C129      1.0  0.05894  0.40874  0.07677  1.0000
  H   H217      1.0  0.00595  0.08485  0.23207  1.0000
  H   H218      1.0  0.10356  0.02632  0.14585  1.0000
  C   C130      1.0  0.13454  0.02833  0.06247  1.0000
  C   C131      1.0  0.02661  0.15031  0.14091  1.0000
  H   H219      1.0  0.00052  0.38464  0.18016  1.0000
  C   C132      1.0  0.24059  0.06495  0.02454  1.0000
  H   H220      1.0  0.03892  0.29246  0.00410  1.0000
  H   H221      1.0  0.14847  0.39721  0.00280  1.0000
  H   H222      1.0  0.07239  0.00626  0.12129  1.0000
  H   H223      1.0  0.23789  0.01189  0.04180  1.0000
  N   N9        1.0  0.15006  0.01410  0.06448  1.0000
  H   H224      1.0  0.15204  0.43711  0.00990  1.0000
  C   C133      1.0  0.08688  0.01023  0.16458  1.0000
  C   C134      1.0  0.15370  0.00423  0.05090  1.0000
  C   C135      1.0  0.05859  0.33436  0.00310  1.0000
  H   H225      1.0  0.18222  0.03711  0.04594  1.0000
  C   C136      1.0  0.11566  0.99017  0.14380  1.0000
  H   H226      1.0  0.20277  0.00253  0.07914  1.0000
  C   C137      1.0  0.24858  0.11325  0.03211  1.0000
  H   H227      1.0  0.19815  0.05820  0.08964  1.0000
  H   H228      1.0  0.17926  0.41661  0.01347  1.0000
  C   C138      1.0  0.06257  0.10264  0.22877  1.0000
  C   C139      1.0  0.09337  0.02684  0.15743  1.0000
  H   H229      1.0  0.09810  0.48678  0.15389  1.0000
  H   H230      1.0  0.00117  0.00193  0.23378  1.0000
  H   H231      1.0  0.09216  0.48810  0.41051  1.0000
  Fe  Fe24      1.0  0.06326  0.10083  0.33255  1.0000
  S   S46       1.0  0.07407  0.12112  0.31223  1.0000
  S   S47       1.0  0.07551  0.08237  0.35321  1.0000
  Fe  Fe25      1.0  0.02929  0.11078  0.32159  1.0000
  S   S48       1.0  0.03713  0.13185  0.30058  1.0000
  C   C140      1.0  0.01172  0.37986  0.45627  1.0000
  Fe  Fe26      1.0  0.06200  0.11319  0.29541  1.0000
  S   S49       1.0  0.07591  0.10728  0.26984  1.0000
  Fe  Fe27      1.0  0.04812  0.13780  0.31933  1.0000
  S   S50       1.0  0.03940  0.16397  0.32493  1.0000
  S   S51       1.0  0.05327  0.09155  0.31533  1.0000
  S   S52       1.0  0.03826  0.11804  0.34072  1.0000
  Fe  Fe28      1.0  0.03418  0.21986  0.41174  1.0000
  S   S53       1.0  0.06185  0.21994  0.39966  1.0000
  S   S54       1.0  0.01440  0.24462  0.41152  1.0000
  Fe  Fe29      1.0  0.04183  0.18125  0.42452  1.0000
  S   S55       1.0  0.06980  0.17923  0.41387  1.0000
  S   S56       1.0  0.03295  0.15742  0.43964  1.0000
  Fe  Fe30      1.0  0.06661  0.20211  0.42391  1.0000
  S   S57       1.0  0.08490  0.20291  0.43893  1.0000
  Fe  Fe31      1.0  0.06162  0.19703  0.39094  1.0000
  S   S58       1.0  0.07651  0.19041  0.36595  1.0000
  S   S59       1.0  0.03900  0.20288  0.43638  1.0000
  S   S60       1.0  0.03349  0.19814  0.40119  1.0000
  Fe  Fe32      1.0  0.14300  0.06163  0.42773  1.0000
  S   S61       1.0  0.15856  0.07808  0.40714  1.0000
  S   S62       1.0  0.15248  0.03327  0.43157  1.0000
  Fe  Fe33      1.0  0.11792  0.09167  0.44039  1.0000
  S   S63       1.0  0.13139  0.11049  0.42100  1.0000
  S   S64       1.0  0.09491  0.09881  0.46054  1.0000
  Fe  Fe34      1.0  0.13302  0.09428  0.40314  1.0000
  S   S65       1.0  0.12839  0.10714  0.37713  1.0000
  Fe  Fe35      1.0  0.15569  0.09269  0.42669  1.0000
  S   S66       1.0  0.17589  0.10312  0.43149  1.0000
  S   S67       1.0  0.11754  0.07678  0.42223  1.0000
  S   S68       1.0  0.14206  0.07499  0.44776  1.0000
  H   H232      1.0  0.02906  0.29384  0.47043  1.0000
  H   H233      1.0  0.05134  0.09223  0.42228  1.0000
  H   H234      1.0  0.12156  0.20472  0.37446  1.0000
  C   C141      1.0  0.11671  0.00342  0.47284  1.0000
  Fe  Fe36      1.0  0.12266  0.46086  0.36458  1.0000
  S   S69       1.0  0.13891  0.43655  0.35787  1.0000
  H   H235      1.0  0.01889  0.37294  0.44608  1.0000
  Fe  Fe37      1.0  0.12548  0.44930  0.40095  1.0000
  S   S70       1.0  0.14131  0.42369  0.39772  1.0000
  S   S71       1.0  0.11731  0.45624  0.42625  1.0000
  Fe  Fe38      1.0  0.15562  0.43817  0.37412  1.0000
  S   S72       1.0  0.18446  0.42982  0.36788  1.0000
  Fe  Fe39      1.0  0.12335  0.42417  0.38198  1.0000
  S   S73       1.0  0.11562  0.40041  0.38224  1.0000
  S   S74       1.0  0.14087  0.46381  0.37845  1.0000
  S   S75       1.0  0.10593  0.44838  0.38761  1.0000
  C   C142      1.0  0.03019  0.44253  0.23520  1.0000
  H   H236      1.0  0.24484  0.14271  0.43857  1.0000
  Fe  Fe40      1.0  0.05386  0.47066  0.29435  1.0000
  S   S76       1.0  0.03240  0.47907  0.31508  1.0000
  S   S77       1.0  0.08053  0.45814  0.29811  1.0000
  Fe  Fe41      1.0  0.01720  0.46718  0.30518  1.0000
  S   S78       1.0  0.03909  0.45709  0.28565  1.0000
  Fe  Fe42      1.0  0.03277  0.36879  0.40827  1.0000
  S   S79       1.0  0.04744  0.35335  0.38896  1.0000
  S   S80       1.0  0.04203  0.38614  0.41843  1.0000
  S   S81       1.0  0.01107  0.34376  0.39067  1.0000
  Fe  Fe43      1.0  0.03231  0.33375  0.40469  1.0000
  S   S82       1.0  0.04521  0.30613  0.41161  1.0000
  Fe  Fe44      1.0  0.02483  0.36468  0.37669  1.0000
  S   S83       1.0  0.02812  0.37432  0.34853  1.0000
  C   C143      1.0  0.01972  0.39603  0.34178  1.0000
  C   C144      1.0  0.02705  0.40467  0.32588  1.0000
  C   C145      1.0  0.02087  0.42210  0.32043  1.0000
  H   H237      1.0  0.03769  0.39791  0.31787  1.0000
  H   H238      1.0  0.02665  0.42861  0.30818  1.0000
  C   C146      1.0  0.10055  0.47558  0.33443  1.0000
  C   C147      1.0  0.11069  0.46274  0.32619  1.0000
  C   C148      1.0  0.10439  0.45748  0.31509  1.0000
  C   C149      1.0  0.08784  0.46487  0.31234  1.0000
  C   C150      1.0  0.07757  0.47757  0.32074  1.0000
  C   C151      1.0  0.17762  0.41239  0.45694  1.0000
  H   H239      1.0  0.12355  0.45706  0.32810  1.0000
  H   H240      1.0  0.11241  0.44767  0.30860  1.0000
  H   H241      1.0  0.12558  0.17713  0.47102  1.0000
  H   H242      1.0  0.03649  0.08618  0.25480  1.0000
  C   C152      1.0  0.09511  0.39678  0.39248  1.0000
  C   C153      1.0  0.08299  0.40813  0.40147  1.0000
  C   C154      1.0  0.06676  0.40468  0.40959  1.0000
  C   C155      1.0  0.06254  0.39001  0.40852  1.0000
  C   C156      1.0  0.07470  0.37866  0.39959  1.0000
  C   C157      1.0  0.09096  0.38201  0.39167  1.0000
  H   H243      1.0  0.08612  0.41955  0.40214  1.0000
  H   H244      1.0  0.05737  0.41349  0.41652  1.0000
  H   H245      1.0  0.07165  0.36722  0.39889  1.0000
  H   H246      1.0  0.10036  0.37313  0.38482  1.0000
  C   C158      1.0  0.13230  0.46287  0.43275  1.0000
  C   C159      1.0  0.14382  0.47221  0.42129  1.0000
  H   H247      1.0  0.13410  0.41074  0.43953  1.0000
  C   C160      1.0  0.15564  0.47329  0.44432  1.0000
  C   C161      1.0  0.14437  0.46365  0.45558  1.0000
  C   C162      1.0  0.13248  0.45884  0.44991  1.0000
  H   H248      1.0  0.03507  0.23687  0.47031  1.0000
  H   H249      1.0  0.24476  0.01934  0.40231  1.0000
  H   H250      1.0  0.08326  0.09127  0.24194  1.0000
  H   H251      1.0  0.06061  0.10937  0.47813  1.0000
  H   H252      1.0  0.07796  0.00187  0.38541  1.0000
  H   H253      1.0  0.04067  0.13388  0.41378  1.0000
  H   H254      1.0  0.03952  0.45263  0.25100  1.0000
  C   C163      1.0  0.22029  0.45885  0.37513  1.0000
  C   C164      1.0  0.22684  0.44362  0.36968  1.0000
  C   C165      1.0  0.21568  0.43489  0.36752  1.0000
  C   C166      1.0  0.19791  0.44126  0.37084  1.0000
  C   C167      1.0  0.19132  0.45637  0.37656  1.0000
  C   C168      1.0  0.20250  0.46517  0.37865  1.0000
  C   C169      1.0  0.07183  0.13532  0.36797  1.0000
  H   H255      1.0  0.22085  0.42319  0.36312  1.0000
  H   H256      1.0  0.17766  0.46134  0.37922  1.0000
  C   C170      1.0  0.11682  0.16955  0.47038  1.0000
  C   C171      1.0  0.19751  0.09557  0.42232  1.0000
  C   C172      1.0  0.20187  0.08540  0.41054  1.0000
  C   C173      1.0  0.21914  0.07894  0.40391  1.0000
  C   C174      1.0  0.23220  0.08251  0.40904  1.0000
  C   C175      1.0  0.12858  0.12441  0.46218  1.0000
  C   C176      1.0  0.21058  0.09936  0.42733  1.0000
  H   H257      1.0  0.19197  0.08257  0.40642  1.0000
  H   H258      1.0  0.22235  0.07128  0.39463  1.0000
  H   H259      1.0  0.03453  0.27227  0.48254  1.0000
  H   H260      1.0  0.20729  0.10729  0.43639  1.0000
  C   C177      1.0  0.02265  0.26194  0.41157  1.0000
  C   C178      1.0  0.01272  0.27855  0.40899  1.0000
  C   C179      1.0  0.01942  0.29235  0.40879  1.0000
  C   C180      1.0  0.03613  0.28957  0.41109  1.0000
  C   C181      1.0  0.04592  0.27299  0.41369  1.0000
  C   C182      1.0  0.03917  0.25927  0.41417  1.0000
  H   H261      1.0  0.13507  0.12887  0.44889  1.0000
  H   H262      1.0  0.01169  0.30506  0.40686  1.0000
  H   H263      1.0  0.05887  0.27072  0.41526  1.0000
  H   H264      1.0  0.04682  0.24660  0.41658  1.0000
  C   C183      1.0  0.05024  0.14088  0.44497  1.0000
  C   C184      1.0  0.07776  0.11469  0.45405  1.0000
  C   C185      1.0  0.07959  0.12498  0.43783  1.0000
  C   C186      1.0  0.06587  0.13812  0.43337  1.0000
  H   H265      1.0  0.09158  0.12291  0.42880  1.0000
  H   H266      1.0  0.06725  0.14591  0.42086  1.0000
  C   C187      1.0  0.05002  0.17035  0.33679  1.0000
  C   C188      1.0  0.04027  0.17940  0.34919  1.0000
  C   C189      1.0  0.04829  0.18543  0.35831  1.0000
  C   C190      1.0  0.06613  0.18283  0.35479  1.0000
  C   C191      1.0  0.07591  0.17402  0.34218  1.0000
  C   C192      1.0  0.06788  0.16762  0.33331  1.0000
  H   H267      1.0  0.02644  0.18189  0.35165  1.0000
  H   H268      1.0  0.04062  0.19255  0.36765  1.0000
  H   H269      1.0  0.08971  0.17206  0.33928  1.0000
  H   H270      1.0  0.07547  0.16094  0.32353  1.0000
  C   C193      1.0  0.09142  0.08846  0.35884  1.0000
  C   C194      1.0  0.09772  0.10278  0.34943  1.0000
  C   C195      1.0  0.10948  0.10813  0.35488  1.0000
  C   C196      1.0  0.11487  0.09925  0.36983  1.0000
  C   C197      1.0  0.10897  0.08463  0.37897  1.0000
  C   C198      1.0  0.09726  0.07925  0.37348  1.0000
  H   H271      1.0  0.09338  0.10990  0.33807  1.0000
  H   H272      1.0  0.11409  0.11938  0.34767  1.0000
  H   H273      1.0  0.11341  0.07743  0.39023  1.0000
  H   H274      1.0  0.09242  0.06817  0.38083  1.0000
  H   H275      1.0  0.03383  0.05057  0.25390  1.0000
  C   C199      1.0  0.07378  0.21262  0.45600  1.0000
  C   C200      1.0  0.02601  0.08054  0.26382  1.0000
  C   C201      1.0  0.13935  0.02226  0.42748  1.0000
  C   C202      1.0  0.12202  0.02944  0.42775  1.0000
  C   C203      1.0  0.11146  0.02019  0.42542  1.0000
  H   H276      1.0  0.11661  0.04197  0.43016  1.0000
  H   H277      1.0  0.09803  0.02579  0.42579  1.0000
  H   H278      1.0  0.13398  0.01353  0.34780  1.0000
  H   H279      1.0  0.02138  0.27723  0.46773  1.0000
  C   C204      1.0  0.05796  0.12483  0.37420  1.0000
  C   C205      1.0  0.23511  0.48821  0.41350  1.0000
  H   H280      1.0  0.10432  0.19466  0.38595  1.0000
  H   H281      1.0  0.00492  0.35129  0.46191  1.0000
  H   H282      1.0  0.02325  0.07663  0.31979  1.0000
  H   H283      1.0  0.15316  0.02947  0.47040  1.0000
  H   H284      1.0  0.07644  0.13646  0.35415  1.0000
  C   C206      1.0  0.04822  0.12067  0.25459  1.0000
  C   C207      1.0  0.06401  0.10928  0.25472  1.0000
  H   H285      1.0  0.05410  0.11044  0.42793  1.0000
  H   H286      1.0  0.08412  0.29827  0.46423  1.0000
  H   H287      1.0  0.21029  0.42849  0.44703  1.0000
  H   H288      1.0  0.04273  0.12785  0.26437  1.0000
  H   H289      1.0  0.99990  0.28077  0.40701  1.0000
  S   S84       1.0  0.01943  0.34832  0.42513  1.0000
  C   C208      1.0  0.24073  0.47973  0.43032  1.0000
  C   C209      1.0  0.13808  0.17035  0.34639  1.0000
  H   H290      1.0  0.18055  0.06438  0.43744  1.0000
  H   H291      1.0  0.24236  0.11455  0.47942  1.0000
  C   C210      1.0  0.01601  0.09405  0.27414  1.0000
  H   H292      1.0  0.09288  0.15672  0.46539  1.0000
  C   C211      1.0  0.10278  0.14668  0.45975  1.0000
  H   H293      1.0  0.07032  0.42345  0.46100  1.0000
  H   H294      1.0  0.08852  0.36950  0.45836  1.0000
  H   H295      1.0  0.21066  0.05884  0.44136  1.0000
  C   C212      1.0  0.04591  0.13683  0.39996  1.0000
  H   H296      1.0  0.09629  0.05814  0.33421  1.0000
  H   H297      1.0  0.09077  0.05073  0.31901  1.0000
  H   H298      1.0  0.24053  0.43864  0.36699  1.0000
  H   H299      1.0  0.99977  0.39815  0.36404  1.0000
  C   C213      1.0  0.14290  0.11407  0.47161  1.0000
  H   H300      1.0  0.14201  0.17931  0.37307  1.0000
  H   H301      1.0  0.03623  0.42955  0.23987  1.0000
  H   H302      1.0  0.24118  0.16580  0.47505  1.0000
  H   H303      1.0  0.23791  0.09561  0.42474  1.0000
  C   C214      1.0  0.24289  0.12066  0.46588  1.0000
  Fe  Fe45      1.0  0.03140  0.48217  0.26856  1.0000
  H   H304      1.0  0.10373  0.14143  0.37765  1.0000
  H   H305      1.0  0.08773  0.14194  0.23494  1.0000
  C   C215      1.0  0.15528  0.47771  0.42712  1.0000
  C   C216      1.0  0.19232  0.41070  0.44127  1.0000
  H   H306      1.0  0.12366  0.00102  0.36581  1.0000
  C   C217      1.0  0.04833  0.13023  0.46099  1.0000
  C   C218      1.0  0.07058  0.27027  0.47251  1.0000
  H   H307      1.0  0.13842  0.14562  0.39868  1.0000
  N   N10       1.0  0.19633  0.05286  0.46701  1.0000
  H   H308      1.0  0.11181  0.40337  0.42154  1.0000
  H   H309      1.0  0.16564  0.13394  0.38238  1.0000
  C   C219      1.0  0.10621  0.41415  0.44987  1.0000
  H   H310      1.0  0.01188  0.10641  0.26581  1.0000
  H   H311      1.0  0.10884  0.13208  0.39820  1.0000
  H   H312      1.0  0.07124  0.25178  0.43828  1.0000
  C   C220      1.0  0.00696  0.43084  0.33062  1.0000
  H   H313      1.0  0.10219  0.35839  0.47257  1.0000
  C   C221      1.0  0.06960  0.41059  0.46060  1.0000
  C   C222      1.0  0.02841  0.06209  0.24508  1.0000
  H   H314      1.0  0.09522  0.02302  0.46552  1.0000
  H   H315      1.0  0.05347  0.06922  0.23816  1.0000
  H   H316      1.0  0.14996  0.17051  0.34974  1.0000
  S   S85       1.0  0.17029  0.47956  0.45171  1.0000
  H   H317      1.0  0.09857  0.16470  0.43640  1.0000
  C   C223      1.0  0.12348  0.99517  0.34270  1.0000
  H   H318      1.0  0.13533  0.14715  0.47768  1.0000
  H   H319      1.0  0.11921  0.04074  0.35501  1.0000
  H   H320      1.0  0.14382  0.47530  0.40802  1.0000
  C   C224      1.0  0.19018  0.02280  0.47981  1.0000
  C   C225      1.0  0.12933  0.17716  0.38056  1.0000
  H   H321      1.0  0.01993  0.34188  0.33737  1.0000
  S   S86       1.0  0.23396  0.47005  0.37802  1.0000
  N   N11       1.0  0.05120  0.12101  0.39301  1.0000
  H   H322      1.0  0.08843  0.14532  0.39623  1.0000
  H   H323      1.0  0.01729  0.38156  0.47985  1.0000
  C   C226      1.0  0.05721  0.22251  0.45619  1.0000
  H   H324      1.0  0.07456  0.28147  0.42946  1.0000
  H   H325      1.0  0.22333  0.02346  0.47311  1.0000
  H   H326      1.0  0.23008  0.41508  0.42902  1.0000
  H   H327      1.0  0.20396  0.40316  0.44609  1.0000
  C   C227      1.0  0.17986  0.43790  0.42378  1.0000
  C   C228      1.0  0.17066  0.42938  0.41598  1.0000
  H   H328      1.0  0.24796  0.48737  0.43340  1.0000
  H   H329      1.0  0.07170  0.09315  0.42464  1.0000
  H   H330      1.0  0.15173  0.12189  0.47150  1.0000
  H   H331      1.0  0.08489  0.24674  0.45327  1.0000
  H   H332      1.0  0.16529  0.41896  0.42522  1.0000
  H   H333      1.0  0.07161  0.09841  0.39447  1.0000
  C   C229      1.0  0.13554  0.99655  0.42220  1.0000
  C   C230      1.0  0.10851  0.15937  0.38992  1.0000
  H   H334      1.0  0.18962  0.40255  0.43432  1.0000
  H   H335      1.0  0.00500  0.16950  0.31676  1.0000
  H   H336      1.0  0.12672  0.39006  0.43380  1.0000
  S   S87       1.0  0.01131  0.38157  0.39480  1.0000
  H   H337      1.0  0.21124  0.43484  0.40481  1.0000
  H   H338      1.0  0.20529  0.41575  0.40782  1.0000
  C   C231      1.0  0.10796  0.03504  0.36202  1.0000
  H   H339      1.0  0.01529  0.41718  0.27972  1.0000
  C   C232      1.0  0.03911  0.09661  0.39112  1.0000
  H   H340      1.0  0.11946  0.37504  0.41682  1.0000
  H   H341      1.0  0.09322  0.25233  0.43115  1.0000
  C   C233      1.0  0.00579  0.40477  0.35196  1.0000
  H   H342      1.0  0.04972  0.26219  0.45684  1.0000
  C   C234      1.0  0.22790  0.09275  0.42079  1.0000
  H   H343      1.0  0.07569  0.11539  0.40011  1.0000
  H   H344      1.0  0.12120  0.11554  0.46140  1.0000
  H   H345      1.0  0.12359  0.45168  0.45885  1.0000
  C   C235      1.0  0.00619  0.06416  0.31485  1.0000
  H   H346      1.0  0.05183  0.30436  0.46266  1.0000
  H   H347      1.0  0.05864  0.30497  0.44107  1.0000
  C   C236      1.0  0.06529  0.10894  0.40117  1.0000
  H   H348      1.0  0.15492  0.00005  0.48364  1.0000
  H   H349      1.0  0.13001  0.17602  0.39386  1.0000
  H   H350      1.0  0.21133  0.45881  0.43667  1.0000
  C   C237      1.0  0.11611  0.19362  0.37584  1.0000
  N   N12       1.0  0.06719  0.41862  0.34621  1.0000
  C   C238      1.0  0.06878  0.40697  0.33478  1.0000
  C   C239      1.0  0.06169  0.40917  0.36403  1.0000
  C   C240      1.0  0.08476  0.42181  0.34395  1.0000
  C   C241      1.0  0.05458  0.43487  0.34131  1.0000
  C   C242      1.0  0.07432  0.41394  0.31565  1.0000
  C   C243      1.0  0.04419  0.40429  0.36827  1.0000
  C   C244      1.0  0.08642  0.43331  0.35455  1.0000
  C   C245      1.0  0.04610  0.44577  0.35474  1.0000
  H   H351      1.0  0.07794  0.39476  0.33814  1.0000
  H   H352      1.0  0.05635  0.40354  0.33642  1.0000
  H   H353      1.0  0.06129  0.41616  0.37353  1.0000
  H   H354      1.0  0.07135  0.39723  0.36682  1.0000
  H   H355      1.0  0.09412  0.40959  0.34672  1.0000
  H   H356      1.0  0.08959  0.42791  0.33068  1.0000
  H   H357      1.0  0.06078  0.44309  0.32985  1.0000
  H   H358      1.0  0.04388  0.43212  0.33762  1.0000
  H   H359      1.0  0.06567  0.42600  0.31113  1.0000
  H   H360      1.0  0.08774  0.41550  0.31193  1.0000
  H   H361      1.0  0.07367  0.40468  0.30876  1.0000
  H   H362      1.0  0.03412  0.41468  0.36338  1.0000
  H   H363      1.0  0.04524  0.39291  0.36349  1.0000
  H   H364      1.0  0.03986  0.40089  0.38217  1.0000
  H   H365      1.0  0.07960  0.44655  0.35059  1.0000
  H   H366      1.0  0.10016  0.43359  0.35233  1.0000
  H   H367      1.0  0.08232  0.42863  0.36827  1.0000
  H   H368      1.0  0.04606  0.45927  0.34863  1.0000
  H   H369      1.0  0.05243  0.44282  0.36542  1.0000
  H   H370      1.0  0.03244  0.44502  0.35968  1.0000
  C   C246      1.0  0.99930  0.42210  0.34630  1.0000
  H   H371      1.0  0.04756  0.13133  0.36722  1.0000
  H   H372      1.0  0.11856  0.03416  0.32823  1.0000
  H   H373      1.0  0.22844  0.15086  0.47829  1.0000
  H   H374      1.0  0.24280  0.11195  0.44342  1.0000
  H   H375      1.0  0.06844  0.25715  0.47594  1.0000
  C   C247      1.0  0.03579  0.11345  0.39670  1.0000
  H   H376      1.0  0.09660  0.04577  0.36208  1.0000
  C   C248      1.0  0.22698  0.41280  0.41802  1.0000
  C   C249      1.0  0.11308  0.39297  0.43294  1.0000
  C   C250      1.0  0.00319  0.06561  0.26762  1.0000
  H   H377      1.0  0.09828  0.48828  0.28135  1.0000
  C   C251      1.0  0.20242  0.04987  0.44928  1.0000
  H   H378      1.0  0.23585  0.03398  0.47924  1.0000
  H   H379      1.0  0.10001  0.99966  0.38429  1.0000
  H   H380      1.0  0.07948  0.04631  0.34051  1.0000
  C   C252      1.0  0.24214  0.10707  0.45712  1.0000
  H   H381      1.0  0.11033  0.14379  0.43348  1.0000
  H   H382      1.0  0.02969  0.11150  0.41038  1.0000
  H   H383      1.0  0.05163  0.22522  0.44536  1.0000
  C   C253      1.0  0.10359  0.38504  0.46420  1.0000
  H   H384      1.0  0.12837  0.40132  0.46195  1.0000
  H   H385      1.0  0.15063  0.10376  0.46507  1.0000
  H   H386      1.0  0.21069  0.03713  0.44886  1.0000
  H   H387      1.0  0.04257  0.09839  0.37718  1.0000
  H   H388      1.0  0.05708  0.14220  0.39887  1.0000
  H   H389      1.0  0.03234  0.06950  0.27250  1.0000
  H   H390      1.0  0.22190  0.44756  0.42022  1.0000
  H   H391      1.0  0.09747  0.02550  0.38887  1.0000
  N   N13       1.0  0.10641  0.02225  0.35329  1.0000
  C   C254      1.0  0.10596  0.03097  0.33513  1.0000
  C   C255      1.0  0.12225  0.00821  0.35301  1.0000
  H   H392      1.0  0.12330  0.00629  0.45936  1.0000
  C   C256      1.0  0.09007  0.01593  0.36140  1.0000
  N   N14       1.0  0.10139  0.39858  0.44848  1.0000
  H   H393      1.0  0.15927  0.14291  0.36280  1.0000
  H   H394      1.0  0.13660  0.15341  0.45581  1.0000
  H   H395      1.0  0.19756  0.01897  0.46791  1.0000
  H   H396      1.0  0.04919  0.08668  0.39658  1.0000
  H   H397      1.0  0.10372  0.02242  0.32832  1.0000
  H   H398      1.0  0.00853  0.34138  0.35855  1.0000
  C   C257      1.0  0.21139  0.05013  0.47502  1.0000
  H   H399      1.0  0.09765  0.37810  0.42749  1.0000
  H   H400      1.0  0.03247  0.15184  0.37921  1.0000
  H   H401      1.0  0.07945  0.02637  0.36543  1.0000
  H   H402      1.0  0.08591  0.01171  0.35201  1.0000
  N   N15       1.0  0.11688  0.13908  0.46941  1.0000
  H   H403      1.0  0.16407  0.48505  0.41827  1.0000
  H   H404      1.0  0.02572  0.12239  0.39026  1.0000
  H   H405      1.0  0.20073  0.46099  0.42018  1.0000
  H   H406      1.0  0.07456  0.31861  0.45335  1.0000
  C   C258      1.0  0.22690  0.03572  0.47093  1.0000
  C   C259      1.0  0.03202  0.45557  0.24152  1.0000
  C   C260      1.0  0.07838  0.30492  0.45314  1.0000
  H   H407      1.0  0.00378  0.00819  0.34547  1.0000
  H   H408      1.0  0.02789  0.13255  0.24113  1.0000
  H   H409      1.0  0.21672  0.06175  0.47132  1.0000
  C   C261      1.0  0.06002  0.10089  0.42006  1.0000
  C   C262      1.0  0.15751  0.14512  0.37560  1.0000
  C   C263      1.0  0.10853  0.15365  0.44065  1.0000
  H   H410      1.0  0.22968  0.10320  0.46257  1.0000
  H   H411      1.0  0.17620  0.09136  0.47960  1.0000
  C   C264      1.0  0.14606  0.00573  0.42483  1.0000
  C   C265      1.0  0.11074  0.37700  0.42904  1.0000
  C   C266      1.0  0.09222  0.04742  0.33231  1.0000
  H   H412      1.0  0.07887  0.39369  0.44361  1.0000
  C   C267      1.0  0.07220  0.21754  0.48355  1.0000
  N   N16       1.0  0.12574  0.16121  0.37865  1.0000
  C   C268      1.0  0.10227  0.14356  0.39039  1.0000
  C   C269      1.0  0.13878  0.14620  0.38523  1.0000
  H   H413      1.0  0.12050  0.01787  0.38251  1.0000
  C   C270      1.0  0.12520  0.16160  0.36078  1.0000
  N   N17       1.0  0.19573  0.42711  0.42969  1.0000
  H   H414      1.0  0.12755  0.00022  0.32898  1.0000
  C   C271      1.0  0.11819  0.00377  0.42257  1.0000
  H   H415      1.0  0.00322  0.42630  0.26381  1.0000
  H   H416      1.0  0.23057  0.47871  0.40984  1.0000
  C   C272      1.0  0.04818  0.27587  0.45601  1.0000
  H   H417      1.0  0.03555  0.37467  0.46455  1.0000
  H   H418      1.0  0.17023  0.44278  0.43431  1.0000
  S   S88       1.0  0.10868  0.48279  0.34771  1.0000
  C   C273      1.0  0.08397  0.48300  0.33168  1.0000
  H   H419      1.0  0.08470  0.26867  0.47057  1.0000
  H   H420      1.0  0.19562  0.07959  0.45719  1.0000
  C   C274      1.0  0.20923  0.45186  0.42822  1.0000
  H   H421      1.0  0.12047  0.15834  0.43728  1.0000
  C   C275      1.0  0.00800  0.33915  0.34642  1.0000
  S   S89       1.0  0.10436  0.99252  0.42011  1.0000
  H   H422      1.0  0.09550  0.13706  0.46069  1.0000
  H   H423      1.0  0.00265  0.00950  0.32436  1.0000
  H   H424      1.0  0.15945  0.00005  0.42467  1.0000
  H   H425      1.0  0.01597  0.05300  0.31265  1.0000
  H   H426      1.0  0.16242  0.15628  0.37502  1.0000
  H   H427      1.0  0.02717  0.09172  0.39542  1.0000
  C   C276      1.0  0.02207  0.37359  0.47031  1.0000
  C   C277      1.0  0.10955  0.02866  0.38059  1.0000
  H   H428      1.0  0.06675  0.14827  0.37030  1.0000
  H   H429      1.0  0.09433  0.20318  0.46937  1.0000
  H   H430      1.0  0.19003  0.44226  0.44839  1.0000
  C   C278      1.0  0.18393  0.04210  0.47788  1.0000
  C   C279      1.0  0.10219  0.01897  0.47598  1.0000
  H   H431      1.0  0.15027  0.00454  0.46326  1.0000
  H   H432      1.0  0.03629  0.13212  0.46997  1.0000
  H   H433      1.0  0.01244  0.43930  0.27163  1.0000
  C   C280      1.0  0.03259  0.28025  0.47011  1.0000
  H   H434      1.0  0.14205  0.16354  0.33590  1.0000
  C   C281      1.0  0.01033  0.07753  0.31882  1.0000
  N   N18       1.0  0.06470  0.27977  0.45639  1.0000
  H   H435      1.0  0.08230  0.41415  0.43443  1.0000
  S   S90       1.0  0.00197  0.10872  0.32714  1.0000
  C   C282      1.0  0.08321  0.40395  0.44600  1.0000
  H   H436      1.0  0.14478  0.45977  0.46869  1.0000
  H   H437      1.0  0.08822  0.30371  0.44138  1.0000
  C   C283      1.0  0.20936  0.42317  0.41452  1.0000
  H   H438      1.0  0.11448  0.36553  0.43863  1.0000
  H   H439      1.0  0.16508  0.41891  0.45361  1.0000
  C   C284      1.0  0.03202  0.15113  0.39259  1.0000
  H   H440      1.0  0.09963  0.39087  0.47543  1.0000
  H   H441      1.0  0.17571  0.07398  0.46022  1.0000
  C   C285      1.0  0.08186  0.25515  0.44135  1.0000
  H   H442      1.0  0.19735  0.47691  0.38293  1.0000
  H   H443      1.0  0.17891  0.42476  0.40473  1.0000
  H   H444      1.0  0.13177  0.18342  0.34095  1.0000
  H   H445      1.0  0.00117  0.99006  0.34001  1.0000
  H   H446      1.0  0.11227  0.16837  0.35831  1.0000
  H   H447      1.0  0.15972  0.43902  0.41169  1.0000
  C   C286      1.0  0.07104  0.10012  0.24189  1.0000
  H   H448      1.0  0.08306  0.12910  0.37371  1.0000
  H   H449      1.0  0.10674  0.03001  0.47627  1.0000
  H   H450      1.0  0.01903  0.14977  0.40006  1.0000
  C   C287      1.0  0.08138  0.21041  0.46959  1.0000
  H   H451      1.0  0.06364  0.11294  0.36955  1.0000
  C   C288      1.0  0.14089  0.02523  0.47552  1.0000
  H   H452      1.0  0.19441  0.04819  0.42741  1.0000
  H   H453      1.0  0.02177  0.05764  0.23785  1.0000
  N   N19       1.0  0.01600  0.07481  0.25475  1.0000
  C   C289      1.0  0.03987  0.12336  0.24137  1.0000
  C   C290      1.0  0.09072  0.00073  0.37669  1.0000
  H   H454      1.0  0.09064  0.27667  0.44129  1.0000
  H   H455      1.0  0.04438  0.28244  0.44381  1.0000
  C   C291      1.0  0.04794  0.22939  0.47023  1.0000
  C   C292      1.0  0.06248  0.29871  0.45337  1.0000
  H   H456      1.0  0.11253  0.19472  0.36380  1.0000
  C   C293      1.0  0.18713  0.07118  0.46576  1.0000
  C   C294      1.0  0.20118  0.43688  0.43915  1.0000
  H   H457      1.0  0.18281  0.44932  0.41415  1.0000
  H   H458      1.0  0.09838  0.17022  0.38589  1.0000
  H   H459      1.0  0.22996  0.47681  0.44092  1.0000
  H   H460      1.0  0.01255  0.39332  0.45099  1.0000
  H   H461      1.0  0.03405  0.16354  0.39292  1.0000
  H   H462      1.0  0.12707  0.14850  0.35902  1.0000
  H   H463      1.0  0.11125  0.99118  0.34509  1.0000
  H   H464      1.0  0.07060  0.40205  0.47301  1.0000
  C   C295      1.0  0.18830  0.05134  0.43995  1.0000
  H   H465      1.0  0.23720  0.41654  0.40704  1.0000
  H   H466      1.0  0.17984  0.04236  0.44669  1.0000
  H   H467      1.0  0.10823  0.15955  0.40314  1.0000
  H   H468      1.0  0.13580  0.13420  0.38505  1.0000
  C   C296      1.0  0.06210  0.11734  0.46559  1.0000
  C   C297      1.0  0.07809  0.27412  0.44166  1.0000
  H   H469      1.0  0.00070  0.04592  0.25632  1.0000
  H   H470      1.0  0.11184  0.03901  0.38496  1.0000
  H   H471      1.0  0.23447  0.04111  0.39776  1.0000
  H   H472      1.0  0.00831  0.32561  0.34765  1.0000
  H   H473      1.0  0.23060  0.13011  0.46539  1.0000
  C   C298      1.0  0.14455  0.00608  0.47646  1.0000
  H   H474      1.0  0.11018  0.99318  0.47374  1.0000
  H   H475      1.0  0.12583  0.42359  0.45469  1.0000
  H   H476      1.0  0.11738  0.37888  0.46354  1.0000
  H   H477      1.0  0.09795  0.41898  0.46108  1.0000
  H   H478      1.0  0.01111  0.16676  0.47124  1.0000
  H   H479      1.0  0.23687  0.16159  0.45709  1.0000
  C   C299      1.0  0.24697  0.03236  0.39907  1.0000
  Fe  Fe46      1.0  0.99928  0.35990  0.40982  1.0000
  C   C300      1.0  0.09362  0.37076  0.46862  1.0000
  H   H480      1.0  0.10403  0.42468  0.43878  1.0000
  C   C301      1.0  0.12723  0.15178  0.46808  1.0000
  C   C302      1.0  0.00787  0.08948  0.24245  1.0000
  H   H481      1.0  0.17145  0.04607  0.47390  1.0000
  H   H482      1.0  0.05665  0.41163  0.45862  1.0000
  H   H483      1.0  0.24643  0.98951  0.45885  1.0000
  C   C303      1.0  0.23966  0.15569  0.46976  1.0000
  H   H484      1.0  0.02465  0.09610  0.28105  1.0000
  C   C304      1.0  0.12476  0.41198  0.45157  1.0000
  H   H485      1.0  0.22771  0.39904  0.41997  1.0000
  C   C305      1.0  0.02467  0.47237  0.23513  1.0000
  H   H486      1.0  0.11077  0.17644  0.45950  1.0000
  H   H487      1.0  0.17629  0.39954  0.46445  1.0000
  C   C306      1.0  0.00594  0.42861  0.27503  1.0000
  H   H488      1.0  0.18031  0.41897  0.46533  1.0000
  H   H489      1.0  0.00495  0.09022  0.28378  1.0000
  H   H490      1.0  0.00978  0.05522  0.27665  1.0000
  H   H491      1.0  0.02240  0.36012  0.47656  1.0000
  H   H492      1.0  0.23411  0.03906  0.45773  1.0000
  H   H493      1.0  0.06485  0.48345  0.31860  1.0000
  Fe  Fe47      1.0  0.17034  0.46734  0.47910  1.0000
  H   H494      1.0  0.01664  0.09832  0.23629  1.0000
  H   H495      1.0  0.13274  0.03248  0.46641  1.0000
  H   H496      1.0  0.08297  0.37222  0.47977  1.0000
  C   C307      1.0  0.18052  0.07736  0.48248  1.0000
  S   S91       1.0  0.02794  0.48894  0.24185  1.0000
  H   H497      1.0  0.10688  0.16915  0.48220  1.0000
  C   C308      1.0  0.99994  0.16544  0.48205  1.0000
  H   H498      1.0  0.17889  0.01692  0.48355  1.0000
  N   N20       1.0  0.11907  0.14158  0.57505  1.0000
  H   H499      1.0  0.11729  0.46410  0.53306  1.0000
  H   H500      1.0  0.02304  0.04475  0.64530  1.0000
  H   H501      1.0  0.01358  0.17203  0.58411  1.0000
  H   H502      1.0  0.00448  0.02314  0.63673  1.0000
  C   C309      1.0  0.01380  0.32416  0.54554  1.0000
  Fe  Fe48      1.0  0.05814  0.20622  0.55739  1.0000
  S   S92       1.0  0.07868  0.21691  0.56056  1.0000
  S   S93       1.0  0.04621  0.18518  0.57538  1.0000
  Fe  Fe49      1.0  0.05764  0.22825  0.52227  1.0000
  S   S94       1.0  0.07834  0.24055  0.52236  1.0000
  H   H503      1.0  0.21537  0.47711  0.50144  1.0000
  Fe  Fe50      1.0  0.09094  0.21413  0.53390  1.0000
  S   S95       1.0  0.11937  0.20354  0.52719  1.0000
  Fe  Fe51      1.0  0.06411  0.24225  0.54880  1.0000
  S   S96       1.0  0.05656  0.26523  0.56053  1.0000
  S   S97       1.0  0.07130  0.20176  0.53153  1.0000
  S   S98       1.0  0.04243  0.23167  0.54789  1.0000
  Fe  Fe52      1.0  0.17100  0.11536  0.52151  1.0000
  S   S99       1.0  0.18302  0.12436  0.53732  1.0000
  S   S100      1.0  0.14833  0.13071  0.51005  1.0000
  Fe  Fe53      1.0  0.19314  0.07969  0.52787  1.0000
  S   S101      1.0  0.20637  0.08574  0.54457  1.0000
  S   S102      1.0  0.20275  0.05358  0.52262  1.0000
  Fe  Fe54      1.0  0.18025  0.09965  0.55542  1.0000
  S   S103      1.0  0.17119  0.09867  0.58328  1.0000
  Fe  Fe55      1.0  0.20799  0.10954  0.52486  1.0000
  H   H504      1.0  0.13049  0.04071  0.55587  1.0000
  S   S104      1.0  0.16681  0.09145  0.54040  1.0000
  S   S105      1.0  0.19618  0.10266  0.50735  1.0000
  Fe  Fe56      1.0  0.08671  0.09017  0.67808  1.0000
  S   S106      1.0  0.07939  0.07062  0.66952  1.0000
  Fe  Fe57      1.0  0.07821  0.11781  0.64807  1.0000
  S   S107      1.0  0.06976  0.10097  0.63693  1.0000
  S   S108      1.0  0.08098  0.14476  0.63711  1.0000
  Fe  Fe58      1.0  0.05677  0.09108  0.66357  1.0000
  S   S109      1.0  0.03114  0.08361  0.67266  1.0000
  Fe  Fe59      1.0  0.09283  0.08167  0.64363  1.0000
  S   S110      1.0  0.10802  0.06606  0.62450  1.0000
  S   S111      1.0  0.06298  0.10989  0.67419  1.0000
  S   S112      1.0  0.10245  0.09925  0.65265  1.0000
  C   C310      1.0  0.13138  0.47999  0.55167  1.0000
  Fe  Fe60      1.0  0.05051  0.46742  0.64677  1.0000
  H   H505      1.0  0.11214  0.48593  0.48993  1.0000
  S   S113      1.0  0.04033  0.46000  0.67495  1.0000
  Fe  Fe61      1.0  0.07924  0.46585  0.61535  1.0000
  S   S114      1.0  0.10713  0.45550  0.60527  1.0000
  Fe  Fe62      1.0  0.04349  0.46534  0.61366  1.0000
  S   S115      1.0  0.02742  0.45736  0.60070  1.0000
  H   H506      1.0  0.00642  0.38605  0.56353  1.0000
  S   S116      1.0  0.06134  0.44848  0.63004  1.0000
  Fe  Fe63      1.0  0.19384  0.45057  0.50361  1.0000
  S   S117      1.0  0.22114  0.44078  0.50659  1.0000
  Fe  Fe64      1.0  0.16230  0.43732  0.50689  1.0000
  S   S118      1.0  0.14674  0.46318  0.49887  1.0000
  S   S119      1.0  0.15230  0.41350  0.51443  1.0000
  H   H507      1.0  0.05793  0.26811  0.49911  1.0000
  Fe  Fe65      1.0  0.15848  0.47099  0.51560  1.0000
  H   H508      1.0  0.11604  0.01391  0.50164  1.0000
  S   S120      1.0  0.17227  0.44469  0.52539  1.0000
  Fe  Fe66      1.0  0.06106  0.36121  0.52739  1.0000
  S   S121      1.0  0.05293  0.38328  0.50703  1.0000
  S   S122      1.0  0.07038  0.33693  0.51768  1.0000
  Fe  Fe67      1.0  0.05298  0.38418  0.55262  1.0000
  S   S123      1.0  0.04433  0.40749  0.53397  1.0000
  S   S124      1.0  0.05275  0.38637  0.57894  1.0000
  Fe  Fe68      1.0  0.03099  0.39125  0.52737  1.0000
  H   H509      1.0  0.08587  0.00328  0.58818  1.0000
  Fe  Fe69      1.0  0.06731  0.39714  0.51561  1.0000
  S   S125      1.0  0.08263  0.41525  0.49679  1.0000
  S   S126      1.0  0.03791  0.36833  0.54733  1.0000
  S   S127      1.0  0.07713  0.37464  0.53464  1.0000
  H   H510      1.0  0.07224  0.28206  0.49212  1.0000
  C   C311      1.0  0.13367  0.41385  0.50821  1.0000
  C   C312      1.0  0.12574  0.42814  0.49777  1.0000
  C   C313      1.0  0.11028  0.42831  0.49390  1.0000
  C   C314      1.0  0.10269  0.41426  0.50053  1.0000
  C   C315      1.0  0.11098  0.39978  0.51040  1.0000
  C   C316      1.0  0.12639  0.39961  0.51428  1.0000
  H   H511      1.0  0.00001  0.43957  0.61578  1.0000
  C   C317      1.0  0.00547  0.00157  0.59644  1.0000
  H   H512      1.0  0.10550  0.38873  0.51517  1.0000
  H   H513      1.0  0.13256  0.38845  0.52222  1.0000
  C   C318      1.0  0.03534  0.43784  0.59430  1.0000
  C   C319      1.0  0.03074  0.43580  0.58030  1.0000
  C   C320      1.0  0.03639  0.42024  0.57522  1.0000
  C   C321      1.0  0.04617  0.40638  0.58446  1.0000
  C   C322      1.0  0.05050  0.40836  0.59867  1.0000
  C   C323      1.0  0.04533  0.42409  0.60343  1.0000
  H   H514      1.0  0.02292  0.44633  0.57323  1.0000
  H   H515      1.0  0.03283  0.41891  0.56437  1.0000
  H   H516      1.0  0.05802  0.39770  0.60594  1.0000
  H   H517      1.0  0.04880  0.42545  0.61437  1.0000
  C   C324      1.0  0.11623  0.46522  0.58470  1.0000
  C   C325      1.0  0.13168  0.45665  0.57613  1.0000
  C   C326      1.0  0.00269  0.39607  0.59188  1.0000
  H   H518      1.0  0.02798  0.17671  0.55404  1.0000
  H   H519      1.0  0.12919  0.00373  0.60590  1.0000
  H   H520      1.0  0.13786  0.44428  0.58226  1.0000
  H   H521      1.0  0.18098  0.00453  0.52532  1.0000
  H   H522      1.0  0.06931  0.99429  0.65373  1.0000
  H   H523      1.0  0.08009  0.43833  0.54016  1.0000
  H   H524      1.0  0.02507  0.29361  0.51001  1.0000
  H   H525      1.0  0.01100  0.34646  0.50997  1.0000
  H   H526      1.0  0.04603  0.01382  0.66340  1.0000
  S   S128      1.0  0.18091  0.47765  0.49509  1.0000
  H   H527      1.0  0.02162  0.36931  0.51438  1.0000
  C   C327      1.0  0.00792  0.27199  0.57320  1.0000
  H   H528      1.0  0.11535  0.15060  0.54940  1.0000
  C   C328      1.0  0.04160  0.46327  0.70602  1.0000
  C   C329      1.0  0.04528  0.46978  0.68856  1.0000
  H   H529      1.0  0.13433  0.13919  0.64643  1.0000
  C   C330      1.0  0.11422  0.45171  0.53436  1.0000
  H   H530      1.0  0.03614  0.45216  0.71091  1.0000
  H   H531      1.0  0.13693  0.00565  0.57906  1.0000
  C   C331      1.0  0.01803  0.28368  0.51774  1.0000
  H   H532      1.0  0.01634  0.31482  0.52362  1.0000
  C   C332      1.0  0.15761  0.03797  0.57084  1.0000
  H   H533      1.0  0.07862  0.01564  0.62949  1.0000
  H   H534      1.0  0.01907  0.26219  0.56886  1.0000
  C   C333      1.0  0.07142  0.12129  0.72530  1.0000
  H   H535      1.0  0.13860  0.14997  0.59212  1.0000
  H   H536      1.0  0.13481  0.12108  0.55061  1.0000
  C   C334      1.0  0.00633  0.08183  0.63123  1.0000
  C   C335      1.0  0.15408  0.08880  0.59445  1.0000
  C   C336      1.0  0.14475  0.08335  0.58622  1.0000
  C   C337      1.0  0.13078  0.07605  0.59549  1.0000
  C   C338      1.0  0.12601  0.07434  0.61302  1.0000
  C   C339      1.0  0.13541  0.07966  0.62126  1.0000
  C   C340      1.0  0.14942  0.08684  0.61200  1.0000
  H   H537      1.0  0.14802  0.08503  0.57273  1.0000
  H   H538      1.0  0.12338  0.07221  0.58903  1.0000
  H   H539      1.0  0.13201  0.07806  0.63482  1.0000
  H   H540      1.0  0.15662  0.09097  0.61846  1.0000
  C   C341      1.0  0.06106  0.28493  0.54862  1.0000
  C   C342      1.0  0.06849  0.28725  0.53139  1.0000
  C   C343      1.0  0.07126  0.30327  0.52210  1.0000
  C   C344      1.0  0.06655  0.31711  0.52992  1.0000
  C   C345      1.0  0.05898  0.31485  0.54712  1.0000
  C   C346      1.0  0.05633  0.29878  0.55644  1.0000
  H   H541      1.0  0.07219  0.27669  0.52525  1.0000
  H   H542      1.0  0.07720  0.30493  0.50882  1.0000
  H   H543      1.0  0.05538  0.32541  0.55326  1.0000
  H   H544      1.0  0.05061  0.29706  0.56978  1.0000
  N   N21       1.0  0.00915  0.29497  0.54514  1.0000
  C   C347      1.0  0.13917  0.46396  0.55965  1.0000
  H   H545      1.0  0.02575  0.20515  0.51190  1.0000
  S   S129      1.0  0.09777  0.08306  0.70137  1.0000
  H   H546      1.0  0.09471  0.11566  0.50598  1.0000
  C   C348      1.0  0.16283  0.99178  0.59663  1.0000
  C   C349      1.0  0.10172  0.44762  0.55143  1.0000
  C   C350      1.0  0.05598  0.17407  0.59249  1.0000
  C   C351      1.0  0.05318  0.15789  0.60090  1.0000
  C   C352      1.0  0.06085  0.14876  0.61457  1.0000
  C   C353      1.0  0.07119  0.15585  0.62002  1.0000
  C   C354      1.0  0.07385  0.17210  0.61173  1.0000
  C   C355      1.0  0.06632  0.18116  0.59795  1.0000
  H   H547      1.0  0.04510  0.15238  0.59682  1.0000
  H   H548      1.0  0.05856  0.13634  0.62099  1.0000
  H   H549      1.0  0.08175  0.17771  0.61594  1.0000
  H   H550      1.0  0.06831  0.19373  0.59177  1.0000
  C   C356      1.0  0.12709  0.18346  0.52205  1.0000
  C   C357      1.0  0.14416  0.17528  0.52235  1.0000
  C   C358      1.0  0.15074  0.15916  0.51863  1.0000
  C   C359      1.0  0.14032  0.15109  0.51448  1.0000
  C   C360      1.0  0.12329  0.15935  0.51390  1.0000
  C   C361      1.0  0.11666  0.17546  0.51776  1.0000
  H   H551      1.0  0.15235  0.18146  0.52547  1.0000
  H   H552      1.0  0.16399  0.15319  0.51861  1.0000
  H   H553      1.0  0.11513  0.15319  0.51076  1.0000
  H   H554      1.0  0.10356  0.18174  0.51725  1.0000
  C   C362      1.0  0.16115  0.02728  0.52420  1.0000
  C   C363      1.0  0.15716  0.04471  0.52340  1.0000
  C   C364      1.0  0.16980  0.05282  0.52342  1.0000
  C   C365      1.0  0.18650  0.04355  0.52385  1.0000
  C   C366      1.0  0.19049  0.02613  0.52458  1.0000
  C   C367      1.0  0.17779  0.01797  0.52490  1.0000
  H   H555      1.0  0.14430  0.05193  0.52282  1.0000
  H   H556      1.0  0.16672  0.06631  0.52264  1.0000
  H   H557      1.0  0.20341  0.01892  0.52491  1.0000
  H   H558      1.0  0.00483  0.28698  0.51559  1.0000
  C   C368      1.0  0.09027  0.09642  0.71591  1.0000
  C   C369      1.0  0.09950  0.11884  0.49211  1.0000
  H   H559      1.0  0.07524  0.40920  0.55738  1.0000
  H   H560      1.0  0.00011  0.17366  0.49029  1.0000
  H   H561      1.0  0.11385  0.13748  0.61137  1.0000
  H   H562      1.0  0.01767  0.42895  0.65454  1.0000
  C   C370      1.0  0.00800  0.37028  0.51644  1.0000
  C   C371      1.0  0.03024  0.08603  0.63971  1.0000
  H   H563      1.0  0.09619  0.40014  0.54579  1.0000
  N   N22       1.0  0.09818  0.43002  0.55653  1.0000
  H   H564      1.0  0.04265  0.08903  0.63629  1.0000
  H   H565      1.0  0.08768  0.02402  0.64120  1.0000
  H   H566      1.0  0.15869  0.13993  0.58133  1.0000
  C   C372      1.0  0.23862  0.03948  0.54963  1.0000
  H   H567      1.0  0.01287  0.26894  0.54272  1.0000
  H   H568      1.0  0.16381  0.04678  0.59053  1.0000
  S   S130      1.0  0.03110  0.48289  0.63153  1.0000
  C   C373      1.0  0.07645  0.11019  0.71422  1.0000
  C   C374      1.0  0.11476  0.41732  0.55844  1.0000
  H   H569      1.0  0.12969  0.10543  0.66716  1.0000
  C   C375      1.0  0.12643  0.01657  0.60832  1.0000
  C   C376      1.0  0.12004  0.12609  0.60604  1.0000
  H   H570      1.0  0.01804  0.20425  0.55883  1.0000
  H   H571      1.0  0.09821  0.13329  0.70352  1.0000
  H   H572      1.0  0.10112  0.12717  0.59255  1.0000
  S   S131      1.0  0.06206  0.48139  0.59781  1.0000
  C   C377      1.0  0.11003  0.12755  0.67303  1.0000
  C   C378      1.0  0.00983  0.38086  0.60499  1.0000
  H   H573      1.0  0.10150  0.02856  0.71582  1.0000
  H   H574      1.0  0.18232  0.03622  0.57698  1.0000
  C   C379      1.0  0.24613  0.10297  0.54139  1.0000
  C   C380      1.0  0.11508  0.12705  0.58948  1.0000
  H   H575      1.0  0.09853  0.14157  0.56371  1.0000
  H   H576      1.0  0.10231  0.42758  0.58881  1.0000
  H   H577      1.0  0.13782  0.10798  0.48478  1.0000
  C   C381      1.0  0.02257  0.08551  0.62704  1.0000
  H   H578      1.0  0.01757  0.42874  0.63356  1.0000
  C   C382      1.0  0.00424  0.20452  0.56045  1.0000
  C   C383      1.0  0.13811  0.14073  0.56957  1.0000
  H   H579      1.0  0.00016  0.33073  0.54646  1.0000
  H   H580      1.0  0.08699  0.44751  0.58564  1.0000
  C   C384      1.0  0.01116  0.43556  0.64391  1.0000
  C   C385      1.0  0.24523  0.06099  0.51381  1.0000
  C   C386      1.0  0.07214  0.05297  0.61855  1.0000
  H   H581      1.0  0.02709  0.04295  0.66589  1.0000
  C   C387      1.0  0.05252  0.48403  0.68235  1.0000
  H   H582      1.0  0.03258  0.30437  0.53513  1.0000
  H   H583      1.0  0.09944  0.14416  0.49261  1.0000
  C   C388      1.0  0.11068  0.17415  0.56620  1.0000
  S   S132      1.0  0.18512  0.44079  0.48590  1.0000
  H   H584      1.0  0.12418  0.39007  0.56490  1.0000
  H   H585      1.0  0.07233  0.43800  0.57033  1.0000
  H   H586      1.0  0.01382  0.39828  0.58132  1.0000
  H   H587      1.0  0.09942  0.98965  0.50479  1.0000
  H   H588      1.0  0.11815  0.15829  0.64231  1.0000
  H   H589      1.0  0.09665  0.48812  0.58335  1.0000
  H   H590      1.0  0.08029  0.42918  0.59934  1.0000
  H   H591      1.0  0.11554  0.11533  0.61561  1.0000
  H   H592      1.0  0.00076  0.46380  0.70638  1.0000
  H   H593      1.0  0.07946  0.41186  0.53520  1.0000
  C   C389      1.0  0.12062  0.12371  0.55379  1.0000
  S   S133      1.0  0.02121  0.99172  0.65614  1.0000
  H   H594      1.0  0.10451  0.15233  0.71719  1.0000
  H   H595      1.0  0.16485  0.03524  0.55831  1.0000
  H   H596      1.0  0.10847  0.45299  0.52354  1.0000
  H   H597      1.0  0.04356  0.01726  0.64265  1.0000
  C   C390      1.0  0.00378  0.14733  0.49264  1.0000
  H   H598      1.0  0.09186  0.16917  0.67437  1.0000
  H   H599      1.0  0.05335  0.02430  0.68018  1.0000
  N   N23       1.0  0.15100  0.02271  0.58208  1.0000
  C   C391      1.0  0.16636  0.00888  0.58566  1.0000
  C   C392      1.0  0.13967  0.02752  0.59815  1.0000
  H   H600      1.0  0.13222  0.99717  0.50893  1.0000
  H   H601      1.0  0.11339  0.02328  0.60635  1.0000
  H   H602      1.0  0.13413  0.12333  0.60456  1.0000
  S   S134      1.0  0.04369  0.23607  0.50114  1.0000
  H   H603      1.0  0.14759  0.02766  0.60683  1.0000
  H   H604      1.0  0.13209  0.04072  0.59532  1.0000
  S   S135      1.0  0.06097  0.99685  0.61901  1.0000
  S   S136      1.0  0.07018  0.48314  0.63360  1.0000
  H   H605      1.0  0.01834  0.01657  0.60372  1.0000
  H   H606      1.0  0.02465  0.27187  0.51315  1.0000
  C   C393      1.0  0.12362  0.15199  0.66787  1.0000
  C   C394      1.0  0.00583  0.07830  0.66086  1.0000
  H   H607      1.0  0.02913  0.08823  0.61395  1.0000
  H   H608      1.0  0.10076  0.99600  0.52302  1.0000
  H   H609      1.0  0.20231  0.47632  0.55046  1.0000
  H   H610      1.0  0.00606  0.20274  0.58628  1.0000
  H   H611      1.0  0.18026  0.04421  0.49093  1.0000
  C   C395      1.0  0.10841  0.48128  0.57674  1.0000
  C   C396      1.0  0.01022  0.28993  0.56351  1.0000
  C   C397      1.0  0.06246  0.27801  0.48833  1.0000
  H   H612      1.0  0.22969  0.99373  0.54748  1.0000
  S   S137      1.0  0.23317  0.11748  0.51264  1.0000
  H   H613      1.0  0.13140  0.43906  0.49282  1.0000
  H   H614      1.0  0.00051  0.42578  0.56790  1.0000
  H   H615      1.0  0.07401  0.06932  0.73197  1.0000
  H   H616      1.0  0.23813  0.08299  0.49448  1.0000
  C   C398      1.0  0.99951  0.13053  0.66068  1.0000
  H   H617      1.0  0.06478  0.16145  0.67845  1.0000
  N   N24       1.0  0.05782  0.04633  0.72762  1.0000
  H   H618      1.0  0.15059  0.01371  0.56055  1.0000
  H   H619      1.0  0.09160  0.16471  0.70258  1.0000
  H   H620      1.0  0.13514  0.14574  0.67333  1.0000
  C   C399      1.0  0.04467  0.02388  0.65191  1.0000
  H   H621      1.0  0.02302  0.29051  0.56483  1.0000
  C   C400      1.0  0.02184  0.08261  0.65664  1.0000
  H   H622      1.0  0.09272  0.15775  0.65938  1.0000
  C   C401      1.0  0.16942  0.04467  0.57756  1.0000
  H   H623      1.0  0.11613  0.11264  0.56273  1.0000
  H   H624      1.0  0.07454  0.04164  0.70397  1.0000
  H   H625      1.0  0.16923  0.07224  0.49026  1.0000
  H   H626      1.0  0.10399  0.43948  0.48609  1.0000
  H   H627      1.0  0.05611  0.03623  0.61967  1.0000
  H   H628      1.0  0.00281  0.47583  0.67705  1.0000
  H   H629      1.0  0.12100  0.16539  0.66900  1.0000
  H   H630      1.0  0.13913  0.15944  0.64287  1.0000
  H   H631      1.0  0.05086  0.05436  0.65599  1.0000
  H   H632      1.0  0.17388  0.01278  0.59242  1.0000
  H   H633      1.0  0.03420  0.18693  0.52621  1.0000
  H   H634      1.0  0.00866  0.11835  0.66360  1.0000
  H   H635      1.0  0.08143  0.41663  0.57747  1.0000
  C   C402      1.0  0.09847  0.09333  0.72929  1.0000
  C   C403      1.0  0.11605  0.48871  0.56031  1.0000
  H   H636      1.0  0.03185  0.27632  0.53777  1.0000
  H   H637      1.0  0.04154  0.08697  0.70542  1.0000
  H   H638      1.0  0.17143  0.05707  0.56931  1.0000
  C   C404      1.0  0.05062  0.07808  0.71304  1.0000
  H   H639      1.0  0.04507  0.05736  0.70668  1.0000
  H   H640      1.0  0.10898  0.12937  0.65974  1.0000
  H   H641      1.0  0.12023  0.13264  0.69914  1.0000
  C   C405      1.0  0.05765  0.04352  0.62821  1.0000
  H   H642      1.0  0.07414  0.13955  0.68027  1.0000
  C   C406      1.0  0.01851  0.30920  0.53663  1.0000
  H   H643      1.0  0.01348  0.44857  0.63996  1.0000
  H   H644      1.0  0.01486  0.16580  0.54934  1.0000
  C   C407      1.0  0.12198  0.00038  0.50166  1.0000
  C   C408      1.0  0.02719  0.03586  0.65655  1.0000
  H   H645      1.0  0.05138  0.28869  0.48719  1.0000
  C   C409      1.0  0.07792  0.00180  0.65479  1.0000
  C   C410      1.0  0.11339  0.39975  0.57004  1.0000
  H   H646      1.0  0.18472  0.46612  0.55997  1.0000
  C   C411      1.0  0.06112  0.04264  0.65630  1.0000
  H   H647      1.0  0.06966  0.05977  0.60588  1.0000
  H   H648      1.0  0.11647  0.12515  0.54193  1.0000
  H   H649      1.0  0.12354  0.10581  0.68933  1.0000
  C   C412      1.0  0.09118  0.42776  0.54277  1.0000
  C   C413      1.0  0.05279  0.48492  0.71096  1.0000
  H   H650      1.0  0.10735  0.44993  0.56092  1.0000
  H   H651      1.0  0.11518  0.39922  0.58277  1.0000
  C   C414      1.0  0.12624  0.03053  0.56645  1.0000
  H   H652      1.0  0.12270  0.42247  0.56371  1.0000
  H   H653      1.0  0.13751  0.11875  0.67478  1.0000
  C   C415      1.0  0.08464  0.42924  0.57264  1.0000
  H   H654      1.0  0.11896  0.02432  0.56157  1.0000
  H   H655      1.0  0.11869  0.12953  0.49568  1.0000
  H   H656      1.0  0.10158  0.39554  0.57124  1.0000
  H   H657      1.0  0.12570  0.01493  0.62200  1.0000
  H   H658      1.0  0.08140  0.05431  0.71303  1.0000
  H   H659      1.0  0.09505  0.15780  0.58395  1.0000
  H   H660      1.0  0.17518  0.00635  0.57358  1.0000
  H   H661      1.0  0.23460  0.06703  0.52297  1.0000
  H   H662      1.0  0.12652  0.44223  0.53348  1.0000
  H   H663      1.0  0.15113  0.45726  0.55332  1.0000
  H   H664      1.0  0.14135  0.14743  0.55613  1.0000
  H   H665      1.0  0.08816  0.12241  0.48637  1.0000
  C   C416      1.0  0.23027  0.45378  0.51301  1.0000
  C   C417      1.0  0.22535  0.47139  0.50849  1.0000
  C   C418      1.0  0.08842  0.02778  0.72343  1.0000
  C   C419      1.0  0.10893  0.15799  0.58000  1.0000
  H   H666      1.0  0.14523  0.12737  0.56993  1.0000
  H   H667      1.0  0.23313  0.10250  0.54810  1.0000
  H   H668      1.0  0.19779  0.01741  0.48975  1.0000
  C   C420      1.0  0.14615  0.14838  0.57948  1.0000
  H   H669      1.0  0.10551  0.18536  0.57204  1.0000
  H   H670      1.0  0.12181  0.11474  0.58600  1.0000
  H   H671      1.0  0.02035  0.38391  0.60861  1.0000
  H   H672      1.0  0.09900  0.12176  0.68047  1.0000
  C   C421      1.0  0.09254  0.15623  0.67293  1.0000
  C   C422      1.0  0.10793  0.14076  0.69611  1.0000
  H   H673      1.0  0.11207  0.15986  0.59118  1.0000
  N   N25       1.0  0.10853  0.14412  0.67751  1.0000
  C   C423      1.0  0.04543  0.47074  0.71718  1.0000
  C   C424      1.0  0.07542  0.15134  0.68279  1.0000
  C   C425      1.0  0.06132  0.03385  0.67488  1.0000
  H   H674      1.0  0.07819  0.21586  0.49395  1.0000
  N   N26       1.0  0.05994  0.03205  0.64504  1.0000
  H   H675      1.0  0.00362  0.18836  0.52747  1.0000
  H   H676      1.0  0.07462  0.02795  0.67652  1.0000
  H   H677      1.0  0.10301  0.17579  0.55674  1.0000
  C   C426      1.0  0.12892  0.15214  0.64881  1.0000
  H   H678      1.0  0.08491  0.04435  0.61657  1.0000
  C   C427      1.0  0.07640  0.01891  0.64196  1.0000
  C   C428      1.0  0.09186  0.99253  0.59664  1.0000
  S   S138      1.0  0.00387  0.40081  0.52420  1.0000
  H   H679      1.0  0.13560  0.02864  0.48799  1.0000
  H   H680      1.0  0.24194  0.04623  0.55747  1.0000
  S   S139      1.0  0.14533  0.01714  0.52446  1.0000
  H   H681      1.0  0.22674  0.04692  0.54537  1.0000
  H   H682      1.0  0.00725  0.14039  0.65545  1.0000
  H   H683      1.0  0.12259  0.41520  0.54587  1.0000
  H   H684      1.0  0.07305  0.04761  0.65137  1.0000
  H   H685      1.0  0.01728  0.02820  0.66248  1.0000
  C   C429      1.0  0.01820  0.28037  0.53658  1.0000
  C   C430      1.0  0.12609  0.11371  0.67637  1.0000
  C   C431      1.0  0.18928  0.47627  0.54952  1.0000
  C   C432      1.0  0.04604  0.06059  0.71830  1.0000
  H   H686      1.0  0.20725  0.04777  0.48900  1.0000
  H   H687      1.0  0.04579  0.05354  0.62962  1.0000
  H   H688      1.0  0.10091  0.42819  0.53075  1.0000
  H   H689      1.0  0.99939  0.16107  0.58012  1.0000
  H   H690      1.0  0.01695  0.32030  0.55819  1.0000
  H   H691      1.0  0.07540  0.00319  0.66795  1.0000
  H   H692      1.0  0.07243  0.06276  0.62496  1.0000
  C   C433      1.0  0.08526  0.41120  0.54582  1.0000
  C   C434      1.0  0.08902  0.43361  0.58734  1.0000
  H   H693      1.0  0.07345  0.15025  0.69653  1.0000
  H   H694      1.0  0.12415  0.17441  0.55973  1.0000
  C   C435      1.0  0.07540  0.04330  0.71634  1.0000
  H   H695      1.0  0.14685  0.04890  0.56824  1.0000
  H   H696      1.0  0.08958  0.45739  0.55103  1.0000
  H   H697      1.0  0.06982  0.11253  0.70421  1.0000
  H   H698      1.0  0.05565  0.04348  0.68274  1.0000
  C   C436      1.0  0.14165  0.01725  0.57215  1.0000
  H   H699      1.0  0.11734  0.03617  0.57687  1.0000
  H   H700      1.0  0.08589  0.01582  0.72246  1.0000
  C   C437      1.0  0.10892  0.13345  0.48778  1.0000
  H   H701      1.0  0.14914  0.16070  0.57193  1.0000
  C   C438      1.0  0.11272  0.14016  0.56044  1.0000
  C   C439      1.0  0.10441  0.15653  0.70351  1.0000
  C   C440      1.0  0.01471  0.17468  0.55708  1.0000
  H   H702      1.0  0.01552  0.36933  0.59976  1.0000
  H   H703      1.0  0.05235  0.02648  0.71923  1.0000
  C   C441      1.0  0.00198  0.35730  0.51407  1.0000
  C   C442      1.0  0.23391  0.48156  0.51243  1.0000
  H   H704      1.0  0.09117  0.99420  0.65181  1.0000
  H   H705      1.0  0.11442  0.16402  0.69755  1.0000
  C   C443      1.0  0.00515  0.01422  0.60674  1.0000
  C   C444      1.0  0.05109  0.03045  0.73117  1.0000
  H   H706      1.0  0.06357  0.07793  0.70498  1.0000
  H   H707      1.0  0.00194  0.36927  0.58071  1.0000
  Fe  Fe70      1.0  0.15317  0.98947  0.53534  1.0000
  H   H708      1.0  0.19047  0.07438  0.48994  1.0000
  H   H709      1.0  0.10908  0.08259  0.73077  1.0000
  H   H710      1.0  0.23941  0.05314  0.50923  1.0000
  H   H711      1.0  0.04912  0.08341  0.72414  1.0000
  H   H712      1.0  0.02160  0.33358  0.53800  1.0000
  H   H713      1.0  0.00956  0.04177  0.58277  1.0000
  C   C445      1.0  0.01184  0.16496  0.57562  1.0000
  C   C446      1.0  0.24360  0.44637  0.52166  1.0000
  H   H714      1.0  0.99962  0.48559  0.70305  1.0000
  H   H715      1.0  0.02886  0.20776  0.53100  1.0000
  H   H716      1.0  0.03282  0.06272  0.72610  1.0000
  H   H717      1.0  0.24733  0.43273  0.52526  1.0000
  H   H718      1.0  0.00740  0.04465  0.61070  1.0000
  H   H719      1.0  0.23562  0.02745  0.55796  1.0000
  C   C447      1.0  0.10834  0.99016  0.51219  1.0000
  H   H720      1.0  0.00749  0.27080  0.58675  1.0000
  C   C448      1.0  0.24745  0.47414  0.52082  1.0000
  H   H721      1.0  0.15653  0.99277  0.60983  1.0000
  H   H722      1.0  0.06104  0.13222  0.72363  1.0000
  H   H723      1.0  0.00148  0.41335  0.55313  1.0000
  H   H724      1.0  0.18999  0.47258  0.53765  1.0000
  H   H725      1.0  0.01620  0.99052  0.59860  1.0000
  C   C449      1.0  0.02488  0.19926  0.52553  1.0000
  H   H726      1.0  0.00301  0.00715  0.62008  1.0000
  H   H727      1.0  0.00778  0.00685  0.58269  1.0000
  H   H728      1.0  0.02186  0.15308  0.57667  1.0000
  H   H729      1.0  0.09269  0.01592  0.48780  1.0000
  H   H730      1.0  0.00759  0.46663  0.73046  1.0000
  H   H731      1.0  0.04304  0.46526  0.73052  1.0000
  H   H732      1.0  0.10801  0.10713  0.48851  1.0000
  H   H733      1.0  0.02322  0.03894  0.73273  1.0000
  C   C450      1.0  0.00633  0.19715  0.53371  1.0000
  H   H734      1.0  0.00070  0.29902  0.57073  1.0000
  N   N27       1.0  0.00224  0.19118  0.55269  1.0000
  H   H735      1.0  0.99896  0.40749  0.59736  1.0000
  H   H736      1.0  0.00011  0.37813  0.61670  1.0000
  H   H737      1.0  0.01661  0.14485  0.49555  1.0000
  H   H738      1.0  0.99953  0.07496  0.67394  1.0000
  H   H739      1.0  0.00441  0.13754  0.48585  1.0000
  N   N28       1.0  0.12960  0.99751  0.48402  1.0000
  C   C451      1.0  0.05539  0.22688  0.48395  1.0000
  H   H740      1.0  0.24860  0.02813  0.52826  1.0000
  H   H741      1.0  0.99900  0.21742  0.55351  1.0000
  H   H742      1.0  0.19341  0.41534  0.89830  1.0000
  C   C452      1.0  0.19947  0.14716  0.94807  1.0000
  S   S140      1.0  0.03545  0.04013  0.78480  1.0000
  C   C453      1.0  0.09917  0.43686  0.93883  1.0000
  H   H743      1.0  0.05168  0.39976  0.81553  1.0000
  H   H744      1.0  0.24464  0.09663  0.85524  1.0000
  Fe  Fe71      1.0  0.05026  0.23154  0.87722  1.0000
  S   S141      1.0  0.06204  0.24595  0.85213  1.0000
  S   S142      1.0  0.06531  0.21692  0.89702  1.0000
  Fe  Fe72      1.0  0.03785  0.26576  0.85592  1.0000
  H   H745      1.0  0.00891  0.38960  0.83268  1.0000
  Fe  Fe73      1.0  0.04736  0.23382  0.84182  1.0000
  S   S143      1.0  0.05921  0.22298  0.81863  1.0000
  S   S144      1.0  0.03748  0.21784  0.86672  1.0000
  Fe  Fe74      1.0  0.06766  0.10283  0.81081  1.0000
  S   S145      1.0  0.09247  0.10544  0.79233  1.0000
  S   S146      1.0  0.06139  0.07773  0.82498  1.0000
  Fe  Fe75      1.0  0.05514  0.14067  0.80838  1.0000
  S   S147      1.0  0.07897  0.14647  0.78998  1.0000
  S   S148      1.0  0.03251  0.15984  0.81841  1.0000
  Fe  Fe76      1.0  0.07628  0.12721  0.77743  1.0000
  S   S149      1.0  0.07548  0.13446  0.74977  1.0000
  Fe  Fe77      1.0  0.09283  0.12431  0.80669  1.0000
  S   S150      1.0  0.11716  0.12541  0.81316  1.0000
  S   S151      1.0  0.05144  0.12297  0.79486  1.0000
  S   S152      1.0  0.06911  0.12013  0.82615  1.0000
  Fe  Fe78      1.0  0.15288  0.16491  0.88391  1.0000
  S   S153      1.0  0.13352  0.15353  0.90471  1.0000
  S   S154      1.0  0.14413  0.19100  0.86888  1.0000
  Fe  Fe79      1.0  0.18009  0.13216  0.88769  1.0000
  S   S155      1.0  0.16233  0.11805  0.90845  1.0000
  S   S156      1.0  0.20704  0.12022  0.87609  1.0000
  Fe  Fe80      1.0  0.14262  0.13117  0.89248  1.0000
  S   S157      1.0  0.12140  0.12155  0.88834  1.0000
  Fe  Fe81      1.0  0.15496  0.14190  0.91837  1.0000
  S   S158      1.0  0.16107  0.14320  0.87098  1.0000
  S   S159      1.0  0.17379  0.15530  0.89841  1.0000
  H   H746      1.0  0.08518  0.44067  0.91344  1.0000
  N   N29       1.0  0.11012  0.18103  0.82223  1.0000
  S   S160      1.0  0.03794  0.29359  0.84842  1.0000
  Fe  Fe82      1.0  0.17535  0.46876  0.84549  1.0000
  S   S161      1.0  0.16076  0.46781  0.87223  1.0000
  S   S162      1.0  0.20398  0.46569  0.83607  1.0000
  Fe  Fe83      1.0  0.14307  0.47323  0.83225  1.0000
  S   S163      1.0  0.12589  0.47266  0.85787  1.0000
  H   H747      1.0  0.03724  0.16669  0.92195  1.0000
  C   C454      1.0  0.23873  0.12553  0.87307  1.0000
  H   H748      1.0  0.01521  0.13110  0.82944  1.0000
  Fe  Fe84      1.0  0.14663  0.45130  0.86674  1.0000
  S   S164      1.0  0.14062  0.42781  0.88567  1.0000
  H   H749      1.0  0.01641  0.14437  0.79996  1.0000
  S   S165      1.0  0.16277  0.45056  0.84085  1.0000
  H   H750      1.0  0.11388  0.15361  0.95709  1.0000
  S   S166      1.0  0.06201  0.47149  0.77277  1.0000
  H   H751      1.0  0.06896  0.31821  0.97659  1.0000
  S   S167      1.0  0.05131  0.99416  0.81333  1.0000
  Fe  Fe85      1.0  0.03869  0.46025  0.78418  1.0000
  S   S168      1.0  0.04110  0.43224  0.79493  1.0000
  H   H752      1.0  0.20216  0.15960  0.94739  1.0000
  H   H753      1.0  0.01461  0.12593  0.79529  1.0000
  H   H754      1.0  0.18715  0.38886  0.89864  1.0000
  Fe  Fe86      1.0  0.09084  0.37247  0.87499  1.0000
  S   S169      1.0  0.07430  0.39223  0.88900  1.0000
  S   S170      1.0  0.11469  0.37932  0.85713  1.0000
  Fe  Fe87      1.0  0.06711  0.34777  0.89207  1.0000
  S   S171      1.0  0.06297  0.32112  0.89803  1.0000
  Fe  Fe88      1.0  0.05256  0.38536  0.88324  1.0000
  Fe  Fe89      1.0  0.07243  0.37081  0.91164  1.0000
  S   S172      1.0  0.06932  0.36693  0.86748  1.0000
  S   S173      1.0  0.09049  0.35141  0.89781  1.0000
  H   H755      1.0  0.18917  0.37728  0.88327  1.0000
  H   H756      1.0  0.04775  0.38937  0.84647  1.0000
  H   H757      1.0  0.09754  0.39337  0.96687  1.0000
  C   C455      1.0  0.03774  0.42519  0.81700  1.0000
  C   C456      1.0  0.02822  0.43600  0.82785  1.0000
  C   C457      1.0  0.02588  0.43004  0.84541  1.0000
  H   H758      1.0  0.10375  0.01389  0.80722  1.0000
  H   H759      1.0  0.08260  0.05196  0.74761  1.0000
  C   C458      1.0  0.04453  0.40829  0.82382  1.0000
  H   H760      1.0  0.02247  0.44887  0.82279  1.0000
  H   H761      1.0  0.01862  0.43849  0.85374  1.0000
  C   C459      1.0  0.23037  0.06858  0.90498  1.0000
  C   C460      1.0  0.24026  0.46685  0.86782  1.0000
  C   C461      1.0  0.99968  0.40155  0.83492  1.0000
  H   H762      1.0  0.10914  0.06941  0.80556  1.0000
  C   C462      1.0  0.04785  0.39147  0.98037  1.0000
  C   C463      1.0  0.05798  0.04984  0.74421  1.0000
  H   H763      1.0  0.02459  0.23973  0.81118  1.0000
  C   C464      1.0  0.01546  0.10600  0.82750  1.0000
  C   C465      1.0  0.21339  0.13240  0.97159  1.0000
  H   H764      1.0  0.01086  0.22103  0.80329  1.0000
  H   H765      1.0  0.10939  0.41552  0.82060  1.0000
  C   C466      1.0  0.09038  0.48749  0.79223  1.0000
  C   C467      1.0  0.07073  0.06034  0.74393  1.0000
  H   H766      1.0  0.00705  0.42137  0.80414  1.0000
  C   C468      1.0  0.13387  0.41415  0.87752  1.0000
  C   C469      1.0  0.13612  0.41593  0.86012  1.0000
  C   C470      1.0  0.13079  0.40481  0.85389  1.0000
  C   C471      1.0  0.12249  0.39235  0.86503  1.0000
  C   C472      1.0  0.12011  0.39066  0.88242  1.0000
  C   C473      1.0  0.12614  0.40129  0.88863  1.0000
  H   H767      1.0  0.14201  0.42580  0.85142  1.0000
  H   H768      1.0  0.13273  0.40612  0.84042  1.0000
  H   H769      1.0  0.11387  0.38095  0.89111  1.0000
  H   H770      1.0  0.12465  0.39959  0.90206  1.0000
  H   H771      1.0  0.07809  0.41743  0.97208  1.0000
  C   C474      1.0  0.22314  0.46611  0.87545  1.0000
  C   C475      1.0  0.21183  0.46570  0.86591  1.0000
  C   C476      1.0  0.21763  0.46603  0.84865  1.0000
  C   C477      1.0  0.23483  0.46640  0.84112  1.0000
  H   H772      1.0  0.11281  0.07736  0.82145  1.0000
  H   H773      1.0  0.09857  0.43260  0.85401  1.0000
  H   H774      1.0  0.19860  0.46540  0.87184  1.0000
  C   C478      1.0  0.00338  0.22841  0.81306  1.0000
  H   H775      1.0  0.23482  0.08699  0.88236  1.0000
  C   C479      1.0  0.22410  0.12091  0.88430  1.0000
  H   H776      1.0  0.00178  0.06138  0.80576  1.0000
  C   C480      1.0  0.11293  0.19883  0.81802  1.0000
  C   C481      1.0  0.23954  0.11200  0.90702  1.0000
  C   C482      1.0  0.22437  0.11448  0.90141  1.0000
  H   H777      1.0  0.02961  0.03631  0.75243  1.0000
  C   C483      1.0  0.00568  0.12405  0.82934  1.0000
  H   H778      1.0  0.21325  0.11045  0.91004  1.0000
  C   C484      1.0  0.06983  0.42673  0.96398  1.0000
  H   H779      1.0  0.09063  0.03014  0.79492  1.0000
  H   H780      1.0  0.24014  0.10596  0.91995  1.0000
  C   C485      1.0  0.10027  0.03992  0.81100  1.0000
  H   H781      1.0  0.13235  0.00798  0.80856  1.0000
  C   C486      1.0  0.09337  0.10438  0.74048  1.0000
  H   H782      1.0  0.12418  0.26591  0.87073  1.0000
  S   S174      1.0  0.13460  0.47479  0.80853  1.0000
  H   H783      1.0  0.10016  0.10228  0.75038  1.0000
  C   C487      1.0  0.11811  0.12395  0.83422  1.0000
  C   C488      1.0  0.10420  0.12145  0.84768  1.0000
  C   C489      1.0  0.10539  0.12061  0.86422  1.0000
  C   C490      1.0  0.12041  0.12246  0.86743  1.0000
  C   C491      1.0  0.13428  0.12499  0.85396  1.0000
  C   C492      1.0  0.13315  0.12567  0.83746  1.0000
  H   H784      1.0  0.09260  0.11997  0.84541  1.0000
  H   H785      1.0  0.09469  0.11836  0.87458  1.0000
  H   H786      1.0  0.14606  0.12599  0.85626  1.0000
  H   H787      1.0  0.14404  0.12744  0.82716  1.0000
  H   H788      1.0  0.09341  0.20249  0.91350  1.0000
  C   C493      1.0  0.05383  0.31502  0.88474  1.0000
  C   C494      1.0  0.04823  0.29975  0.89039  1.0000
  C   C495      1.0  0.04299  0.29327  0.87943  1.0000
  H   H789      1.0  0.04827  0.29277  0.90322  1.0000
  H   H790      1.0  0.03901  0.28135  0.88384  1.0000
  C   C496      1.0  0.08721  0.20999  0.88899  1.0000
  C   C497      1.0  0.09836  0.20322  0.90013  1.0000
  C   C498      1.0  0.11586  0.19725  0.89401  1.0000
  C   C499      1.0  0.12232  0.19849  0.87668  1.0000
  C   C500      1.0  0.11123  0.20558  0.86551  1.0000
  C   C501      1.0  0.09363  0.21098  0.87169  1.0000
  H   H791      1.0  0.12443  0.19192  0.90266  1.0000
  H   H792      1.0  0.11625  0.20664  0.85212  1.0000
  H   H793      1.0  0.08508  0.21581  0.86306  1.0000
  C   C502      1.0  0.05022  0.20673  0.81770  1.0000
  C   C503      1.0  0.03734  0.20103  0.83086  1.0000
  C   C504      1.0  0.03142  0.18702  0.83069  1.0000
  C   C505      1.0  0.03857  0.17850  0.81747  1.0000
  C   C506      1.0  0.05087  0.18467  0.80389  1.0000
  C   C507      1.0  0.05653  0.19889  0.80392  1.0000
  H   H794      1.0  0.03186  0.20737  0.84119  1.0000
  H   H795      1.0  0.02171  0.18244  0.84110  1.0000
  H   H796      1.0  0.05601  0.17850  0.79335  1.0000
  H   H797      1.0  0.06621  0.20350  0.79347  1.0000
  C   C508      1.0  0.03335  0.41333  0.85221  1.0000
  C   C509      1.0  0.04234  0.05068  0.79609  1.0000
  C   C510      1.0  0.04669  0.04231  0.81158  1.0000
  C   C511      1.0  0.05205  0.05091  0.82059  1.0000
  C   C512      1.0  0.05362  0.06771  0.81386  1.0000
  C   C513      1.0  0.04928  0.07609  0.79835  1.0000
  C   C514      1.0  0.04331  0.06767  0.78962  1.0000
  H   H798      1.0  0.04570  0.02929  0.81676  1.0000
  H   H799      1.0  0.05522  0.04445  0.83267  1.0000
  H   H800      1.0  0.05055  0.08902  0.79304  1.0000
  H   H801      1.0  0.03982  0.07422  0.77769  1.0000
  C   C515      1.0  0.10738  0.18000  0.94694  1.0000
  H   H802      1.0  0.02371  0.10080  0.83692  1.0000
  H   H803      1.0  0.11333  0.44594  0.84341  1.0000
  H   H804      1.0  0.00684  0.20667  0.87004  1.0000
  H   H805      1.0  0.23039  0.13536  0.92870  1.0000
  H   H806      1.0  0.07554  0.45362  0.80673  1.0000
  H   H807      1.0  0.12881  0.06088  0.81329  1.0000
  H   H808      1.0  0.11900  0.00178  0.82889  1.0000
  C   C516      1.0  0.23700  0.40762  0.85150  1.0000
  H   H809      1.0  0.13671  0.18267  0.83878  1.0000
  H   H810      1.0  0.00702  0.38669  0.79833  1.0000
  H   H811      1.0  0.09550  0.20047  0.97703  1.0000
  C   C517      1.0  0.21588  0.14861  0.97495  1.0000
  N   N30       1.0  0.10697  0.03611  0.82691  1.0000
  H   H812      1.0  0.18655  0.39360  0.85240  1.0000
  C   C518      1.0  0.15898  0.12793  0.96002  1.0000
  H   H813      1.0  0.09575  0.21187  0.80009  1.0000
  C   C519      1.0  0.19044  0.42636  0.87190  1.0000
  H   H814      1.0  0.08561  0.24701  0.87551  1.0000
  H   H815      1.0  0.22878  0.06998  0.87944  1.0000
  H   H816      1.0  0.20098  0.12982  0.97989  1.0000
  H   H817      1.0  0.20487  0.15937  0.97304  1.0000
  C   C520      1.0  0.04157  0.39500  0.96565  1.0000
  C   C521      1.0  0.23736  0.07296  0.88580  1.0000
  C   C522      1.0  0.17070  0.09802  0.96947  1.0000
  C   C523      1.0  0.06391  0.38087  0.98123  1.0000
  H   H818      1.0  0.00653  0.22012  0.82506  1.0000
  C   C524      1.0  0.20995  0.11646  0.95246  1.0000
  H   H819      1.0  0.06125  0.03770  0.75331  1.0000
  H   H820      1.0  0.07955  0.29249  0.86674  1.0000
  C   C525      1.0  0.10747  0.39978  0.95778  1.0000
  H   H821      1.0  0.21628  0.06999  0.90740  1.0000
  H   H822      1.0  0.08699  0.15769  0.84184  1.0000
  H   H823      1.0  0.12646  0.17509  0.78193  1.0000
  H   H824      1.0  0.09980  0.19219  0.95006  1.0000
  H   H825      1.0  0.06192  0.42758  0.83849  1.0000
  H   H826      1.0  0.10318  0.17833  0.93619  1.0000
  H   H827      1.0  0.13437  0.16691  0.96836  1.0000
  H   H828      1.0  0.11294  0.27601  0.84546  1.0000
  H   H829      1.0  0.10500  0.18454  0.79028  1.0000
  C   C526      1.0  0.06743  0.37730  0.95273  1.0000
  H   H830      1.0  0.02982  0.01838  0.74486  1.0000
  H   H831      1.0  0.07016  0.41193  0.94679  1.0000
  C   C527      1.0  0.12547  0.02683  0.82429  1.0000
  C   C528      1.0  0.10333  0.40584  0.94007  1.0000
  H   H832      1.0  0.09243  0.01395  0.86796  1.0000
  H   H833      1.0  0.04499  0.05632  0.75002  1.0000
  C   C529      1.0  0.15994  0.13080  0.97531  1.0000
  H   H834      1.0  0.19592  0.11744  0.95506  1.0000
  H   H835      1.0  0.23635  0.04099  0.88377  1.0000
  H   H836      1.0  0.06496  0.43414  0.93922  1.0000
  N   N31       1.0  0.20417  0.41322  0.86391  1.0000
  H   H837      1.0  0.09167  0.45544  0.85044  1.0000
  H   H838      1.0  0.11827  0.23629  0.89615  1.0000
  C   C530      1.0  0.20093  0.41359  0.84705  1.0000
  H   H839      1.0  0.00426  0.25211  0.81908  1.0000
  H   H840      1.0  0.23857  0.39398  0.85749  1.0000
  H   H841      1.0  0.00596  0.00176  0.82392  1.0000
  H   H842      1.0  0.06623  0.25055  0.90197  1.0000
  C   C531      1.0  0.10495  0.16475  0.96177  1.0000
  H   H843      1.0  0.09148  0.27576  0.84577  1.0000
  H   H844      1.0  0.09062  0.45933  0.82276  1.0000
  H   H845      1.0  0.11104  0.23463  0.87875  1.0000
  H   H846      1.0  0.23167  0.14890  0.94081  1.0000
  H   H847      1.0  0.12053  0.18683  0.96780  1.0000
  H   H848      1.0  0.04175  0.31850  0.96768  1.0000
  H   H849      1.0  0.21300  0.38607  0.86733  1.0000
  H   H850      1.0  0.21858  0.46600  0.88877  1.0000
  Fe  Fe90      1.0  0.01531  0.24004  0.86865  1.0000
  N   N32       1.0  0.10783  0.16556  0.97846  1.0000
  H   H851      1.0  0.02414  0.10552  0.81505  1.0000
  Fe  Fe91      1.0  0.04728  0.01232  0.78903  1.0000
  H   H852      1.0  0.08744  0.24850  0.90421  1.0000
  H   H853      1.0  0.11428  0.01260  0.85752  1.0000
  H   H854      1.0  0.08645  0.48680  0.78128  1.0000
  H   H855      1.0  0.23863  0.13044  0.85982  1.0000
  H   H856      1.0  0.22392  0.41877  0.87265  1.0000
  H   H857      1.0  0.14059  0.00095  0.82758  1.0000
  C   C532      1.0  0.08521  0.19335  0.98241  1.0000
  C   C533      1.0  0.24610  0.46686  0.85065  1.0000
  H   H858      1.0  0.08849  0.02709  0.73671  1.0000
  H   H859      1.0  0.11994  0.39052  0.95708  1.0000
  H   H860      1.0  0.05880  0.32518  0.95119  1.0000
  H   H861      1.0  0.04566  0.16550  0.85782  1.0000
  H   H862      1.0  0.08674  0.18894  0.81276  1.0000
  H   H863      1.0  0.09154  0.44188  0.78245  1.0000
  C   C534      1.0  0.07367  0.37383  0.96743  1.0000
  H   H864      1.0  0.18335  0.40983  0.83420  1.0000
  S   S175      1.0  0.04885  0.36581  0.90755  1.0000
  S   S176      1.0  0.02431  0.25512  0.84294  1.0000
  C   C535      1.0  0.04241  0.40240  0.84137  1.0000
  C   C536      1.0  0.10145  0.02122  0.85846  1.0000
  H   H865      1.0  0.17682  0.39828  0.88117  1.0000
  H   H866      1.0  0.10639  0.44419  0.79301  1.0000
  H   H867      1.0  0.20898  0.10016  0.97789  1.0000
  H   H868      1.0  0.08673  0.28733  0.88590  1.0000
  H   H869      1.0  0.22799  0.15217  0.96725  1.0000
  H   H870      1.0  0.19041  0.43911  0.86348  1.0000
  H   H871      1.0  0.17490  0.08532  0.96721  1.0000
  H   H872      1.0  0.23714  0.40966  0.83791  1.0000
  H   H873      1.0  0.04814  0.32469  0.84444  1.0000
  H   H874      1.0  0.10251  0.42351  0.79472  1.0000
  H   H875      1.0  0.17982  0.43590  0.89492  1.0000
  C   C537      1.0  0.07723  0.25689  0.89778  1.0000
  H   H876      1.0  0.00741  0.14806  0.77268  1.0000
  C   C538      1.0  0.03233  0.03135  0.74087  1.0000
  H   H877      1.0  0.09699  0.13534  0.97976  1.0000
  H   H878      1.0  0.21173  0.40541  0.83995  1.0000
  H   H879      1.0  0.04088  0.34082  0.95802  1.0000
  H   H880      1.0  0.12192  0.24513  0.84963  1.0000
  H   H881      1.0  0.09917  0.41249  0.84204  1.0000
  C   C539      1.0  0.08360  0.41603  0.91193  1.0000
  C   C540      1.0  0.10350  0.29867  0.86457  1.0000
  H   H882      1.0  0.17743  0.42454  0.87330  1.0000
  H   H883      1.0  0.07250  0.16679  0.82812  1.0000
  H   H884      1.0  0.13143  0.02682  0.83462  1.0000
  H   H885      1.0  0.10915  0.40983  0.96288  1.0000
  H   H886      1.0  0.23942  0.46655  0.82779  1.0000
  H   H887      1.0  0.11190  0.05079  0.84202  1.0000
  H   H888      1.0  0.04715  0.45243  0.85046  1.0000
  H   H889      1.0  0.20002  0.42665  0.83902  1.0000
  H   H890      1.0  0.23296  0.07730  0.91130  1.0000
  C   C541      1.0  0.11284  0.26083  0.87864  1.0000
  H   H891      1.0  0.20239  0.43388  0.88828  1.0000
  H   H892      1.0  0.07029  0.43978  0.96402  1.0000
  C   C542      1.0  0.12156  0.17111  0.80936  1.0000
  H   H893      1.0  0.08394  0.40598  0.81547  1.0000
  H   H894      1.0  0.15601  0.14346  0.97762  1.0000
  C   C543      1.0  0.09561  0.02675  0.84154  1.0000
  H   H895      1.0  0.14248  0.16292  0.83158  1.0000
  H   H896      1.0  0.12181  0.44723  0.93352  1.0000
  H   H897      1.0  0.13218  0.23742  0.87584  1.0000
  C   C544      1.0  0.09399  0.02579  0.80751  1.0000
  C   C545      1.0  0.11292  0.48241  0.80751  1.0000
  H   H898      1.0  0.18504  0.15917  0.92843  1.0000
  C   C546      1.0  0.12937  0.00847  0.82210  1.0000
  H   H899      1.0  0.09767  0.39078  0.82797  1.0000
  H   H900      1.0  0.05780  0.33594  0.86378  1.0000
  H   H901      1.0  0.08212  0.02319  0.81667  1.0000
  C   C547      1.0  0.19594  0.14833  0.93068  1.0000
  H   H902      1.0  0.11829  0.44299  0.91538  1.0000
  H   H903      1.0  0.09066  0.40264  0.91384  1.0000
  H   H904      1.0  0.11093  0.22300  0.80026  1.0000
  H   H905      1.0  0.13455  0.16339  0.85335  1.0000
  N   N33       1.0  0.21365  0.13272  0.95355  1.0000
  C   C548      1.0  0.18499  0.40744  0.84735  1.0000
  S   S177      1.0  0.03142  0.40662  0.87419  1.0000
  C   C549      1.0  0.16438  0.11151  0.95709  1.0000
  H   H906      1.0  0.10122  0.03213  0.86353  1.0000
  H   H907      1.0  0.10019  0.24344  0.85108  1.0000
  C   C550      1.0  0.18864  0.39009  0.88490  1.0000
  H   H908      1.0  0.09727  0.31099  0.86833  1.0000
  Fe  Fe92      1.0  0.04763  0.48691  0.75252  1.0000
  H   H909      1.0  0.05326  0.45854  0.82810  1.0000
  C   C551      1.0  0.05129  0.38777  0.95186  1.0000
  N   N34       1.0  0.06650  0.15872  0.89084  1.0000
  C   C552      1.0  0.08301  0.16344  0.88013  1.0000
  C   C553      1.0  0.05765  0.15492  0.87932  1.0000
  C   C554      1.0  0.07111  0.14309  0.90415  1.0000
  C   C555      1.0  0.05611  0.17347  0.89872  1.0000
  C   C556      1.0  0.09560  0.16501  0.88979  1.0000
  C   C557      1.0  0.05091  0.17016  0.86605  1.0000
  C   C558      1.0  0.05774  0.13203  0.91243  1.0000
  C   C559      1.0  0.03762  0.17260  0.90840  1.0000
  H   H910      1.0  0.09022  0.15392  0.87233  1.0000
  H   H911      1.0  0.08047  0.17580  0.87115  1.0000
  H   H912      1.0  0.04641  0.14939  0.88636  1.0000
  H   H913      1.0  0.06637  0.14502  0.87257  1.0000
  H   H914      1.0  0.08285  0.13435  0.89878  1.0000
  H   H915      1.0  0.07440  0.14651  0.91456  1.0000
  H   H916      1.0  0.06249  0.17528  0.90790  1.0000
  H   H917      1.0  0.05561  0.18568  0.88924  1.0000
  H   H918      1.0  0.10051  0.15276  0.89782  1.0000
  H   H919      1.0  0.10691  0.16901  0.88059  1.0000
  H   H920      1.0  0.08988  0.17455  0.89764  1.0000
  H   H921      1.0  0.04028  0.17938  0.87201  1.0000
  H   H922      1.0  0.08620  0.36577  0.96810  1.0000
  S   S178      1.0  0.02578  0.47382  0.76252  1.0000
  H   H923      1.0  0.05671  0.12496  0.90351  1.0000
  H   H924      1.0  0.04498  0.13925  0.91747  1.0000
  H   H925      1.0  0.06212  0.12234  0.92320  1.0000
  H   H926      1.0  0.22341  0.12193  0.97656  1.0000
  H   H927      1.0  0.03121  0.16596  0.90316  1.0000
  H   H928      1.0  0.06580  0.34022  0.96915  1.0000
  C   C560      1.0  0.08008  0.11862  0.73823  1.0000
  C   C561      1.0  0.04806  0.31775  0.85730  1.0000
  C   C562      1.0  0.09198  0.42732  0.91745  1.0000
  C   C563      1.0  0.05346  0.32418  0.86825  1.0000
  C   C564      1.0  0.10263  0.26890  0.85174  1.0000
  N   N35       1.0  0.09226  0.42329  0.93597  1.0000
  H   H929      1.0  0.09415  0.01510  0.83896  1.0000
  H   H930      1.0  0.21476  0.11419  0.93945  1.0000
  H   H931      1.0  0.07729  0.40083  0.83830  1.0000
  H   H932      1.0  0.12343  0.15733  0.81505  1.0000
  S   S179      1.0  0.15103  0.14521  0.94495  1.0000
  H   H933      1.0  0.04645  0.39053  0.94050  1.0000
  H   H934      1.0  0.10501  0.20565  0.82813  1.0000
  S   S180      1.0  0.02702  0.25232  0.88189  1.0000
  H   H935      1.0  0.11827  0.20552  0.79025  1.0000
  C   C565      1.0  0.09136  0.18178  0.82426  1.0000
  H   H936      1.0  0.07269  0.26886  0.90228  1.0000
  C   C566      1.0  0.23027  0.13588  0.94175  1.0000
  H   H937      1.0  0.09071  0.44951  0.93536  1.0000
  H   H938      1.0  0.05647  0.42537  0.97002  1.0000
  H   H939      1.0  0.09365  0.15642  0.81987  1.0000
  C   C567      1.0  0.19183  0.42773  0.88933  1.0000
  C   C568      1.0  0.10913  0.21016  0.80115  1.0000
  C   C569      1.0  0.05875  0.32982  0.97531  1.0000
  C   C570      1.0  0.20559  0.39565  0.87497  1.0000
  H   H940      1.0  0.02914  0.40326  0.96494  1.0000
  H   H941      1.0  0.12684  0.42580  0.93130  1.0000
  H   H942      1.0  0.13318  0.03364  0.81282  1.0000
  H   H943      1.0  0.08406  0.42049  0.89818  1.0000
  H   H944      1.0  0.11562  0.40424  0.93059  1.0000
  H   H945      1.0  0.06995  0.41674  0.91831  1.0000
  H   H946      1.0  0.06098  0.17674  0.85773  1.0000
  H   H947      1.0  0.10619  0.17950  0.84905  1.0000
  C   C571      1.0  0.11758  0.43806  0.92911  1.0000
  H   H948      1.0  0.02964  0.18568  0.90746  1.0000
  H   H949      1.0  0.20694  0.15081  0.92017  1.0000
  H   H950      1.0  0.09244  0.05932  0.83499  1.0000
  H   H951      1.0  0.08918  0.05095  0.81100  1.0000
  H   H952      1.0  0.11014  0.04376  0.79968  1.0000
  H   H953      1.0  0.11221  0.15948  0.84333  1.0000
  C   C572      1.0  0.11867  0.24129  0.88245  1.0000
  H   H954      1.0  0.08350  0.18900  0.83407  1.0000
  C   C573      1.0  0.10602  0.05277  0.83108  1.0000
  H   H955      1.0  0.23518  0.05533  0.91101  1.0000
  H   H956      1.0  0.11554  0.29399  0.86925  1.0000
  H   H957      1.0  0.13461  0.17384  0.80577  1.0000
  H   H958      1.0  0.12646  0.19876  0.81739  1.0000
  H   H959      1.0  0.08234  0.03459  0.84370  1.0000
  H   H960      1.0  0.07712  0.19574  0.97314  1.0000
  H   H961      1.0  0.06493  0.46238  0.84146  1.0000
  C   C574      1.0  0.08295  0.25962  0.87840  1.0000
  H   H962      1.0  0.07155  0.26671  0.87298  1.0000
  C   C575      1.0  0.08611  0.16459  0.82880  1.0000
  H   H963      1.0  0.01119  0.25170  0.79687  1.0000
  H   H964      1.0  0.11178  0.25426  0.83231  1.0000
  H   H965      1.0  0.00808  0.41032  0.83347  1.0000
  H   H966      1.0  0.16365  0.10918  0.94536  1.0000
  C   C576      1.0  0.04316  0.30212  0.86277  1.0000
  H   H967      1.0  0.17301  0.41419  0.85440  1.0000
  H   H968      1.0  0.19205  0.13695  0.93006  1.0000
  H   H969      1.0  0.10960  0.44383  0.81860  1.0000
  H   H970      1.0  0.07161  0.43348  0.80901  1.0000
  H   H971      1.0  0.10626  0.30152  0.85060  1.0000
  H   H972      1.0  0.11172  0.16196  0.79257  1.0000
  C   C577      1.0  0.11479  0.06562  0.81686  1.0000
  N   N36       1.0  0.09767  0.26847  0.87042  1.0000
  C   C578      1.0  0.13319  0.17045  0.84042  1.0000
  S   S181      1.0  0.08072  0.36886  0.93562  1.0000
  H   H973      1.0  0.11026  0.26480  0.89084  1.0000
  H   H974      1.0  0.07259  0.43007  0.85269  1.0000
  C   C579      1.0  0.09100  0.28661  0.87239  1.0000
  C   C580      1.0  0.07405  0.42383  0.94588  1.0000
  H   H975      1.0  0.00787  0.02430  0.80146  1.0000
  H   H976      1.0  0.09900  0.43545  0.95231  1.0000
  C   C581      1.0  0.11451  0.17253  0.83923  1.0000
  C   C582      1.0  0.22092  0.41860  0.86064  1.0000
  H   H977      1.0  0.22005  0.43177  0.85303  1.0000
  C   C583      1.0  0.10943  0.25180  0.84629  1.0000
  C   C584      1.0  0.11552  0.17355  0.79284  1.0000
  H   H978      1.0  0.00064  0.23670  0.78087  1.0000
  H   H979      1.0  0.18718  0.14648  0.95746  1.0000
  H   H980      1.0  0.09718  0.39612  0.93892  1.0000
  H   H981      1.0  0.10516  0.42627  0.90951  1.0000
  H   H982      1.0  0.05879  0.01966  0.73885  1.0000
  S   S182      1.0  0.07376  0.00353  0.77471  1.0000
  H   H983      1.0  0.11690  0.47635  0.78333  1.0000
  H   H984      1.0  0.06504  0.06800  0.75373  1.0000
  H   H985      1.0  0.21314  0.39423  0.88454  1.0000
  C   C585      1.0  0.12261  0.17387  0.97570  1.0000
  N   N37       1.0  0.08619  0.43446  0.82644  1.0000
  C   C586      1.0  0.08154  0.43987  0.80938  1.0000
  C   C587      1.0  0.06993  0.43551  0.83984  1.0000
  C   C588      1.0  0.09652  0.41656  0.82919  1.0000
  C   C589      1.0  0.09683  0.44598  0.82728  1.0000
  C   C590      1.0  0.09653  0.43710  0.79421  1.0000
  C   C591      1.0  0.05837  0.45335  0.83975  1.0000
  C   C592      1.0  0.08815  0.40301  0.82751  1.0000
  C   C593      1.0  0.10002  0.44465  0.84489  1.0000
  S   S183      1.0  0.02499  0.47950  0.79982  1.0000
  H   H986      1.0  0.09187  0.16279  0.96325  1.0000
  C   C594      1.0  0.01105  0.24403  0.80986  1.0000
  C   C595      1.0  0.24677  0.12366  0.94602  1.0000
  C   C596      1.0  0.10763  0.48162  0.79338  1.0000
  S   S184      1.0  0.03548  0.99594  0.78065  1.0000
  H   H987      1.0  0.12113  0.18053  0.94237  1.0000
  H   H988      1.0  0.00730  0.04071  0.81927  1.0000
  H   H989      1.0  0.00106  0.10584  0.80292  1.0000
  C   C597      1.0  0.04923  0.32853  0.96253  1.0000
  C   C598      1.0  0.21639  0.10004  0.96479  1.0000
  C   C599      1.0  0.00682  0.13763  0.79938  1.0000
  H   H990      1.0  0.02298  0.39164  0.80623  1.0000
  H   H991      1.0  0.23015  0.09761  0.96466  1.0000
  H   H992      1.0  0.12515  0.14099  0.98128  1.0000
  H   H993      1.0  0.01970  0.40143  0.78554  1.0000
  H   H994      1.0  0.00658  0.09740  0.83033  1.0000
  H   H995      1.0  0.21415  0.08911  0.96135  1.0000
  C   C600      1.0  0.01296  0.39685  0.79866  1.0000
  H   H996      1.0  0.24846  0.12362  0.95861  1.0000
  H   H997      1.0  0.24746  0.11071  0.94486  1.0000
  H   H998      1.0  0.99981  0.05156  0.78485  1.0000
  C   C601      1.0  0.99965  0.41192  0.80481  1.0000
  H   H999      1.0  0.04184  0.35937  0.98018  1.0000
  H   H1000     1.0  0.02565  0.34856  0.98213  1.0000
  H   H1001     1.0  0.99961  0.29640  0.87249  1.0000
  H   H1002     1.0  0.24850  0.41161  0.85202  1.0000
  S   S185      1.0  0.14844  0.93685  0.06642  1.0000
  Fe  Fe93      1.0  0.13624  0.92495  0.05314  1.0000
  S   S186      1.0  0.12815  0.90030  0.06645  1.0000
  Fe  Fe94      1.0  0.16517  0.94403  0.04091  1.0000
  S   S187      1.0  0.19344  0.94395  0.03415  1.0000
  S   S188      1.0  0.11625  0.94823  0.04656  1.0000
  Fe  Fe95      1.0  0.01682  0.87338  0.06000  1.0000
  S   S189      1.0  0.01576  0.85459  0.08460  1.0000
  C   C602      1.0  0.01121  0.58127  0.16546  1.0000
  Fe  Fe96      1.0  0.05514  0.87002  0.05440  1.0000
  S   S190      1.0  0.05732  0.85034  0.07834  1.0000
  S   S191      1.0  0.07686  0.88043  0.03554  1.0000
  Fe  Fe97      1.0  0.03940  0.83915  0.07108  1.0000
  S   S192      1.0  0.03779  0.81222  0.07312  1.0000
  Fe  Fe98      1.0  0.03348  0.86759  0.08964  1.0000
  S   S193      1.0  0.03056  0.87219  0.11557  1.0000
  S   S194      1.0  0.03931  0.85738  0.04604  1.0000
  S   S195      1.0  0.03251  0.88792  0.06614  1.0000
  Fe  Fe99      1.0  0.05106  0.95388  0.15565  1.0000
  S   S196      1.0  0.07972  0.94537  0.14766  1.0000
  Fe  Fe100     1.0  0.01990  0.95254  0.18478  1.0000
  H   H1003     1.0  0.23346  0.90275  0.07075  1.0000
  S   S197      1.0  0.00815  0.94391  0.21248  1.0000
  Fe  Fe101     1.0  0.01737  0.95285  0.14916  1.0000
  C   C603      1.0  0.08079  0.72133  0.98402  1.0000
  S   S198      1.0  0.03381  0.93532  0.16670  1.0000
  S   S199      1.0  0.03880  0.96937  0.17534  1.0000
  Fe  Fe102     1.0  0.21094  0.58314  0.05222  1.0000
  S   S200      1.0  0.20069  0.57302  0.03581  1.0000
  H   H1004     1.0  0.08782  0.95047  0.98973  1.0000
  Fe  Fe103     1.0  0.17964  0.57954  0.08126  1.0000
  S   S201      1.0  0.16753  0.56878  0.06710  1.0000
  S   S202      1.0  0.16732  0.58362  0.10774  1.0000
  Fe  Fe104     1.0  0.19397  0.55368  0.05915  1.0000
  S   S203      1.0  0.20123  0.52589  0.05911  1.0000
  Fe  Fe105     1.0  0.17544  0.58924  0.04520  1.0000
  S   S204      1.0  0.15614  0.60401  0.02928  1.0000
  S   S205      1.0  0.20566  0.56266  0.07514  1.0000
  S   S206      1.0  0.18609  0.60114  0.05981  1.0000
  Fe  Fe106     1.0  0.07540  0.58971  0.16122  1.0000
  S   S207      1.0  0.08533  0.60185  0.17610  1.0000
  S   S208      1.0  0.09173  0.57337  0.14281  1.0000
  Fe  Fe107     1.0  0.03799  0.60609  0.17422  1.0000
  S   S209      1.0  0.04520  0.62003  0.18959  1.0000
  C   C604      1.0  0.03908  0.52980  0.23347  1.0000
  Fe  Fe108     1.0  0.06634  0.62521  0.16691  1.0000
  S   S210      1.0  0.07476  0.65008  0.15555  1.0000
  Fe  Fe109     1.0  0.06326  0.59551  0.19741  1.0000
  S   S211      1.0  0.05762  0.61332  0.15092  1.0000
  S   S212      1.0  0.05487  0.58127  0.18314  1.0000
  Fe  Fe110     1.0  0.08421  0.71673  0.02543  1.0000
  S   S213      1.0  0.10896  0.72241  0.02567  1.0000
  H   H1005     1.0  0.07144  0.98269  0.15208  1.0000
  Fe  Fe111     1.0  0.07844  0.69875  0.06245  1.0000
  S   S214      1.0  0.10271  0.70277  0.06570  1.0000
  S   S215      1.0  0.05960  0.68557  0.08291  1.0000
  Fe  Fe112     1.0  0.09529  0.72912  0.05066  1.0000
  S   S216      1.0  0.09955  0.75058  0.05933  1.0000
  Fe  Fe113     1.0  0.11416  0.69566  0.04064  1.0000
  S   S217      1.0  0.14077  0.67953  0.03717  1.0000
  S   S218      1.0  0.07000  0.72564  0.04925  1.0000
  S   S219      1.0  0.09043  0.68938  0.03846  1.0000
  S   S220      1.0  0.14128  0.49986  0.04916  1.0000
  H   H1006     1.0  0.13251  0.78762  0.04189  1.0000
  H   H1007     1.0  0.04355  0.72370  0.08006  1.0000
  H   H1008     1.0  0.08239  0.89107  0.99072  1.0000
  H   H1009     1.0  0.13313  0.49316  0.12133  1.0000
  H   H1010     1.0  0.20149  0.52600  0.00120  1.0000
  C   C605      1.0  0.07020  0.66043  0.13557  1.0000
  C   C606      1.0  0.08035  0.67142  0.12444  1.0000
  C   C607      1.0  0.07736  0.67913  0.10816  1.0000
  C   C608      1.0  0.06385  0.67630  0.10316  1.0000
  C   C609      1.0  0.05343  0.66571  0.11447  1.0000
  C   C610      1.0  0.05666  0.65770  0.13056  1.0000
  H   H1011     1.0  0.09080  0.67363  0.12829  1.0000
  H   H1012     1.0  0.08556  0.68713  0.09951  1.0000
  H   H1013     1.0  0.04289  0.66355  0.11072  1.0000
  H   H1014     1.0  0.04848  0.64963  0.13919  1.0000
  C   C611      1.0  0.18508  0.51872  0.05531  1.0000
  C   C612      1.0  0.17118  0.53020  0.04947  1.0000
  C   C613      1.0  0.15802  0.52427  0.04706  1.0000
  C   C614      1.0  0.15874  0.50687  0.05052  1.0000
  S   S221      1.0  0.07049  0.72582  0.00392  1.0000
  H   H1015     1.0  0.12655  0.55192  0.08996  1.0000
  H   H1016     1.0  0.17053  0.54365  0.04683  1.0000
  H   H1017     1.0  0.14712  0.53317  0.04277  1.0000
  H   H1018     1.0  0.03537  0.72044  0.10208  1.0000
  H   H1019     1.0  0.22992  0.53202  0.98904  1.0000
  C   C615      1.0  0.15173  0.62540  0.03020  1.0000
  C   C616      1.0  0.16487  0.63251  0.03065  1.0000
  C   C617      1.0  0.16129  0.64920  0.03259  1.0000
  C   C618      1.0  0.14455  0.65891  0.03409  1.0000
  C   C619      1.0  0.13137  0.65194  0.03331  1.0000
  C   C620      1.0  0.13499  0.63520  0.03123  1.0000
  H   H1020     1.0  0.17786  0.62515  0.02948  1.0000
  H   H1021     1.0  0.17152  0.65457  0.03310  1.0000
  H   H1022     1.0  0.11843  0.65939  0.03444  1.0000
  H   H1023     1.0  0.12479  0.62969  0.03093  1.0000
  C   C621      1.0  0.14619  0.58093  0.11717  1.0000
  C   C622      1.0  0.13680  0.57544  0.10903  1.0000
  C   C623      1.0  0.12005  0.57337  0.11694  1.0000
  C   C624      1.0  0.11247  0.57691  0.13296  1.0000
  C   C625      1.0  0.12172  0.58270  0.14099  1.0000
  C   C626      1.0  0.13855  0.58459  0.13316  1.0000
  H   H1024     1.0  0.14241  0.57278  0.09667  1.0000
  H   H1025     1.0  0.11282  0.56917  0.11060  1.0000
  H   H1026     1.0  0.11606  0.58539  0.15337  1.0000
  H   H1027     1.0  0.14567  0.58892  0.13953  1.0000
  S   S222      1.0  0.22756  0.96526  0.08125  1.0000
  H   H1028     1.0  0.17191  0.98205  0.04333  1.0000
  C   C627      1.0  0.21704  0.96135  0.06767  1.0000
  H   H1029     1.0  0.02473  0.57795  0.16554  1.0000
  C   C628      1.0  0.20370  0.51299  0.00910  1.0000
  H   H1030     1.0  0.23433  0.89645  0.02874  1.0000
  H   H1031     1.0  0.18254  0.93423  0.99340  1.0000
  C   C629      1.0  0.20146  0.95189  0.04696  1.0000
  H   H1032     1.0  0.19589  0.95481  0.08767  1.0000
  H   H1033     1.0  0.22697  0.60998  0.06343  1.0000
  C   C630      1.0  0.01685  0.94695  0.22807  1.0000
  H   H1034     1.0  0.03339  0.50721  0.16776  1.0000
  C   C631      1.0  0.08219  0.93922  0.99231  1.0000
  C   C632      1.0  0.03106  0.95431  0.22368  1.0000
  C   C633      1.0  0.09745  0.65470  0.99456  1.0000
  C   C634      1.0  0.10551  0.89792  0.99010  1.0000
  H   H1035     1.0  0.03727  0.95773  0.21062  1.0000
  C   C635      1.0  0.05555  0.79595  0.06828  1.0000
  C   C636      1.0  0.05376  0.78394  0.06054  1.0000
  C   C637      1.0  0.06729  0.77015  0.05740  1.0000
  C   C638      1.0  0.08261  0.76814  0.06228  1.0000
  C   C639      1.0  0.08438  0.78008  0.07014  1.0000
  C   C640      1.0  0.07092  0.79402  0.07307  1.0000
  H   H1036     1.0  0.04182  0.78530  0.05696  1.0000
  H   H1037     1.0  0.06582  0.76108  0.05127  1.0000
  H   H1038     1.0  0.09611  0.77835  0.07424  1.0000
  H   H1039     1.0  0.07218  0.80294  0.07953  1.0000
  C   C641      1.0  0.01340  0.92543  0.12663  1.0000
  C   C642      1.0  0.01985  0.91158  0.13844  1.0000
  C   C643      1.0  0.02507  0.89533  0.13487  1.0000
  C   C644      1.0  0.02407  0.89284  0.11941  1.0000
  C   C645      1.0  0.01763  0.90670  0.10758  1.0000
  C   C646      1.0  0.01214  0.92292  0.11127  1.0000
  H   H1040     1.0  0.02061  0.91333  0.15042  1.0000
  H   H1041     1.0  0.02993  0.88463  0.14412  1.0000
  H   H1042     1.0  0.01669  0.90492  0.09569  1.0000
  H   H1043     1.0  0.13150  0.51952  0.07752  1.0000
  H   H1044     1.0  0.15560  0.98097  0.09985  1.0000
  C   C647      1.0  0.08952  0.95517  0.12744  1.0000
  C   C648      1.0  0.10613  0.94764  0.12004  1.0000
  C   C649      1.0  0.11388  0.95479  0.10359  1.0000
  H   H1045     1.0  0.11284  0.93598  0.12688  1.0000
  H   H1046     1.0  0.12656  0.94872  0.09785  1.0000
  C   C650      1.0  0.11402  0.89484  0.05768  1.0000
  C   C651      1.0  0.11058  0.90378  0.04195  1.0000
  C   C652      1.0  0.09913  0.89930  0.03527  1.0000
  C   C653      1.0  0.09068  0.88623  0.04446  1.0000
  C   C654      1.0  0.09385  0.87753  0.06035  1.0000
  C   C655      1.0  0.10580  0.88157  0.06676  1.0000
  H   H1047     1.0  0.11688  0.91403  0.03485  1.0000
  H   H1048     1.0  0.09669  0.90615  0.02307  1.0000
  H   H1049     1.0  0.08737  0.86748  0.06758  1.0000
  H   H1050     1.0  0.10848  0.87455  0.07891  1.0000
  S   S223      1.0  0.15486  0.92977  0.02831  1.0000
  H   H1051     1.0  0.00342  0.84957  0.05043  1.0000
  C   C656      1.0  0.02411  0.56003  0.22456  1.0000
  H   H1052     1.0  0.11478  0.98378  0.15720  1.0000
  H   H1053     1.0  0.00120  0.62999  0.13767  1.0000
  H   H1054     1.0  0.13569  0.80792  0.04117  1.0000
  N   N38       1.0  0.07569  0.92127  0.10007  1.0000
  C   C657      1.0  0.06832  0.94006  0.09728  1.0000
  C   C658      1.0  0.06410  0.91251  0.11492  1.0000
  C   C659      1.0  0.07698  0.91451  0.08486  1.0000
  C   C660      1.0  0.09345  0.91798  0.10320  1.0000
  C   C661      1.0  0.07734  0.95093  0.08123  1.0000
  C   C662      1.0  0.06239  0.91694  0.13197  1.0000
  C   C663      1.0  0.06031  0.91831  0.07850  1.0000
  C   C664      1.0  0.10188  0.89929  0.10932  1.0000
  H   H1055     1.0  0.05446  0.94293  0.09713  1.0000
  H   H1056     1.0  0.06885  0.94510  0.10799  1.0000
  H   H1057     1.0  0.06812  0.89850  0.11651  1.0000
  H   H1058     1.0  0.05088  0.91572  0.11276  1.0000
  H   H1059     1.0  0.08697  0.91914  0.07408  1.0000
  H   H1060     1.0  0.08121  0.90052  0.08759  1.0000
  H   H1061     1.0  0.10241  0.92285  0.09152  1.0000
  H   H1062     1.0  0.09351  0.92495  0.11260  1.0000
  H   H1063     1.0  0.09094  0.94973  0.08127  1.0000
  H   H1064     1.0  0.07648  0.94793  0.06953  1.0000
  H   H1065     1.0  0.07101  0.96447  0.08079  1.0000
  H   H1066     1.0  0.07483  0.91462  0.13554  1.0000
  H   H1067     1.0  0.05557  0.93026  0.13204  1.0000
  H   H1068     1.0  0.05461  0.90885  0.14207  1.0000
  H   H1069     1.0  0.05478  0.93202  0.07509  1.0000
  H   H1070     1.0  0.05062  0.91178  0.08778  1.0000
  H   H1071     1.0  0.06323  0.91327  0.06690  1.0000
  H   H1072     1.0  0.09516  0.89375  0.12208  1.0000
  H   H1073     1.0  0.11519  0.89856  0.11014  1.0000
  H   H1074     1.0  0.10282  0.89138  0.10043  1.0000
  C   C665      1.0  0.07328  0.82267  0.03149  1.0000
  H   H1075     1.0  0.07904  0.68760  0.98933  1.0000
  C   C666      1.0  0.11083  0.66507  0.99267  1.0000
  C   C667      1.0  0.21833  0.51024  0.01831  1.0000
  C   C668      1.0  0.19373  0.95126  0.06400  1.0000
  H   H1076     1.0  0.03560  0.55480  0.19924  1.0000
  Fe  Fe114     1.0  0.12970  0.96051  0.05803  1.0000
  H   H1077     1.0  0.05898  0.71113  0.12392  1.0000
  H   H1078     1.0  0.07286  0.63551  0.01049  1.0000
  S   S224      1.0  0.06317  0.58177  0.22479  1.0000
  H   H1079     1.0  0.16208  0.97799  0.07884  1.0000
  H   H1080     1.0  0.05968  0.82476  0.03831  1.0000
  H   H1081     1.0  0.07346  0.82939  0.01818  1.0000
  H   H1082     1.0  0.10462  0.79937  0.03445  1.0000
  H   H1083     1.0  0.23026  0.56915  0.11647  1.0000
  H   H1084     1.0  0.05434  0.71612  0.15045  1.0000
  H   H1085     1.0  0.21919  0.52313  0.01867  1.0000
  C   C669      1.0  0.24620  0.91175  0.03715  1.0000
  C   C670      1.0  0.12863  0.50001  0.10947  1.0000
  C   C671      1.0  0.12928  0.80128  0.03587  1.0000
  H   H1086     1.0  0.10109  0.53912  0.11315  1.0000
  H   H1087     1.0  0.06411  0.77039  0.10796  1.0000
  H   H1088     1.0  0.01458  0.56720  0.20140  1.0000
  C   C672      1.0  0.22414  0.96299  0.05042  1.0000
  C   C673      1.0  0.08899  0.97779  0.10238  1.0000
  H   H1089     1.0  0.21393  0.50405  0.03168  1.0000
  H   H1090     1.0  0.05801  0.63321  0.99992  1.0000
  H   H1091     1.0  0.22232  0.95886  0.02690  1.0000
  H   H1092     1.0  0.05203  0.49626  0.15556  1.0000
  C   C674      1.0  0.10962  0.80736  0.03970  1.0000
  H   H1093     1.0  0.05589  0.89587  0.98676  1.0000
  H   H1094     1.0  0.20525  0.50369  0.00148  1.0000
  S   S225      1.0  0.12921  0.96660  0.99728  1.0000
  H   H1095     1.0  0.09845  0.84833  0.99291  1.0000
  H   H1096     1.0  0.24587  0.88438  0.04466  1.0000
  H   H1097     1.0  0.09119  0.65225  0.00820  1.0000
  H   H1098     1.0  0.12300  0.98039  0.13640  1.0000
  C   C675      1.0  0.14711  0.62782  0.98811  1.0000
  N   N39       1.0  0.23571  0.50042  0.01107  1.0000
  H   H1099     1.0  0.24406  0.62310  0.07435  1.0000
  H   H1100     1.0  0.17227  0.61245  0.98794  1.0000
  H   H1101     1.0  0.01768  0.54496  0.20959  1.0000
  C   C676      1.0  0.17297  0.49539  0.05577  1.0000
  C   C677      1.0  0.24079  0.60735  0.05957  1.0000
  H   H1102     1.0  0.00552  0.98590  0.20718  1.0000
  H   H1103     1.0  0.11031  0.90840  0.99146  1.0000
  C   C678      1.0  0.08607  0.90277  0.99084  1.0000
  C   C679      1.0  0.10731  0.82971  0.01421  1.0000
  H   H1104     1.0  0.23636  0.92343  0.03385  1.0000
  C   C680      1.0  0.15638  0.59019  0.98579  1.0000
  C   C681      1.0  0.21650  0.95805  0.04015  1.0000
  H   H1105     1.0  0.11730  0.55157  0.07374  1.0000
  S   S226      1.0  0.03545  0.97033  0.13709  1.0000
  H   H1106     1.0  0.09667  0.96632  0.16272  1.0000
  H   H1107     1.0  0.08730  0.71092  0.12018  1.0000
  H   H1108     1.0  0.10480  0.67769  0.99567  1.0000
  H   H1109     1.0  0.07770  0.80886  0.03230  1.0000
  H   H1110     1.0  0.07961  0.50032  0.16340  1.0000
  H   H1111     1.0  0.18211  0.94653  0.06935  1.0000
  S   S227      1.0  0.00186  0.96868  0.16804  1.0000
  N   N40       1.0  0.11455  0.63261  0.09189  1.0000
  C   C682      1.0  0.09527  0.63523  0.09600  1.0000
  C   C683      1.0  0.12067  0.62374  0.10799  1.0000
  C   C684      1.0  0.12141  0.62107  0.07955  1.0000
  C   C685      1.0  0.11938  0.64959  0.08426  1.0000
  C   C686      1.0  0.08644  0.64282  0.08087  1.0000
  C   C687      1.0  0.11230  0.63231  0.12312  1.0000
  C   C688      1.0  0.14097  0.61567  0.07426  1.0000
  C   C689      1.0  0.13648  0.65151  0.08661  1.0000
  H   H1112     1.0  0.09122  0.62310  0.10271  1.0000
  H   H1113     1.0  0.08938  0.64396  0.10481  1.0000
  H   H1114     1.0  0.13472  0.62198  0.10619  1.0000
  H   H1115     1.0  0.11823  0.61072  0.11212  1.0000
  H   H1116     1.0  0.11641  0.60923  0.08474  1.0000
  H   H1117     1.0  0.11704  0.62709  0.06753  1.0000
  H   H1118     1.0  0.11982  0.65311  0.07044  1.0000
  H   H1119     1.0  0.10943  0.65989  0.08943  1.0000
  H   H1120     1.0  0.07239  0.64628  0.08569  1.0000
  H   H1121     1.0  0.09048  0.65455  0.07298  1.0000
  H   H1122     1.0  0.08859  0.63352  0.07299  1.0000
  H   H1123     1.0  0.12000  0.62687  0.13299  1.0000
  H   H1124     1.0  0.11143  0.64615  0.11956  1.0000
  H   H1125     1.0  0.09931  0.62977  0.12901  1.0000
  H   H1126     1.0  0.14655  0.62637  0.06593  1.0000
  H   H1127     1.0  0.14406  0.60591  0.06667  1.0000
  H   H1128     1.0  0.14733  0.60985  0.08502  1.0000
  H   H1129     1.0  0.13578  0.65186  0.09982  1.0000
  H   H1130     1.0  0.13924  0.66378  0.07863  1.0000
  H   H1131     1.0  0.14754  0.64154  0.08273  1.0000
  H   H1132     1.0  0.05193  0.76128  0.12817  1.0000
  C   C690      1.0  0.20154  0.95596  0.07434  1.0000
  H   H1133     1.0  0.03442  0.52534  0.22470  1.0000
  C   C691      1.0  0.13605  0.93569  0.98904  1.0000
  H   H1134     1.0  0.14345  0.59474  0.99327  1.0000
  H   H1135     1.0  0.15037  0.63722  0.99308  1.0000
  H   H1136     1.0  0.05593  0.92288  0.99480  1.0000
  H   H1137     1.0  0.11021  0.85597  0.00340  1.0000
  C   C692      1.0  0.18609  0.50130  0.05827  1.0000
  H   H1138     1.0  0.03919  0.72529  0.12508  1.0000
  H   H1139     1.0  0.13472  0.80233  0.02218  1.0000
  C   C693      1.0  0.05749  0.53198  0.22478  1.0000
  H   H1140     1.0  0.10334  0.82094  0.00898  1.0000
  C   C694      1.0  0.02292  0.55612  0.20805  1.0000
  C   C695      1.0  0.06447  0.64246  0.00148  1.0000
  H   H1141     1.0  0.23130  0.91795  0.09221  1.0000
  H   H1142     1.0  0.10366  0.72218  0.10837  1.0000
  C   C696      1.0  0.08570  0.97290  0.17117  1.0000
  H   H1143     1.0  0.22510  0.89840  0.04988  1.0000
  C   C697      1.0  0.00116  0.59647  0.16962  1.0000
  S   S228      1.0  0.11484  0.97926  0.07427  1.0000
  C   C698      1.0  0.08101  0.97030  0.11859  1.0000
  H   H1144     1.0  0.04860  0.69637  0.98987  1.0000
  H   H1145     1.0  0.03362  0.74176  0.08901  1.0000
  H   H1146     1.0  0.05782  0.54395  0.21516  1.0000
  H   H1147     1.0  0.04163  0.77804  0.11361  1.0000
  H   H1148     1.0  0.06837  0.97635  0.12425  1.0000
  H   H1149     1.0  0.23250  0.59026  0.10459  1.0000
  H   H1150     1.0  0.19695  0.49238  0.06262  1.0000
  S   S229      1.0  0.00954  0.61036  0.17572  1.0000
  H   H1151     1.0  0.08780  0.92980  0.00246  1.0000
  H   H1152     1.0  0.09332  0.71426  0.09734  1.0000
  H   H1153     1.0  0.05430  0.65232  0.00696  1.0000
  C   C699      1.0  0.24322  0.91652  0.08228  1.0000
  H   H1154     1.0  0.06430  0.52135  0.21835  1.0000
  H   H1155     1.0  0.10814  0.88728  0.00088  1.0000
  H   H1156     1.0  0.06893  0.61515  0.22286  1.0000
  H   H1157     1.0  0.08833  0.85442  0.01229  1.0000
  H   H1158     1.0  0.23105  0.50105  0.98663  1.0000
  H   H1159     1.0  0.10505  0.80375  0.05358  1.0000
  H   H1160     1.0  0.19156  0.51226  0.01866  1.0000
  S   S230      1.0  0.23790  0.58683  0.04028  1.0000
  N   N41       1.0  0.13360  0.51700  0.10312  1.0000
  H   H1161     1.0  0.07771  0.96344  0.17796  1.0000
  C   C700      1.0  0.12701  0.52617  0.11749  1.0000
  C   C701      1.0  0.15295  0.51382  0.09815  1.0000
  C   C702      1.0  0.12579  0.52626  0.08807  1.0000
  H   H1162     1.0  0.04834  0.96295  0.23272  1.0000
  C   C703      1.0  0.10738  0.53084  0.12344  1.0000
  C   C704      1.0  0.16148  0.52777  0.09859  1.0000
  H   H1163     1.0  0.08996  0.97626  0.18094  1.0000
  H   H1164     1.0  0.10172  0.51956  0.12915  1.0000
  C   C705      1.0  0.24826  0.50057  0.03601  1.0000
  H   H1165     1.0  0.13134  0.53820  0.11441  1.0000
  H   H1166     1.0  0.13244  0.51851  0.12862  1.0000
  H   H1167     1.0  0.15887  0.50220  0.10650  1.0000
  H   H1168     1.0  0.15756  0.51132  0.08521  1.0000
  H   H1169     1.0  0.15595  0.54035  0.09167  1.0000
  H   H1170     1.0  0.11198  0.52603  0.09064  1.0000
  H   H1171     1.0  0.00491  0.84561  0.00408  1.0000
  H   H1172     1.0  0.22323  0.57782  0.09711  1.0000
  C   C706      1.0  0.00369  0.57029  0.16128  1.0000
  H   H1173     1.0  0.00705  0.93358  0.10213  1.0000
  C   C707      1.0  0.23748  0.89677  0.04061  1.0000
  H   H1174     1.0  0.10426  0.53819  0.13342  1.0000
  H   H1175     1.0  0.17529  0.52474  0.09254  1.0000
  H   H1176     1.0  0.16077  0.52840  0.11175  1.0000
  H   H1177     1.0  0.14021  0.54508  0.07134  1.0000
  C   C708      1.0  0.07222  0.67741  0.99105  1.0000
  H   H1178     1.0  0.06819  0.94328  0.99684  1.0000
  H   H1179     1.0  0.16493  0.58613  0.99495  1.0000
  N   N42       1.0  0.10275  0.82591  0.03320  1.0000
  H   H1180     1.0  0.06545  0.73233  0.14025  1.0000
  C   C709      1.0  0.08360  0.82963  0.03972  1.0000
  C   C710      1.0  0.11042  0.83687  0.03924  1.0000
  C   C711      1.0  0.23338  0.57712  0.10370  1.0000
  H   H1181     1.0  0.04228  0.73752  0.14529  1.0000
  H   H1182     1.0  0.14055  0.61953  0.99913  1.0000
  C   C712      1.0  0.10866  0.83340  0.05848  1.0000
  H   H1183     1.0  0.07961  0.90542  0.00355  1.0000
  H   H1184     1.0  0.01146  0.55850  0.15814  1.0000
  H   H1185     1.0  0.03489  0.56670  0.22095  1.0000
  H   H1186     1.0  0.07822  0.84344  0.03854  1.0000
  H   H1187     1.0  0.08031  0.82436  0.05350  1.0000
  H   H1188     1.0  0.12424  0.83591  0.03319  1.0000
  H   H1189     1.0  0.10443  0.85047  0.03527  1.0000
  C   C713      1.0  0.12780  0.54465  0.08046  1.0000
  H   H1190     1.0  0.23576  0.96768  0.04504  1.0000
  H   H1191     1.0  0.13883  0.93020  0.00141  1.0000
  C   C714      1.0  0.23886  0.91430  0.06647  1.0000
  S   S231      1.0  0.14732  0.96873  0.03355  1.0000
  C   C715      1.0  0.10531  0.96990  0.09474  1.0000
  H   H1192     1.0  0.07741  0.49292  0.19840  1.0000
  Fe  Fe115     1.0  0.13577  0.95411  0.02271  1.0000
  H   H1193     1.0  0.09508  0.83545  0.06525  1.0000
  H   H1194     1.0  0.11447  0.84244  0.06133  1.0000
  H   H1195     1.0  0.11554  0.82051  0.06360  1.0000
  C   C716      1.0  0.04233  0.49471  0.16753  1.0000
  H   H1196     1.0  0.06770  0.67359  0.00495  1.0000
  H   H1197     1.0  0.12885  0.49232  0.08639  1.0000
  N   N43       1.0  0.05986  0.73626  0.10797  1.0000
  C   C717      1.0  0.05976  0.72921  0.09335  1.0000
  C   C718      1.0  0.07809  0.73708  0.10665  1.0000
  C   C719      1.0  0.04853  0.75386  0.10617  1.0000
  C   C720      1.0  0.05295  0.72470  0.12403  1.0000
  C   C721      1.0  0.04193  0.72893  0.09126  1.0000
  C   C722      1.0  0.09110  0.71999  0.10830  1.0000
  C   C723      1.0  0.05191  0.76636  0.11464  1.0000
  C   C724      1.0  0.05380  0.72816  0.14078  1.0000
  H   H1198     1.0  0.06617  0.73649  0.08124  1.0000
  H   H1199     1.0  0.06718  0.71593  0.09436  1.0000
  H   H1200     1.0  0.07921  0.74324  0.11622  1.0000
  H   H1201     1.0  0.08285  0.74526  0.09440  1.0000
  H   H1202     1.0  0.04970  0.76035  0.09261  1.0000
  H   H1203     1.0  0.03479  0.75327  0.11097  1.0000
  C   C725      1.0  0.10072  0.84817  0.00534  1.0000
  C   C726      1.0  0.24012  0.50432  0.99203  1.0000
  H   H1204     1.0  0.22813  0.92503  0.06320  1.0000
  H   H1205     1.0  0.23527  0.50502  0.04334  1.0000
  H   H1206     1.0  0.01239  0.56949  0.22847  1.0000
  Fe  Fe116     1.0  0.02167  0.98447  0.15761  1.0000
  H   H1207     1.0  0.10626  0.71264  0.98882  1.0000
  H   H1208     1.0  0.10447  0.64197  0.99222  1.0000
  H   H1209     1.0  0.05559  0.50003  0.18311  1.0000
  H   H1210     1.0  0.12145  0.82725  0.00962  1.0000
  S   S232      1.0  0.00626  0.94588  0.13090  1.0000
  H   H1211     1.0  0.11449  0.50149  0.11268  1.0000
  H   H1212     1.0  0.15191  0.56468  0.99241  1.0000
  H   H1213     1.0  0.11924  0.65828  0.00172  1.0000
  H   H1214     1.0  0.00781  0.86228  0.98589  1.0000
  H   H1215     1.0  0.04772  0.67712  0.98545  1.0000
  H   H1216     1.0  0.24813  0.92807  0.07998  1.0000
  C   C727      1.0  0.16003  0.98741  0.08659  1.0000
  C   C728      1.0  0.07486  0.98809  0.16104  1.0000
  C   C729      1.0  0.07481  0.64977  0.98411  1.0000
  H   H1217     1.0  0.05716  0.49073  0.21252  1.0000
  H   H1218     1.0  0.24841  0.51902  0.01293  1.0000
  H   H1219     1.0  0.00930  0.48907  0.21785  1.0000
  C   C730      1.0  0.13086  0.95321  0.98395  1.0000
  C   C731      1.0  0.05038  0.48923  0.18313  1.0000
  N   N44       1.0  0.08421  0.66279  0.98389  1.0000
  Fe  Fe117     1.0  0.03289  0.84236  0.42549  1.0000
  S   S233      1.0  0.05844  0.82647  0.41601  1.0000
  Fe  Fe118     1.0  0.03827  0.83425  0.46099  1.0000
  S   S234      1.0  0.06426  0.81775  0.45474  1.0000
  Fe  Fe119     1.0  0.06827  0.83810  0.43148  1.0000
  S   S235      1.0  0.09353  0.84614  0.42154  1.0000
  Fe  Fe120     1.0  0.05222  0.80742  0.44003  1.0000
  S   S236      1.0  0.06017  0.77928  0.44103  1.0000
  S   S237      1.0  0.04316  0.85557  0.43894  1.0000
  Fe  Fe121     1.0  0.11353  0.93172  0.41800  1.0000
  S   S238      1.0  0.13128  0.92713  0.39369  1.0000
  S   S239      1.0  0.09851  0.91370  0.43722  1.0000
  Fe  Fe122     1.0  0.11601  0.96842  0.41055  1.0000
  S   S240      1.0  0.13370  0.96701  0.38536  1.0000
  H   H1220     1.0  0.04002  0.51890  0.24443  1.0000
  Fe  Fe123     1.0  0.11646  0.95223  0.38210  1.0000
  S   S241      1.0  0.10986  0.95528  0.35696  1.0000
  Fe  Fe124     1.0  0.14707  0.94217  0.39908  1.0000
  S   S242      1.0  0.17600  0.93421  0.39185  1.0000
  S   S243      1.0  0.09759  0.95581  0.40608  1.0000
  S   S244      1.0  0.13047  0.94458  0.42470  1.0000
  Fe  Fe125     1.0  0.02890  0.94696  0.29645  1.0000
  S   S245      1.0  0.01146  0.96475  0.31262  1.0000
  S   S246      1.0  0.03779  0.95706  0.26854  1.0000
  Fe  Fe126     1.0  0.03103  0.91704  0.32614  1.0000
  N   N45       1.0  0.21105  0.62078  0.42111  1.0000
  S   S247      1.0  0.04310  0.88962  0.33475  1.0000
  Fe  Fe127     1.0  0.02866  0.95220  0.33104  1.0000
  S   S248      1.0  0.03376  0.96542  0.34867  1.0000
  S   S249      1.0  0.01422  0.92629  0.30725  1.0000
  S   S250      1.0  0.04743  0.93618  0.31387  1.0000
  C   C732      1.0  0.14645  0.97321  0.46864  1.0000
  H   H1221     1.0  0.24042  0.91187  0.41175  1.0000
  H   H1222     1.0  0.09641  0.54042  0.46077  1.0000
  H   H1223     1.0  0.06541  0.52280  0.28093  1.0000
  N   N46       1.0  0.09610  0.52917  0.28658  1.0000
  Fe  Fe128     1.0  0.17232  0.57328  0.42549  1.0000
  S   S251      1.0  0.15728  0.55397  0.44151  1.0000
  S   S252      1.0  0.19911  0.56458  0.41109  1.0000
  Fe  Fe129     1.0  0.14285  0.60294  0.43269  1.0000
  S   S253      1.0  0.12553  0.58606  0.44937  1.0000
  S   S254      1.0  0.13498  0.63136  0.42682  1.0000
  Fe  Fe130     1.0  0.14855  0.57120  0.45975  1.0000
  S   S255      1.0  0.22834  0.94857  0.42591  1.0000
  Fe  Fe131     1.0  0.13567  0.57060  0.42953  1.0000
  S   S256      1.0  0.11645  0.56050  0.42283  1.0000
  S   S257      1.0  0.16525  0.58939  0.44465  1.0000
  S   S258      1.0  0.15139  0.58865  0.41189  1.0000
  Fe  Fe132     1.0  0.02153  0.71341  0.42652  1.0000
  C   C733      1.0  0.01126  0.88074  0.38057  1.0000
  Fe  Fe133     1.0  0.03587  0.68728  0.40436  1.0000
  S   S259      1.0  0.03048  0.66544  0.42583  1.0000
  S   S260      1.0  0.04885  0.68303  0.37822  1.0000
  Fe  Fe134     1.0  0.04122  0.67789  0.43980  1.0000
  S   S261      1.0  0.05791  0.66224  0.45804  1.0000
  S   S262      1.0  0.04821  0.69877  0.41791  1.0000
  Fe  Fe135     1.0  0.08454  0.59062  0.33863  1.0000
  S   S263      1.0  0.06055  0.58507  0.35676  1.0000
  S   S264      1.0  0.10925  0.58738  0.34665  1.0000
  Fe  Fe136     1.0  0.06724  0.60275  0.30815  1.0000
  S   S265      1.0  0.04196  0.59792  0.32421  1.0000
  S   S266      1.0  0.06938  0.61634  0.28066  1.0000
  Fe  Fe137     1.0  0.04742  0.60964  0.34256  1.0000
  S   S267      1.0  0.02630  0.62775  0.35605  1.0000
  Fe  Fe138     1.0  0.05768  0.57392  0.33668  1.0000
  S   S268      1.0  0.05221  0.54791  0.34440  1.0000
  S   S269      1.0  0.07169  0.61614  0.32582  1.0000
  S   S270      1.0  0.08272  0.57774  0.31925  1.0000
  S   S271      1.0  0.01033  0.74019  0.43023  1.0000
  S   S272      1.0  0.01763  0.52964  0.29583  1.0000
  H   H1224     1.0  0.09164  0.54708  0.48051  1.0000
  C   C734      1.0  0.04282  0.54310  0.33059  1.0000
  C   C735      1.0  0.03431  0.55590  0.31930  1.0000
  C   C736      1.0  0.02648  0.55172  0.30868  1.0000
  C   C737      1.0  0.02758  0.53474  0.30902  1.0000
  C   C738      1.0  0.03647  0.52196  0.31999  1.0000
  C   C739      1.0  0.04384  0.52614  0.33095  1.0000
  H   H1225     1.0  0.03345  0.56901  0.31898  1.0000
  H   H1226     1.0  0.01964  0.56165  0.30018  1.0000
  C   C740      1.0  0.09747  0.52424  0.36728  1.0000
  H   H1227     1.0  0.05043  0.51623  0.33967  1.0000
  C   C741      1.0  0.04198  0.66833  0.37172  1.0000
  C   C742      1.0  0.02656  0.66334  0.38005  1.0000
  C   C743      1.0  0.02169  0.65111  0.37494  1.0000
  C   C744      1.0  0.03247  0.64339  0.36192  1.0000
  C   C745      1.0  0.04789  0.64838  0.35364  1.0000
  C   C746      1.0  0.05247  0.66104  0.35832  1.0000
  H   H1228     1.0  0.01835  0.66899  0.39034  1.0000
  H   H1229     1.0  0.00727  0.88752  0.27916  1.0000
  H   H1230     1.0  0.05628  0.64260  0.34358  1.0000
  H   H1231     1.0  0.06441  0.66488  0.35187  1.0000
  H   H1232     1.0  0.12700  0.85440  0.46532  1.0000
  H   H1233     1.0  0.01475  0.67280  0.27815  1.0000
  H   H1234     1.0  0.01215  0.56175  0.26842  1.0000
  H   H1235     1.0  0.11471  0.81383  0.48193  1.0000
  C   C747      1.0  0.11448  0.56784  0.40168  1.0000
  C   C748      1.0  0.12818  0.57262  0.38903  1.0000
  C   C749      1.0  0.12637  0.57853  0.37222  1.0000
  C   C750      1.0  0.11085  0.57984  0.36794  1.0000
  C   C751      1.0  0.09710  0.57514  0.38063  1.0000
  C   C752      1.0  0.09899  0.56895  0.39743  1.0000
  H   H1236     1.0  0.14028  0.57152  0.39211  1.0000
  H   H1237     1.0  0.13708  0.58211  0.36247  1.0000
  H   H1238     1.0  0.08504  0.57616  0.37754  1.0000
  H   H1239     1.0  0.08835  0.56524  0.40718  1.0000
  C   C753      1.0  0.11344  0.63967  0.43537  1.0000
  C   C754      1.0  0.10492  0.63138  0.45081  1.0000
  C   C755      1.0  0.08791  0.63846  0.45771  1.0000
  C   C756      1.0  0.07912  0.65354  0.44894  1.0000
  C   C757      1.0  0.08751  0.66166  0.43333  1.0000
  C   C758      1.0  0.10473  0.65489  0.42671  1.0000
  H   H1240     1.0  0.11147  0.61965  0.45757  1.0000
  H   H1241     1.0  0.08146  0.63214  0.46979  1.0000
  H   H1242     1.0  0.08086  0.67335  0.42651  1.0000
  H   H1243     1.0  0.11125  0.66138  0.41477  1.0000
  S   S273      1.0  0.01569  0.69347  0.44963  1.0000
  S   S274      1.0  0.01355  0.93228  0.34450  1.0000
  H   H1244     1.0  0.22477  0.59999  0.45035  1.0000
  C   C759      1.0  0.06255  0.58317  0.25705  1.0000
  C   C760      1.0  0.06386  0.59055  0.26963  1.0000
  C   C761      1.0  0.06717  0.60678  0.26532  1.0000
  H   H1245     1.0  0.05606  0.75644  0.47783  1.0000
  H   H1246     1.0  0.10255  0.54727  0.29666  1.0000
  H   H1247     1.0  0.06023  0.57058  0.26041  1.0000
  H   H1248     1.0  0.06239  0.58367  0.28262  1.0000
  C   C762      1.0  0.01754  0.76638  0.43843  1.0000
  S   S275      1.0  0.00998  0.70395  0.41072  1.0000
  C   C763      1.0  0.05753  0.73211  0.47268  1.0000
  C   C764      1.0  0.22593  0.56659  0.44375  1.0000
  C   C765      1.0  0.21259  0.56574  0.43700  1.0000
  C   C766      1.0  0.21585  0.56410  0.42032  1.0000
  C   C767      1.0  0.23262  0.56251  0.41066  1.0000
  H   H1249     1.0  0.00516  0.98452  0.26170  1.0000
  H   H1250     1.0  0.22328  0.56826  0.45654  1.0000
  H   H1251     1.0  0.19977  0.56659  0.44463  1.0000
  H   H1252     1.0  0.01269  0.67768  0.30293  1.0000
  H   H1253     1.0  0.07686  0.66079  0.28054  1.0000
  H   H1254     1.0  0.11092  0.88342  0.46309  1.0000
  C   C768      1.0  0.18986  0.93994  0.40082  1.0000
  C   C769      1.0  0.20715  0.93858  0.39257  1.0000
  C   C770      1.0  0.21895  0.94169  0.39992  1.0000
  C   C771      1.0  0.21359  0.94592  0.41573  1.0000
  C   C772      1.0  0.19622  0.94766  0.42383  1.0000
  C   C773      1.0  0.18436  0.94472  0.41639  1.0000
  H   H1255     1.0  0.21143  0.93503  0.38046  1.0000
  N   N47       1.0  0.22181  0.50458  0.41303  1.0000
  H   H1256     1.0  0.19195  0.95108  0.43600  1.0000
  H   H1257     1.0  0.17107  0.94580  0.42283  1.0000
  H   H1258     1.0  0.02327  0.78688  0.44526  1.0000
  H   H1259     1.0  0.11405  0.55736  0.27005  1.0000
  H   H1260     1.0  0.01044  0.65220  0.32460  1.0000
  C   C774      1.0  0.08309  0.94628  0.48191  1.0000
  H   H1261     1.0  0.11938  0.52756  0.26730  1.0000
  C   C775      1.0  0.08859  0.95823  0.35497  1.0000
  C   C776      1.0  0.07458  0.96212  0.36797  1.0000
  C   C777      1.0  0.05781  0.96451  0.36582  1.0000
  C   C778      1.0  0.05495  0.96270  0.35082  1.0000
  C   C779      1.0  0.06895  0.95879  0.33784  1.0000
  C   C780      1.0  0.08569  0.95674  0.33987  1.0000
  H   H1262     1.0  0.07664  0.96341  0.37962  1.0000
  H   H1263     1.0  0.04702  0.96763  0.37587  1.0000
  H   H1264     1.0  0.06689  0.95753  0.32617  1.0000
  H   H1265     1.0  0.09646  0.95386  0.32971  1.0000
  C   C781      1.0  0.02427  0.75100  0.43314  1.0000
  C   C782      1.0  0.04616  0.76886  0.43766  1.0000
  C   C783      1.0  0.05284  0.75347  0.43241  1.0000
  C   C784      1.0  0.04193  0.74449  0.43026  1.0000
  H   H1266     1.0  0.06654  0.74855  0.42992  1.0000
  H   H1267     1.0  0.04721  0.73270  0.42608  1.0000
  H   H1268     1.0  0.04306  0.86533  0.46803  1.0000
  C   C785      1.0  0.09436  0.86546  0.42517  1.0000
  C   C786      1.0  0.08133  0.87343  0.43669  1.0000
  C   C787      1.0  0.08254  0.88849  0.43991  1.0000
  C   C788      1.0  0.09667  0.89579  0.43152  1.0000
  C   C789      1.0  0.10956  0.88803  0.41974  1.0000
  C   C790      1.0  0.10846  0.87279  0.41668  1.0000
  H   H1269     1.0  0.07051  0.86780  0.44341  1.0000
  H   H1270     1.0  0.07253  0.89446  0.44899  1.0000
  H   H1271     1.0  0.12059  0.89349  0.41333  1.0000
  H   H1272     1.0  0.11859  0.86665  0.40775  1.0000
  C   C791      1.0  0.02131  0.86691  0.38958  1.0000
  H   H1273     1.0  0.11005  0.85824  0.45480  1.0000
  C   C792      1.0  0.03420  0.88053  0.35557  1.0000
  C   C793      1.0  0.04393  0.86624  0.36439  1.0000
  C   C794      1.0  0.03758  0.85956  0.38142  1.0000
  H   H1274     1.0  0.05655  0.86052  0.35813  1.0000
  H   H1275     1.0  0.04528  0.84867  0.38814  1.0000
  C   C795      1.0  0.00903  0.94244  0.24519  1.0000
  H   H1276     1.0  0.21285  0.50092  0.39263  1.0000
  C   C796      1.0  0.06704  0.53601  0.27792  1.0000
  C   C797      1.0  0.02524  0.67902  0.30399  1.0000
  H   H1277     1.0  0.03129  0.56821  0.26618  1.0000
  H   H1278     1.0  0.17906  0.56651  0.47197  1.0000
  H   H1279     1.0  0.12399  0.81232  0.45275  1.0000
  C   C798      1.0  0.18991  0.51651  0.42484  1.0000
  H   H1280     1.0  0.04546  0.67824  0.27278  1.0000
  H   H1281     1.0  0.14466  0.49658  0.38195  1.0000
  C   C799      1.0  0.10505  0.87352  0.47278  1.0000
  H   H1282     1.0  0.13902  0.97843  0.45857  1.0000
  H   H1283     1.0  0.08631  0.54583  0.34971  1.0000
  C   C800      1.0  0.04287  0.86383  0.48116  1.0000
  H   H1284     1.0  0.01550  0.82377  0.41358  1.0000
  H   H1285     1.0  0.01941  0.79760  0.39243  1.0000
  C   C801      1.0  0.03735  0.95721  0.23625  1.0000
  H   H1286     1.0  0.07071  0.53409  0.30235  1.0000
  H   H1287     1.0  0.23626  0.60539  0.42340  1.0000
  H   H1288     1.0  0.24409  0.60424  0.39097  1.0000
  H   H1289     1.0  0.08368  0.69605  0.45574  1.0000
  C   C802      1.0  0.09936  0.50167  0.27610  1.0000
  H   H1290     1.0  0.02429  0.81849  0.38403  1.0000
  H   H1291     1.0  0.00392  0.88435  0.45652  1.0000
  H   H1292     1.0  0.11217  0.50138  0.26755  1.0000
  Fe  Fe139     1.0  0.02561  0.50210  0.29510  1.0000
  H   H1293     1.0  0.13131  0.82483  0.47248  1.0000
  H   H1294     1.0  0.23219  0.94074  0.39338  1.0000
  C   C803      1.0  0.02694  0.66410  0.27401  1.0000
  H   H1295     1.0  0.00244  0.84223  0.39081  1.0000
  H   H1296     1.0  0.24213  0.51716  0.41071  1.0000
  H   H1297     1.0  0.24809  0.88937  0.38639  1.0000
  C   C804      1.0  0.07264  0.65591  0.29429  1.0000
  H   H1298     1.0  0.15578  0.50535  0.36169  1.0000
  H   H1299     1.0  0.03569  0.80309  0.39855  1.0000
  H   H1300     1.0  0.02003  0.57659  0.24950  1.0000
  H   H1301     1.0  0.14118  0.51243  0.45663  1.0000
  H   H1302     1.0  0.20597  0.88992  0.42998  1.0000
  H   H1303     1.0  0.11010  0.52453  0.41450  1.0000
  H   H1304     1.0  0.10602  0.50491  0.46002  1.0000
  H   H1305     1.0  0.07797  0.95822  0.45654  1.0000
  H   H1306     1.0  0.24034  0.52257  0.38282  1.0000
  C   C805      1.0  0.12825  0.51419  0.36484  1.0000
  H   H1307     1.0  0.08294  0.65591  0.30035  1.0000
  H   H1308     1.0  0.15997  0.51031  0.47213  1.0000
  H   H1309     1.0  0.18418  0.51862  0.41380  1.0000
  C   C806      1.0  0.06178  0.92656  0.46773  1.0000
  H   H1310     1.0  0.10893  0.54250  0.34534  1.0000
  C   C807      1.0  0.01773  0.88761  0.36361  1.0000
  H   H1311     1.0  0.09732  0.53558  0.39236  1.0000
  S   S276      1.0  0.01312  0.85881  0.41091  1.0000
  H   H1312     1.0  0.07641  0.55213  0.28765  1.0000
  H   H1313     1.0  0.24742  0.62138  0.39790  1.0000
  H   H1314     1.0  0.02438  0.72543  0.47889  1.0000
  H   H1315     1.0  0.00989  0.89824  0.35672  1.0000
  H   H1316     1.0  0.09022  0.50991  0.40987  1.0000
  Fe  Fe140     1.0  0.00552  0.68319  0.43346  1.0000
  C   C808      1.0  0.02313  0.68121  0.32210  1.0000
  C   C809      1.0  0.05643  0.70530  0.46714  1.0000
  H   H1317     1.0  0.20133  0.49091  0.42207  1.0000
  C   C810      1.0  0.09109  0.91496  0.48364  1.0000
  C   C811      1.0  0.11783  0.65208  0.47791  1.0000
  C   C812      1.0  0.07176  0.70411  0.45198  1.0000
  H   H1318     1.0  0.22794  0.89911  0.45910  1.0000
  C   C813      1.0  0.10420  0.53335  0.29850  1.0000
  H   H1319     1.0  0.21259  0.90679  0.44611  1.0000
  H   H1320     1.0  0.23664  0.52302  0.43675  1.0000
  H   H1321     1.0  0.09325  0.91574  0.47001  1.0000
  H   H1322     1.0  0.04503  0.71217  0.46168  1.0000
  H   H1323     1.0  0.19329  0.52833  0.42491  1.0000
  H   H1324     1.0  0.02986  0.66720  0.25999  1.0000
  C   C814      1.0  0.20975  0.89327  0.40340  1.0000
  C   C815      1.0  0.23372  0.51371  0.38087  1.0000
  H   H1325     1.0  0.01244  0.53031  0.26058  1.0000
  H   H1326     1.0  0.21763  0.89839  0.39122  1.0000
  H   H1327     1.0  0.12049  0.83466  0.44543  1.0000
  H   H1328     1.0  0.03298  0.68750  0.32278  1.0000
  H   H1329     1.0  0.07143  0.62821  0.24496  1.0000
  H   H1330     1.0  0.07609  0.49293  0.33806  1.0000
  H   H1331     1.0  0.02713  0.69131  0.29530  1.0000
  H   H1332     1.0  0.12378  0.64780  0.46590  1.0000
  C   C816      1.0  0.22826  0.51810  0.41660  1.0000
  C   C817      1.0  0.10584  0.53484  0.26886  1.0000
  C   C818      1.0  0.22577  0.51861  0.43534  1.0000
  C   C819      1.0  0.09761  0.51018  0.29075  1.0000
  H   H1333     1.0  0.13010  0.52594  0.35532  1.0000
  C   C820      1.0  0.08897  0.95126  0.46255  1.0000
  H   H1334     1.0  0.00958  0.87052  0.47489  1.0000
  H   H1335     1.0  0.22601  0.63345  0.42907  1.0000
  H   H1336     1.0  0.01218  0.90772  0.27528  1.0000
  H   H1337     1.0  0.22164  0.53083  0.41057  1.0000
  H   H1338     1.0  0.15713  0.62246  0.45555  1.0000
  C   C821      1.0  0.02965  0.95263  0.25334  1.0000
  H   H1339     1.0  0.05292  0.65589  0.27569  1.0000
  H   H1340     1.0  0.12828  0.53983  0.45933  1.0000
  H   H1341     1.0  0.20104  0.57314  0.48238  1.0000
  H   H1342     1.0  0.10773  0.49190  0.38008  1.0000
  C   C822      1.0  0.00023  0.88204  0.47053  1.0000
  C   C823      1.0  0.10106  0.54626  0.46842  1.0000
  C   C824      1.0  0.11589  0.82447  0.45575  1.0000
  C   C825      1.0  0.11282  0.85637  0.46743  1.0000
  C   C826      1.0  0.20530  0.50124  0.42497  1.0000
  H   H1343     1.0  0.23726  0.86984  0.40446  1.0000
  H   H1344     1.0  0.04861  0.92913  0.46561  1.0000
  H   H1345     1.0  0.05420  0.69228  0.47285  1.0000
  H   H1346     1.0  0.06899  0.73379  0.46239  1.0000
  H   H1347     1.0  0.22958  0.62407  0.38849  1.0000
  C   C827      1.0  0.22720  0.60875  0.41484  1.0000
  C   C828      1.0  0.21576  0.63657  0.42184  1.0000
  N   N48       1.0  0.23336  0.88755  0.42054  1.0000
  H   H1348     1.0  0.20851  0.52241  0.39427  1.0000
  C   C829      1.0  0.06441  0.59192  0.24013  1.0000
  H   H1349     1.0  0.08018  0.50366  0.39664  1.0000
  C   C830      1.0  0.10824  0.50023  0.38810  1.0000
  H   H1350     1.0  0.11618  0.66606  0.47486  1.0000
  H   H1351     1.0  0.07793  0.67925  0.48357  1.0000
  H   H1352     1.0  0.10259  0.82445  0.45561  1.0000
  C   C831      1.0  0.11910  0.53699  0.47152  1.0000
  C   C832      1.0  0.23396  0.88581  0.43870  1.0000
  H   H1353     1.0  0.21204  0.90914  0.41834  1.0000
  C   C833      1.0  0.21829  0.51033  0.39544  1.0000
  H   H1354     1.0  0.20247  0.63500  0.39800  1.0000
  C   C834      1.0  0.15238  0.51837  0.48122  1.0000
  H   H1355     1.0  0.22463  0.59638  0.41522  1.0000
  H   H1356     1.0  0.06891  0.69806  0.44321  1.0000
  C   C835      1.0  0.06745  0.60827  0.23586  1.0000
  C   C836      1.0  0.23757  0.61515  0.39708  1.0000
  C   C837      1.0  0.11753  0.82567  0.47315  1.0000
  H   H1357     1.0  0.20953  0.87995  0.40423  1.0000
  H   H1358     1.0  0.23521  0.56120  0.39774  1.0000
  H   H1359     1.0  0.17974  0.51382  0.43625  1.0000
  N   N49       1.0  0.03956  0.66474  0.29875  1.0000
  C   C838      1.0  0.05577  0.66727  0.30166  1.0000
  C   C839      1.0  0.24887  0.90055  0.39032  1.0000
  H   H1360     1.0  0.09783  0.51551  0.35928  1.0000
  C   C840      1.0  0.03655  0.64753  0.30875  1.0000
  H   H1361     1.0  0.09595  0.55176  0.36291  1.0000
  H   H1362     1.0  0.07398  0.71674  0.44475  1.0000
  H   H1363     1.0  0.18536  0.61538  0.39688  1.0000
  H   H1364     1.0  0.11443  0.52285  0.44593  1.0000
  N   N50       1.0  0.02687  0.54515  0.23909  1.0000
  H   H1365     1.0  0.05532  0.66501  0.31540  1.0000
  C   C841      1.0  0.01781  0.64535  0.31447  1.0000
  H   H1366     1.0  0.24737  0.88148  0.44053  1.0000
  C   C842      1.0  0.22647  0.90201  0.44585  1.0000
  C   C843      1.0  0.01019  0.54042  0.24918  1.0000
  H   H1367     1.0  0.04392  0.63757  0.30158  1.0000
  H   H1368     1.0  0.04147  0.64386  0.32053  1.0000
  H   H1369     1.0  0.01084  0.80338  0.42144  1.0000
  H   H1370     1.0  0.07154  0.64266  0.29644  1.0000
  C   C844      1.0  0.21509  0.89534  0.41873  1.0000
  N   N51       1.0  0.10668  0.84120  0.47947  1.0000
  H   H1371     1.0  0.24499  0.95873  0.46302  1.0000
  C   C845      1.0  0.00010  0.53428  0.24007  1.0000
  H   H1372     1.0  0.10552  0.52905  0.32472  1.0000
  H   H1373     1.0  0.03744  0.50886  0.32029  1.0000
  H   H1374     1.0  0.11889  0.49301  0.39439  1.0000
  H   H1375     1.0  0.10144  0.55946  0.46140  1.0000
  H   H1376     1.0  0.03764  0.53903  0.26128  1.0000
  H   H1377     1.0  0.10905  0.50334  0.29625  1.0000
  H   H1378     1.0  0.09611  0.94052  0.45653  1.0000
  H   H1379     1.0  0.10061  0.53212  0.25936  1.0000
  C   C846      1.0  0.02284  0.80813  0.39540  1.0000
  H   H1380     1.0  0.02550  0.65077  0.27778  1.0000
  H   H1381     1.0  0.23338  0.91221  0.43887  1.0000
  C   C847      1.0  0.09718  0.52707  0.31750  1.0000
  S   S277      1.0  0.00813  0.49113  0.28733  1.0000
  H   H1382     1.0  0.19205  0.60057  0.41471  1.0000
  H   H1383     1.0  0.16915  0.61461  0.47205  1.0000
  C   C848      1.0  0.24598  0.56336  0.41742  1.0000
  S   S278      1.0  0.02569  0.82231  0.44829  1.0000
  H   H1384     1.0  0.18574  0.63186  0.41573  1.0000
  C   C849      1.0  0.11969  0.52297  0.40263  1.0000
  C   C850      1.0  0.04205  0.66596  0.28007  1.0000
  C   C851      1.0  0.20083  0.64987  0.42925  1.0000
  H   H1385     1.0  0.00925  0.94186  0.27093  1.0000
  C   C852      1.0  0.23869  0.86996  0.41708  1.0000
  C   C853      1.0  0.14458  0.50827  0.37202  1.0000
  H   H1386     1.0  0.08645  0.50672  0.30065  1.0000
  H   H1387     1.0  0.08936  0.50769  0.26866  1.0000
  H   H1388     1.0  0.09722  0.51340  0.32105  1.0000
  H   H1389     1.0  0.11289  0.55642  0.24961  1.0000
  H   H1390     1.0  0.06734  0.91296  0.46776  1.0000
  H   H1391     1.0  0.08412  0.53436  0.32179  1.0000
  H   H1392     1.0  0.19093  0.65478  0.42154  1.0000
  H   H1393     1.0  0.19482  0.64496  0.44251  1.0000
  H   H1394     1.0  0.01738  0.89743  0.47045  1.0000
  C   C854      1.0  0.10644  0.55378  0.26315  1.0000
  H   H1395     1.0  0.24298  0.50183  0.37861  1.0000
  H   H1396     1.0  0.11799  0.90259  0.48113  1.0000
  H   H1397     1.0  0.01778  0.63177  0.31998  1.0000
  C   C855      1.0  0.19865  0.62548  0.40956  1.0000
  C   C856      1.0  0.11773  0.50973  0.45319  1.0000
  H   H1398     1.0  0.05544  0.88440  0.47664  1.0000
  H   H1399     1.0  0.04692  0.55379  0.24422  1.0000
  C   C857      1.0  0.21205  0.60862  0.45269  1.0000
  N   N52       1.0  0.08382  0.62419  0.39348  1.0000
  C   C858      1.0  0.07086  0.61336  0.40250  1.0000
  C   C859      1.0  0.09982  0.61608  0.40032  1.0000
  C   C860      1.0  0.08753  0.62440  0.37486  1.0000
  C   C861      1.0  0.07609  0.64174  0.39678  1.0000
  C   C862      1.0  0.05425  0.61805  0.39578  1.0000
  C   C863      1.0  0.09766  0.61379  0.41946  1.0000
  C   C864      1.0  0.10498  0.62790  0.36417  1.0000
  C   C865      1.0  0.08747  0.65484  0.38992  1.0000
  H   H1400     1.0  0.07668  0.59985  0.40206  1.0000
  H   H1401     1.0  0.06670  0.61378  0.41612  1.0000
  H   H1402     1.0  0.11014  0.62315  0.39420  1.0000
  H   H1403     1.0  0.10529  0.60334  0.39730  1.0000
  H   H1404     1.0  0.08711  0.61197  0.37286  1.0000
  H   H1405     1.0  0.07749  0.63382  0.36881  1.0000
  H   H1406     1.0  0.06474  0.64748  0.39106  1.0000
  H   H1407     1.0  0.07057  0.64157  0.41040  1.0000
  H   H1408     1.0  0.04607  0.60893  0.40317  1.0000
  H   H1409     1.0  0.04661  0.63078  0.39738  1.0000
  H   H1410     1.0  0.05672  0.61719  0.38241  1.0000
  H   H1411     1.0  0.09101  0.62561  0.42391  1.0000
  H   H1412     1.0  0.09097  0.60343  0.42665  1.0000
  H   H1413     1.0  0.11056  0.61014  0.42241  1.0000
  H   H1414     1.0  0.10514  0.62923  0.35066  1.0000
  H   H1415     1.0  0.11561  0.61708  0.36728  1.0000
  H   H1416     1.0  0.10753  0.63966  0.36543  1.0000
  H   H1417     1.0  0.08717  0.66092  0.37651  1.0000
  H   H1418     1.0  0.10082  0.64975  0.39143  1.0000
  H   H1419     1.0  0.08244  0.66488  0.39737  1.0000
  C   C866      1.0  0.15722  0.62305  0.46852  1.0000
  H   H1420     1.0  0.22902  0.51963  0.36901  1.0000
  C   C867      1.0  0.02847  0.77524  0.44081  1.0000
  H   H1421     1.0  0.19641  0.90055  0.40337  1.0000
  H   H1422     1.0  0.04643  0.73809  0.46656  1.0000
  H   H1423     1.0  0.00389  0.77140  0.44074  1.0000
  H   H1424     1.0  0.14679  0.51842  0.37670  1.0000
  H   H1425     1.0  0.05715  0.68063  0.29634  1.0000
  C   C868      1.0  0.24259  0.56571  0.43389  1.0000
  H   H1426     1.0  0.12156  0.54387  0.47991  1.0000
  H   H1427     1.0  0.00967  0.64747  0.38132  1.0000
  N   N53       1.0  0.06744  0.90485  0.37102  1.0000
  C   C869      1.0  0.04921  0.90563  0.38093  1.0000
  C   C870      1.0  0.07584  0.88650  0.37116  1.0000
  C   C871      1.0  0.06660  0.91403  0.35310  1.0000
  C   C872      1.0  0.07634  0.91329  0.37879  1.0000
  C   C873      1.0  0.03787  0.92353  0.38107  1.0000
  C   C874      1.0  0.07456  0.87456  0.38873  1.0000
  C   C875      1.0  0.08374  0.91382  0.34019  1.0000
  C   C876      1.0  0.09591  0.90707  0.37698  1.0000
  H   H1428     1.0  0.04259  0.89862  0.37616  1.0000
  H   H1429     1.0  0.04888  0.89934  0.39442  1.0000
  H   H1430     1.0  0.08963  0.88486  0.36502  1.0000
  H   H1431     1.0  0.07021  0.88146  0.36351  1.0000
  H   H1432     1.0  0.05844  0.90882  0.34817  1.0000
  H   H1433     1.0  0.06039  0.92759  0.35244  1.0000
  H   H1434     1.0  0.07386  0.92718  0.37360  1.0000
  H   H1435     1.0  0.07104  0.91189  0.39262  1.0000
  H   H1436     1.0  0.03432  0.92965  0.36874  1.0000
  H   H1437     1.0  0.02569  0.92255  0.39047  1.0000
  H   H1438     1.0  0.04401  0.93185  0.38457  1.0000
  H   H1439     1.0  0.06178  0.87130  0.39342  1.0000
  H   H1440     1.0  0.08415  0.86251  0.38788  1.0000
  H   H1441     1.0  0.07701  0.88012  0.39809  1.0000
  H   H1442     1.0  0.09129  0.90088  0.33943  1.0000
  H   H1443     1.0  0.09138  0.92147  0.34258  1.0000
  H   H1444     1.0  0.08103  0.91995  0.32747  1.0000
  H   H1445     1.0  0.09930  0.89421  0.38478  1.0000
  H   H1446     1.0  0.10075  0.91562  0.38168  1.0000
  H   H1447     1.0  0.10298  0.90719  0.36383  1.0000
  H   H1448     1.0  0.21347  0.62036  0.45523  1.0000
  C   C877      1.0  0.20251  0.61220  0.43831  1.0000
  H   H1449     1.0  0.99957  0.60427  0.37930  1.0000
  C   C878      1.0  0.12950  0.50830  0.46499  1.0000
  H   H1450     1.0  0.06904  0.93442  0.45696  1.0000
  C   C879      1.0  0.19588  0.61067  0.40389  1.0000
  H   H1451     1.0  0.20447  0.60218  0.46451  1.0000
  H   H1452     1.0  0.12681  0.50970  0.40431  1.0000
  H   H1453     1.0  0.09353  0.56214  0.26416  1.0000
  H   H1454     1.0  0.22146  0.64310  0.40897  1.0000
  H   H1455     1.0  0.00825  0.52333  0.34925  1.0000
  H   H1456     1.0  0.20585  0.66084  0.42920  1.0000
  S   S279      1.0  0.04842  0.49471  0.27522  1.0000
  C   C880      1.0  0.01010  0.81441  0.41069  1.0000
  H   H1457     1.0  0.11828  0.52803  0.29595  1.0000
  C   C881      1.0  0.02364  0.56502  0.25904  1.0000
  H   H1458     1.0  0.08569  0.70865  0.47588  1.0000
  C   C882      1.0  0.11086  0.52963  0.38736  1.0000
  H   H1459     1.0  0.11410  0.92424  0.48205  1.0000
  H   H1460     1.0  0.21952  0.97337  0.47421  1.0000
  H   H1461     1.0  0.24014  0.91186  0.38452  1.0000
  H   H1462     1.0  0.15748  0.63632  0.46753  1.0000
  H   H1463     1.0  0.18942  0.61964  0.44243  1.0000
  H   H1464     1.0  0.12468  0.50180  0.44381  1.0000
  H   H1465     1.0  0.08458  0.52545  0.37578  1.0000
  C   C883      1.0  0.07757  0.53833  0.28921  1.0000
  H   H1466     1.0  0.12894  0.53081  0.40142  1.0000
  H   H1467     1.0  0.07249  0.54000  0.26432  1.0000
  C   C884      1.0  0.01541  0.94524  0.25781  1.0000
  H   H1468     1.0  0.20053  0.59982  0.43787  1.0000
  C   C885      1.0  0.06886  0.61564  0.24842  1.0000
  H   H1469     1.0  0.20743  0.60514  0.39522  1.0000
  H   H1470     1.0  0.14900  0.95919  0.47085  1.0000
  C   C886      1.0  0.08805  0.84349  0.47962  1.0000
  N   N54       1.0  0.11140  0.51710  0.37730  1.0000
  H   H1471     1.0  0.05402  0.54409  0.28050  1.0000
  H   H1472     1.0  0.12844  0.50479  0.35761  1.0000
  H   H1473     1.0  0.11663  0.54030  0.37894  1.0000
  C   C887      1.0  0.09749  0.54203  0.35575  1.0000
  H   H1474     1.0  0.01089  0.64925  0.30410  1.0000
  H   H1475     1.0  0.13171  0.61874  0.47328  1.0000
  H   H1476     1.0  0.21421  0.52827  0.43913  1.0000
  H   H1477     1.0  0.01045  0.68947  0.32596  1.0000
  N   N55       1.0  0.12206  0.51808  0.47883  1.0000
  C   C888      1.0  0.00151  0.90124  0.27755  1.0000
  H   H1478     1.0  0.02387  0.66902  0.33145  1.0000
  C   C889      1.0  0.03457  0.55005  0.25088  1.0000
  C   C890      1.0  0.14137  0.61728  0.48076  1.0000
  H   H1479     1.0  0.22529  0.50640  0.44441  1.0000
  H   H1480     1.0  0.15116  0.53185  0.47485  1.0000
  C   C891      1.0  0.09170  0.50082  0.40198  1.0000
  H   H1481     1.0  0.10479  0.64948  0.48277  1.0000
  H   H1482     1.0  0.00769  0.52340  0.23441  1.0000
  N   N56       1.0  0.05796  0.71358  0.48028  1.0000
  H   H1483     1.0  0.09818  0.95965  0.45937  1.0000
  H   H1484     1.0  0.14083  0.98386  0.42003  1.0000
  H   H1485     1.0  0.13390  0.49463  0.47036  1.0000
  C   C892      1.0  0.00363  0.89703  0.47539  1.0000
  C   C893      1.0  0.24531  0.89880  0.40959  1.0000
  H   H1486     1.0  0.15912  0.97671  0.46415  1.0000
  H   H1487     1.0  0.08560  0.84687  0.46664  1.0000
  H   H1488     1.0  0.23007  0.86183  0.42603  1.0000
  H   H1489     1.0  0.22698  0.87600  0.44720  1.0000
  H   H1490     1.0  0.00108  0.55134  0.25393  1.0000
  H   H1491     1.0  0.09106  0.87748  0.47345  1.0000
  H   H1492     1.0  0.13332  0.98364  0.34618  1.0000
  H   H1493     1.0  0.24715  0.49005  0.40418  1.0000
  H   H1494     1.0  0.20673  0.49648  0.43821  1.0000
  H   H1495     1.0  0.00273  0.98038  0.23546  1.0000
  H   H1496     1.0  0.09554  0.51650  0.48260  1.0000
  H   H1497     1.0  0.24609  0.54746  0.47616  1.0000
  H   H1498     1.0  0.09297  0.98866  0.37263  1.0000
  H   H1499     1.0  0.06484  0.53146  0.23416  1.0000
  S   S280      1.0  0.16858  0.97948  0.55542  1.0000
  Fe  Fe141     1.0  0.04938  0.88382  0.57095  1.0000
  S   S281      1.0  0.06859  0.86220  0.58192  1.0000
  S   S282      1.0  0.02998  0.90334  0.58405  1.0000
  Fe  Fe142     1.0  0.06295  0.87611  0.53583  1.0000
  S   S283      1.0  0.08369  0.85420  0.54381  1.0000
  H   H1500     1.0  0.11177  0.50406  0.64193  1.0000
  Fe  Fe143     1.0  0.06296  0.84730  0.56626  1.0000
  S   S284      1.0  0.05641  0.82146  0.57739  1.0000
  Fe  Fe144     1.0  0.08732  0.87122  0.55848  1.0000
  S   S285      1.0  0.11231  0.87499  0.56106  1.0000
  S   S286      1.0  0.04192  0.86841  0.55734  1.0000
  S   S287      1.0  0.06833  0.89365  0.54847  1.0000
  Fe  Fe145     1.0  0.02819  0.96851  0.67573  1.0000
  C   C894      1.0  0.24678  0.56328  0.51299  1.0000
  Fe  Fe146     1.0  0.03687  0.94555  0.65066  1.0000
  S   S288      1.0  0.03039  0.96709  0.62936  1.0000
  S   S289      1.0  0.04601  0.91869  0.64703  1.0000
  H   H1501     1.0  0.02967  0.56380  0.70856  1.0000
  S   S290      1.0  0.05289  0.95816  0.65902  1.0000
  H   H1502     1.0  0.04280  0.69759  0.49976  1.0000
  S   S291      1.0  0.16411  0.94180  0.55517  1.0000
  S   S292      1.0  0.13549  0.94379  0.52230  1.0000
  Fe  Fe147     1.0  0.18214  0.95915  0.54091  1.0000
  S   S293      1.0  0.21077  0.94881  0.53469  1.0000
  Fe  Fe148     1.0  0.14920  0.96336  0.56779  1.0000
  S   S294      1.0  0.13778  0.95924  0.59569  1.0000
  H   H1503     1.0  0.01737  0.56175  0.58468  1.0000
  Fe  Fe149     1.0  0.20437  0.58720  0.56931  1.0000
  S   S295      1.0  0.19438  0.56764  0.56336  1.0000
  H   H1504     1.0  0.10574  0.59807  0.51879  1.0000
  Fe  Fe150     1.0  0.17616  0.61608  0.55656  1.0000
  S   S296      1.0  0.16460  0.59892  0.54907  1.0000
  S   S297      1.0  0.16485  0.64412  0.55410  1.0000
  Fe  Fe151     1.0  0.16818  0.58180  0.57397  1.0000
  S   S298      1.0  0.14559  0.57007  0.58855  1.0000
  Fe  Fe152     1.0  0.19165  0.58647  0.53921  1.0000
  H   H1505     1.0  0.12948  0.51986  0.50092  1.0000
  S   S299      1.0  0.17823  0.59969  0.58220  1.0000
  S   S300      1.0  0.20322  0.60523  0.54433  1.0000
  Fe  Fe153     1.0  0.05761  0.70982  0.57646  1.0000
  S   S301      1.0  0.05192  0.69771  0.55868  1.0000
  S   S302      1.0  0.05198  0.70040  0.60466  1.0000
  Fe  Fe154     1.0  0.07229  0.73685  0.54832  1.0000
  S   S303      1.0  0.06821  0.72634  0.52821  1.0000
  S   S304      1.0  0.08283  0.76069  0.53899  1.0000
  Fe  Fe155     1.0  0.04270  0.72426  0.54521  1.0000
  H   H1506     1.0  0.05906  0.93470  0.53079  1.0000
  Fe  Fe156     1.0  0.07804  0.70076  0.54343  1.0000
  S   S305      1.0  0.09391  0.67840  0.53214  1.0000
  S   S306      1.0  0.04606  0.73630  0.56437  1.0000
  S   S307      1.0  0.08446  0.71130  0.56214  1.0000
  Fe  Fe157     1.0  0.04437  0.60167  0.69292  1.0000
  S   S308      1.0  0.02631  0.59836  0.67918  1.0000
  S   S309      1.0  0.03208  0.60236  0.72032  1.0000
  Fe  Fe158     1.0  0.07439  0.59755  0.66288  1.0000
  S   S310      1.0  0.05872  0.59341  0.64716  1.0000
  S   S311      1.0  0.10268  0.59706  0.65416  1.0000
  Fe  Fe159     1.0  0.03926  0.61501  0.65661  1.0000
  S   S312      1.0  0.02417  0.63331  0.63812  1.0000
  Fe  Fe160     1.0  0.04713  0.57723  0.67103  1.0000
  S   S313      1.0  0.04034  0.55221  0.67488  1.0000
  S   S314      1.0  0.05564  0.62045  0.67089  1.0000
  S   S315      1.0  0.06453  0.57927  0.68615  1.0000
  S   S316      1.0  0.01301  0.95372  0.66930  1.0000
  H   H1507     1.0  0.02081  0.73193  0.49853  1.0000
  S   S317      1.0  0.04593  0.52574  0.61016  1.0000
  H   H1508     1.0  0.04720  0.93841  0.51500  1.0000
  H   H1509     1.0  0.00113  0.80521  0.55474  1.0000
  H   H1510     1.0  0.00459  0.88846  0.61451  1.0000
  C   C895      1.0  0.10691  0.49455  0.49885  1.0000
  C   C896      1.0  0.04045  0.54568  0.65683  1.0000
  C   C897      1.0  0.04217  0.55659  0.64092  1.0000
  C   C898      1.0  0.04340  0.55057  0.62657  1.0000
  C   C899      1.0  0.04298  0.53367  0.62815  1.0000
  C   C900      1.0  0.04068  0.52298  0.64412  1.0000
  C   C901      1.0  0.03933  0.52902  0.65843  1.0000
  H   H1511     1.0  0.04280  0.56955  0.63964  1.0000
  H   H1512     1.0  0.04509  0.55890  0.61422  1.0000
  C   C902      1.0  0.10357  0.51486  0.64766  1.0000
  H   H1513     1.0  0.19958  0.50376  0.55574  1.0000
  C   C903      1.0  0.04435  0.68165  0.61359  1.0000
  C   C904      1.0  0.03867  0.67392  0.60405  1.0000
  C   C905      1.0  0.03250  0.65905  0.61164  1.0000
  C   C906      1.0  0.03217  0.65176  0.62874  1.0000
  C   C907      1.0  0.03795  0.65941  0.63825  1.0000
  C   C908      1.0  0.04391  0.67438  0.63071  1.0000
  H   H1514     1.0  0.03894  0.67941  0.59088  1.0000
  H   H1515     1.0  0.02815  0.65307  0.60422  1.0000
  H   H1516     1.0  0.03757  0.65397  0.65150  1.0000
  H   H1517     1.0  0.04823  0.68034  0.63818  1.0000
  C   C909      1.0  0.13360  0.57864  0.60614  1.0000
  C   C910      1.0  0.11581  0.58013  0.61060  1.0000
  C   C911      1.0  0.10618  0.58592  0.62521  1.0000
  C   C912      1.0  0.11428  0.59014  0.63552  1.0000
  C   C913      1.0  0.13203  0.58893  0.63087  1.0000
  C   C914      1.0  0.14166  0.58322  0.61622  1.0000
  H   H1518     1.0  0.10948  0.57683  0.60272  1.0000
  H   H1519     1.0  0.09252  0.58714  0.62844  1.0000
  H   H1520     1.0  0.13839  0.59227  0.63872  1.0000
  H   H1521     1.0  0.15540  0.58197  0.61297  1.0000
  C   C915      1.0  0.14486  0.65323  0.54845  1.0000
  C   C916      1.0  0.13625  0.64390  0.54348  1.0000
  C   C917      1.0  0.12063  0.65171  0.53846  1.0000
  C   C918      1.0  0.11336  0.66881  0.53872  1.0000
  C   C919      1.0  0.12175  0.67802  0.54410  1.0000
  C   C920      1.0  0.13750  0.67027  0.54882  1.0000
  H   H1522     1.0  0.14165  0.63072  0.54350  1.0000
  H   H1523     1.0  0.11401  0.64445  0.53465  1.0000
  H   H1524     1.0  0.11635  0.69124  0.54420  1.0000
  H   H1525     1.0  0.14409  0.67757  0.55266  1.0000
  H   H1526     1.0  0.10834  0.62261  0.49579  1.0000
  H   H1527     1.0  0.02241  0.76652  0.54109  1.0000
  H   H1528     1.0  0.00767  0.88220  0.58509  1.0000
  H   H1529     1.0  0.24275  0.57350  0.50235  1.0000
  C   C921      1.0  0.01756  0.70222  0.53536  1.0000
  H   H1530     1.0  0.11040  0.82544  0.52195  1.0000
  C   C922      1.0  0.18556  0.57351  0.50735  1.0000
  H   H1531     1.0  0.03112  0.69904  0.53509  1.0000
  H   H1532     1.0  0.01673  0.67706  0.53460  1.0000
  H   H1533     1.0  0.02365  0.51165  0.70894  1.0000
  C   C923      1.0  0.11757  0.53416  0.62357  1.0000
  C   C924      1.0  0.16991  0.57128  0.51820  1.0000
  C   C925      1.0  0.15743  0.56760  0.51225  1.0000
  H   H1534     1.0  0.16746  0.57228  0.53119  1.0000
  H   H1535     1.0  0.14533  0.56589  0.52064  1.0000
  H   H1536     1.0  0.16431  0.49167  0.54914  1.0000
  H   H1537     1.0  0.06382  0.61381  0.71311  1.0000
  H   H1538     1.0  0.04108  0.79638  0.54830  1.0000
  C   C926      1.0  0.01037  0.51232  0.71634  1.0000
  H   H1539     1.0  0.09229  0.56178  0.65619  1.0000
  H   H1540     1.0  0.23703  0.98593  0.48659  1.0000
  H   H1541     1.0  0.14165  0.53954  0.62342  1.0000
  H   H1542     1.0  0.21542  0.52627  0.54083  1.0000
  H   H1543     1.0  0.08962  0.67226  0.57166  1.0000
  C   C927      1.0  0.17634  0.56817  0.48474  1.0000
  H   H1544     1.0  0.10044  0.54169  0.59732  1.0000
  H   H1545     1.0  0.00781  0.69984  0.60333  1.0000
  C   C928      1.0  0.02865  0.98050  0.72812  1.0000
  C   C929      1.0  0.12956  0.53765  0.63267  1.0000
  H   H1546     1.0  0.20780  0.98124  0.54300  1.0000
  H   H1547     1.0  0.10873  0.90830  0.50096  1.0000
  H   H1548     1.0  0.01545  0.71313  0.57296  1.0000
  H   H1549     1.0  0.01263  0.51939  0.62270  1.0000
  C   C930      1.0  0.10743  0.96475  0.61840  1.0000
  C   C931      1.0  0.11662  0.97016  0.60207  1.0000
  C   C932      1.0  0.05614  0.49162  0.69355  1.0000
  H   H1550     1.0  0.11343  0.95402  0.62688  1.0000
  C   C933      1.0  0.06454  0.80443  0.56688  1.0000
  C   C934      1.0  0.05929  0.78906  0.57444  1.0000
  C   C935      1.0  0.06501  0.77541  0.56620  1.0000
  C   C936      1.0  0.07614  0.77702  0.55036  1.0000
  C   C937      1.0  0.08168  0.79224  0.54299  1.0000
  C   C938      1.0  0.07581  0.80596  0.55112  1.0000
  H   H1551     1.0  0.05069  0.78773  0.58670  1.0000
  H   H1552     1.0  0.06081  0.76368  0.57210  1.0000
  H   H1553     1.0  0.09036  0.79346  0.53080  1.0000
  H   H1554     1.0  0.07998  0.81769  0.54523  1.0000
  C   C939      1.0  0.03432  0.90712  0.60183  1.0000
  C   C940      1.0  0.02560  0.92212  0.60729  1.0000
  C   C941      1.0  0.02896  0.92569  0.62124  1.0000
  C   C942      1.0  0.04099  0.91420  0.62993  1.0000
  C   C943      1.0  0.04948  0.89902  0.62469  1.0000
  C   C944      1.0  0.04624  0.89553  0.61061  1.0000
  H   H1555     1.0  0.01642  0.93111  0.60051  1.0000
  H   H1556     1.0  0.02217  0.93727  0.62532  1.0000
  H   H1557     1.0  0.05873  0.89001  0.63142  1.0000
  H   H1558     1.0  0.05290  0.88384  0.60664  1.0000
  C   C945      1.0  0.11876  0.89408  0.55011  1.0000
  C   C946      1.0  0.11131  0.90480  0.53692  1.0000
  C   C947      1.0  0.11666  0.91997  0.52846  1.0000
  C   C948      1.0  0.12925  0.92464  0.53327  1.0000
  C   C949      1.0  0.13667  0.91398  0.54649  1.0000
  C   C950      1.0  0.13155  0.89866  0.55477  1.0000
  H   H1559     1.0  0.10171  0.90122  0.53305  1.0000
  H   H1560     1.0  0.11112  0.92816  0.51812  1.0000
  H   H1561     1.0  0.14655  0.91736  0.55017  1.0000
  H   H1562     1.0  0.13746  0.89035  0.56487  1.0000
  S   S318      1.0  0.20123  0.57847  0.51429  1.0000
  S   S319      1.0  0.16816  0.97055  0.51969  1.0000
  H   H1563     1.0  0.09329  0.94714  0.48769  1.0000
  H   H1564     1.0  0.10499  0.54111  0.66079  1.0000
  C   C951      1.0  0.04289  0.85996  0.51511  1.0000
  H   H1565     1.0  0.09844  0.84974  0.50310  1.0000
  Fe  Fe161     1.0  0.14903  0.95485  0.53511  1.0000
  H   H1566     1.0  0.04322  0.85806  0.52818  1.0000
  H   H1567     1.0  0.02907  0.84040  0.51979  1.0000
  C   C952      1.0  0.24721  0.94260  0.49399  1.0000
  H   H1568     1.0  0.24795  0.56800  0.53707  1.0000
  C   C953      1.0  0.07907  0.56939  0.73088  1.0000
  C   C954      1.0  0.19856  0.50985  0.54243  1.0000
  C   C955      1.0  0.10571  0.51334  0.48987  1.0000
  C   C956      1.0  0.00898  0.79236  0.55342  1.0000
  S   S320      1.0  0.13272  0.97501  0.54884  1.0000
  H   H1569     1.0  0.04567  0.75982  0.51691  1.0000
  H   H1570     1.0  0.19360  0.53427  0.54977  1.0000
  H   H1571     1.0  0.08340  0.96856  0.63627  1.0000
  C   C957      1.0  0.13488  0.51370  0.48988  1.0000
  C   C958      1.0  0.09038  0.97295  0.62371  1.0000
  C   C959      1.0  0.00243  0.54251  0.59714  1.0000
  H   H1572     1.0  0.08206  0.54511  0.66824  1.0000
  H   H1573     1.0  0.02125  0.80389  0.51041  1.0000
  H   H1574     1.0  0.23280  0.97128  0.50581  1.0000
  C   C960      1.0  0.05709  0.98135  0.72963  1.0000
  H   H1575     1.0  0.09383  0.49258  0.50533  1.0000
  H   H1576     1.0  0.15985  0.51610  0.49100  1.0000
  C   C961      1.0  0.06345  0.97756  0.71356  1.0000
  H   H1577     1.0  0.20058  0.53584  0.52732  1.0000
  C   C962      1.0  0.17640  0.49327  0.55108  1.0000
  H   H1578     1.0  0.00528  0.53872  0.62951  1.0000
  H   H1579     1.0  0.11044  0.64751  0.57489  1.0000
  H   H1580     1.0  0.10710  0.68928  0.59685  1.0000
  H   H1581     1.0  0.02725  0.77384  0.51034  1.0000
  H   H1582     1.0  0.07339  0.63368  0.60946  1.0000
  C   C963      1.0  0.00197  0.55007  0.71196  1.0000
  C   C964      1.0  0.00820  0.71873  0.53570  1.0000
  N   N57       1.0  0.13362  0.62528  0.49586  1.0000
  H   H1583     1.0  0.00115  0.89573  0.48922  1.0000
  H   H1584     1.0  0.07857  0.52457  0.62971  1.0000
  H   H1585     1.0  0.04205  0.77084  0.54105  1.0000
  H   H1586     1.0  0.03780  0.52063  0.67075  1.0000
  N   N58       1.0  0.10056  0.53062  0.63410  1.0000
  H   H1587     1.0  0.07854  0.65650  0.57204  1.0000
  C   C965      1.0  0.01623  0.78438  0.56953  1.0000
  H   H1588     1.0  0.05212  0.94303  0.48526  1.0000
  Fe  Fe162     1.0  0.04463  0.98035  0.63880  1.0000
  Fe  Fe163     1.0  0.05144  0.49733  0.61719  1.0000
  H   H1589     1.0  0.13792  0.49990  0.49521  1.0000
  H   H1590     1.0  0.24272  0.94109  0.50790  1.0000
  H   H1591     1.0  0.12260  0.64971  0.50249  1.0000
  C   C966      1.0  0.07791  0.68632  0.49290  1.0000
  H   H1592     1.0  0.17368  0.49446  0.56445  1.0000
  H   H1593     1.0  0.07991  0.53721  0.60085  1.0000
  H   H1594     1.0  0.09629  0.63442  0.58637  1.0000
  S   S321      1.0  0.05769  0.49480  0.72454  1.0000
  H   H1595     1.0  0.17239  0.50403  0.51987  1.0000
  S   S322      1.0  0.06077  0.88483  0.50866  1.0000
  H   H1596     1.0  0.00195  0.57964  0.67689  1.0000
  H   H1597     1.0  0.00121  0.49852  0.61859  1.0000
  H   H1598     1.0  0.04008  0.50999  0.64547  1.0000
  C   C967      1.0  0.03578  0.55331  0.71769  1.0000
  H   H1599     1.0  0.00104  0.86788  0.50382  1.0000
  H   H1600     1.0  0.13338  0.62774  0.58098  1.0000
  H   H1601     1.0  0.03430  0.53190  0.70973  1.0000
  H   H1602     1.0  0.11001  0.50117  0.55428  1.0000
  H   H1603     1.0  0.06884  0.73938  0.48979  1.0000
  H   H1604     1.0  0.20061  0.52474  0.50686  1.0000
  H   H1605     1.0  0.00891  0.49905  0.72149  1.0000
  C   C968      1.0  0.16796  0.52403  0.54324  1.0000
  C   C969      1.0  0.03507  0.97617  0.71230  1.0000
  C   C970      1.0  0.05977  0.93868  0.51697  1.0000
  H   H1606     1.0  0.11438  0.49085  0.50885  1.0000
  S   S323      1.0  0.22758  0.57786  0.58141  1.0000
  H   H1607     1.0  0.07586  0.54530  0.64378  1.0000
  H   H1608     1.0  0.12103  0.84488  0.49571  1.0000
  H   H1609     1.0  0.00588  0.57216  0.65827  1.0000
  H   H1610     1.0  0.13784  0.62018  0.52123  1.0000
  C   C971      1.0  0.10888  0.91264  0.48730  1.0000
  H   H1611     1.0  0.01389  0.72669  0.58648  1.0000
  C   C972      1.0  0.24772  0.59889  0.55835  1.0000
  H   H1612     1.0  0.07242  0.95690  0.48535  1.0000
  H   H1613     1.0  0.09074  0.55764  0.63130  1.0000
  H   H1614     1.0  0.23037  0.49518  0.50856  1.0000
  H   H1615     1.0  0.00975  0.54668  0.69985  1.0000
  C   C973      1.0  0.22078  0.97399  0.54270  1.0000
  H   H1616     1.0  0.05388  0.92111  0.49438  1.0000
  C   C974      1.0  0.16054  0.56633  0.49543  1.0000
  C   C975      1.0  0.08959  0.54580  0.64100  1.0000
  H   H1617     1.0  0.08151  0.50326  0.65212  1.0000
  S   S324      1.0  0.01831  0.73450  0.53556  1.0000
  H   H1618     1.0  0.12409  0.59266  0.50294  1.0000
  H   H1619     1.0  0.07417  0.66493  0.59001  1.0000
  H   H1620     1.0  0.07222  0.91336  0.51387  1.0000
  H   H1621     1.0  0.12009  0.66447  0.58589  1.0000
  C   C976      1.0  0.00632  0.72040  0.58207  1.0000
  H   H1622     1.0  0.04968  0.55047  0.71196  1.0000
  C   C977      1.0  0.20206  0.52764  0.53977  1.0000
  H   H1623     1.0  0.01424  0.53269  0.59427  1.0000
  C   C978      1.0  0.21838  0.97224  0.48784  1.0000
  H   H1624     1.0  0.14071  0.64986  0.48592  1.0000
  H   H1625     1.0  0.10778  0.87357  0.48491  1.0000
  H   H1626     1.0  0.01623  0.55570  0.60676  1.0000
  N   N59       1.0  0.07757  0.92965  0.48917  1.0000
  H   H1627     1.0  0.07754  0.51948  0.66386  1.0000
  H   H1628     1.0  0.02590  0.77245  0.56850  1.0000
  C   C979      1.0  0.09437  0.56505  0.71642  1.0000
  C   C980      1.0  0.18807  0.52228  0.50734  1.0000
  H   H1629     1.0  0.23664  0.94073  0.48945  1.0000
  H   H1630     1.0  0.14330  0.61769  0.59841  1.0000
  H   H1631     1.0  0.13320  0.52697  0.64301  1.0000
  H   H1632     1.0  0.12413  0.54958  0.63723  1.0000
  H   H1633     1.0  0.17140  0.53603  0.53539  1.0000
  C   C981      1.0  0.02533  0.72100  0.49227  1.0000
  C   C982      1.0  0.00647  0.52121  0.73115  1.0000
  C   C983      1.0  0.10909  0.84068  0.49677  1.0000
  H   H1634     1.0  0.08049  0.90714  0.57121  1.0000
  H   H1635     1.0  0.08748  0.81614  0.48958  1.0000
  H   H1636     1.0  0.06178  0.95180  0.51305  1.0000
  C   C984      1.0  0.11871  0.60050  0.51257  1.0000
  H   H1637     1.0  0.14146  0.53691  0.54324  1.0000
  H   H1638     1.0  0.09854  0.51492  0.61837  1.0000
  H   H1639     1.0  0.08184  0.55321  0.60996  1.0000
  H   H1640     1.0  0.01606  0.71267  0.49844  1.0000
  H   H1641     1.0  0.17525  0.98259  0.59718  1.0000
  H   H1642     1.0  0.16823  0.62201  0.51411  1.0000
  C   C985      1.0  0.02895  0.53706  0.72134  1.0000
  H   H1643     1.0  0.04542  0.71496  0.50609  1.0000
  H   H1644     1.0  0.04606  0.78155  0.50841  1.0000
  N   N60       1.0  0.02200  0.79334  0.53691  1.0000
  C   C986      1.0  0.04919  0.80532  0.52218  1.0000
  H   H1645     1.0  0.09989  0.81735  0.51116  1.0000
  H   H1646     1.0  0.08623  0.92658  0.51210  1.0000
  H   H1647     1.0  0.16650  0.52488  0.55654  1.0000
  H   H1648     1.0  0.14092  0.63993  0.59107  1.0000
  C   C987      1.0  0.14534  0.61934  0.50823  1.0000
  C   C988      1.0  0.07466  0.92631  0.50814  1.0000
  H   H1649     1.0  0.07512  0.71112  0.49652  1.0000
  S   S325      1.0  0.14468  0.56241  0.48789  1.0000
  C   C989      1.0  0.03512  0.84973  0.51032  1.0000
  H   H1650     1.0  0.04565  0.74291  0.49547  1.0000
  H   H1651     1.0  0.10999  0.62648  0.51494  1.0000
  H   H1652     1.0  0.02774  0.81558  0.54039  1.0000
  C   C990      1.0  0.03779  0.77285  0.51648  1.0000
  H   H1653     1.0  0.09434  0.55333  0.71284  1.0000
  H   H1654     1.0  0.02185  0.79338  0.57269  1.0000
  H   H1655     1.0  0.99917  0.91658  0.67905  1.0000
  H   H1656     1.0  0.08489  0.92736  0.55890  1.0000
  C   C991      1.0  0.05797  0.61306  0.72636  1.0000
  C   C992      1.0  0.22530  0.95766  0.53958  1.0000
  H   H1657     1.0  0.04474  0.81103  0.51027  1.0000
  C   C993      1.0  0.05696  0.74307  0.48488  1.0000
  C   C994      1.0  0.09268  0.54820  0.65743  1.0000
  H   H1658     1.0  0.23469  0.55999  0.52130  1.0000
  C   C995      1.0  0.05246  0.97497  0.70489  1.0000
  H   H1659     1.0  0.09076  0.68200  0.49605  1.0000
  H   H1660     1.0  0.07419  0.83022  0.50325  1.0000
  C   C996      1.0  0.09146  0.52683  0.62274  1.0000
  C   C997      1.0  0.18400  0.50704  0.52145  1.0000
  H   H1661     1.0  0.99968  0.78302  0.52471  1.0000
  H   H1662     1.0  0.15162  0.60573  0.50895  1.0000
  H   H1663     1.0  0.24403  0.54083  0.58554  1.0000
  H   H1664     1.0  0.07884  0.61959  0.73197  1.0000
  H   H1665     1.0  0.06861  0.68276  0.50477  1.0000
  H   H1666     1.0  0.12063  0.65941  0.60763  1.0000
  H   H1667     1.0  0.08948  0.68299  0.59407  1.0000
  C   C998      1.0  0.12919  0.64437  0.49106  1.0000
  H   H1668     1.0  0.18887  0.51946  0.49500  1.0000
  H   H1669     1.0  0.06143  0.50281  0.68876  1.0000
  H   H1670     1.0  0.09326  0.57544  0.70506  1.0000
  H   H1671     1.0  0.00831  0.67911  0.58925  1.0000
  H   H1672     1.0  0.11238  0.61976  0.60696  1.0000
  H   H1673     1.0  0.05751  0.97157  0.69273  1.0000
  H   H1674     1.0  0.06341  0.92449  0.56641  1.0000
  H   H1675     1.0  0.11591  0.98864  0.57874  1.0000
  C   C999      1.0  0.03553  0.85129  0.49331  1.0000
  C   C1000     1.0  0.03455  0.80290  0.53772  1.0000
  H   H1676     1.0  0.09308  0.64658  0.62805  1.0000
  C   C1001     1.0  0.11059  0.82346  0.50940  1.0000
  H   H1677     1.0  0.05612  0.81407  0.52386  1.0000
  H   H1678     1.0  0.12635  0.59614  0.52248  1.0000
  H   H1679     1.0  0.15013  0.52436  0.52776  1.0000
  H   H1680     1.0  0.24578  0.93575  0.53688  1.0000
  C   C1002     1.0  0.24223  0.94847  0.53903  1.0000
  H   H1681     1.0  0.14403  0.51461  0.54996  1.0000
  C   C1003     1.0  0.07455  0.70567  0.48611  1.0000
  H   H1682     1.0  0.07911  0.65928  0.61491  1.0000
  Fe  Fe164     1.0  0.00769  0.97626  0.64863  1.0000
  H   H1683     1.0  0.11086  0.51613  0.65626  1.0000
  H   H1684     1.0  0.11982  0.63004  0.61846  1.0000
  S   S326      1.0  0.02112  0.97126  0.70287  1.0000
  C   C1004     1.0  0.23321  0.98108  0.54514  1.0000
  H   H1685     1.0  0.15449  0.64175  0.50775  1.0000
  H   H1686     1.0  0.17786  0.53378  0.50849  1.0000
  N   N61       1.0  0.00971  0.53889  0.72650  1.0000
  H   H1687     1.0  0.06738  0.57030  0.72639  1.0000
  N   N62       1.0  0.08999  0.92172  0.59356  1.0000
  C   C1005     1.0  0.07430  0.92698  0.58605  1.0000
  C   C1006     1.0  0.08482  0.92651  0.61051  1.0000
  C   C1007     1.0  0.09617  0.90271  0.59573  1.0000
  C   C1008     1.0  0.10331  0.93085  0.58153  1.0000
  C   C1009     1.0  0.07616  0.92104  0.56973  1.0000
  C   C1010     1.0  0.07600  0.94514  0.61073  1.0000
  C   C1011     1.0  0.10540  0.89321  0.61035  1.0000
  C   C1012     1.0  0.12034  0.92772  0.58689  1.0000
  H   H1688     1.0  0.06339  0.92229  0.59539  1.0000
  H   H1689     1.0  0.07005  0.94100  0.58287  1.0000
  H   H1690     1.0  0.09591  0.92362  0.61650  1.0000
  H   H1691     1.0  0.07585  0.91874  0.61936  1.0000
  H   H1692     1.0  0.08524  0.89647  0.59814  1.0000
  H   H1693     1.0  0.10479  0.89939  0.58393  1.0000
  H   H1694     1.0  0.10677  0.92729  0.56909  1.0000
  H   H1695     1.0  0.09815  0.94475  0.57893  1.0000
  C   C1013     1.0  0.04333  0.71121  0.49524  1.0000
  H   H1696     1.0  0.02670  0.94298  0.73374  1.0000
  N   N63       1.0  0.18179  0.50887  0.53924  1.0000
  H   H1697     1.0  0.07391  0.94705  0.62371  1.0000
  H   H1698     1.0  0.08392  0.95401  0.60220  1.0000
  H   H1699     1.0  0.06313  0.94842  0.60778  1.0000
  H   H1700     1.0  0.11566  0.89895  0.61084  1.0000
  H   H1701     1.0  0.11134  0.88003  0.60879  1.0000
  H   H1702     1.0  0.09612  0.89237  0.62268  1.0000
  H   H1703     1.0  0.11866  0.93143  0.59896  1.0000
  H   H1704     1.0  0.12858  0.93568  0.57720  1.0000
  H   H1705     1.0  0.12745  0.91443  0.58745  1.0000
  H   H1706     1.0  0.07843  0.58244  0.73187  1.0000
  H   H1707     1.0  0.11451  0.97706  0.51759  1.0000
  H   H1708     1.0  0.07699  0.97618  0.70800  1.0000
  H   H1709     1.0  0.08711  0.62036  0.62369  1.0000
  H   H1710     1.0  0.09376  0.67893  0.61483  1.0000
  C   C1014     1.0  0.11706  0.61959  0.50464  1.0000
  H   H1711     1.0  0.06834  0.63463  0.63116  1.0000
  C   C1015     1.0  0.03097  0.77558  0.53472  1.0000
  H   H1712     1.0  0.12293  0.81469  0.50565  1.0000
  C   C1016     1.0  0.05026  0.87247  0.50299  1.0000
  H   H1713     1.0  0.05864  0.79324  0.52119  1.0000
  H   H1714     1.0  0.00050  0.51460  0.65263  1.0000
  H   H1715     1.0  0.11574  0.54548  0.61320  1.0000
  C   C1017     1.0  0.01264  0.80337  0.52306  1.0000
  H   H1716     1.0  0.12487  0.52343  0.61735  1.0000
  C   C1018     1.0  0.15001  0.52471  0.54083  1.0000
  C   C1019     1.0  0.08730  0.50905  0.65891  1.0000
  H   H1717     1.0  0.03536  0.52775  0.73114  1.0000
  H   H1718     1.0  0.00774  0.50822  0.59658  1.0000
  C   C1020     1.0  0.07926  0.82886  0.48998  1.0000
  H   H1719     1.0  0.00513  0.85487  0.58168  1.0000
  H   H1720     1.0  0.00792  0.81687  0.52412  1.0000
  C   C1021     1.0  0.18884  0.57171  0.49070  1.0000
  C   C1022     1.0  0.00943  0.68981  0.53499  1.0000
  C   C1023     1.0  0.08839  0.54070  0.60689  1.0000
  H   H1721     1.0  0.23846  0.60193  0.55055  1.0000
  C   C1024     1.0  0.13664  0.97872  0.48534  1.0000
  N   N64       1.0  0.10392  0.64717  0.60154  1.0000
  C   C1025     1.0  0.11713  0.63121  0.60589  1.0000
  C   C1026     1.0  0.08886  0.64729  0.61637  1.0000
  C   C1027     1.0  0.11190  0.66211  0.59882  1.0000
  C   C1028     1.0  0.09923  0.64678  0.58563  1.0000
  C   C1029     1.0  0.13454  0.62934  0.59321  1.0000
  C   C1030     1.0  0.07908  0.63307  0.62012  1.0000
  C   C1031     1.0  0.09967  0.67917  0.60129  1.0000
  C   C1032     1.0  0.08464  0.66105  0.57964  1.0000
  S   S327      1.0  0.02678  0.83746  0.48756  1.0000
  H   H1722     1.0  0.00255  0.56344  0.71059  1.0000
  C   C1033     1.0  0.10885  0.98418  0.59124  1.0000
  C   C1034     1.0  0.15973  0.62886  0.50514  1.0000
  H   H1723     1.0  0.08671  0.90291  0.48961  1.0000
  H   H1724     1.0  0.24766  0.53865  0.54200  1.0000
  H   H1725     1.0  0.23725  0.53493  0.51442  1.0000
  C   C1035     1.0  0.00868  0.55824  0.59703  1.0000
  H   H1726     1.0  0.10686  0.56409  0.71932  1.0000
  H   H1727     1.0  0.14538  0.97369  0.49437  1.0000
  H   H1728     1.0  0.10057  0.52087  0.49988  1.0000
  H   H1729     1.0  0.99919  0.60293  0.65195  1.0000
  H   H1730     1.0  0.14541  0.60330  0.48484  1.0000
  H   H1731     1.0  0.20826  0.98308  0.49164  1.0000
  H   H1732     1.0  0.19459  0.49616  0.51862  1.0000
  H   H1733     1.0  0.00144  0.51846  0.70772  1.0000
  C   C1036     1.0  0.23521  0.97280  0.49190  1.0000
  C   C1037     1.0  0.08248  0.98671  0.61276  1.0000
  H   H1734     1.0  0.09078  0.49909  0.66990  1.0000
  H   H1735     1.0  0.16792  0.62956  0.49236  1.0000
  H   H1736     1.0  0.15542  0.98616  0.59140  1.0000
  H   H1737     1.0  0.21368  0.96070  0.49529  1.0000
  H   H1738     1.0  0.06839  0.82922  0.48454  1.0000
  H   H1739     1.0  0.12619  0.97161  0.49053  1.0000
  C   C1038     1.0  0.04217  0.60842  0.73291  1.0000
  C   C1039     1.0  0.00080  0.52862  0.62685  1.0000
  C   C1040     1.0  0.06084  0.93040  0.48484  1.0000
  H   H1740     1.0  0.00183  0.92696  0.65750  1.0000
  H   H1741     1.0  0.00324  0.69356  0.57082  1.0000
  C   C1041     1.0  0.24520  0.58786  0.57412  1.0000
  H   H1742     1.0  0.00563  0.78137  0.58039  1.0000
  C   C1042     1.0  0.04981  0.87471  0.48605  1.0000
  H   H1743     1.0  0.03456  0.55754  0.72937  1.0000
  H   H1744     1.0  0.20966  0.50254  0.53466  1.0000
  H   H1745     1.0  0.08052  0.85459  0.48496  1.0000
  H   H1746     1.0  0.00044  0.66089  0.48418  1.0000
  C   C1043     1.0  0.24721  0.53829  0.50302  1.0000
  H   H1747     1.0  0.05523  0.48927  0.66896  1.0000
  H   H1748     1.0  0.99976  0.78474  0.55389  1.0000
  H   H1749     1.0  0.99898  0.96209  0.62549  1.0000
  H   H1750     1.0  0.22756  0.54049  0.48946  1.0000
  H   H1751     1.0  0.23069  0.56055  0.48980  1.0000
  C   C1044     1.0  0.23742  0.54743  0.48877  1.0000
  S   S328      1.0  0.14069  0.48940  0.53102  1.0000
  H   H1752     1.0  0.01516  0.98160  0.73382  1.0000
  S   S329      1.0  0.02648  0.84625  0.87744  1.0000
  Fe  Fe165     1.0  0.04820  0.86343  0.90238  1.0000
  S   S330      1.0  0.06206  0.85550  0.87804  1.0000
  S   S331      1.0  0.05878  0.87458  0.91780  1.0000
  Fe  Fe166     1.0  0.03791  0.86915  0.86905  1.0000
  S   S332      1.0  0.03979  0.88361  0.84206  1.0000
  Fe  Fe167     1.0  0.04948  0.83326  0.88851  1.0000
  S   S333      1.0  0.06486  0.80770  0.88405  1.0000
  S   S334      1.0  0.03768  0.83991  0.91380  1.0000
  Fe  Fe168     1.0  0.13747  0.91374  0.89214  1.0000
  S   S335      1.0  0.11785  0.93117  0.90714  1.0000
  S   S336      1.0  0.13087  0.89353  0.88367  1.0000
  Fe  Fe169     1.0  0.16627  0.93117  0.89012  1.0000
  S   S337      1.0  0.14858  0.95013  0.90491  1.0000
  S   S338      1.0  0.19508  0.92775  0.88116  1.0000
  Fe  Fe170     1.0  0.13802  0.92779  0.92151  1.0000
  S   S339      1.0  0.13400  0.91845  0.94970  1.0000
  Fe  Fe171     1.0  0.13013  0.95160  0.88891  1.0000
  S   S340      1.0  0.11166  0.97472  0.87815  1.0000
  S   S341      1.0  0.15687  0.90876  0.90777  1.0000
  S   S342      1.0  0.14868  0.93430  0.87288  1.0000
  H   H1753     1.0  0.08631  0.86293  0.89098  1.0000
  S   S343      1.0  0.06772  0.96490  0.79026  1.0000
  H   H1754     1.0  0.06844  0.93264  0.94774  1.0000
  H   H1755     1.0  0.10109  0.90900  0.95746  1.0000
  H   H1756     1.0  0.18106  0.97590  0.92453  1.0000
  H   H1757     1.0  0.07443  0.50074  0.82917  1.0000
  H   H1758     1.0  0.00594  0.89498  0.82394  1.0000
  H   H1759     1.0  0.16375  0.50223  0.91136  1.0000
  Fe  Fe172     1.0  0.04184  0.97678  0.80375  1.0000
  C   C1045     1.0  0.06646  0.61630  0.73706  1.0000
  Fe  Fe173     1.0  0.06714  0.60305  0.82946  1.0000
  S   S344      1.0  0.07419  0.62553  0.80989  1.0000
  S   S345      1.0  0.08389  0.58401  0.84588  1.0000
  Fe  Fe174     1.0  0.03050  0.61190  0.82487  1.0000
  S   S346      1.0  0.03433  0.63533  0.80506  1.0000
  H   H1760     1.0  0.17335  0.95969  0.92017  1.0000
  Fe  Fe175     1.0  0.05926  0.61878  0.79490  1.0000
  S   S347      1.0  0.07092  0.61793  0.76747  1.0000
  Fe  Fe176     1.0  0.04879  0.63983  0.82195  1.0000
  S   S348      1.0  0.04240  0.66460  0.83042  1.0000
  S   S349      1.0  0.05434  0.59498  0.81364  1.0000
  S   S350      1.0  0.04285  0.61768  0.84245  1.0000
  Fe  Fe177     1.0  0.05243  0.71881  0.90859  1.0000
  S   S351      1.0  0.07980  0.71868  0.89517  1.0000
  S   S352      1.0  0.03228  0.74315  0.90876  1.0000
  Fe  Fe178     1.0  0.06081  0.68081  0.92444  1.0000
  S   S353      1.0  0.08858  0.67879  0.91258  1.0000
  S   S354      1.0  0.05222  0.65772  0.94188  1.0000
  Fe  Fe179     1.0  0.08570  0.70317  0.91998  1.0000
  S   S355      1.0  0.10469  0.70685  0.93279  1.0000
  Fe  Fe180     1.0  0.07901  0.69429  0.88940  1.0000
  S   S356      1.0  0.09085  0.68437  0.86546  1.0000
  S   S357      1.0  0.05842  0.70409  0.93355  1.0000
  S   S358      1.0  0.05117  0.69550  0.90112  1.0000
  Fe  Fe181     1.0  0.17011  0.59358  0.91279  1.0000
  S   S359      1.0  0.15988  0.57385  0.93411  1.0000
  S   S360      1.0  0.19074  0.60630  0.91247  1.0000
  Fe  Fe182     1.0  0.14301  0.59691  0.89340  1.0000
  S   S361      1.0  0.13017  0.57773  0.91319  1.0000
  S   S362      1.0  0.13467  0.61208  0.86946  1.0000
  Fe  Fe183     1.0  0.13403  0.59033  0.93164  1.0000
  S   S363      1.0  0.11407  0.59595  0.95460  1.0000
  Fe  Fe184     1.0  0.15711  0.56301  0.91366  1.0000
  S   S364      1.0  0.16529  0.53507  0.91434  1.0000
  S   S365      1.0  0.14449  0.61086  0.91192  1.0000
  S   S366      1.0  0.16973  0.58135  0.89243  1.0000
  C   C1046     1.0  0.09564  0.71315  0.95221  1.0000
  C   C1047     1.0  0.07813  0.71995  0.95651  1.0000
  H   H1761     1.0  0.20425  0.51769  0.83942  1.0000
  C   C1048     1.0  0.10587  0.71081  0.96380  1.0000
  H   H1762     1.0  0.01682  0.83834  0.83917  1.0000
  H   H1763     1.0  0.11947  0.70559  0.96058  1.0000
  C   C1049     1.0  0.06894  0.63975  0.94444  1.0000
  C   C1050     1.0  0.08370  0.63745  0.93172  1.0000
  C   C1051     1.0  0.09740  0.62365  0.93450  1.0000
  C   C1052     1.0  0.09646  0.61225  0.95012  1.0000
  C   C1053     1.0  0.08145  0.61419  0.96260  1.0000
  C   C1054     1.0  0.06761  0.62773  0.95964  1.0000
  H   H1764     1.0  0.08452  0.64611  0.91963  1.0000
  H   H1765     1.0  0.10874  0.62205  0.92465  1.0000
  Fe  Fe185     1.0  0.06235  0.98576  0.76789  1.0000
  C   C1055     1.0  0.03019  0.94635  0.77369  1.0000
  C   C1056     1.0  0.05914  0.61515  0.75431  1.0000
  C   C1057     1.0  0.04308  0.61100  0.76079  1.0000
  C   C1058     1.0  0.03462  0.60766  0.75010  1.0000
  Fe  Fe186     1.0  0.01542  0.85469  0.90201  1.0000
  C   C1059     1.0  0.01342  0.94596  0.78719  1.0000
  H   H1766     1.0  0.03738  0.61004  0.77408  1.0000
  H   H1767     1.0  0.02234  0.60416  0.75522  1.0000
  C   C1060     1.0  0.13743  0.92519  0.97818  1.0000
  C   C1061     1.0  0.05605  0.66938  0.84049  1.0000
  C   C1062     1.0  0.07337  0.66130  0.83889  1.0000
  C   C1063     1.0  0.08400  0.66616  0.84636  1.0000
  C   C1064     1.0  0.07727  0.67862  0.85604  1.0000
  C   C1065     1.0  0.05992  0.68652  0.85779  1.0000
  C   C1066     1.0  0.04943  0.68204  0.84991  1.0000
  H   H1768     1.0  0.07867  0.65165  0.83152  1.0000
  H   H1769     1.0  0.09746  0.66019  0.84467  1.0000
  H   H1770     1.0  0.05466  0.69640  0.86485  1.0000
  H   H1771     1.0  0.03610  0.68846  0.85107  1.0000
  C   C1067     1.0  0.09766  0.59215  0.85253  1.0000
  C   C1068     1.0  0.10527  0.58242  0.86599  1.0000
  C   C1069     1.0  0.11671  0.58842  0.87121  1.0000
  C   C1070     1.0  0.12061  0.60416  0.86296  1.0000
  C   C1071     1.0  0.11300  0.61390  0.84949  1.0000
  C   C1072     1.0  0.10143  0.60797  0.84437  1.0000
  H   H1772     1.0  0.10233  0.57020  0.87242  1.0000
  H   H1773     1.0  0.12262  0.58074  0.88147  1.0000
  H   H1774     1.0  0.11592  0.62613  0.84310  1.0000
  H   H1775     1.0  0.09562  0.61558  0.83400  1.0000
  H   H1776     1.0  0.17383  0.52371  0.86522  1.0000
  H   H1777     1.0  0.05602  0.90709  0.77185  1.0000
  H   H1778     1.0  0.05225  0.92050  0.78607  1.0000
  Fe  Fe187     1.0  0.04739  0.49172  0.78715  1.0000
  H   H1779     1.0  0.01550  0.59970  0.80229  1.0000
  C   C1073     1.0  0.20031  0.52118  0.88038  1.0000
  H   H1780     1.0  0.00487  0.93911  0.78514  1.0000
  H   H1781     1.0  0.17943  0.50115  0.86672  1.0000
  C   C1074     1.0  0.15457  0.52893  0.90246  1.0000
  C   C1075     1.0  0.14492  0.54115  0.89176  1.0000
  C   C1076     1.0  0.13678  0.53623  0.88194  1.0000
  H   H1782     1.0  0.14382  0.55442  0.89091  1.0000
  H   H1783     1.0  0.12918  0.54578  0.87385  1.0000
  C   C1077     1.0  0.20839  0.59242  0.91998  1.0000
  H   H1784     1.0  0.08213  0.98722  0.86302  1.0000
  H   H1785     1.0  0.08983  0.53478  0.73754  1.0000
  H   H1786     1.0  0.09550  0.63772  0.87007  1.0000
  C   C1078     1.0  0.22269  0.56422  0.93207  1.0000
  C   C1079     1.0  0.20873  0.57512  0.92569  1.0000
  H   H1787     1.0  0.24574  0.93272  0.89670  1.0000
  H   H1788     1.0  0.00191  0.78388  0.89120  1.0000
  H   H1789     1.0  0.19823  0.57013  0.92523  1.0000
  H   H1790     1.0  0.05959  0.69170  0.96991  1.0000
  H   H1791     1.0  0.21571  0.49742  0.89266  1.0000
  S   S367      1.0  0.10220  0.97491  0.80612  1.0000
  C   C1080     1.0  0.20641  0.93839  0.88816  1.0000
  C   C1081     1.0  0.22301  0.93038  0.89059  1.0000
  H   H1792     1.0  0.01207  0.78848  0.86941  1.0000
  C   C1082     1.0  0.22652  0.95587  0.89625  1.0000
  C   C1083     1.0  0.20979  0.96377  0.89418  1.0000
  C   C1084     1.0  0.19975  0.95508  0.89009  1.0000
  H   H1793     1.0  0.18351  0.60850  0.95079  1.0000
  C   C1085     1.0  0.04242  0.93193  0.81918  1.0000
  H   H1794     1.0  0.08056  0.60523  0.97460  1.0000
  H   H1795     1.0  0.18705  0.96141  0.88802  1.0000
  C   C1086     1.0  0.13361  0.93215  0.96221  1.0000
  C   C1087     1.0  0.12836  0.94967  0.95706  1.0000
  C   C1088     1.0  0.12700  0.96020  0.96795  1.0000
  C   C1089     1.0  0.01209  0.54849  0.78920  1.0000
  C   C1090     1.0  0.00620  0.77887  0.87954  1.0000
  C   C1091     1.0  0.06074  0.92159  0.98143  1.0000
  H   H1796     1.0  0.12517  0.95508  0.94481  1.0000
  H   H1797     1.0  0.12290  0.97377  0.96402  1.0000
  H   H1798     1.0  0.02257  0.52608  0.81663  1.0000
  H   H1799     1.0  0.19649  0.59633  0.97639  1.0000
  C   C1092     1.0  0.10869  0.97438  0.85838  1.0000
  C   C1093     1.0  0.12227  0.96720  0.84674  1.0000
  C   C1094     1.0  0.11996  0.96728  0.83087  1.0000
  C   C1095     1.0  0.01257  0.50593  0.83515  1.0000
  C   C1096     1.0  0.09539  0.55554  0.75354  1.0000
  H   H1800     1.0  0.03254  0.91498  0.75307  1.0000
  H   H1801     1.0  0.13475  0.96205  0.84972  1.0000
  H   H1802     1.0  0.13063  0.96185  0.82188  1.0000
  C   C1097     1.0  0.03961  0.98313  0.73675  1.0000
  H   H1803     1.0  0.00958  0.53912  0.83999  1.0000
  C   C1098     1.0  0.05427  0.79090  0.88936  1.0000
  C   C1099     1.0  0.03861  0.79110  0.90101  1.0000
  C   C1100     1.0  0.03170  0.77650  0.90668  1.0000
  C   C1101     1.0  0.04037  0.76175  0.90066  1.0000
  C   C1102     1.0  0.05549  0.76196  0.88832  1.0000
  C   C1103     1.0  0.06250  0.77642  0.88282  1.0000
  H   H1804     1.0  0.03217  0.80226  0.90608  1.0000
  H   H1805     1.0  0.01986  0.77651  0.91606  1.0000
  H   H1806     1.0  0.06182  0.75101  0.88298  1.0000
  H   H1807     1.0  0.07449  0.77628  0.87364  1.0000
  C   C1104     1.0  0.01947  0.93278  0.84396  1.0000
  C   C1105     1.0  0.02354  0.91504  0.84872  1.0000
  C   C1106     1.0  0.03651  0.90572  0.83825  1.0000
  H   H1808     1.0  0.02792  0.95810  0.76386  1.0000
  H   H1809     1.0  0.01614  0.90856  0.86008  1.0000
  C   C1107     1.0  0.07934  0.87879  0.90899  1.0000
  C   C1108     1.0  0.08484  0.88969  0.91530  1.0000
  C   C1109     1.0  0.10084  0.89394  0.90793  1.0000
  C   C1110     1.0  0.11145  0.88728  0.89423  1.0000
  C   C1111     1.0  0.10620  0.87590  0.88831  1.0000
  C   C1112     1.0  0.09018  0.87170  0.89564  1.0000
  H   H1810     1.0  0.07658  0.89500  0.92577  1.0000
  H   H1811     1.0  0.10495  0.90231  0.91288  1.0000
  H   H1812     1.0  0.11445  0.87051  0.87787  1.0000
  C   C1113     1.0  0.07077  0.72411  0.97226  1.0000
  C   C1114     1.0  0.14850  0.50680  0.89292  1.0000
  H   H1813     1.0  0.00700  0.55904  0.73916  1.0000
  H   H1814     1.0  0.22187  0.61215  0.91614  1.0000
  C   C1115     1.0  0.11914  0.92045  0.83798  1.0000
  H   H1815     1.0  0.05713  0.72920  0.97548  1.0000
  H   H1816     1.0  0.09471  0.54786  0.76664  1.0000
  H   H1817     1.0  0.07923  0.92943  0.83338  1.0000
  N   N65       1.0  0.11129  0.54056  0.82351  1.0000
  C   C1116     1.0  0.12755  0.54197  0.82724  1.0000
  C   C1117     1.0  0.11551  0.52512  0.81609  1.0000
  C   C1118     1.0  0.09809  0.53847  0.83993  1.0000
  C   C1119     1.0  0.10523  0.55660  0.81138  1.0000
  C   C1120     1.0  0.12571  0.55581  0.83685  1.0000
  C   C1121     1.0  0.12956  0.52489  0.79981  1.0000
  C   C1122     1.0  0.08490  0.52790  0.84179  1.0000
  C   C1123     1.0  0.08945  0.55727  0.80486  1.0000
  H   H1818     1.0  0.13350  0.52972  0.83472  1.0000
  H   H1819     1.0  0.13727  0.54473  0.81544  1.0000
  H   H1820     1.0  0.10410  0.52319  0.81309  1.0000
  H   H1821     1.0  0.11967  0.51354  0.82554  1.0000
  H   H1822     1.0  0.10434  0.53218  0.85081  1.0000
  H   H1823     1.0  0.09078  0.55097  0.84265  1.0000
  H   H1824     1.0  0.10182  0.56772  0.81730  1.0000
  H   H1825     1.0  0.11569  0.55924  0.80022  1.0000
  H   H1826     1.0  0.12223  0.56873  0.82918  1.0000
  H   H1827     1.0  0.11630  0.55438  0.84900  1.0000
  H   H1828     1.0  0.13819  0.55473  0.83990  1.0000
  C   C1124     1.0  0.04581  0.91621  0.77853  1.0000
  C   C1125     1.0  0.08839  0.63325  0.88299  1.0000
  H   H1829     1.0  0.03923  0.94880  0.77988  1.0000
  H   H1830     1.0  0.07860  0.53149  0.83099  1.0000
  H   H1831     1.0  0.07472  0.52968  0.85323  1.0000
  H   H1832     1.0  0.09101  0.51422  0.84377  1.0000
  H   H1833     1.0  0.09151  0.54706  0.79811  1.0000
  H   H1834     1.0  0.08671  0.56951  0.79575  1.0000
  H   H1835     1.0  0.07794  0.55701  0.81523  1.0000
  H   H1836     1.0  0.04968  0.93833  0.80774  1.0000
  C   C1126     1.0  0.03584  0.62666  0.88313  1.0000
  H   H1837     1.0  0.07018  0.72229  0.94765  1.0000
  H   H1838     1.0  0.24099  0.52513  0.96991  1.0000
  C   C1127     1.0  0.03353  0.90547  0.79118  1.0000
  H   H1839     1.0  0.03460  0.98621  0.74903  1.0000
  H   H1840     1.0  0.01187  0.72704  0.89196  1.0000
  H   H1841     1.0  0.17664  0.51520  0.84737  1.0000
  H   H1842     1.0  0.00001  0.52923  0.78897  1.0000
  H   H1843     1.0  0.01534  0.92165  0.76898  1.0000
  H   H1844     1.0  0.11219  0.64541  0.96480  1.0000
  N   N66       1.0  0.14962  0.65897  0.86765  1.0000
  C   C1128     1.0  0.15918  0.64251  0.87674  1.0000
  C   C1129     1.0  0.13234  0.66337  0.87906  1.0000
  C   C1130     1.0  0.15968  0.67235  0.86480  1.0000
  C   C1131     1.0  0.14833  0.65628  0.85111  1.0000
  C   C1132     1.0  0.17817  0.63660  0.86846  1.0000
  C   C1133     1.0  0.12057  0.65095  0.88264  1.0000
  C   C1134     1.0  0.14986  0.69100  0.86196  1.0000
  C   C1135     1.0  0.13716  0.67067  0.84047  1.0000
  H   H1845     1.0  0.15883  0.64318  0.88987  1.0000
  H   H1846     1.0  0.15305  0.63193  0.87800  1.0000
  H   H1847     1.0  0.12484  0.67595  0.87403  1.0000
  H   H1848     1.0  0.13387  0.66440  0.89144  1.0000
  H   H1849     1.0  0.16541  0.67048  0.87587  1.0000
  H   H1850     1.0  0.17066  0.67124  0.85381  1.0000
  H   H1851     1.0  0.16121  0.65401  0.84270  1.0000
  H   H1852     1.0  0.14395  0.64442  0.85285  1.0000
  H   H1853     1.0  0.18604  0.64564  0.86760  1.0000
  H   H1854     1.0  0.18353  0.62446  0.87649  1.0000
  H   H1855     1.0  0.17970  0.63400  0.85589  1.0000
  H   H1856     1.0  0.10802  0.65592  0.89035  1.0000
  H   H1857     1.0  0.11806  0.64972  0.87085  1.0000
  H   H1858     1.0  0.12560  0.63836  0.88999  1.0000
  H   H1859     1.0  0.15917  0.69933  0.85825  1.0000
  H   H1860     1.0  0.14100  0.69400  0.87377  1.0000
  H   H1861     1.0  0.14269  0.69448  0.85181  1.0000
  H   H1862     1.0  0.14490  0.67946  0.83137  1.0000
  H   H1863     1.0  0.12603  0.67797  0.84796  1.0000
  H   H1864     1.0  0.13149  0.66514  0.83329  1.0000
  N   N67       1.0  0.08195  0.77088  0.92825  1.0000
  C   C1136     1.0  0.06956  0.76081  0.92801  1.0000
  C   C1137     1.0  0.09534  0.77070  0.91206  1.0000
  C   C1138     1.0  0.07212  0.78878  0.92895  1.0000
  C   C1139     1.0  0.08942  0.76257  0.94369  1.0000
  C   C1140     1.0  0.05288  0.76185  0.94174  1.0000
  C   C1141     1.0  0.10592  0.75308  0.90935  1.0000
  C   C1142     1.0  0.08239  0.80288  0.92253  1.0000
  C   C1143     1.0  0.10377  0.76958  0.94588  1.0000
  H   H1865     1.0  0.06565  0.76485  0.91574  1.0000
  H   H1866     1.0  0.07573  0.74719  0.92905  1.0000
  H   H1867     1.0  0.10467  0.77840  0.91078  1.0000
  H   H1868     1.0  0.08921  0.77682  0.90102  1.0000
  H   H1869     1.0  0.06224  0.79274  0.92116  1.0000
  H   H1870     1.0  0.06495  0.78959  0.94205  1.0000
  H   H1871     1.0  0.07930  0.76343  0.95535  1.0000
  H   H1872     1.0  0.09410  0.74869  0.94473  1.0000
  H   H1873     1.0  0.05529  0.75778  0.95466  1.0000
  H   H1874     1.0  0.04453  0.77471  0.94006  1.0000
  H   H1875     1.0  0.04549  0.75319  0.94056  1.0000
  H   H1876     1.0  0.11603  0.75470  0.89768  1.0000
  H   H1877     1.0  0.11246  0.74600  0.91984  1.0000
  H   H1878     1.0  0.09802  0.74535  0.90742  1.0000
  H   H1879     1.0  0.07377  0.81495  0.92524  1.0000
  H   H1880     1.0  0.08703  0.80513  0.90862  1.0000
  H   H1881     1.0  0.09326  0.80042  0.92864  1.0000
  H   H1882     1.0  0.09834  0.78017  0.95258  1.0000
  H   H1883     1.0  0.11264  0.77363  0.93395  1.0000
  H   H1884     1.0  0.11195  0.75932  0.95351  1.0000
  H   H1885     1.0  0.13543  0.61368  0.96887  1.0000
  Fe  Fe188     1.0  0.01415  0.49417  0.77722  1.0000
  C   C1144     1.0  0.20231  0.50305  0.89126  1.0000
  C   C1145     1.0  0.00122  0.64218  0.77250  1.0000
  H   H1886     1.0  0.21176  0.54279  0.83954  1.0000
  H   H1887     1.0  0.10059  0.90605  0.84072  1.0000
  H   H1888     1.0  0.11301  0.89355  0.97845  1.0000
  C   C1146     1.0  0.15090  0.62652  0.94661  1.0000
  H   H1889     1.0  0.10274  0.58007  0.74073  1.0000
  C   C1147     1.0  0.07657  0.52668  0.76277  1.0000
  C   C1148     1.0  0.05622  0.68590  0.98348  1.0000
  H   H1890     1.0  0.00478  0.51185  0.84582  1.0000
  S   S368      1.0  0.12875  0.51341  0.86949  1.0000
  H   H1891     1.0  0.01646  0.76736  0.88123  1.0000
  C   C1149     1.0  0.09974  0.57224  0.75362  1.0000
  C   C1150     1.0  0.20583  0.54122  0.85322  1.0000
  H   H1892     1.0  0.10664  0.54839  0.74576  1.0000
  H   H1893     1.0  0.16993  0.96635  0.95531  1.0000
  H   H1894     1.0  0.00979  0.53832  0.75224  1.0000
  H   H1895     1.0  0.06523  0.55751  0.77364  1.0000
  C   C1151     1.0  0.24719  0.97926  0.85173  1.0000
  H   H1896     1.0  0.05796  0.92514  0.74418  1.0000
  H   H1897     1.0  0.19455  0.50352  0.90420  1.0000
  C   C1152     1.0  0.08686  0.91185  0.96052  1.0000
  H   H1898     1.0  0.20768  0.49961  0.85573  1.0000
  H   H1899     1.0  0.05607  0.62920  0.96937  1.0000
  H   H1900     1.0  0.18762  0.56500  0.84797  1.0000
  H   H1901     1.0  0.20002  0.96310  0.95270  1.0000
  C   C1153     1.0  0.18728  0.55157  0.85409  1.0000
  N   N68       1.0  0.08006  0.91723  0.97716  1.0000
  H   H1902     1.0  0.08827  0.52310  0.76799  1.0000
  C   C1154     1.0  0.00302  0.59673  0.80787  1.0000
  C   C1155     1.0  0.07818  0.54025  0.74621  1.0000
  H   H1903     1.0  0.03647  0.57040  0.76815  1.0000
  S   S369      1.0  0.07138  0.98318  0.74070  1.0000
  H   H1904     1.0  0.16752  0.56831  0.97334  1.0000
  C   C1156     1.0  0.20117  0.51319  0.85338  1.0000
  H   H1905     1.0  0.24674  0.59274  0.92725  1.0000
  H   H1906     1.0  0.22000  0.95719  0.82681  1.0000
  N   N69       1.0  0.16186  0.60417  0.97141  1.0000
  C   C1157     1.0  0.14847  0.61077  0.96084  1.0000
  H   H1907     1.0  0.04310  0.63183  0.87053  1.0000
  H   H1908     1.0  0.13812  0.63498  0.97979  1.0000
  H   H1909     1.0  0.08396  0.63877  0.97944  1.0000
  H   H1910     1.0  0.07479  0.92761  0.76384  1.0000
  H   H1911     1.0  0.22851  0.94897  0.95031  1.0000
  C   C1158     1.0  0.10088  0.48913  0.82050  1.0000
  C   C1159     1.0  0.02876  0.94125  0.82907  1.0000
  H   H1912     1.0  0.14133  0.91162  0.98225  1.0000
  H   H1913     1.0  0.00336  0.84087  0.85916  1.0000
  H   H1914     1.0  0.01008  0.85627  0.95660  1.0000
  S   S370      1.0  0.05687  0.50262  0.80359  1.0000
  H   H1915     1.0  0.08185  0.91842  0.93519  1.0000
  C   C1160     1.0  0.00373  0.73741  0.88437  1.0000
  H   H1916     1.0  0.22815  0.91743  0.88921  1.0000
  C   C1161     1.0  0.23618  0.58781  0.92681  1.0000
  H   H1917     1.0  0.02792  0.61899  0.88109  1.0000
  C   C1162     1.0  0.15525  0.57427  0.98076  1.0000
  C   C1163     1.0  0.13867  0.51908  0.88237  1.0000
  H   H1918     1.0  0.01609  0.94070  0.80001  1.0000
  H   H1919     1.0  0.14495  0.57703  0.97373  1.0000
  C   C1164     1.0  0.17166  0.96766  0.92923  1.0000
  H   H1920     1.0  0.18650  0.52682  0.88270  1.0000
  H   H1921     1.0  0.22967  0.50184  0.86627  1.0000
  H   H1922     1.0  0.11134  0.56924  0.75891  1.0000
  N   N70       1.0  0.18873  0.94408  0.94917  1.0000
  C   C1165     1.0  0.17245  0.95711  0.94721  1.0000
  C   C1166     1.0  0.18608  0.93376  0.96702  1.0000
  C   C1167     1.0  0.19313  0.93238  0.93719  1.0000
  C   C1168     1.0  0.20313  0.95313  0.94530  1.0000
  C   C1169     1.0  0.23399  0.95226  0.84692  1.0000
  C   C1170     1.0  0.08162  0.92503  0.94500  1.0000
  C   C1171     1.0  0.17895  0.92347  0.93789  1.0000
  H   H1923     1.0  0.06457  0.95772  0.85340  1.0000
  H   H1924     1.0  0.16129  0.95106  0.95175  1.0000
  C   C1172     1.0  0.00215  0.54913  0.83151  1.0000
  H   H1925     1.0  0.19618  0.92196  0.96844  1.0000
  H   H1926     1.0  0.17395  0.92921  0.97039  1.0000
  H   H1927     1.0  0.19703  0.93914  0.92397  1.0000
  H   H1928     1.0  0.20456  0.92219  0.93953  1.0000
  H   H1929     1.0  0.20502  0.96040  0.93201  1.0000
  S   S371      1.0  0.00511  0.60460  0.83676  1.0000
  H   H1930     1.0  0.00389  0.82683  0.89977  1.0000
  H   H1931     1.0  0.23157  0.93942  0.84893  1.0000
  H   H1932     1.0  0.04811  0.94693  0.74215  1.0000
  C   C1173     1.0  0.01739  0.93996  0.74575  1.0000
  H   H1933     1.0  0.01255  0.74425  0.87418  1.0000
  H   H1934     1.0  0.22652  0.97554  0.82783  1.0000
  H   H1935     1.0  0.17540  0.91518  0.95041  1.0000
  H   H1936     1.0  0.18371  0.91529  0.92850  1.0000
  H   H1937     1.0  0.16732  0.93255  0.93448  1.0000
  C   C1174     1.0  0.18174  0.51355  0.85874  1.0000
  H   H1938     1.0  0.00012  0.86898  0.93958  1.0000
  S   S372      1.0  0.02224  0.96328  0.82237  1.0000
  H   H1939     1.0  0.05638  0.90699  0.81572  1.0000
  H   H1940     1.0  0.13045  0.51348  0.79513  1.0000
  C   C1175     1.0  0.00349  0.54660  0.74188  1.0000
  H   H1941     1.0  0.08068  0.89175  0.85765  1.0000
  H   H1942     1.0  0.03568  0.66352  0.89835  1.0000
  C   C1176     1.0  0.06801  0.93889  0.75593  1.0000
  C   C1177     1.0  0.04777  0.65560  0.89257  1.0000
  H   H1943     1.0  0.03850  0.61132  0.90711  1.0000
  C   C1178     1.0  0.24099  0.52291  0.98351  1.0000
  C   C1179     1.0  0.10549  0.65623  0.95647  1.0000
  C   C1180     1.0  0.05270  0.93543  0.75137  1.0000
  H   H1944     1.0  0.20932  0.96861  0.84343  1.0000
  H   H1945     1.0  0.22792  0.93783  0.93504  1.0000
  H   H1946     1.0  0.06526  0.53054  0.77255  1.0000
  H   H1947     1.0  0.17983  0.55164  0.86716  1.0000
  N   N71       1.0  0.03824  0.93104  0.76598  1.0000
  H   H1948     1.0  0.00893  0.93995  0.85170  1.0000
  C   C1181     1.0  0.01295  0.51861  0.81801  1.0000
  C   C1182     1.0  0.09842  0.71475  0.97978  1.0000
  H   H1949     1.0  0.22284  0.55085  0.93658  1.0000
  H   H1950     1.0  0.05113  0.61466  0.93404  1.0000
  H   H1951     1.0  0.15876  0.97613  0.92950  1.0000
  H   H1952     1.0  0.12977  0.91023  0.83363  1.0000
  H   H1953     1.0  0.22034  0.93036  0.95730  1.0000
  H   H1954     1.0  0.14026  0.63006  0.93985  1.0000
  C   C1183     1.0  0.22091  0.94179  0.94707  1.0000
  H   H1955     1.0  0.12663  0.53601  0.78960  1.0000
  H   H1956     1.0  0.09913  0.65121  0.94950  1.0000
  C   C1184     1.0  0.23819  0.51662  0.84217  1.0000
  H   H1957     1.0  0.05771  0.66295  0.89025  1.0000
  H   H1958     1.0  0.20469  0.97678  0.89539  1.0000
  C   C1185     1.0  0.06417  0.56436  0.76054  1.0000
  H   H1959     1.0  0.08405  0.64405  0.88933  1.0000
  H   H1960     1.0  0.19759  0.49468  0.88634  1.0000
  H   H1961     1.0  0.02498  0.54043  0.79000  1.0000
  C   C1186     1.0  0.10407  0.97460  0.82646  1.0000
  S   S373      1.0  0.23893  0.96733  0.90077  1.0000
  H   H1962     1.0  0.20575  0.52860  0.88593  1.0000
  C   C1187     1.0  0.17879  0.59783  0.96038  1.0000
  C   C1188     1.0  0.00363  0.84377  0.84551  1.0000
  H   H1963     1.0  0.01858  0.51117  0.80802  1.0000
  H   H1964     1.0  0.11558  0.66237  0.94729  1.0000
  H   H1965     1.0  0.04604  0.65463  0.88039  1.0000
  H   H1966     1.0  0.02902  0.89809  0.78484  1.0000
  H   H1967     1.0  0.08938  0.57993  0.76160  1.0000
  C   C1189     1.0  0.22193  0.96406  0.83544  1.0000
  H   H1968     1.0  0.08247  0.67524  0.95810  1.0000
  C   C1190     1.0  0.09235  0.66939  0.96584  1.0000
  C   C1191     1.0  0.08370  0.49545  0.81915  1.0000
  H   H1969     1.0  0.00760  0.93530  0.74261  1.0000
  H   H1970     1.0  0.09060  0.93375  0.93967  1.0000
  H   H1971     1.0  0.06736  0.54134  0.74030  1.0000
  H   H1972     1.0  0.21248  0.54776  0.85852  1.0000
  H   H1973     1.0  0.14237  0.52373  0.80216  1.0000
  H   H1974     1.0  0.00966  0.55957  0.79475  1.0000
  H   H1975     1.0  0.10483  0.48945  0.83157  1.0000
  C   C1192     1.0  0.04612  0.91420  0.82364  1.0000
  S   S374      1.0  0.02482  0.87890  0.89259  1.0000
  H   H1976     1.0  0.00759  0.49493  0.83524  1.0000
  H   H1977     1.0  0.00256  0.65547  0.76884  1.0000
  C   C1193     1.0  0.05185  0.63863  0.90525  1.0000
  C   C1194     1.0  0.23641  0.57054  0.93263  1.0000
  H   H1978     1.0  0.01069  0.95164  0.75047  1.0000
  C   C1195     1.0  0.23300  0.93905  0.89474  1.0000
  H   H1979     1.0  0.02585  0.50090  0.83719  1.0000
  C   C1196     1.0  0.19351  0.58832  0.96958  1.0000
  H   H1980     1.0  0.01112  0.55486  0.82060  1.0000
  C   C1197     1.0  0.07016  0.90260  0.86069  1.0000
  H   H1981     1.0  0.23312  0.98293  0.85286  1.0000
  H   H1982     1.0  0.17436  0.95423  0.98115  1.0000
  H   H1983     1.0  0.05984  0.89709  0.87022  1.0000
  H   H1984     1.0  0.06484  0.90955  0.84944  1.0000
  C   C1198     1.0  0.07595  0.91427  0.86826  1.0000
  H   H1985     1.0  0.05558  0.93420  0.97398  1.0000
  C   C1199     1.0  0.08086  0.93658  0.84195  1.0000
  H   H1986     1.0  0.05400  0.60360  0.89015  1.0000
  C   C1200     1.0  0.04747  0.61530  0.89512  1.0000
  H   H1987     1.0  0.02677  0.63707  0.88875  1.0000
  C   C1201     1.0  0.06355  0.94863  0.84662  1.0000
  H   H1988     1.0  0.05326  0.94178  0.85382  1.0000
  H   H1989     1.0  0.05950  0.95626  0.83480  1.0000
  H   H1990     1.0  0.07985  0.61496  0.91309  1.0000
  H   H1991     1.0  0.10880  0.90229  0.85905  1.0000
  H   H1992     1.0  0.07503  0.51501  0.76012  1.0000
  H   H1993     1.0  0.16300  0.62398  0.93719  1.0000
  H   H1994     1.0  0.06762  0.63554  0.87157  1.0000
  C   C1202     1.0  0.10387  0.91252  0.84890  1.0000
  H   H1995     1.0  0.11589  0.92973  0.82654  1.0000
  H   H1996     1.0  0.06013  0.64073  0.91249  1.0000
  H   H1997     1.0  0.06412  0.92241  0.87411  1.0000
  C   C1203     1.0  0.04632  0.56438  0.75842  1.0000
  H   H1998     1.0  0.10546  0.92589  0.87124  1.0000
  H   H1999     1.0  0.03972  0.63676  0.91450  1.0000
  C   C1204     1.0  0.09422  0.93398  0.86596  1.0000
  H   H2000     1.0  0.08666  0.94852  0.88551  1.0000
  H   H2001     1.0  0.07913  0.61471  0.87683  1.0000
  C   C1205     1.0  0.06993  0.61000  0.91056  1.0000
  H   H2002     1.0  0.14809  0.60092  0.95454  1.0000
  H   H2003     1.0  0.12427  0.92644  0.84518  1.0000
  H   H2004     1.0  0.17742  0.58945  0.95286  1.0000
  N   N72       1.0  0.20816  0.52273  0.86180  1.0000
  H   H2005     1.0  0.07957  0.92908  0.89211  1.0000
  C   C1206     1.0  0.22211  0.59876  0.92055  1.0000
  H   H2006     1.0  0.07698  0.59856  0.90533  1.0000
  H   H2007     1.0  0.08977  0.94481  0.83397  1.0000
  H   H2008     1.0  0.06874  0.94703  0.87865  1.0000
  H   H2009     1.0  0.08167  0.90614  0.87901  1.0000
  H   H2010     1.0  0.09883  0.94515  0.85735  1.0000
  N   N73       1.0  0.08835  0.92460  0.85636  1.0000
  H   H2011     1.0  0.23352  0.51083  0.83442  1.0000
  C   C1207     1.0  0.05907  0.60398  0.92815  1.0000
  H   H2012     1.0  0.05097  0.59563  0.92779  1.0000
  N   N74       1.0  0.06045  0.62306  0.89804  1.0000
  C   C1208     1.0  0.07343  0.62648  0.88179  1.0000
  H   H2013     1.0  0.06398  0.57773  0.76012  1.0000
  C   C1209     1.0  0.09036  0.98170  0.83811  1.0000
  C   C1210     1.0  0.07841  0.49456  0.80504  1.0000
  N   N75       1.0  0.07920  0.55735  0.74779  1.0000
  H   H2014     1.0  0.04057  0.89604  0.80042  1.0000
  C   C1211     1.0  0.08134  0.93997  0.88132  1.0000
  H   H2015     1.0  0.06784  0.59628  0.93664  1.0000
  H   H2016     1.0  0.08383  0.89962  0.96096  1.0000
  H   H2017     1.0  0.09773  0.62316  0.88938  1.0000
  C   C1212     1.0  0.02591  0.92606  0.75898  1.0000
  C   C1213     1.0  0.15636  0.51174  0.90303  1.0000
  C   C1214     1.0  0.22716  0.51552  0.86025  1.0000
  H   H2018     1.0  0.06418  0.94977  0.76214  1.0000
  H   H2019     1.0  0.04377  0.57198  0.74606  1.0000
  C   C1215     1.0  0.09270  0.98164  0.85404  1.0000
  H   H2020     1.0  0.17029  0.62721  0.96872  1.0000
  H   H2021     1.0  0.09841  0.67995  0.96470  1.0000
  S   S375      1.0  0.03515  0.50829  0.76600  1.0000
  H   H2022     1.0  0.01208  0.55362  0.77560  1.0000
  H   H2023     1.0  0.18045  0.54738  0.84692  1.0000
  H   H2024     1.0  0.04437  0.55145  0.76021  1.0000
  H   H2025     1.0  0.23267  0.52166  0.86708  1.0000
  H   H2026     1.0  0.15053  0.63764  0.95140  1.0000
  H   H2027     1.0  0.22930  0.95514  0.85970  1.0000
  H   H2028     1.0  0.23920  0.52979  0.83572  1.0000
  H   H2029     1.0  0.02250  0.91304  0.79854  1.0000
  H   H2030     1.0  0.01074  0.63447  0.78017  1.0000
  H   H2031     1.0  0.01416  0.51286  0.74043  1.0000
  H   H2032     1.0  0.01088  0.87791  0.94985  1.0000
  Fe  Fe189     1.0  0.07686  0.98366  0.79824  1.0000
  C   C1216     1.0  0.00252  0.86892  0.95194  1.0000
  H   H2033     1.0  0.00027  0.59126  0.78532  1.0000
  H   H2034     1.0  0.10062  0.93040  0.97132  1.0000
  H   H2035     1.0  0.06600  0.65490  0.97517  1.0000
  H   H2036     1.0  0.19728  0.94652  0.97975  1.0000
  H   H2037     1.0  0.07746  0.94235  0.74410  1.0000
  S   S376      1.0  0.15715  0.49152  0.83437  1.0000
  C   C1217     1.0  0.18506  0.94295  0.98090  1.0000
  H   H2038     1.0  0.00470  0.63735  0.76072  1.0000
  H   H2039     1.0  0.05400  0.90822  0.96578  1.0000
  H   H2040     1.0  0.11925  0.66653  0.97989  1.0000
  H   H2041     1.0  0.07806  0.98740  0.83479  1.0000
  C   C1218     1.0  0.16381  0.61787  0.97869  1.0000
  C   C1219     1.0  0.99925  0.86299  0.83812  1.0000
  C   C1220     1.0  0.05184  0.90872  0.97922  1.0000
  H   H2042     1.0  0.01080  0.86768  0.83737  1.0000
  H   H2043     1.0  0.08143  0.94346  0.96630  1.0000
  H   H2044     1.0  0.00581  0.95912  0.78687  1.0000
  H   H2045     1.0  0.20529  0.58474  0.96007  1.0000
  H   H2046     1.0  0.99986  0.87351  0.86330  1.0000
  H   H2047     1.0  0.14981  0.49354  0.89351  1.0000
  C   C1221     1.0  0.08655  0.93267  0.97593  1.0000
  H   H2048     1.0  0.19090  0.57640  0.97838  1.0000
  Fe  Fe190     1.0  0.14153  0.48918  0.86085  1.0000
  H   H2049     1.0  0.99922  0.83907  0.97930  1.0000
  H   H2050     1.0  0.03779  0.91274  0.98377  1.0000
  C   C1222     1.0  0.42727  0.03900  0.14466  1.0000
  C   C1223     1.0  0.49067  0.35862  0.02222  1.0000
  C   C1224     1.0  0.27359  0.40620  0.08256  1.0000
  H   H2051     1.0  0.41466  0.06532  0.20998  1.0000
  Fe  Fe191     1.0  0.29269  0.45232  0.99313  1.0000
  C   C1225     1.0  0.45515  0.47059  0.19399  1.0000
  H   H2052     1.0  0.42348  0.35661  0.10230  1.0000
  S   S377      1.0  0.27833  0.01615  0.04698  1.0000
  H   H2053     1.0  0.45234  0.02575  0.14861  1.0000
  Fe  Fe192     1.0  0.30606  0.10467  0.03875  1.0000
  S   S378      1.0  0.32804  0.09398  0.01961  1.0000
  S   S379      1.0  0.41058  0.25385  0.98419  1.0000
  Fe  Fe193     1.0  0.32893  0.09799  0.06393  1.0000
  S   S380      1.0  0.35220  0.08648  0.04670  1.0000
  S   S381      1.0  0.33060  0.10126  0.08904  1.0000
  Fe  Fe194     1.0  0.34330  0.10823  0.02663  1.0000
  S   S382      1.0  0.36295  0.12150  0.00749  1.0000
  Fe  Fe195     1.0  0.33446  0.07353  0.04169  1.0000
  S   S383      1.0  0.34219  0.04609  0.04031  1.0000
  S   S384      1.0  0.32088  0.12066  0.04407  1.0000
  S   S385      1.0  0.31166  0.08327  0.06066  1.0000
  Fe  Fe196     1.0  0.41083  0.12864  0.11905  1.0000
  S   S386      1.0  0.42786  0.10795  0.10650  1.0000
  S   S387      1.0  0.40304  0.15507  0.10419  1.0000
  Fe  Fe197     1.0  0.40589  0.10511  0.15378  1.0000
  S   S388      1.0  0.42253  0.08253  0.14388  1.0000
  S   S389      1.0  0.39240  0.10092  0.18116  1.0000
  Fe  Fe198     1.0  0.43971  0.10023  0.12901  1.0000
  S   S390      1.0  0.46826  0.09279  0.12548  1.0000
  Fe  Fe199     1.0  0.40892  0.09233  0.12238  1.0000
  S   S391      1.0  0.40245  0.07481  0.11013  1.0000
  S   S392      1.0  0.42418  0.12222  0.14055  1.0000
  S   S393      1.0  0.39081  0.11367  0.13335  1.0000
  Fe  Fe200     1.0  0.42936  0.19157  0.01194  1.0000
  S   S394      1.0  0.40508  0.21082  0.01769  1.0000
  S   S395      1.0  0.44611  0.17696  0.03043  1.0000
  Fe  Fe201     1.0  0.41396  0.22556  0.99172  1.0000
  H   H2054     1.0  0.46567  0.02979  0.22560  1.0000
  Fe  Fe202     1.0  0.39425  0.19741  0.00477  1.0000
  S   S396      1.0  0.36766  0.19277  0.01527  1.0000
  H   H2055     1.0  0.48778  0.12493  0.12143  1.0000
  S   S397      1.0  0.41788  0.17696  0.00102  1.0000
  Fe  Fe203     1.0  0.39709  0.42972  0.10242  1.0000
  S   S398      1.0  0.37187  0.42516  0.11882  1.0000
  S   S399      1.0  0.41793  0.41078  0.08994  1.0000
  Fe  Fe204     1.0  0.38917  0.46631  0.10538  1.0000
  S   S400      1.0  0.36320  0.46485  0.12168  1.0000
  H   H2056     1.0  0.30318  0.02499  0.10070  1.0000
  Fe  Fe205     1.0  0.37658  0.43993  0.13509  1.0000
  S   S401      1.0  0.37001  0.43334  0.16355  1.0000
  Fe  Fe206     1.0  0.36103  0.45050  0.10379  1.0000
  S   S402      1.0  0.33613  0.45572  0.09538  1.0000
  S   S403      1.0  0.40277  0.44234  0.11991  1.0000
  S   S404      1.0  0.38598  0.45410  0.08626  1.0000
  Fe  Fe207     1.0  0.42349  0.31341  0.03094  1.0000
  S   S405      1.0  0.43389  0.32824  0.00555  1.0000
  S   S406      1.0  0.42746  0.28501  0.03648  1.0000
  Fe  Fe208     1.0  0.41113  0.34426  0.04681  1.0000
  S   S407      1.0  0.42054  0.36172  0.02273  1.0000
  S   S408      1.0  0.39666  0.35276  0.07101  1.0000
  Fe  Fe209     1.0  0.40965  0.34782  0.01041  1.0000
  Fe  Fe210     1.0  0.44383  0.34076  0.01996  1.0000
  S   S409      1.0  0.39821  0.33189  0.03473  1.0000
  S   S410      1.0  0.43548  0.32437  0.04513  1.0000
  Fe  Fe211     1.0  0.30778  0.41812  0.01298  1.0000
  S   S411      1.0  0.31975  0.43833  0.99389  1.0000
  S   S412      1.0  0.31725  0.39002  0.01521  1.0000
  Fe  Fe212     1.0  0.27994  0.44326  0.03078  1.0000
  S   S413      1.0  0.28993  0.46557  0.01369  1.0000
  C   C1226     1.0  0.41588  0.10436  0.22294  1.0000
  H   H2057     1.0  0.46012  0.36535  0.11741  1.0000
  Fe  Fe213     1.0  0.31588  0.44964  0.01625  1.0000
  S   S414      1.0  0.33741  0.45918  0.01918  1.0000
  S   S415      1.0  0.28097  0.43100  0.01005  1.0000
  S   S416      1.0  0.30573  0.42850  0.03547  1.0000
  S   S417      1.0  0.41912  0.43945  0.20647  1.0000
  H   H2058     1.0  0.34190  0.27597  0.04122  1.0000
  C   C1227     1.0  0.37445  0.37058  0.99613  1.0000
  C   C1228     1.0  0.36487  0.36040  0.00910  1.0000
  C   C1229     1.0  0.34722  0.36632  0.01451  1.0000
  C   C1230     1.0  0.33918  0.38268  0.00742  1.0000
  C   C1231     1.0  0.34874  0.39285  0.99435  1.0000
  H   H2059     1.0  0.37100  0.34785  0.01481  1.0000
  H   H2060     1.0  0.33985  0.35836  0.02452  1.0000
  C   C1232     1.0  0.38420  0.43457  0.17518  1.0000
  C   C1233     1.0  0.39983  0.43930  0.16724  1.0000
  C   C1234     1.0  0.41063  0.44048  0.17695  1.0000
  C   C1235     1.0  0.40571  0.43721  0.19462  1.0000
  C   C1236     1.0  0.39005  0.43260  0.20254  1.0000
  C   C1237     1.0  0.37941  0.43116  0.19285  1.0000
  H   H2061     1.0  0.40358  0.44218  0.15368  1.0000
  H   H2062     1.0  0.42265  0.44423  0.17075  1.0000
  H   H2063     1.0  0.29001  0.44141  0.09863  1.0000
  H   H2064     1.0  0.36735  0.42749  0.19908  1.0000
  S   S418      1.0  0.28141  0.11577  0.02933  1.0000
  C   C1238     1.0  0.26385  0.08570  0.99726  1.0000
  H   H2065     1.0  0.41537  0.46920  0.12291  1.0000
  C   C1239     1.0  0.33668  0.45725  0.07402  1.0000
  C   C1240     1.0  0.32165  0.45759  0.06934  1.0000
  C   C1241     1.0  0.32177  0.45811  0.05253  1.0000
  C   C1242     1.0  0.33688  0.45878  0.04024  1.0000
  C   C1243     1.0  0.35184  0.45881  0.04482  1.0000
  C   C1244     1.0  0.35179  0.45790  0.06170  1.0000
  H   H2066     1.0  0.30989  0.45736  0.07876  1.0000
  H   H2067     1.0  0.31012  0.45826  0.04906  1.0000
  H   H2068     1.0  0.36358  0.45926  0.03534  1.0000
  H   H2069     1.0  0.36344  0.45763  0.06514  1.0000
  C   C1245     1.0  0.40253  0.36902  0.07610  1.0000
  C   C1246     1.0  0.39279  0.37558  0.09022  1.0000
  C   C1247     1.0  0.39711  0.38875  0.09436  1.0000
  C   C1248     1.0  0.41133  0.39523  0.08449  1.0000
  C   C1249     1.0  0.42093  0.38877  0.07033  1.0000
  C   C1250     1.0  0.41652  0.37573  0.06610  1.0000
  H   H2070     1.0  0.38192  0.37044  0.09800  1.0000
  H   H2071     1.0  0.38971  0.39357  0.10540  1.0000
  H   H2072     1.0  0.43172  0.39403  0.06251  1.0000
  H   H2073     1.0  0.42388  0.37095  0.05506  1.0000
  C   C1251     1.0  0.46143  0.35995  0.03784  1.0000
  H   H2074     1.0  0.44903  0.35725  0.03970  1.0000
  H   H2075     1.0  0.45444  0.37120  0.05943  1.0000
  C   C1252     1.0  0.41561  0.26252  0.99849  1.0000
  C   C1253     1.0  0.42215  0.25199  0.01229  1.0000
  C   C1254     1.0  0.42577  0.25907  0.02384  1.0000
  C   C1255     1.0  0.42291  0.27666  0.02164  1.0000
  C   C1256     1.0  0.41638  0.28721  0.00782  1.0000
  C   C1257     1.0  0.41273  0.28014  0.99626  1.0000
  H   H2076     1.0  0.42441  0.23840  0.01409  1.0000
  H   H2077     1.0  0.43074  0.25095  0.03455  1.0000
  C   C1258     1.0  0.41388  0.48209  0.12374  1.0000
  C   C1259     1.0  0.41740  0.10736  0.19300  1.0000
  H   H2078     1.0  0.47353  0.01256  0.10318  1.0000
  H   H2079     1.0  0.29728  0.06233  0.99278  1.0000
  H   H2080     1.0  0.42403  0.11037  0.17999  1.0000
  H   H2081     1.0  0.48055  0.22987  0.04836  1.0000
  C   C1260     1.0  0.41543  0.16073  0.08386  1.0000
  C   C1261     1.0  0.40855  0.17508  0.07277  1.0000
  C   C1262     1.0  0.41773  0.17975  0.05627  1.0000
  C   C1263     1.0  0.43416  0.17047  0.05087  1.0000
  C   C1264     1.0  0.44131  0.15635  0.06210  1.0000
  C   C1265     1.0  0.43186  0.15134  0.07852  1.0000
  H   H2082     1.0  0.39594  0.18250  0.07692  1.0000
  H   H2083     1.0  0.41223  0.19082  0.04793  1.0000
  H   H2084     1.0  0.45408  0.14918  0.05807  1.0000
  H   H2085     1.0  0.43740  0.14040  0.08710  1.0000
  C   C1266     1.0  0.35026  0.09287  0.09548  1.0000
  C   C1267     1.0  0.35315  0.09850  0.10842  1.0000
  C   C1268     1.0  0.36899  0.09272  0.11326  1.0000
  C   C1269     1.0  0.38197  0.08105  0.10538  1.0000
  C   C1270     1.0  0.37886  0.07488  0.09290  1.0000
  C   C1271     1.0  0.36310  0.08088  0.08787  1.0000
  H   H2086     1.0  0.34319  0.10755  0.11457  1.0000
  H   H2087     1.0  0.37107  0.09724  0.12317  1.0000
  H   H2088     1.0  0.38880  0.06577  0.08682  1.0000
  H   H2089     1.0  0.36089  0.07612  0.07821  1.0000
  C   C1272     1.0  0.36605  0.17323  0.01273  1.0000
  C   C1273     1.0  0.37894  0.16438  0.00180  1.0000
  C   C1274     1.0  0.37794  0.14845  0.00043  1.0000
  C   C1275     1.0  0.36394  0.14135  0.00984  1.0000
  C   C1276     1.0  0.35091  0.15033  0.02059  1.0000
  C   C1277     1.0  0.35195  0.16624  0.02204  1.0000
  H   H2090     1.0  0.38962  0.16984  0.99422  1.0000
  H   H2091     1.0  0.38807  0.14162  0.99205  1.0000
  H   H2092     1.0  0.33997  0.14512  0.02774  1.0000
  H   H2093     1.0  0.34189  0.17305  0.03048  1.0000
  C   C1278     1.0  0.29613  0.02372  0.04652  1.0000
  C   C1279     1.0  0.31264  0.01353  0.04430  1.0000
  C   C1280     1.0  0.32682  0.02040  0.04244  1.0000
  C   C1281     1.0  0.32448  0.03746  0.04275  1.0000
  C   C1282     1.0  0.30793  0.04744  0.04541  1.0000
  C   C1283     1.0  0.29379  0.04058  0.04743  1.0000
  H   H2094     1.0  0.35386  0.00405  0.09891  1.0000
  H   H2095     1.0  0.33962  0.01258  0.04051  1.0000
  H   H2096     1.0  0.30598  0.06057  0.04566  1.0000
  H   H2097     1.0  0.28104  0.04843  0.04955  1.0000
  C   C1284     1.0  0.35754  0.01540  0.11744  1.0000
  C   C1285     1.0  0.46653  0.08651  0.17502  1.0000
  C   C1286     1.0  0.46175  0.08886  0.15971  1.0000
  C   C1287     1.0  0.47422  0.08889  0.14475  1.0000
  H   H2098     1.0  0.45682  0.08683  0.18651  1.0000
  H   H2099     1.0  0.44840  0.09081  0.15951  1.0000
  C   C1288     1.0  0.49148  0.08646  0.14511  1.0000
  H   H2100     1.0  0.28699  0.07755  0.02459  1.0000
  H   H2101     1.0  0.45225  0.14807  0.12747  1.0000
  H   H2102     1.0  0.38615  0.43007  0.21614  1.0000
  H   H2103     1.0  0.34100  0.04665  0.11989  1.0000
  H   H2104     1.0  0.37424  0.01896  0.08114  1.0000
  H   H2105     1.0  0.37291  0.25759  0.98943  1.0000
  H   H2106     1.0  0.45999  0.07673  0.09209  1.0000
  H   H2107     1.0  0.29825  0.39463  0.10001  1.0000
  H   H2108     1.0  0.40759  0.28832  0.98564  1.0000
  H   H2109     1.0  0.49642  0.03862  0.12859  1.0000
  H   H2110     1.0  0.26420  0.38473  0.11290  1.0000
  H   H2111     1.0  0.41405  0.30081  0.00611  1.0000
  C   C1289     1.0  0.43235  0.15355  0.15898  1.0000
  H   H2112     1.0  0.45499  0.30634  0.12755  1.0000
  H   H2113     1.0  0.44507  0.34704  0.08205  1.0000
  H   H2114     1.0  0.42711  0.47516  0.14415  1.0000
  C   C1290     1.0  0.45000  0.02848  0.11495  1.0000
  H   H2115     1.0  0.43422  0.47892  0.17999  1.0000
  H   H2116     1.0  0.31752  0.00431  0.10309  1.0000
  C   C1291     1.0  0.46210  0.22737  0.07212  1.0000
  C   C1292     1.0  0.47447  0.35539  0.02441  1.0000
  H   H2117     1.0  0.32200  0.26920  0.04589  1.0000
  H   H2118     1.0  0.33927  0.25539  0.05410  1.0000
  H   H2119     1.0  0.48939  0.20716  0.02722  1.0000
  H   H2120     1.0  0.47336  0.05661  0.09201  1.0000
  H   H2121     1.0  0.26120  0.07160  0.03014  1.0000
  H   H2122     1.0  0.48193  0.31090  0.02650  1.0000
  C   C1293     1.0  0.48373  0.08440  0.17535  1.0000
  S   S419      1.0  0.39656  0.36332  0.98924  1.0000
  N   N76       1.0  0.37050  0.40337  0.04603  1.0000
  C   C1294     1.0  0.37455  0.41135  0.05813  1.0000
  C   C1295     1.0  0.38724  0.39694  0.03480  1.0000
  C   C1296     1.0  0.36219  0.38880  0.05621  1.0000
  C   C1297     1.0  0.35852  0.41682  0.03627  1.0000
  C   C1298     1.0  0.36015  0.41478  0.07361  1.0000
  C   C1299     1.0  0.39758  0.41037  0.02423  1.0000
  C   C1300     1.0  0.36287  0.37496  0.04711  1.0000
  C   C1301     1.0  0.35371  0.41224  0.02196  1.0000
  H   H2123     1.0  0.38589  0.40333  0.06311  1.0000
  H   H2124     1.0  0.37816  0.42369  0.05159  1.0000
  H   H2125     1.0  0.38558  0.39039  0.02579  1.0000
  H   H2126     1.0  0.39563  0.38705  0.04253  1.0000
  H   H2127     1.0  0.36836  0.38192  0.06706  1.0000
  H   H2128     1.0  0.34848  0.39352  0.06179  1.0000
  H   H2129     1.0  0.34617  0.42097  0.04483  1.0000
  H   H2130     1.0  0.36344  0.42864  0.03087  1.0000
  H   H2131     1.0  0.34798  0.42228  0.07006  1.0000
  H   H2132     1.0  0.35794  0.40288  0.08273  1.0000
  H   H2133     1.0  0.36410  0.42215  0.08045  1.0000
  H   H2134     1.0  0.40923  0.40416  0.01612  1.0000
  H   H2135     1.0  0.39025  0.42046  0.01573  1.0000
  H   H2136     1.0  0.40210  0.41595  0.03227  1.0000
  H   H2137     1.0  0.35738  0.37999  0.03578  1.0000
  H   H2138     1.0  0.35528  0.36581  0.05581  1.0000
  H   H2139     1.0  0.37611  0.36754  0.04374  1.0000
  H   H2140     1.0  0.34224  0.40660  0.02678  1.0000
  H   H2141     1.0  0.36419  0.40378  0.01506  1.0000
  H   H2142     1.0  0.35077  0.42389  0.01223  1.0000
  H   H2143     1.0  0.49708  0.20247  0.05346  1.0000
  H   H2144     1.0  0.43203  0.16661  0.15968  1.0000
  H   H2145     1.0  0.32443  0.03604  0.07559  1.0000
  C   C1302     1.0  0.47127  0.32300  0.10946  1.0000
  H   H2146     1.0  0.42043  0.05007  0.13663  1.0000
  H   H2147     1.0  0.48256  0.16060  0.14008  1.0000
  C   C1303     1.0  0.36633  0.02915  0.07323  1.0000
  H   H2148     1.0  0.34903  0.47974  0.16081  1.0000
  N   N77       1.0  0.46504  0.14346  0.14820  1.0000
  H   H2149     1.0  0.47741  0.39723  0.11708  1.0000
  H   H2150     1.0  0.28492  0.03251  0.00321  1.0000
  H   H2151     1.0  0.33702  0.47721  0.19197  1.0000
  C   C1304     1.0  0.47874  0.13725  0.11849  1.0000
  H   H2152     1.0  0.48617  0.41555  0.11078  1.0000
  H   H2153     1.0  0.30806  0.07134  0.01262  1.0000
  H   H2154     1.0  0.46183  0.05952  0.20989  1.0000
  H   H2155     1.0  0.36996  0.47076  0.16424  1.0000
  H   H2156     1.0  0.47969  0.40234  0.08846  1.0000
  H   H2157     1.0  0.47352  0.31492  0.07921  1.0000
  H   H2158     1.0  0.44226  0.07408  0.21523  1.0000
  H   H2159     1.0  0.42147  0.47558  0.20952  1.0000
  H   H2160     1.0  0.34263  0.40543  0.98872  1.0000
  H   H2161     1.0  0.45007  0.46124  0.20513  1.0000
  N   N78       1.0  0.27012  0.06731  0.00477  1.0000
  H   H2162     1.0  0.48852  0.17511  0.99517  1.0000
  H   H2163     1.0  0.41911  0.35928  0.12338  1.0000
  H   H2164     1.0  0.45884  0.12652  0.13667  1.0000
  H   H2165     1.0  0.46343  0.41084  0.14629  1.0000
  H   H2166     1.0  0.36738  0.00348  0.11948  1.0000
  H   H2167     1.0  0.33839  0.01570  0.07728  1.0000
  C   C1305     1.0  0.39328  0.09845  0.21383  1.0000
  H   H2168     1.0  0.46172  0.42639  0.20041  1.0000
  H   H2169     1.0  0.47932  0.34970  0.08656  1.0000
  H   H2170     1.0  0.44336  0.01174  0.23196  1.0000
  C   C1306     1.0  0.46450  0.36783  0.04901  1.0000
  H   H2171     1.0  0.46479  0.16593  0.15621  1.0000
  C   C1307     1.0  0.45121  0.05800  0.11385  1.0000
  C   C1308     1.0  0.42439  0.10843  0.20600  1.0000
  C   C1309     1.0  0.46858  0.16095  0.14447  1.0000
  H   H2172     1.0  0.48782  0.48310  0.20220  1.0000
  H   H2173     1.0  0.44978  0.04059  0.20277  1.0000
  H   H2174     1.0  0.44612  0.17597  0.13341  1.0000
  H   H2175     1.0  0.48356  0.39665  0.14201  1.0000
  H   H2176     1.0  0.46889  0.46455  0.19032  1.0000
  H   H2177     1.0  0.48256  0.03379  0.10907  1.0000
  H   H2178     1.0  0.47669  0.04433  0.14281  1.0000
  H   H2179     1.0  0.46241  0.18708  0.13094  1.0000
  N   N79       1.0  0.45592  0.03968  0.12252  1.0000
  H   H2180     1.0  0.46635  0.03233  0.08913  1.0000
  C   C1310     1.0  0.26687  0.39220  0.12047  1.0000
  C   C1311     1.0  0.25469  0.40800  0.08217  1.0000
  S   S420      1.0  0.25643  0.44887  0.05093  1.0000
  C   C1312     1.0  0.47489  0.03390  0.12204  1.0000
  C   C1313     1.0  0.42059  0.48550  0.13570  1.0000
  H   H2181     1.0  0.49492  0.42982  0.22200  1.0000
  H   H2182     1.0  0.25382  0.42157  0.03758  1.0000
  C   C1314     1.0  0.40175  0.10245  0.19691  1.0000
  H   H2183     1.0  0.34833  0.45771  0.18614  1.0000
  C   C1315     1.0  0.31391  0.01634  0.09411  1.0000
  H   H2184     1.0  0.45246  0.22570  0.02460  1.0000
  C   C1316     1.0  0.27168  0.03742  0.00113  1.0000
  H   H2185     1.0  0.48497  0.19761  0.99161  1.0000
  C   C1317     1.0  0.46689  0.32806  0.07458  1.0000
  C   C1318     1.0  0.47402  0.42312  0.20461  1.0000
  C   C1319     1.0  0.44322  0.34169  0.11661  1.0000
  H   H2186     1.0  0.43725  0.06189  0.11430  1.0000
  H   H2187     1.0  0.45906  0.23481  0.04673  1.0000
  H   H2188     1.0  0.48129  0.17105  0.06200  1.0000
  N   N80       1.0  0.48735  0.40573  0.23017  1.0000
  S   S421      1.0  0.47062  0.34494  0.01094  1.0000
  H   H2189     1.0  0.26783  0.41723  0.12068  1.0000
  H   H2190     1.0  0.43645  0.33104  0.12102  1.0000
  H   H2191     1.0  0.34993  0.26190  0.99126  1.0000
  H   H2192     1.0  0.47020  0.39865  0.21942  1.0000
  C   C1320     1.0  0.29440  0.07614  0.01180  1.0000
  H   H2193     1.0  0.28005  0.41112  0.06937  1.0000
  C   C1321     1.0  0.42949  0.35773  0.11204  1.0000
  H   H2194     1.0  0.30896  0.01319  0.08463  1.0000
  H   H2195     1.0  0.47644  0.43506  0.20561  1.0000
  H   H2196     1.0  0.36783  0.25912  0.04707  1.0000
  N   N81       1.0  0.44138  0.04785  0.22692  1.0000
  C   C1322     1.0  0.45978  0.06306  0.09513  1.0000
  C   C1323     1.0  0.46314  0.12676  0.22627  1.0000
  H   H2197     1.0  0.44922  0.22455  0.07773  1.0000
  H   H2198     1.0  0.47122  0.27232  0.05168  1.0000
  H   H2199     1.0  0.39652  0.48428  0.16582  1.0000
  H   H2200     1.0  0.27525  0.08718  0.05720  1.0000
  C   C1324     1.0  0.48562  0.19671  0.05858  1.0000
  H   H2201     1.0  0.25738  0.39101  0.13267  1.0000
  H   H2202     1.0  0.45825  0.40645  0.08473  1.0000
  H   H2203     1.0  0.34417  0.21065  0.05467  1.0000
  C   C1325     1.0  0.44677  0.03801  0.14085  1.0000
  C   C1326     1.0  0.40035  0.09932  0.22682  1.0000
  C   C1327     1.0  0.46363  0.44945  0.11507  1.0000
  C   C1328     1.0  0.26519  0.41113  0.11180  1.0000
  H   H2204     1.0  0.48439  0.14500  0.17053  1.0000
  N   N82       1.0  0.45338  0.48734  0.19825  1.0000
  C   C1329     1.0  0.46219  0.02207  0.09951  1.0000
  C   C1330     1.0  0.32448  0.04068  0.10647  1.0000
  H   H2205     1.0  0.45906  0.36383  0.08836  1.0000
  H   H2206     1.0  0.43452  0.36946  0.10777  1.0000
  H   H2207     1.0  0.43128  0.03370  0.21511  1.0000
  C   C1331     1.0  0.46276  0.13889  0.13297  1.0000
  C   C1332     1.0  0.47543  0.20771  0.03230  1.0000
  H   H2208     1.0  0.42218  0.05501  0.19262  1.0000
  H   H2209     1.0  0.42446  0.02733  0.14334  1.0000
  H   H2210     1.0  0.48552  0.14767  0.11570  1.0000
  C   C1333     1.0  0.47585  0.40929  0.13724  1.0000
  C   C1334     1.0  0.36630  0.38669  0.98853  1.0000
  H   H2211     1.0  0.45552  0.47582  0.16680  1.0000
  C   C1335     1.0  0.34990  0.47019  0.18682  1.0000
  H   H2212     1.0  0.47685  0.44324  0.11669  1.0000
  C   C1336     1.0  0.35772  0.47926  0.16896  1.0000
  H   H2213     1.0  0.31232  0.15019  0.99278  1.0000
  C   C1337     1.0  0.34624  0.01358  0.10655  1.0000
  H   H2214     1.0  0.38116  0.09468  0.21691  1.0000
  H   H2215     1.0  0.27970  0.38639  0.12337  1.0000
  H   H2216     1.0  0.34976  0.01760  0.12994  1.0000
  H   H2217     1.0  0.43743  0.03491  0.11144  1.0000
  H   H2218     1.0  0.44595  0.45827  0.17970  1.0000
  H   H2219     1.0  0.45852  0.45893  0.12316  1.0000
  C   C1338     1.0  0.48257  0.04434  0.12934  1.0000
  H   H2220     1.0  0.46957  0.22023  0.00768  1.0000
  C   C1339     1.0  0.48001  0.13063  0.15418  1.0000
  H   H2221     1.0  0.27416  0.45821  0.09028  1.0000
  H   H2222     1.0  0.33042  0.23049  0.04819  1.0000
  H   H2223     1.0  0.31455  0.00051  0.04350  1.0000
  H   H2224     1.0  0.47140  0.23445  0.01900  1.0000
  C   C1340     1.0  0.49141  0.17839  0.05587  1.0000
  N   N83       1.0  0.27661  0.41492  0.09459  1.0000
  H   H2225     1.0  0.42171  0.04013  0.15796  1.0000
  H   H2226     1.0  0.46397  0.45663  0.10186  1.0000
  H   H2227     1.0  0.44359  0.32636  0.09349  1.0000
  H   H2228     1.0  0.45096  0.14379  0.17398  1.0000
  H   H2229     1.0  0.34878  0.23339  0.00960  1.0000
  C   C1341     1.0  0.28883  0.06345  0.00534  1.0000
  H   H2230     1.0  0.29347  0.08875  0.00313  1.0000
  C   C1342     1.0  0.43761  0.04449  0.21177  1.0000
  C   C1343     1.0  0.46892  0.41226  0.08422  1.0000
  H   H2231     1.0  0.47644  0.33609  0.06890  1.0000
  H   H2232     1.0  0.37133  0.26582  0.01412  1.0000
  H   H2233     1.0  0.37129  0.22807  0.00746  1.0000
  H   H2234     1.0  0.49575  0.17789  0.04233  1.0000
  H   H2235     1.0  0.43359  0.06938  0.19421  1.0000
  H   H2236     1.0  0.45541  0.01546  0.09451  1.0000
  H   H2237     1.0  0.38499  0.24555  0.01469  1.0000
  H   H2238     1.0  0.33073  0.25361  0.02527  1.0000
  H   H2239     1.0  0.33406  0.06354  0.10301  1.0000
  H   H2240     1.0  0.36978  0.21976  0.03637  1.0000
  C   C1344     1.0  0.47732  0.28990  0.02049  1.0000
  C   C1345     1.0  0.33617  0.26499  0.04285  1.0000
  C   C1346     1.0  0.46710  0.35302  0.09568  1.0000
  H   H2241     1.0  0.34119  0.21658  0.03364  1.0000
  C   C1347     1.0  0.46837  0.22535  0.05365  1.0000
  S   S422      1.0  0.43930  0.20754  0.98691  1.0000
  C   C1348     1.0  0.35103  0.03937  0.08401  1.0000
  C   C1349     1.0  0.27651  0.44485  0.09738  1.0000
  H   H2242     1.0  0.24973  0.07449  0.06957  1.0000
  H   H2243     1.0  0.49650  0.12377  0.17207  1.0000
  H   H2244     1.0  0.47482  0.13742  0.10686  1.0000
  H   H2245     1.0  0.26382  0.09405  0.00550  1.0000
  C   C1350     1.0  0.48984  0.29863  0.02369  1.0000
  S   S423      1.0  0.48932  0.08214  0.19450  1.0000
  H   H2246     1.0  0.47445  0.12713  0.18191  1.0000
  H   H2247     1.0  0.35678  0.04513  0.09085  1.0000
  H   H2248     1.0  0.34469  0.05033  0.07528  1.0000
  H   H2249     1.0  0.30816  0.40764  0.06996  1.0000
  H   H2250     1.0  0.42176  0.14929  0.16920  1.0000
  H   H2251     1.0  0.29730  0.41313  0.10658  1.0000
  H   H2252     1.0  0.34165  0.14588  0.98758  1.0000
  H   H2253     1.0  0.45157  0.43532  0.08958  1.0000
  H   H2254     1.0  0.47838  0.37036  0.10183  1.0000
  H   H2255     1.0  0.46067  0.30273  0.10634  1.0000
  C   C1351     1.0  0.45765  0.06672  0.23351  1.0000
  C   C1352     1.0  0.32930  0.02468  0.08484  1.0000
  C   C1353     1.0  0.29503  0.40868  0.09627  1.0000
  C   C1354     1.0  0.44938  0.14157  0.16215  1.0000
  C   C1355     1.0  0.42637  0.05951  0.20174  1.0000
  H   H2256     1.0  0.42940  0.15353  0.14698  1.0000
  S   S424      1.0  0.48412  0.37999  0.06188  1.0000
  N   N84       1.0  0.33805  0.02959  0.09575  1.0000
  C   C1356     1.0  0.47165  0.35992  0.10871  1.0000
  N   N85       1.0  0.45885  0.42099  0.11317  1.0000
  C   C1357     1.0  0.46292  0.42653  0.09415  1.0000
  C   C1358     1.0  0.45174  0.43683  0.12015  1.0000
  C   C1359     1.0  0.44523  0.41082  0.11775  1.0000
  C   C1360     1.0  0.47495  0.41040  0.11887  1.0000
  H   H2257     1.0  0.32149  0.40816  0.08310  1.0000
  H   H2258     1.0  0.47499  0.32511  0.12029  1.0000
  C   C1361     1.0  0.43781  0.40485  0.13664  1.0000
  H   H2259     1.0  0.46444  0.29285  0.02874  1.0000
  H   H2260     1.0  0.38611  0.46993  0.18309  1.0000
  H   H2261     1.0  0.46109  0.32782  0.06427  1.0000
  H   H2262     1.0  0.44813  0.43401  0.13409  1.0000
  H   H2263     1.0  0.43957  0.44387  0.11607  1.0000
  H   H2264     1.0  0.43427  0.41818  0.11180  1.0000
  H   H2265     1.0  0.45008  0.39911  0.11266  1.0000
  H   H2266     1.0  0.48179  0.27606  0.02187  1.0000
  H   H2267     1.0  0.45328  0.06659  0.12069  1.0000
  H   H2268     1.0  0.31478  0.04902  0.09918  1.0000
  H   H2269     1.0  0.29250  0.05081  0.01355  1.0000
  C   C1362     1.0  0.44739  0.47116  0.17915  1.0000
  H   H2270     1.0  0.25799  0.02489  0.07995  1.0000
  H   H2271     1.0  0.38494  0.24079  0.04402  1.0000
  H   H2272     1.0  0.47596  0.29469  0.00717  1.0000
  H   H2273     1.0  0.44743  0.39511  0.14294  1.0000
  H   H2274     1.0  0.42718  0.39867  0.13786  1.0000
  H   H2275     1.0  0.43212  0.41538  0.14334  1.0000
  C   C1363     1.0  0.38827  0.48296  0.17860  1.0000
  H   H2276     1.0  0.27944  0.39241  0.08523  1.0000
  H   H2277     1.0  0.46593  0.17233  0.11814  1.0000
  N   N86       1.0  0.38208  0.13341  0.06406  1.0000
  C   C1364     1.0  0.38759  0.14910  0.06391  1.0000
  C   C1365     1.0  0.39099  0.11879  0.07578  1.0000
  C   C1366     1.0  0.36300  0.13516  0.07030  1.0000
  C   C1367     1.0  0.38671  0.13054  0.04637  1.0000
  C   C1368     1.0  0.37943  0.16561  0.05287  1.0000
  C   C1369     1.0  0.41029  0.11229  0.06925  1.0000
  C   C1370     1.0  0.35540  0.14081  0.08722  1.0000
  C   C1371     1.0  0.38236  0.11459  0.04434  1.0000
  H   H2278     1.0  0.38515  0.15115  0.07693  1.0000
  H   H2279     1.0  0.40166  0.14764  0.05922  1.0000
  H   H2280     1.0  0.38485  0.10785  0.07916  1.0000
  H   H2281     1.0  0.38970  0.12211  0.08805  1.0000
  H   H2282     1.0  0.35590  0.14407  0.06080  1.0000
  H   H2283     1.0  0.35939  0.12291  0.07195  1.0000
  H   H2284     1.0  0.37969  0.14126  0.03806  1.0000
  H   H2285     1.0  0.40037  0.13072  0.04031  1.0000
  H   H2286     1.0  0.38257  0.17652  0.05545  1.0000
  H   H2287     1.0  0.38489  0.16573  0.03931  1.0000
  H   H2288     1.0  0.36530  0.16788  0.05539  1.0000
  H   H2289     1.0  0.41770  0.12216  0.06679  1.0000
  H   H2290     1.0  0.41521  0.10167  0.07908  1.0000
  H   H2291     1.0  0.41286  0.10708  0.05786  1.0000
  H   H2292     1.0  0.36181  0.13249  0.09740  1.0000
  H   H2293     1.0  0.34170  0.14003  0.09124  1.0000
  H   H2294     1.0  0.35590  0.15413  0.08604  1.0000
  H   H2295     1.0  0.36882  0.11718  0.04326  1.0000
  H   H2296     1.0  0.38451  0.10353  0.05480  1.0000
  H   H2297     1.0  0.39085  0.11061  0.03278  1.0000
  H   H2298     1.0  0.38813  0.26161  0.03403  1.0000
  H   H2299     1.0  0.44844  0.04798  0.14626  1.0000
  H   H2300     1.0  0.48347  0.32097  0.09989  1.0000
  C   C1372     1.0  0.45075  0.06219  0.22047  1.0000
  H   H2301     1.0  0.46100  0.24076  0.07241  1.0000
  C   C1373     1.0  0.26385  0.09248  0.05211  1.0000
  H   H2302     1.0  0.47309  0.19614  0.03010  1.0000
  H   H2303     1.0  0.47110  0.21953  0.08023  1.0000
  H   H2304     1.0  0.45252  0.06095  0.08690  1.0000
  H   H2305     1.0  0.31729  0.03281  0.11752  1.0000
  H   H2306     1.0  0.48163  0.05752  0.12189  1.0000
  C   C1374     1.0  0.27262  0.43376  0.08763  1.0000
  H   H2307     1.0  0.25015  0.08824  0.99670  1.0000
  C   C1375     1.0  0.26785  0.05673  0.99406  1.0000
  H   H2308     1.0  0.47330  0.43372  0.08985  1.0000
  H   H2309     1.0  0.35897  0.23280  0.05079  1.0000
  C   C1376     1.0  0.49621  0.08437  0.16041  1.0000
  H   H2310     1.0  0.43648  0.11224  0.20297  1.0000
  H   H2311     1.0  0.27949  0.43698  0.07426  1.0000
  C   C1377     1.0  0.46011  0.17465  0.13101  1.0000
  C   C1378     1.0  0.47947  0.47574  0.21244  1.0000
  H   H2312     1.0  0.34239  0.26946  0.01608  1.0000
  C   C1379     1.0  0.48071  0.37081  0.04708  1.0000
  C   C1380     1.0  0.37858  0.25352  0.03784  1.0000
  H   H2313     1.0  0.31949  0.05863  0.12247  1.0000
  H   H2314     1.0  0.47612  0.29579  0.11922  1.0000
  H   H2315     1.0  0.48409  0.41779  0.19459  1.0000
  C   C1381     1.0  0.25996  0.06326  0.02256  1.0000
  H   H2316     1.0  0.26787  0.44457  0.11001  1.0000
  N   N87       1.0  0.47074  0.20776  0.05094  1.0000
  H   H2317     1.0  0.45462  0.13805  0.22014  1.0000
  H   H2318     1.0  0.25882  0.43843  0.08727  1.0000
  H   H2319     1.0  0.33635  0.00704  0.11556  1.0000
  C   C1382     1.0  0.45521  0.20030  0.05953  1.0000
  H   H2320     1.0  0.48273  0.19556  0.07246  1.0000
  H   H2321     1.0  0.39558  0.48464  0.18704  1.0000
  N   N88       1.0  0.45853  0.33817  0.10260  1.0000
  C   C1383     1.0  0.43793  0.21081  0.05538  1.0000
  H   H2322     1.0  0.44771  0.01673  0.12440  1.0000
  C   C1384     1.0  0.26347  0.10653  0.03864  1.0000
  C   C1385     1.0  0.33038  0.05288  0.11330  1.0000
  H   H2323     1.0  0.30732  0.42720  0.07566  1.0000
  H   H2324     1.0  0.37471  0.03780  0.06501  1.0000
  H   H2325     1.0  0.48299  0.41849  0.13765  1.0000
  H   H2326     1.0  0.45690  0.18791  0.05629  1.0000
  H   H2327     1.0  0.45367  0.19693  0.07351  1.0000
  C   C1386     1.0  0.46517  0.30616  0.11590  1.0000
  H   H2328     1.0  0.36491  0.02538  0.11141  1.0000
  H   H2329     1.0  0.26251  0.03366  0.01303  1.0000
  H   H2330     1.0  0.44719  0.34251  0.12789  1.0000
  C   C1387     1.0  0.46652  0.22298  0.02045  1.0000
  C   C1388     1.0  0.45260  0.33509  0.08853  1.0000
  H   H2331     1.0  0.48048  0.35025  0.11601  1.0000
  H   H2332     1.0  0.47815  0.11763  0.15607  1.0000
  H   H2333     1.0  0.36237  0.02372  0.06471  1.0000
  H   H2334     1.0  0.43605  0.20847  0.04375  1.0000
  H   H2335     1.0  0.43626  0.22452  0.05416  1.0000
  H   H2336     1.0  0.42742  0.20712  0.06602  1.0000
  N   N89       1.0  0.35809  0.24500  0.02449  1.0000
  C   C1389     1.0  0.35991  0.23868  0.00882  1.0000
  C   C1390     1.0  0.35815  0.22982  0.03907  1.0000
  C   C1391     1.0  0.37331  0.25271  0.02195  1.0000
  C   C1392     1.0  0.34162  0.25812  0.02657  1.0000
  C   C1393     1.0  0.36171  0.25185  0.99196  1.0000
  C   C1394     1.0  0.34249  0.22164  0.04393  1.0000
  H   H2337     1.0  0.47788  0.02051  0.12898  1.0000
  H   H2338     1.0  0.44749  0.12834  0.16527  1.0000
  C   C1395     1.0  0.30856  0.41335  0.08019  1.0000
  H   H2339     1.0  0.47356  0.41769  0.07067  1.0000
  H   H2340     1.0  0.49205  0.13140  0.14451  1.0000
  H   H2341     1.0  0.49185  0.03386  0.18508  1.0000
  H   H2342     1.0  0.26515  0.05022  0.02911  1.0000
  C   C1396     1.0  0.24937  0.08531  0.05910  1.0000
  H   H2343     1.0  0.49858  0.30254  0.01144  1.0000
  C   C1397     1.0  0.47820  0.27314  0.06074  1.0000
  H   H2344     1.0  0.35828  0.46762  0.19583  1.0000
  C   C1398     1.0  0.48379  0.13197  0.17064  1.0000
  H   H2345     1.0  0.49454  0.28657  0.06453  1.0000
  C   C1399     1.0  0.42220  0.48647  0.21409  1.0000
  H   H2346     1.0  0.46135  0.11569  0.22270  1.0000
  H   H2347     1.0  0.46839  0.16161  0.99122  1.0000
  H   H2348     1.0  0.46863  0.27485  0.07258  1.0000
  H   H2349     1.0  0.49409  0.32403  0.03751  1.0000
  H   H2350     1.0  0.46178  0.07891  0.22782  1.0000
  H   H2351     1.0  0.47650  0.12829  0.22109  1.0000
  H   H2352     1.0  0.47748  0.29983  0.05509  1.0000
  C   C1400     1.0  0.49311  0.18634  0.98676  1.0000
  H   H2353     1.0  0.45334  0.47553  0.22452  1.0000
  H   H2354     1.0  0.27039  0.03092  0.99185  1.0000
  H   H2355     1.0  0.48728  0.26093  0.06393  1.0000
  H   H2356     1.0  0.25467  0.06056  0.99165  1.0000
  S   S425      1.0  0.46603  0.99097  0.14651  1.0000
  C   C1401     1.0  0.48750  0.28797  0.05457  1.0000
  C   C1402     1.0  0.49383  0.36620  0.03366  1.0000
  H   H2357     1.0  0.48234  0.46260  0.21066  1.0000
  C   C1403     1.0  0.47244  0.41026  0.22165  1.0000
  H   H2358     1.0  0.25424  0.40298  0.07144  1.0000
  H   H2359     1.0  0.42528  0.48205  0.22676  1.0000
  H   H2360     1.0  0.25138  0.03270  0.09879  1.0000
  H   H2361     1.0  0.46039  0.41554  0.22980  1.0000
  H   H2362     1.0  0.25150  0.41662  0.11120  1.0000
  H   H2363     1.0  0.25268  0.48678  0.04061  1.0000
  H   H2364     1.0  0.25030  0.47455  0.01327  1.0000
  C   C1404     1.0  0.46023  0.48406  0.21393  1.0000
  H   H2365     1.0  0.48313  0.47494  0.22440  1.0000
  H   H2366     1.0  0.36585  0.48842  0.06752  1.0000
  Fe  Fe214     1.0  0.39827  0.30889  0.37788  1.0000
  S   S426      1.0  0.42264  0.31484  0.37914  1.0000
  S   S427      1.0  0.39998  0.28954  0.36300  1.0000
  Fe  Fe215     1.0  0.37569  0.33454  0.39845  1.0000
  S   S428      1.0  0.39809  0.34207  0.40184  1.0000
  S   S429      1.0  0.35004  0.34758  0.41162  1.0000
  Fe  Fe216     1.0  0.40846  0.34204  0.37438  1.0000
  S   S430      1.0  0.41912  0.36494  0.35919  1.0000
  Fe  Fe217     1.0  0.41013  0.31445  0.40635  1.0000
  S   S431      1.0  0.42299  0.30099  0.42812  1.0000
  S   S432      1.0  0.38513  0.33632  0.37059  1.0000
  S   S433      1.0  0.38674  0.30665  0.40549  1.0000
  Fe  Fe218     1.0  0.29190  0.42727  0.37249  1.0000
  S   S434      1.0  0.28200  0.44937  0.35290  1.0000
  S   S435      1.0  0.30207  0.40150  0.36607  1.0000
  Fe  Fe219     1.0  0.28797  0.44943  0.39682  1.0000
  H   H2367     1.0  0.47351  0.32097  0.45634  1.0000
  C   C1405     1.0  0.49316  0.08675  0.35642  1.0000
  Fe  Fe220     1.0  0.29896  0.46242  0.35916  1.0000
  Fe  Fe221     1.0  0.40882  0.43701  0.23455  1.0000
  S   S436      1.0  0.31005  0.43985  0.37729  1.0000
  H   H2368     1.0  0.37339  0.32866  0.44142  1.0000
  H   H2369     1.0  0.27874  0.02535  0.40736  1.0000
  Fe  Fe222     1.0  0.40807  0.41476  0.27012  1.0000
  S   S437      1.0  0.39877  0.43677  0.28295  1.0000
  S   S438      1.0  0.41344  0.38713  0.28268  1.0000
  Fe  Fe223     1.0  0.38118  0.44668  0.26473  1.0000
  S   S439      1.0  0.35312  0.45852  0.27092  1.0000
  Fe  Fe224     1.0  0.41762  0.44879  0.26158  1.0000
  S   S440      1.0  0.43693  0.46305  0.26137  1.0000
  S   S441      1.0  0.38915  0.42378  0.25327  1.0000
  S   S442      1.0  0.42841  0.42594  0.25044  1.0000
  C   C1406     1.0  0.36141  0.12751  0.33559  1.0000
  H   H2370     1.0  0.37901  0.08581  0.34608  1.0000
  H   H2371     1.0  0.45967  0.40458  0.26011  1.0000
  S   S443      1.0  0.46560  0.44563  0.32735  1.0000
  S   S444      1.0  0.44160  0.35349  0.45753  1.0000
  C   C1407     1.0  0.35010  0.10609  0.35967  1.0000
  H   H2372     1.0  0.33654  0.46879  0.43229  1.0000
  H   H2373     1.0  0.46135  0.22322  0.44371  1.0000
  C   C1408     1.0  0.35478  0.38044  0.43769  1.0000
  S   S445      1.0  0.47405  0.18314  0.43864  1.0000
  H   H2374     1.0  0.32184  0.13961  0.45427  1.0000
  Fe  Fe225     1.0  0.41971  0.08867  0.30111  1.0000
  S   S446      1.0  0.39917  0.10470  0.28747  1.0000
  S   S447      1.0  0.43162  0.09831  0.31682  1.0000
  Fe  Fe226     1.0  0.42102  0.05739  0.28802  1.0000
  S   S448      1.0  0.40050  0.07136  0.27364  1.0000
  S   S449      1.0  0.43442  0.03070  0.28555  1.0000
  Fe  Fe227     1.0  0.41443  0.09253  0.26573  1.0000
  S   S450      1.0  0.42504  0.10541  0.23905  1.0000
  Fe  Fe228     1.0  0.38757  0.08164  0.29701  1.0000
  S   S451      1.0  0.35931  0.08339  0.30818  1.0000
  S   S452      1.0  0.43573  0.07787  0.27891  1.0000
  S   S453      1.0  0.40736  0.06629  0.31192  1.0000
  Fe  Fe229     1.0  0.38798  0.19561  0.38718  1.0000
  S   S454      1.0  0.39749  0.17393  0.40726  1.0000
  S   S455      1.0  0.37582  0.22016  0.39625  1.0000
  Fe  Fe230     1.0  0.39765  0.17283  0.36167  1.0000
  S   S456      1.0  0.40773  0.14993  0.37995  1.0000
  S   S457      1.0  0.39757  0.17008  0.33574  1.0000
  Fe  Fe231     1.0  0.38426  0.15885  0.39861  1.0000
  S   S458      1.0  0.36990  0.13942  0.41658  1.0000
  Fe  Fe232     1.0  0.41983  0.16733  0.38654  1.0000
  S   S459      1.0  0.44802  0.15988  0.38666  1.0000
  S   S460      1.0  0.37319  0.18085  0.37997  1.0000
  S   S461      1.0  0.41134  0.18993  0.36690  1.0000
  C   C1409     1.0  0.29118  0.12101  0.45389  1.0000
  S   S462      1.0  0.29285  0.05616  0.41952  1.0000
  H   H2375     1.0  0.35078  0.47050  0.38049  1.0000
  Fe  Fe233     1.0  0.29986  0.10215  0.40527  1.0000
  S   S463      1.0  0.31871  0.08047  0.41649  1.0000
  S   S464      1.0  0.30461  0.12867  0.39872  1.0000
  Fe  Fe234     1.0  0.31404  0.06627  0.39983  1.0000
  S   S465      1.0  0.33554  0.04942  0.38517  1.0000
  Fe  Fe235     1.0  0.29553  0.07288  0.43487  1.0000
  S   S466      1.0  0.29693  0.08863  0.38693  1.0000
  S   S467      1.0  0.27668  0.09522  0.42426  1.0000
  C   C1410     1.0  0.35128  0.13693  0.41208  1.0000
  C   C1411     1.0  0.34239  0.14950  0.40095  1.0000
  C   C1412     1.0  0.32787  0.14699  0.39725  1.0000
  C   C1413     1.0  0.32216  0.13187  0.40461  1.0000
  C   C1414     1.0  0.33060  0.11964  0.41637  1.0000
  C   C1415     1.0  0.34509  0.12217  0.42009  1.0000
  H   H2376     1.0  0.34668  0.16117  0.39514  1.0000
  H   H2377     1.0  0.32125  0.15667  0.38839  1.0000
  H   H2378     1.0  0.32599  0.10826  0.42270  1.0000
  H   H2379     1.0  0.35164  0.11252  0.42903  1.0000
  C   C1416     1.0  0.35288  0.07365  0.32952  1.0000
  C   C1417     1.0  0.33556  0.07721  0.33751  1.0000
  C   C1418     1.0  0.33013  0.06990  0.35460  1.0000
  C   C1419     1.0  0.34202  0.05902  0.36383  1.0000
  C   C1420     1.0  0.35931  0.05535  0.35584  1.0000
  C   C1421     1.0  0.36468  0.06252  0.33872  1.0000
  H   H2380     1.0  0.32630  0.08568  0.33045  1.0000
  H   H2381     1.0  0.31672  0.07249  0.36048  1.0000
  H   H2382     1.0  0.36860  0.04702  0.36291  1.0000
  H   H2383     1.0  0.37793  0.05930  0.33270  1.0000
  C   C1422     1.0  0.42215  0.11838  0.32177  1.0000
  C   C1423     1.0  0.42709  0.12279  0.33433  1.0000
  C   C1424     1.0  0.41972  0.13864  0.33864  1.0000
  C   C1425     1.0  0.40742  0.15024  0.33035  1.0000
  C   C1426     1.0  0.40282  0.14598  0.31748  1.0000
  C   C1427     1.0  0.41005  0.13007  0.31329  1.0000
  H   H2384     1.0  0.43661  0.11390  0.34078  1.0000
  H   H2385     1.0  0.42382  0.14202  0.34811  1.0000
  H   H2386     1.0  0.39348  0.15497  0.31085  1.0000
  H   H2387     1.0  0.40636  0.12699  0.30339  1.0000
  C   C1428     1.0  0.46724  0.17521  0.42496  1.0000
  C   C1429     1.0  0.47837  0.17135  0.41015  1.0000
  C   C1430     1.0  0.47232  0.16646  0.39861  1.0000
  C   C1431     1.0  0.45516  0.16541  0.40181  1.0000
  C   C1432     1.0  0.44409  0.16893  0.41680  1.0000
  C   C1433     1.0  0.45015  0.17380  0.42838  1.0000
  H   H2388     1.0  0.49846  0.36050  0.44097  1.0000
  H   H2389     1.0  0.48085  0.16388  0.38697  1.0000
  H   H2390     1.0  0.43088  0.16795  0.41946  1.0000
  H   H2391     1.0  0.44151  0.17670  0.43989  1.0000
  H   H2392     1.0  0.36188  0.00764  0.32614  1.0000
  C   C1434     1.0  0.39032  0.01455  0.29684  1.0000
  C   C1435     1.0  0.40212  0.02474  0.29355  1.0000
  C   C1436     1.0  0.41966  0.01782  0.28974  1.0000
  H   H2393     1.0  0.49857  0.17110  0.32918  1.0000
  H   H2394     1.0  0.48218  0.36106  0.32029  1.0000
  H   H2395     1.0  0.37677  0.02012  0.29956  1.0000
  H   H2396     1.0  0.39759  0.03794  0.29408  1.0000
  H   H2397     1.0  0.34873  0.03408  0.33837  1.0000
  H   H2398     1.0  0.35057  0.07445  0.45440  1.0000
  C   C1437     1.0  0.46612  0.39243  0.25640  1.0000
  C   C1438     1.0  0.28558  0.02940  0.39415  1.0000
  C   C1439     1.0  0.32480  0.07139  0.45834  1.0000
  C   C1440     1.0  0.35160  0.36926  0.47932  1.0000
  H   H2399     1.0  0.44757  0.39566  0.48356  1.0000
  H   H2400     1.0  0.27996  0.48729  0.41649  1.0000
  H   H2401     1.0  0.42169  0.26904  0.45772  1.0000
  C   C1441     1.0  0.44519  0.45632  0.27968  1.0000
  C   C1442     1.0  0.43481  0.45143  0.29547  1.0000
  C   C1443     1.0  0.44122  0.44778  0.31015  1.0000
  C   C1444     1.0  0.45806  0.44879  0.30899  1.0000
  C   C1445     1.0  0.46860  0.45299  0.29313  1.0000
  C   C1446     1.0  0.46212  0.45689  0.27853  1.0000
  H   H2402     1.0  0.42168  0.45106  0.29644  1.0000
  H   H2403     1.0  0.43304  0.44451  0.32240  1.0000
  C   C1447     1.0  0.47214  0.09549  0.25123  1.0000
  H   H2404     1.0  0.47019  0.46062  0.26634  1.0000
  C   C1448     1.0  0.32799  0.47142  0.32249  1.0000
  C   C1449     1.0  0.31833  0.46816  0.31302  1.0000
  C   C1450     1.0  0.32624  0.46410  0.29724  1.0000
  C   C1451     1.0  0.34389  0.46280  0.29110  1.0000
  C   C1452     1.0  0.35365  0.46577  0.30070  1.0000
  C   C1453     1.0  0.34563  0.47037  0.31626  1.0000
  S   S468      1.0  0.29202  0.06766  0.46322  1.0000
  H   H2405     1.0  0.31863  0.46190  0.28980  1.0000
  H   H2406     1.0  0.39680  0.34227  0.44093  1.0000
  H   H2407     1.0  0.36405  0.38853  0.43050  1.0000
  C   C1454     1.0  0.39355  0.27016  0.37263  1.0000
  C   C1455     1.0  0.39795  0.25749  0.36334  1.0000
  C   C1456     1.0  0.39277  0.24202  0.37045  1.0000
  C   C1457     1.0  0.38280  0.23927  0.38682  1.0000
  C   C1458     1.0  0.37826  0.25200  0.39607  1.0000
  C   C1459     1.0  0.38381  0.26730  0.38910  1.0000
  H   H2408     1.0  0.40541  0.25965  0.35055  1.0000
  H   H2409     1.0  0.39623  0.23233  0.36319  1.0000
  H   H2410     1.0  0.37062  0.24990  0.40878  1.0000
  H   H2411     1.0  0.38046  0.27685  0.39647  1.0000
  C   C1460     1.0  0.42899  0.31521  0.43606  1.0000
  C   C1461     1.0  0.43247  0.33048  0.42564  1.0000
  C   C1462     1.0  0.43671  0.34203  0.43224  1.0000
  C   C1463     1.0  0.43716  0.33847  0.44933  1.0000
  H   H2412     1.0  0.47818  0.26249  0.42884  1.0000
  C   C1464     1.0  0.42986  0.31146  0.45308  1.0000
  H   H2413     1.0  0.43205  0.33334  0.41244  1.0000
  H   H2414     1.0  0.43941  0.35382  0.42412  1.0000
  C   C1465     1.0  0.43713  0.24359  0.46623  1.0000
  C   C1466     1.0  0.38468  0.01602  0.33862  1.0000
  C   C1467     1.0  0.33720  0.36285  0.39864  1.0000
  C   C1468     1.0  0.33836  0.36159  0.38216  1.0000
  C   C1469     1.0  0.32731  0.37332  0.37237  1.0000
  C   C1470     1.0  0.31560  0.38684  0.37871  1.0000
  C   C1471     1.0  0.31473  0.38836  0.39502  1.0000
  C   C1472     1.0  0.32525  0.37616  0.40509  1.0000
  H   H2415     1.0  0.34753  0.35143  0.37707  1.0000
  H   H2416     1.0  0.32792  0.37202  0.35980  1.0000
  H   H2417     1.0  0.30563  0.39867  0.40004  1.0000
  H   H2418     1.0  0.32409  0.37708  0.41790  1.0000
  C   C1473     1.0  0.41730  0.37113  0.33801  1.0000
  C   C1474     1.0  0.41511  0.35970  0.32991  1.0000
  C   C1475     1.0  0.41413  0.36474  0.31285  1.0000
  C   C1476     1.0  0.41501  0.38130  0.30393  1.0000
  C   C1477     1.0  0.41705  0.39280  0.31207  1.0000
  C   C1478     1.0  0.41828  0.38769  0.32908  1.0000
  H   H2419     1.0  0.41443  0.34689  0.33671  1.0000
  H   H2420     1.0  0.41259  0.35579  0.30657  1.0000
  H   H2421     1.0  0.41785  0.40556  0.30523  1.0000
  H   H2422     1.0  0.41990  0.39658  0.33536  1.0000
  H   H2423     1.0  0.47225  0.20053  0.46615  1.0000
  C   C1479     1.0  0.36392  0.36170  0.44209  1.0000
  H   H2424     1.0  0.45860  0.37319  0.47029  1.0000
  H   H2425     1.0  0.33554  0.02962  0.32742  1.0000
  H   H2426     1.0  0.45800  0.41126  0.33237  1.0000
  S   S469      1.0  0.25364  0.07363  0.40070  1.0000
  H   H2427     1.0  0.24940  0.46001  0.46639  1.0000
  H   H2428     1.0  0.48427  0.13642  0.37649  1.0000
  C   C1480     1.0  0.28841  0.02864  0.36422  1.0000
  C   C1481     1.0  0.35137  0.17559  0.43992  1.0000
  H   H2429     1.0  0.38976  0.31428  0.45122  1.0000
  H   H2430     1.0  0.33867  0.37156  0.47671  1.0000
  H   H2431     1.0  0.48491  0.06886  0.25590  1.0000
  C   C1482     1.0  0.47930  0.37500  0.35494  1.0000
  C   C1483     1.0  0.29181  0.04671  0.35749  1.0000
  C   C1484     1.0  0.33796  0.07569  0.46259  1.0000
  C   C1485     1.0  0.38708  0.34023  0.45293  1.0000
  H   H2432     1.0  0.46874  0.36938  0.36399  1.0000
  H   H2433     1.0  0.47371  0.12641  0.39722  1.0000
  H   H2434     1.0  0.28197  0.02667  0.35516  1.0000
  H   H2435     1.0  0.34116  0.00860  0.37253  1.0000
  C   C1486     1.0  0.34183  0.16117  0.44934  1.0000
  H   H2436     1.0  0.49035  0.12798  0.46506  1.0000
  N   N90       1.0  0.45498  0.24441  0.45598  1.0000
  H   H2437     1.0  0.47928  0.35530  0.45408  1.0000
  C   C1487     1.0  0.38498  0.36966  0.45276  1.0000
  C   C1488     1.0  0.25606  0.14155  0.46941  1.0000
  H   H2438     1.0  0.43716  0.23507  0.47881  1.0000
  H   H2439     1.0  0.44332  0.20006  0.37107  1.0000
  N   N91       1.0  0.27796  0.02509  0.38196  1.0000
  C   C1489     1.0  0.34122  0.02489  0.33877  1.0000
  H   H2440     1.0  0.41332  0.25817  0.47836  1.0000
  C   C1490     1.0  0.48857  0.38918  0.32508  1.0000
  H   H2441     1.0  0.45521  0.38928  0.45272  1.0000
  C   C1491     1.0  0.32686  0.31700  0.36754  1.0000
  H   H2442     1.0  0.45911  0.26644  0.46187  1.0000
  C   C1492     1.0  0.39592  0.99729  0.29674  1.0000
  H   H2443     1.0  0.32678  0.11791  0.46445  1.0000
  C   C1493     1.0  0.32650  0.48894  0.37758  1.0000
  C   C1494     1.0  0.48962  0.29955  0.46984  1.0000
  C   C1495     1.0  0.37931  0.32569  0.45248  1.0000
  H   H2444     1.0  0.27203  0.00285  0.40083  1.0000
  H   H2445     1.0  0.32316  0.44787  0.42794  1.0000
  C   C1496     1.0  0.27774  0.00649  0.38715  1.0000
  C   C1497     1.0  0.48460  0.36598  0.44515  1.0000
  H   H2446     1.0  0.44265  0.41577  0.36019  1.0000
  N   N92       1.0  0.25800  0.12908  0.45875  1.0000
  H   H2447     1.0  0.32438  0.26765  0.38111  1.0000
  H   H2448     1.0  0.26375  0.12777  0.43247  1.0000
  H   H2449     1.0  0.43052  0.23790  0.46004  1.0000
  C   C1498     1.0  0.46504  0.22693  0.45373  1.0000
  C   C1499     1.0  0.46357  0.40294  0.34316  1.0000
  H   H2450     1.0  0.29968  0.32644  0.37661  1.0000
  H   H2451     1.0  0.26524  0.44242  0.45918  1.0000
  H   H2452     1.0  0.34114  0.08648  0.38027  1.0000
  C   C1500     1.0  0.33710  0.28679  0.38165  1.0000
  H   H2453     1.0  0.47424  0.21650  0.40697  1.0000
  H   H2454     1.0  0.36403  0.17059  0.43233  1.0000
  H   H2455     1.0  0.34398  0.99907  0.33754  1.0000
  C   C1501     1.0  0.36353  0.35364  0.47288  1.0000
  H   H2456     1.0  0.48235  0.14240  0.33811  1.0000
  C   C1502     1.0  0.26327  0.45401  0.46400  1.0000
  N   N93       1.0  0.48198  0.38022  0.45388  1.0000
  H   H2457     1.0  0.43420  0.32025  0.47293  1.0000
  C   C1503     1.0  0.44845  0.40257  0.35862  1.0000
  H   H2458     1.0  0.26959  0.46323  0.45391  1.0000
  C   C1504     1.0  0.48707  0.15190  0.47321  1.0000
  C   C1505     1.0  0.31140  0.32117  0.38188  1.0000
  H   H2459     1.0  0.30163  0.10994  0.45688  1.0000
  C   C1506     1.0  0.32824  0.27923  0.37251  1.0000
  H   H2460     1.0  0.39404  0.09786  0.33159  1.0000
  H   H2461     1.0  0.33720  0.99140  0.36719  1.0000
  C   C1507     1.0  0.48397  0.12856  0.34334  1.0000
  C   C1508     1.0  0.45312  0.25520  0.43875  1.0000
  H   H2462     1.0  0.45940  0.09308  0.25206  1.0000
  H   H2463     1.0  0.48492  0.40608  0.44819  1.0000
  H   H2464     1.0  0.38966  0.11709  0.34831  1.0000
  S   S470      1.0  0.27833  0.47312  0.37929  1.0000
  C   C1509     1.0  0.46142  0.37840  0.33443  1.0000
  C   C1510     1.0  0.38829  0.09340  0.34508  1.0000
  H   H2465     1.0  0.27493  0.00124  0.36388  1.0000
  C   C1511     1.0  0.32431  0.47294  0.42859  1.0000
  C   C1512     1.0  0.46905  0.36185  0.32803  1.0000
  C   C1513     1.0  0.35937  0.11798  0.32329  1.0000
  C   C1514     1.0  0.48197  0.07981  0.26194  1.0000
  H   H2466     1.0  0.48661  0.34982  0.47969  1.0000
  H   H2467     1.0  0.35390  0.35410  0.44569  1.0000
  H   H2468     1.0  0.35312  0.47295  0.32355  1.0000
  S   S471      1.0  0.39917  0.46069  0.24453  1.0000
  H   H2469     1.0  0.29506  0.42417  0.47391  1.0000
  H   H2470     1.0  0.45437  0.38769  0.32508  1.0000
  H   H2471     1.0  0.37974  0.00263  0.36434  1.0000
  H   H2472     1.0  0.30098  0.01949  0.36291  1.0000
  C   C1515     1.0  0.30078  0.46621  0.42176  1.0000
  C   C1516     1.0  0.49329  0.37440  0.46656  1.0000
  C   C1517     1.0  0.45827  0.39840  0.47272  1.0000
  H   H2473     1.0  0.48108  0.32652  0.47144  1.0000
  H   H2474     1.0  0.44708  0.25530  0.38485  1.0000
  C   C1518     1.0  0.44672  0.01603  0.24170  1.0000
  H   H2475     1.0  0.45580  0.13804  0.24779  1.0000
  H   H2476     1.0  0.32266  0.48757  0.39148  1.0000
  C   C1519     1.0  0.27907  0.48209  0.47508  1.0000
  H   H2477     1.0  0.46123  0.36110  0.31957  1.0000
  C   C1520     1.0  0.37198  0.00958  0.35472  1.0000
  C   C1521     1.0  0.48672  0.39577  0.44153  1.0000
  H   H2478     1.0  0.48150  0.45406  0.29210  1.0000
  H   H2479     1.0  0.48886  0.37933  0.24289  1.0000
  N   N94       1.0  0.28825  0.44954  0.47863  1.0000
  C   C1522     1.0  0.29221  0.46662  0.46953  1.0000
  H   H2480     1.0  0.31833  0.13333  0.47713  1.0000
  C   C1523     1.0  0.48772  0.11629  0.25138  1.0000
  H   H2481     1.0  0.48468  0.12224  0.33314  1.0000
  C   C1524     1.0  0.30473  0.02136  0.39373  1.0000
  H   H2482     1.0  0.36713  0.15190  0.34638  1.0000
  H   H2483     1.0  0.39444  0.33511  0.46311  1.0000
  C   C1525     1.0  0.33920  0.15332  0.48043  1.0000
  C   C1526     1.0  0.31849  0.43330  0.46699  1.0000
  C   C1527     1.0  0.45797  0.12520  0.24556  1.0000
  H   H2484     1.0  0.46668  0.26425  0.41328  1.0000
  C   C1528     1.0  0.43376  0.32316  0.45975  1.0000
  C   C1529     1.0  0.48477  0.12471  0.38651  1.0000
  N   N95       1.0  0.37456  0.35668  0.45535  1.0000
  H   H2485     1.0  0.48741  0.09778  0.39015  1.0000
  H   H2486     1.0  0.29888  0.04996  0.36513  1.0000
  H   H2487     1.0  0.37287  0.13304  0.32940  1.0000
  H   H2488     1.0  0.49153  0.17248  0.40743  1.0000
  H   H2489     1.0  0.49559  0.11170  0.23988  1.0000
  H   H2490     1.0  0.47625  0.39486  0.30338  1.0000
  H   H2491     1.0  0.49645  0.40060  0.29859  1.0000
  H   H2492     1.0  0.45018  0.20940  0.47252  1.0000
  H   H2493     1.0  0.26702  0.48429  0.47077  1.0000
  H   H2494     1.0  0.36922  0.10624  0.32243  1.0000
  H   H2495     1.0  0.37103  0.15866  0.46054  1.0000
  H   H2496     1.0  0.47818  0.41345  0.30913  1.0000
  C   C1530     1.0  0.47649  0.37041  0.42963  1.0000
  H   H2497     1.0  0.47120  0.08323  0.37589  1.0000
  H   H2498     1.0  0.34646  0.11505  0.32669  1.0000
  H   H2499     1.0  0.34208  0.15485  0.43926  1.0000
  C   C1531     1.0  0.45869  0.12672  0.28119  1.0000
  N   N96       1.0  0.47019  0.11232  0.25553  1.0000
  H   H2500     1.0  0.49722  0.37728  0.32211  1.0000
  H   H2501     1.0  0.32514  0.15530  0.48189  1.0000
  H   H2502     1.0  0.43122  0.26726  0.47529  1.0000
  H   H2503     1.0  0.30855  0.31000  0.39173  1.0000
  H   H2504     1.0  0.30470  0.46906  0.31771  1.0000
  H   H2505     1.0  0.39409  0.37040  0.44026  1.0000
  C   C1532     1.0  0.26838  0.00020  0.37735  1.0000
  C   C1533     1.0  0.35010  0.09501  0.37755  1.0000
  H   H2506     1.0  0.32214  0.31435  0.35758  1.0000
  H   H2507     1.0  0.37141  0.34653  0.48242  1.0000
  H   H2508     1.0  0.37057  0.31887  0.35273  1.0000
  C   C1534     1.0  0.34559  0.13142  0.46433  1.0000
  H   H2509     1.0  0.25479  0.03459  0.37207  1.0000
  H   H2510     1.0  0.36718  0.01320  0.48122  1.0000
  C   C1535     1.0  0.38076  0.10831  0.35407  1.0000
  H   H2511     1.0  0.36186  0.15331  0.36783  1.0000
  H   H2512     1.0  0.30869  0.02514  0.40348  1.0000
  H   H2513     1.0  0.35024  0.13848  0.33586  1.0000
  H   H2514     1.0  0.35867  0.12378  0.37771  1.0000
  H   H2515     1.0  0.34538  0.10262  0.38737  1.0000
  N   N97       1.0  0.47160  0.10975  0.37175  1.0000
  C   C1536     1.0  0.45554  0.11037  0.38554  1.0000
  C   C1537     1.0  0.42546  0.05295  0.23983  1.0000
  C   C1538     1.0  0.47470  0.09383  0.36530  1.0000
  C   C1539     1.0  0.46863  0.12534  0.35798  1.0000
  C   C1540     1.0  0.43945  0.10850  0.38101  1.0000
  C   C1541     1.0  0.36757  0.14432  0.35931  1.0000
  C   C1542     1.0  0.47539  0.43172  0.24429  1.0000
  H   H2516     1.0  0.47173  0.42481  0.25744  1.0000
  H   H2517     1.0  0.45775  0.10027  0.39694  1.0000
  H   H2518     1.0  0.45180  0.12256  0.38977  1.0000
  H   H2519     1.0  0.36065  0.12617  0.31042  1.0000
  C   C1543     1.0  0.46332  0.38460  0.46226  1.0000
  H   H2520     1.0  0.35380  0.12643  0.45312  1.0000
  H   H2521     1.0  0.46631  0.09567  0.35637  1.0000
  H   H2522     1.0  0.45846  0.12496  0.35194  1.0000
  H   H2523     1.0  0.46325  0.13700  0.36317  1.0000
  H   H2524     1.0  0.42861  0.10935  0.39212  1.0000
  H   H2525     1.0  0.43545  0.11882  0.37057  1.0000
  H   H2526     1.0  0.44111  0.09607  0.37793  1.0000
  H   H2527     1.0  0.39364  0.09629  0.23981  1.0000
  H   H2528     1.0  0.27769  0.15220  0.43889  1.0000
  H   H2529     1.0  0.43042  0.25924  0.37353  1.0000
  H   H2530     1.0  0.47734  0.16406  0.47221  1.0000
  H   H2531     1.0  0.46989  0.14251  0.46397  1.0000
  H   H2532     1.0  0.44997  0.10663  0.27720  1.0000
  H   H2533     1.0  0.46414  0.43664  0.23835  1.0000
  H   H2534     1.0  0.30734  0.00735  0.39673  1.0000
  H   H2535     1.0  0.32810  0.16710  0.45345  1.0000
  C   C1544     1.0  0.46313  0.21221  0.46924  1.0000
  S   S472      1.0  0.35197  0.08594  0.48264  1.0000
  H   H2536     1.0  0.29679  0.44028  0.45557  1.0000
  H   H2537     1.0  0.28387  0.04336  0.39220  1.0000
  H   H2538     1.0  0.45101  0.37537  0.34547  1.0000
  H   H2539     1.0  0.29360  0.46858  0.45573  1.0000
  H   H2540     1.0  0.34614  0.38168  0.42924  1.0000
  H   H2541     1.0  0.27333  0.10914  0.47432  1.0000
  H   H2542     1.0  0.39008  0.13423  0.47213  1.0000
  H   H2543     1.0  0.32752  0.06632  0.44724  1.0000
  H   H2544     1.0  0.32341  0.44506  0.46156  1.0000
  H   H2545     1.0  0.31315  0.33078  0.38770  1.0000
  H   H2546     1.0  0.34684  0.29274  0.40799  1.0000
  H   H2547     1.0  0.29385  0.12502  0.43993  1.0000
  H   H2548     1.0  0.25071  0.03479  0.40969  1.0000
  H   H2549     1.0  0.33084  0.32923  0.36142  1.0000
  H   H2550     1.0  0.38105  0.13924  0.36060  1.0000
  C   C1545     1.0  0.27395  0.11550  0.46078  1.0000
  Fe  Fe236     1.0  0.26221  0.45777  0.37501  1.0000
  C   C1546     1.0  0.42536  0.00062  0.28921  1.0000
  H   H2551     1.0  0.34356  0.13651  0.36546  1.0000
  H   H2552     1.0  0.40483  0.35460  0.46695  1.0000
  H   H2553     1.0  0.46609  0.21436  0.48036  1.0000
  H   H2554     1.0  0.47789  0.25176  0.45619  1.0000
  S   S473      1.0  0.29014  0.45069  0.42229  1.0000
  H   H2555     1.0  0.32849  0.28758  0.39413  1.0000
  H   H2556     1.0  0.46908  0.05716  0.23680  1.0000
  C   C1547     1.0  0.35735  0.13019  0.36458  1.0000
  C   C1548     1.0  0.45331  0.03253  0.23480  1.0000
  C   C1549     1.0  0.36774  0.14655  0.46121  1.0000
  C   C1550     1.0  0.29247  0.48335  0.41955  1.0000
  C   C1551     1.0  0.46442  0.25255  0.46342  1.0000
  H   H2557     1.0  0.49507  0.38524  0.47058  1.0000
  H   H2558     1.0  0.48870  0.14671  0.44878  1.0000
  H   H2559     1.0  0.37202  0.35879  0.42987  1.0000
  C   C1552     1.0  0.33993  0.47274  0.37432  1.0000
  H   H2560     1.0  0.45413  0.41109  0.46487  1.0000
  H   H2561     1.0  0.34484  0.47282  0.36072  1.0000
  H   H2562     1.0  0.36405  0.98907  0.38755  1.0000
  H   H2563     1.0  0.37807  0.02483  0.32880  1.0000
  C   C1553     1.0  0.48462  0.39209  0.24602  1.0000
  H   H2564     1.0  0.40266  0.37686  0.46295  1.0000
  H   H2565     1.0  0.27509  0.10534  0.45428  1.0000
  H   H2566     1.0  0.38698  0.36730  0.47895  1.0000
  S   S474      1.0  0.27067  0.43455  0.39402  1.0000
  H   H2567     1.0  0.40523  0.04091  0.25699  1.0000
  N   N98       1.0  0.36261  0.11764  0.35329  1.0000
  H   H2568     1.0  0.33701  0.27515  0.36115  1.0000
  H   H2569     1.0  0.36725  0.46494  0.29594  1.0000
  H   H2570     1.0  0.36286  0.08680  0.37868  1.0000
  C   C1554     1.0  0.31679  0.46111  0.42605  1.0000
  H   H2571     1.0  0.26703  0.14779  0.46566  1.0000
  N   N99       1.0  0.36116  0.99870  0.35291  1.0000
  H   H2572     1.0  0.39221  0.02332  0.34180  1.0000
  H   H2573     1.0  0.25606  0.13487  0.48274  1.0000
  N   N100      1.0  0.34194  0.30345  0.37232  1.0000
  C   C1555     1.0  0.35464  0.30041  0.35622  1.0000
  C   C1556     1.0  0.35240  0.00695  0.33834  1.0000
  C   C1557     1.0  0.35066  0.30921  0.38263  1.0000
  C   C1558     1.0  0.36320  0.31523  0.34567  1.0000
  C   C1559     1.0  0.34349  0.30634  0.40186  1.0000
  H   H2574     1.0  0.36515  0.28922  0.35896  1.0000
  H   H2575     1.0  0.34853  0.29732  0.34757  1.0000
  N   N101      1.0  0.34865  0.14844  0.46387  1.0000
  H   H2576     1.0  0.34871  0.27711  0.38456  1.0000
  H   H2577     1.0  0.36441  0.30267  0.38112  1.0000
  H   H2578     1.0  0.35067  0.32290  0.37800  1.0000
  H   H2579     1.0  0.37259  0.31109  0.33459  1.0000
  H   H2580     1.0  0.35386  0.32644  0.34071  1.0000
  H   H2581     1.0  0.32953  0.31113  0.40535  1.0000
  H   H2582     1.0  0.34946  0.31324  0.40737  1.0000
  N   N102      1.0  0.47339  0.38599  0.33923  1.0000
  N   N103      1.0  0.43598  0.22356  0.39353  1.0000
  C   C1560     1.0  0.42329  0.21223  0.39880  1.0000
  C   C1561     1.0  0.44285  0.22532  0.37477  1.0000
  C   C1562     1.0  0.42666  0.24062  0.39759  1.0000
  C   C1563     1.0  0.44991  0.21532  0.40329  1.0000
  C   C1564     1.0  0.41261  0.21082  0.41708  1.0000
  C   C1565     1.0  0.45202  0.20876  0.36862  1.0000
  C   C1566     1.0  0.43325  0.25639  0.38627  1.0000
  C   C1567     1.0  0.46467  0.22441  0.39944  1.0000
  H   H2583     1.0  0.41408  0.21646  0.39031  1.0000
  H   H2584     1.0  0.42979  0.19906  0.39756  1.0000
  H   H2585     1.0  0.45213  0.23371  0.36991  1.0000
  H   H2586     1.0  0.43221  0.23153  0.36796  1.0000
  H   H2587     1.0  0.41309  0.24339  0.39656  1.0000
  H   H2588     1.0  0.42616  0.24062  0.41092  1.0000
  H   H2589     1.0  0.44466  0.21378  0.41709  1.0000
  H   H2590     1.0  0.45568  0.20233  0.40120  1.0000
  H   H2591     1.0  0.40363  0.20247  0.41910  1.0000
  H   H2592     1.0  0.42064  0.20492  0.42658  1.0000
  H   H2593     1.0  0.40456  0.22314  0.41957  1.0000
  H   H2594     1.0  0.32170  0.02654  0.47480  1.0000
  H   H2595     1.0  0.45667  0.21191  0.35473  1.0000
  H   H2596     1.0  0.46341  0.20208  0.37407  1.0000
  C   C1568     1.0  0.48432  0.40017  0.30820  1.0000
  H   H2597     1.0  0.25472  0.00667  0.37842  1.0000
  H   H2598     1.0  0.29988  0.04762  0.34453  1.0000
  H   H2599     1.0  0.47141  0.22606  0.38602  1.0000
  C   C1569     1.0  0.41348  0.99032  0.29275  1.0000
  H   H2600     1.0  0.46023  0.23669  0.40336  1.0000
  H   H2601     1.0  0.47715  0.14349  0.25364  1.0000
  H   H2602     1.0  0.35222  0.09722  0.35135  1.0000
  C   C1570     1.0  0.32698  0.13087  0.46508  1.0000
  H   H2603     1.0  0.47072  0.13017  0.28090  1.0000
  H   H2604     1.0  0.29100  0.99862  0.38550  1.0000
  H   H2605     1.0  0.35317  0.18268  0.44833  1.0000
  H   H2606     1.0  0.29211  0.13091  0.45973  1.0000
  H   H2607     1.0  0.44669  0.26853  0.43952  1.0000
  H   H2608     1.0  0.38253  0.10378  0.36731  1.0000
  C   C1571     1.0  0.26012  0.03584  0.38232  1.0000
  H   H2609     1.0  0.37432  0.14308  0.44883  1.0000
  H   H2610     1.0  0.37699  0.38262  0.45230  1.0000
  H   H2611     1.0  0.31301  0.02595  0.38153  1.0000
  H   H2612     1.0  0.48264  0.37940  0.41900  1.0000
  Fe  Fe237     1.0  0.27577  0.07923  0.40736  1.0000
  H   H2613     1.0  0.34395  0.18476  0.43085  1.0000
  H   H2614     1.0  0.42710  0.29969  0.46119  1.0000
  H   H2615     1.0  0.45219  0.12390  0.29470  1.0000
  H   H2616     1.0  0.27455  0.15104  0.41936  1.0000
  H   H2617     1.0  0.27981  0.05643  0.35657  1.0000
  H   H2618     1.0  0.45814  0.38927  0.24956  1.0000
  H   H2619     1.0  0.33381  0.46170  0.37995  1.0000
  S   S475      1.0  0.31815  0.47740  0.34184  1.0000
  H   H2620     1.0  0.47898  0.22676  0.44931  1.0000
  H   H2621     1.0  0.37666  0.12018  0.47431  1.0000
  H   H2622     1.0  0.44990  0.13755  0.27492  1.0000
  H   H2623     1.0  0.33050  0.02495  0.34995  1.0000
  N   N104      1.0  0.35876  0.40312  0.32685  1.0000
  C   C1572     1.0  0.35309  0.39843  0.31349  1.0000
  C   C1573     1.0  0.34276  0.40972  0.33887  1.0000
  C   C1574     1.0  0.36907  0.38720  0.33598  1.0000
  C   C1575     1.0  0.36952  0.41611  0.31810  1.0000
  C   C1576     1.0  0.36749  0.39004  0.30043  1.0000
  C   C1577     1.0  0.33116  0.42618  0.33138  1.0000
  C   C1578     1.0  0.37111  0.38710  0.35365  1.0000
  C   C1579     1.0  0.37457  0.42490  0.32926  1.0000
  H   H2624     1.0  0.34410  0.38970  0.31941  1.0000
  H   H2625     1.0  0.34586  0.40979  0.30596  1.0000
  H   H2626     1.0  0.34553  0.41212  0.35002  1.0000
  H   H2627     1.0  0.33488  0.40000  0.34417  1.0000
  H   H2628     1.0  0.36330  0.37616  0.33779  1.0000
  H   H2629     1.0  0.38221  0.38405  0.32830  1.0000
  H   H2630     1.0  0.38179  0.41024  0.31050  1.0000
  H   H2631     1.0  0.36344  0.42613  0.30846  1.0000
  H   H2632     1.0  0.36163  0.38657  0.29185  1.0000
  H   H2633     1.0  0.37566  0.39890  0.29235  1.0000
  H   H2634     1.0  0.37555  0.37823  0.30630  1.0000
  H   H2635     1.0  0.33829  0.43638  0.32557  1.0000
  H   H2636     1.0  0.32487  0.42436  0.32220  1.0000
  H   H2637     1.0  0.32071  0.43054  0.34169  1.0000
  H   H2638     1.0  0.35887  0.38693  0.36310  1.0000
  H   H2639     1.0  0.37645  0.39768  0.35380  1.0000
  H   H2640     1.0  0.38020  0.37528  0.35798  1.0000
  H   H2641     1.0  0.38715  0.41799  0.33240  1.0000
  H   H2642     1.0  0.36497  0.42660  0.34097  1.0000
  H   H2643     1.0  0.37573  0.43793  0.32224  1.0000
  H   H2644     1.0  0.46399  0.31503  0.47808  1.0000
  H   H2645     1.0  0.31643  0.28804  0.36919  1.0000
  H   H2646     1.0  0.47413  0.07617  0.27475  1.0000
  C   C1580     1.0  0.34766  0.99624  0.36894  1.0000
  H   H2647     1.0  0.36380  0.02085  0.35958  1.0000
  H   H2648     1.0  0.46869  0.35068  0.33872  1.0000
  H   H2649     1.0  0.47719  0.24374  0.42278  1.0000
  H   H2650     1.0  0.44502  0.12217  0.24982  1.0000
  H   H2651     1.0  0.47801  0.40103  0.43251  1.0000
  H   H2652     1.0  0.43583  0.01712  0.25268  1.0000
  H   H2653     1.0  0.45704  0.00581  0.24649  1.0000
  C   C1581     1.0  0.46231  0.11076  0.27411  1.0000
  C   C1582     1.0  0.46989  0.25628  0.42535  1.0000
  H   H2654     1.0  0.39852  0.08439  0.35118  1.0000
  H   H2655     1.0  0.49639  0.12472  0.34719  1.0000
  C   C1583     1.0  0.29899  0.43652  0.46862  1.0000
  H   H2656     1.0  0.32507  0.42452  0.45834  1.0000
  C   C1584     1.0  0.37650  0.13330  0.47471  1.0000
  H   H2657     1.0  0.45653  0.03488  0.24581  1.0000
  H   H2658     1.0  0.33679  0.11362  0.35954  1.0000
  H   H2659     1.0  0.49642  0.12292  0.39138  1.0000
  H   H2660     1.0  0.41415  0.03160  0.23923  1.0000
  H   H2661     1.0  0.24975  0.46744  0.42895  1.0000
  C   C1585     1.0  0.30845  0.07298  0.46876  1.0000
  H   H2662     1.0  0.46250  0.37544  0.43254  1.0000
  H   H2663     1.0  0.42632  0.26759  0.39182  1.0000
  H   H2664     1.0  0.45257  0.39538  0.37050  1.0000
  H   H2665     1.0  0.26027  0.04950  0.37973  1.0000
  C   C1586     1.0  0.48612  0.10910  0.37961  1.0000
  H   H2666     1.0  0.44773  0.06851  0.24505  1.0000
  H   H2667     1.0  0.43818  0.39753  0.35691  1.0000
  H   H2668     1.0  0.31488  0.48847  0.37373  1.0000
  C   C1587     1.0  0.47631  0.31647  0.46918  1.0000
  H   H2669     1.0  0.47231  0.40977  0.34527  1.0000
  H   H2670     1.0  0.48367  0.29087  0.46657  1.0000
  H   H2671     1.0  0.39400  0.00558  0.33328  1.0000
  H   H2672     1.0  0.48275  0.38276  0.36178  1.0000
  C   C1588     1.0  0.39535  0.36674  0.46630  1.0000
  H   H2673     1.0  0.44478  0.25065  0.43339  1.0000
  H   H2674     1.0  0.38950  0.48624  0.27251  1.0000
  Fe  Fe238     1.0  0.49368  0.44537  0.32095  1.0000
  H   H2675     1.0  0.49266  0.39197  0.25471  1.0000
  H   H2676     1.0  0.42879  0.05138  0.25216  1.0000
  H   H2677     1.0  0.47851  0.35866  0.42506  1.0000
  H   H2678     1.0  0.47067  0.10091  0.28189  1.0000
  C   C1589     1.0  0.25820  0.13736  0.44042  1.0000
  H   H2679     1.0  0.25863  0.16443  0.43138  1.0000
  H   H2680     1.0  0.34604  0.03404  0.47789  1.0000
  H   H2681     1.0  0.47946  0.44296  0.24504  1.0000
  H   H2682     1.0  0.47777  0.23570  0.48305  1.0000
  H   H2683     1.0  0.43893  0.99522  0.28628  1.0000
  H   H2684     1.0  0.34925  0.12192  0.47554  1.0000
  H   H2685     1.0  0.33783  0.18079  0.47391  1.0000
  H   H2686     1.0  0.30487  0.46747  0.47096  1.0000
  H   H2687     1.0  0.46639  0.38259  0.26826  1.0000
  C   C1590     1.0  0.42539  0.26063  0.46939  1.0000
  H   H2688     1.0  0.39998  0.05227  0.23743  1.0000
  C   C1591     1.0  0.33495  0.08131  0.47748  1.0000
  H   H2689     1.0  0.49310  0.07619  0.35088  1.0000
  H   H2690     1.0  0.45605  0.48439  0.29750  1.0000
  H   H2691     1.0  0.48655  0.48119  0.26821  1.0000
  H   H2692     1.0  0.49431  0.08167  0.26293  1.0000
  H   H2693     1.0  0.35504  0.34507  0.47392  1.0000
  H   H2694     1.0  0.36995  0.32211  0.46425  1.0000
  H   H2695     1.0  0.49358  0.35171  0.34555  1.0000
  H   H2696     1.0  0.49672  0.39537  0.32896  1.0000
  H   H2697     1.0  0.47907  0.09553  0.23790  1.0000
  C   C1592     1.0  0.49503  0.36031  0.35263  1.0000
  C   C1593     1.0  0.48383  0.14148  0.46233  1.0000
  C   C1594     1.0  0.26782  0.15201  0.43251  1.0000
  H   H2698     1.0  0.35652  0.38099  0.47427  1.0000
  H   H2699     1.0  0.32225  0.42719  0.47924  1.0000
  H   H2700     1.0  0.49688  0.35263  0.36528  1.0000
  C   C1595     1.0  0.48860  0.13512  0.24773  1.0000
  C   C1596     1.0  0.41067  0.04376  0.24320  1.0000
  H   H2701     1.0  0.37185  0.42400  0.47909  1.0000
  C   C1597     1.0  0.46564  0.24526  0.48206  1.0000
  H   H2702     1.0  0.34679  0.38536  0.44883  1.0000
  C   C1598     1.0  0.48734  0.36161  0.48263  1.0000
  H   H2703     1.0  0.25217  0.09541  0.45943  1.0000
  H   H2704     1.0  0.46861  0.39887  0.47837  1.0000
  H   H2705     1.0  0.33946  0.48769  0.46405  1.0000
  C   C1599     1.0  0.26967  0.44965  0.48054  1.0000
  H   H2706     1.0  0.36597  0.04578  0.47824  1.0000
  H   H2707     1.0  0.49474  0.10923  0.26161  1.0000
  H   H2708     1.0  0.41983  0.06669  0.23607  1.0000
  C   C1600     1.0  0.34220  0.16947  0.48330  1.0000
  C   C1601     1.0  0.30539  0.07857  0.48375  1.0000
  H   H2709     1.0  0.45818  0.48864  0.32424  1.0000
  H   H2710     1.0  0.49868  0.10738  0.37070  1.0000
  H   H2711     1.0  0.49872  0.09619  0.34600  1.0000
  H   H2712     1.0  0.35573  0.16827  0.48363  1.0000
  H   H2713     1.0  0.49174  0.14028  0.23392  1.0000
  C   C1602     1.0  0.49051  0.42103  0.23392  1.0000
  H   H2714     1.0  0.28383  0.03066  0.48888  1.0000
  S   S476      1.0  0.44309  0.43884  0.70485  1.0000
  C   C1603     1.0  0.48175  0.46876  0.68958  1.0000
  C   C1604     1.0  0.49435  0.39845  0.54628  1.0000
  H   H2715     1.0  0.49444  0.12606  0.64208  1.0000
  Fe  Fe239     1.0  0.44401  0.44159  0.59854  1.0000
  S   S477      1.0  0.43906  0.41904  0.61921  1.0000
  S   S478      1.0  0.46983  0.44832  0.59032  1.0000
  Fe  Fe240     1.0  0.40843  0.44993  0.59116  1.0000
  S   S479      1.0  0.40057  0.42824  0.61126  1.0000
  S   S480      1.0  0.39250  0.46786  0.57327  1.0000
  Fe  Fe241     1.0  0.41367  0.43619  0.62697  1.0000
  S   S481      1.0  0.39986  0.43903  0.65338  1.0000
  Fe  Fe242     1.0  0.42659  0.41339  0.60137  1.0000
  S   S482      1.0  0.42926  0.38718  0.59733  1.0000
  S   S483      1.0  0.41956  0.45917  0.60747  1.0000
  S   S484      1.0  0.43356  0.43468  0.58012  1.0000
  H   H2716     1.0  0.35836  0.38351  0.57126  1.0000
  Fe  Fe243     1.0  0.31501  0.46519  0.54577  1.0000
  S   S485      1.0  0.33454  0.47348  0.52289  1.0000
  S   S486      1.0  0.32271  0.45304  0.57075  1.0000
  Fe  Fe244     1.0  0.32248  0.46140  0.50993  1.0000
  S   S487      1.0  0.34056  0.44639  0.49119  1.0000
  S   S488      1.0  0.30374  0.45181  0.53305  1.0000
  N   N105      1.0  0.49346  0.41329  0.55363  1.0000
  S   S489      1.0  0.41177  0.33571  0.50074  1.0000
  Fe  Fe245     1.0  0.43578  0.36076  0.51569  1.0000
  S   S490      1.0  0.41626  0.34689  0.53346  1.0000
  S   S491      1.0  0.45048  0.37584  0.52251  1.0000
  Fe  Fe246     1.0  0.42903  0.32601  0.51928  1.0000
  S   S492      1.0  0.43911  0.29909  0.53215  1.0000
  Fe  Fe247     1.0  0.40099  0.35806  0.51319  1.0000
  S   S493      1.0  0.37270  0.36950  0.52023  1.0000
  S   S494      1.0  0.44979  0.33924  0.50300  1.0000
  S   S495      1.0  0.41974  0.37339  0.49637  1.0000
  Fe  Fe248     1.0  0.42821  0.21094  0.52820  1.0000
  S   S496      1.0  0.44660  0.19279  0.51286  1.0000
  S   S497      1.0  0.42145  0.23814  0.51407  1.0000
  Fe  Fe249     1.0  0.42311  0.18291  0.55962  1.0000
  S   S498      1.0  0.44094  0.16303  0.54655  1.0000
  S   S499      1.0  0.41070  0.17425  0.58685  1.0000
  Fe  Fe250     1.0  0.45757  0.18184  0.53596  1.0000
  H   H2717     1.0  0.46534  0.25566  0.48796  1.0000
  Fe  Fe251     1.0  0.42794  0.17578  0.52503  1.0000
  S   S500      1.0  0.42335  0.15789  0.51190  1.0000
  S   S501      1.0  0.44070  0.20112  0.55054  1.0000
  S   S502      1.0  0.40863  0.19458  0.53877  1.0000
  Fe  Fe252     1.0  0.42387  0.08156  0.63483  1.0000
  S   S503      1.0  0.39667  0.09205  0.64642  1.0000
  S   S504      1.0  0.44181  0.09770  0.61704  1.0000
  Fe  Fe253     1.0  0.42133  0.04521  0.65239  1.0000
  S   S505      1.0  0.39385  0.05316  0.66482  1.0000
  S   S506      1.0  0.43220  0.01729  0.66004  1.0000
  Fe  Fe254     1.0  0.39113  0.07034  0.63978  1.0000
  S   S507      1.0  0.36758  0.07406  0.62974  1.0000
  Fe  Fe255     1.0  0.40230  0.07383  0.67020  1.0000
  S   S508      1.0  0.39221  0.08060  0.69576  1.0000
  S   S509      1.0  0.41807  0.06072  0.62676  1.0000
  S   S510      1.0  0.43012  0.06495  0.65916  1.0000
  Fe  Fe256     1.0  0.31893  0.09635  0.53946  1.0000
  S   S511      1.0  0.33848  0.07395  0.53172  1.0000
  S   S512      1.0  0.29266  0.09175  0.55325  1.0000
  Fe  Fe257     1.0  0.34452  0.11959  0.52606  1.0000
  S   S513      1.0  0.36566  0.09909  0.51683  1.0000
  S   S514      1.0  0.34845  0.14579  0.52370  1.0000
  Fe  Fe258     1.0  0.34576  0.09259  0.50790  1.0000
  H   H2718     1.0  0.37562  0.48673  0.59785  1.0000
  Fe  Fe259     1.0  0.35627  0.08266  0.54162  1.0000
  S   S515      1.0  0.37624  0.06553  0.55562  1.0000
  S   S516      1.0  0.32514  0.11462  0.51483  1.0000
  S   S517      1.0  0.33618  0.10354  0.55156  1.0000
  H   H2719     1.0  0.27064  0.07096  0.52178  1.0000
  H   H2720     1.0  0.36160  0.48692  0.61767  1.0000
  C   C1605     1.0  0.31867  0.08270  0.48814  1.0000
  H   H2721     1.0  0.45733  0.46637  0.70606  1.0000
  H   H2722     1.0  0.38941  0.01721  0.68616  1.0000
  H   H2723     1.0  0.33447  0.17160  0.49584  1.0000
  C   C1606     1.0  0.38169  0.99846  0.61706  1.0000
  H   H2724     1.0  0.31631  0.08698  0.49971  1.0000
  H   H2725     1.0  0.29276  0.07993  0.49187  1.0000
  H   H2726     1.0  0.40555  0.41409  0.57637  1.0000
  H   H2727     1.0  0.37775  0.99731  0.49603  1.0000
  C   C1607     1.0  0.37027  0.07322  0.60856  1.0000
  C   C1608     1.0  0.35577  0.07608  0.60191  1.0000
  C   C1609     1.0  0.35753  0.07434  0.58541  1.0000
  C   C1610     1.0  0.37381  0.06951  0.57558  1.0000
  C   C1611     1.0  0.38831  0.06699  0.58210  1.0000
  C   C1612     1.0  0.38655  0.06899  0.59850  1.0000
  H   H2728     1.0  0.34313  0.07938  0.60963  1.0000
  H   H2729     1.0  0.34625  0.07613  0.58053  1.0000
  H   H2730     1.0  0.40093  0.06331  0.57450  1.0000
  H   H2731     1.0  0.39779  0.06686  0.60343  1.0000
  C   C1613     1.0  0.40245  0.15478  0.51528  1.0000
  C   C1614     1.0  0.40030  0.13978  0.51272  1.0000
  C   C1615     1.0  0.38384  0.13685  0.51536  1.0000
  C   C1616     1.0  0.36935  0.14905  0.52025  1.0000
  C   C1617     1.0  0.37150  0.16419  0.52253  1.0000
  C   C1618     1.0  0.38800  0.16699  0.52023  1.0000
  H   H2732     1.0  0.41141  0.13031  0.50884  1.0000
  H   H2733     1.0  0.38244  0.12516  0.51355  1.0000
  H   H2734     1.0  0.36037  0.17373  0.52627  1.0000
  H   H2735     1.0  0.38952  0.17868  0.52206  1.0000
  C   C1619     1.0  0.41988  0.15340  0.59604  1.0000
  C   C1620     1.0  0.43677  0.14578  0.58961  1.0000
  C   C1621     1.0  0.44342  0.12873  0.59626  1.0000
  C   C1622     1.0  0.43326  0.11923  0.60946  1.0000
  C   C1623     1.0  0.41667  0.12710  0.61643  1.0000
  C   C1624     1.0  0.41005  0.14417  0.60982  1.0000
  H   H2736     1.0  0.44477  0.15301  0.57960  1.0000
  H   H2737     1.0  0.45638  0.12284  0.59101  1.0000
  H   H2738     1.0  0.40892  0.12014  0.62694  1.0000
  H   H2739     1.0  0.39713  0.15011  0.61515  1.0000
  H   H2740     1.0  0.49636  0.32746  0.57558  1.0000
  H   H2741     1.0  0.47790  0.16704  0.49985  1.0000
  C   C1625     1.0  0.43788  0.01326  0.62770  1.0000
  C   C1626     1.0  0.27726  0.05147  0.54271  1.0000
  H   H2742     1.0  0.44248  0.00970  0.60237  1.0000
  H   H2743     1.0  0.44181  0.02523  0.62372  1.0000
  C   C1627     1.0  0.46465  0.17645  0.58967  1.0000
  C   C1628     1.0  0.46370  0.09615  0.65051  1.0000
  H   H2744     1.0  0.37376  0.03361  0.69585  1.0000
  C   C1629     1.0  0.49021  0.33870  0.56713  1.0000
  H   H2745     1.0  0.48878  0.16626  0.62749  1.0000
  H   H2746     1.0  0.45889  0.15143  0.49686  1.0000
  C   C1630     1.0  0.43420  0.28223  0.52700  1.0000
  C   C1631     1.0  0.44010  0.26551  0.53522  1.0000
  C   C1632     1.0  0.43638  0.25184  0.53134  1.0000
  C   C1633     1.0  0.42656  0.25484  0.51933  1.0000
  C   C1634     1.0  0.42076  0.27155  0.51106  1.0000
  C   C1635     1.0  0.42463  0.28519  0.51480  1.0000
  H   H2747     1.0  0.44746  0.26312  0.54472  1.0000
  H   H2748     1.0  0.44094  0.23903  0.53777  1.0000
  H   H2749     1.0  0.41294  0.27400  0.50194  1.0000
  H   H2750     1.0  0.41996  0.29797  0.50843  1.0000
  C   C1636     1.0  0.25219  0.45654  0.52559  1.0000
  C   C1637     1.0  0.34944  0.42502  0.49928  1.0000
  C   C1638     1.0  0.36523  0.41700  0.49064  1.0000
  C   C1639     1.0  0.37266  0.40005  0.49703  1.0000
  C   C1640     1.0  0.36409  0.39088  0.51187  1.0000
  C   C1641     1.0  0.34814  0.39882  0.52031  1.0000
  C   C1642     1.0  0.34093  0.41587  0.51417  1.0000
  H   H2751     1.0  0.38490  0.39406  0.49038  1.0000
  H   H2752     1.0  0.34140  0.39178  0.53176  1.0000
  H   H2753     1.0  0.32871  0.42185  0.52087  1.0000
  C   C1643     1.0  0.43479  0.38428  0.57646  1.0000
  C   C1644     1.0  0.44302  0.39544  0.56332  1.0000
  C   C1645     1.0  0.44789  0.39270  0.54684  1.0000
  C   C1646     1.0  0.44414  0.37897  0.54330  1.0000
  C   C1647     1.0  0.43553  0.36797  0.55636  1.0000
  C   C1648     1.0  0.43111  0.37047  0.57294  1.0000
  H   H2754     1.0  0.44569  0.40610  0.56596  1.0000
  H   H2755     1.0  0.45433  0.40139  0.53676  1.0000
  H   H2756     1.0  0.43244  0.35743  0.55378  1.0000
  H   H2757     1.0  0.42465  0.36181  0.58305  1.0000
  C   C1649     1.0  0.37262  0.46404  0.57365  1.0000
  C   C1650     1.0  0.36541  0.45158  0.58609  1.0000
  C   C1651     1.0  0.34973  0.44860  0.58555  1.0000
  C   C1652     1.0  0.34125  0.45808  0.57258  1.0000
  C   C1653     1.0  0.34817  0.47093  0.56062  1.0000
  C   C1654     1.0  0.36387  0.47377  0.56103  1.0000
  H   H2758     1.0  0.37191  0.44415  0.59603  1.0000
  H   H2759     1.0  0.34436  0.43874  0.59499  1.0000
  H   H2760     1.0  0.49310  0.04505  0.71014  1.0000
  H   H2761     1.0  0.49273  0.05281  0.67201  1.0000
  C   C1655     1.0  0.48250  0.46955  0.62875  1.0000
  C   C1656     1.0  0.46608  0.46675  0.63116  1.0000
  C   C1657     1.0  0.46211  0.46015  0.61945  1.0000
  C   C1658     1.0  0.47442  0.45681  0.60503  1.0000
  H   H2762     1.0  0.36943  0.48336  0.55137  1.0000
  H   H2763     1.0  0.36802  0.01483  0.69539  1.0000
  H   H2764     1.0  0.49644  0.21057  0.58426  1.0000
  H   H2765     1.0  0.44950  0.45777  0.62152  1.0000
  H   H2766     1.0  0.45644  0.46945  0.64221  1.0000
  C   C1659     1.0  0.27498  0.04372  0.50966  1.0000
  H   H2767     1.0  0.45596  0.11924  0.63148  1.0000
  H   H2768     1.0  0.39989  0.00786  0.57911  1.0000
  Fe  Fe260     1.0  0.43179  0.35034  0.48547  1.0000
  C   C1660     1.0  0.27630  0.09847  0.54179  1.0000
  C   C1661     1.0  0.27984  0.10475  0.52438  1.0000
  C   C1662     1.0  0.26656  0.11037  0.51555  1.0000
  H   H2769     1.0  0.35813  0.03611  0.51703  1.0000
  C   C1663     1.0  0.43837  0.00440  0.61565  1.0000
  H   H2770     1.0  0.29280  0.10543  0.51773  1.0000
  H   H2771     1.0  0.34340  0.00091  0.51341  1.0000
  C   C1664     1.0  0.43065  0.44000  0.69048  1.0000
  C   C1665     1.0  0.41341  0.43912  0.69602  1.0000
  C   C1666     1.0  0.40402  0.43906  0.68448  1.0000
  C   C1667     1.0  0.41183  0.43978  0.66738  1.0000
  C   C1668     1.0  0.42895  0.44114  0.66176  1.0000
  C   C1669     1.0  0.43824  0.44148  0.67326  1.0000
  H   H2772     1.0  0.40738  0.43811  0.70926  1.0000
  H   H2773     1.0  0.39075  0.43810  0.68888  1.0000
  H   H2774     1.0  0.43499  0.44194  0.64857  1.0000
  H   H2775     1.0  0.45134  0.44284  0.66878  1.0000
  H   H2776     1.0  0.46122  0.12313  0.64949  1.0000
  H   H2777     1.0  0.49197  0.44142  0.66250  1.0000
  C   C1670     1.0  0.40705  0.07487  0.70879  1.0000
  C   C1671     1.0  0.42290  0.06407  0.70464  1.0000
  C   C1672     1.0  0.43469  0.05961  0.71504  1.0000
  H   H2778     1.0  0.25664  0.09247  0.56373  1.0000
  H   H2779     1.0  0.42602  0.05894  0.69354  1.0000
  H   H2780     1.0  0.47776  0.42856  0.67500  1.0000
  H   H2781     1.0  0.46606  0.42110  0.55657  1.0000
  H   H2782     1.0  0.31891  0.04256  0.51753  1.0000
  Fe  Fe261     1.0  0.42850  0.44419  0.73037  1.0000
  S   S518      1.0  0.48543  0.17318  0.53672  1.0000
  H   H2783     1.0  0.37094  0.01212  0.72355  1.0000
  H   H2784     1.0  0.34931  0.42202  0.56974  1.0000
  H   H2785     1.0  0.37462  0.41624  0.58018  1.0000
  H   H2786     1.0  0.28036  0.06082  0.54788  1.0000
  H   H2787     1.0  0.48751  0.35054  0.53106  1.0000
  H   H2788     1.0  0.26114  0.45818  0.48885  1.0000
  S   S519      1.0  0.30389  0.48556  0.50218  1.0000
  H   H2789     1.0  0.49176  0.31247  0.53281  1.0000
  H   H2790     1.0  0.48949  0.10116  0.65898  1.0000
  H   H2791     1.0  0.35983  0.00722  0.51818  1.0000
  C   C1673     1.0  0.49074  0.45991  0.60248  1.0000
  H   H2792     1.0  0.48136  0.39606  0.54830  1.0000
  H   H2793     1.0  0.39305  0.99284  0.62289  1.0000
  H   H2794     1.0  0.27176  0.04235  0.55367  1.0000
  C   C1674     1.0  0.42628  0.48762  0.68993  1.0000
  N   N106      1.0  0.38362  0.12869  0.57715  1.0000
  C   C1675     1.0  0.37289  0.11947  0.59255  1.0000
  C   C1676     1.0  0.37648  0.12968  0.56218  1.0000
  C   C1677     1.0  0.38192  0.14627  0.57961  1.0000
  C   C1678     1.0  0.40193  0.11892  0.57569  1.0000
  C   C1679     1.0  0.37695  0.11839  0.60968  1.0000
  C   C1680     1.0  0.37665  0.11262  0.55859  1.0000
  C   C1681     1.0  0.38504  0.16026  0.56365  1.0000
  C   C1682     1.0  0.41512  0.12526  0.56005  1.0000
  H   H2795     1.0  0.35901  0.12539  0.59337  1.0000
  H   H2796     1.0  0.37434  0.10616  0.59180  1.0000
  H   H2797     1.0  0.38333  0.13675  0.55039  1.0000
  H   H2798     1.0  0.36297  0.13704  0.56373  1.0000
  H   H2799     1.0  0.36879  0.15109  0.58665  1.0000
  H   H2800     1.0  0.39072  0.14608  0.58750  1.0000
  H   H2801     1.0  0.40692  0.11905  0.58661  1.0000
  H   H2802     1.0  0.40300  0.10519  0.57678  1.0000
  H   H2803     1.0  0.38977  0.11033  0.61083  1.0000
  H   H2804     1.0  0.37586  0.13097  0.61211  1.0000
  H   H2805     1.0  0.36756  0.11223  0.61993  1.0000
  H   H2806     1.0  0.36738  0.10599  0.56840  1.0000
  H   H2807     1.0  0.37242  0.11500  0.54660  1.0000
  H   H2808     1.0  0.38959  0.10426  0.55708  1.0000
  H   H2809     1.0  0.37447  0.16372  0.55684  1.0000
  H   H2810     1.0  0.39742  0.15691  0.55495  1.0000
  H   H2811     1.0  0.38517  0.17186  0.56746  1.0000
  H   H2812     1.0  0.42007  0.13530  0.56222  1.0000
  H   H2813     1.0  0.41030  0.12984  0.54828  1.0000
  H   H2814     1.0  0.42603  0.11452  0.55757  1.0000
  H   H2815     1.0  0.37151  0.42424  0.52135  1.0000
  H   H2816     1.0  0.26199  0.04132  0.49092  1.0000
  H   H2817     1.0  0.47519  0.43620  0.55921  1.0000
  H   H2818     1.0  0.43254  0.48825  0.71281  1.0000
  C   C1683     1.0  0.49272  0.40668  0.57231  1.0000
  H   H2819     1.0  0.36764  0.44616  0.52123  1.0000
  H   H2820     1.0  0.37416  0.39761  0.53840  1.0000
  C   C1684     1.0  0.33579  0.03318  0.48941  1.0000
  H   H2821     1.0  0.47469  0.11939  0.52104  1.0000
  H   H2822     1.0  0.42842  0.02729  0.71128  1.0000
  H   H2823     1.0  0.45777  0.46964  0.68424  1.0000
  C   C1685     1.0  0.39943  0.41813  0.56533  1.0000
  H   H2824     1.0  0.49701  0.41114  0.51915  1.0000
  H   H2825     1.0  0.47967  0.39213  0.59539  1.0000
  N   N107      1.0  0.49328  0.40517  0.64919  1.0000
  H   H2826     1.0  0.45484  0.23962  0.49003  1.0000
  H   H2827     1.0  0.44730  0.30602  0.57251  1.0000
  H   H2828     1.0  0.47540  0.08431  0.62186  1.0000
  H   H2829     1.0  0.49660  0.26910  0.51693  1.0000
  C   C1686     1.0  0.48846  0.15554  0.50074  1.0000
  C   C1687     1.0  0.44490  0.31914  0.56496  1.0000
  H   H2830     1.0  0.35027  0.36694  0.49320  1.0000
  H   H2831     1.0  0.31869  0.02602  0.54709  1.0000
  H   H2832     1.0  0.49139  0.31447  0.49580  1.0000
  C   C1688     1.0  0.38354  0.41038  0.56978  1.0000
  C   C1689     1.0  0.49013  0.42825  0.66572  1.0000
  H   H2833     1.0  0.27771  0.42541  0.50964  1.0000
  H   H2834     1.0  0.33964  0.39580  0.58202  1.0000
  C   C1690     1.0  0.43255  0.00650  0.64485  1.0000
  H   H2835     1.0  0.33135  0.00857  0.48871  1.0000
  H   H2836     1.0  0.40231  0.39218  0.52452  1.0000
  C   C1691     1.0  0.49461  0.20813  0.57266  1.0000
  C   C1692     1.0  0.48162  0.30521  0.56721  1.0000
  H   H2837     1.0  0.48648  0.34937  0.57370  1.0000
  C   C1693     1.0  0.29087  0.42755  0.50661  1.0000
  C   C1694     1.0  0.41300  0.01279  0.70535  1.0000
  C   C1695     1.0  0.48203  0.18479  0.60515  1.0000
  C   C1696     1.0  0.32715  0.02958  0.51982  1.0000
  S   S520      1.0  0.40704  0.46704  0.73220  1.0000
  H   H2838     1.0  0.25307  0.06790  0.53879  1.0000
  H   H2839     1.0  0.49490  0.11646  0.49257  1.0000
  H   H2840     1.0  0.36757  0.43973  0.55193  1.0000
  H   H2841     1.0  0.47495  0.36702  0.49031  1.0000
  C   C1697     1.0  0.36571  0.43370  0.52934  1.0000
  C   C1698     1.0  0.40106  0.01999  0.58087  1.0000
  C   C1699     1.0  0.37424  0.42990  0.54444  1.0000
  H   H2842     1.0  0.49254  0.42385  0.61647  1.0000
  H   H2843     1.0  0.47661  0.38790  0.57703  1.0000
  H   H2844     1.0  0.29994  0.41742  0.50061  1.0000
  C   C1700     1.0  0.49488  0.46600  0.61445  1.0000
  C   C1701     1.0  0.24994  0.07553  0.49893  1.0000
  H   H2845     1.0  0.48050  0.41230  0.61113  1.0000
  C   C1702     1.0  0.25338  0.03528  0.53468  1.0000
  H   H2846     1.0  0.30873  0.48644  0.57789  1.0000
  H   H2847     1.0  0.48094  0.28557  0.52594  1.0000
  H   H2848     1.0  0.30525  0.44699  0.49504  1.0000
  H   H2849     1.0  0.38412  0.38598  0.55493  1.0000
  H   H2850     1.0  0.28506  0.03498  0.51614  1.0000
  C   C1703     1.0  0.42952  0.01463  0.70908  1.0000
  C   C1704     1.0  0.32471  0.02205  0.48755  1.0000
  H   H2851     1.0  0.39397  0.00760  0.64069  1.0000
  H   H2852     1.0  0.37650  0.99409  0.59410  1.0000
  H   H2853     1.0  0.46907  0.00760  0.71870  1.0000
  H   H2854     1.0  0.39055  0.08916  0.72700  1.0000
  C   C1705     1.0  0.33089  0.02622  0.53754  1.0000
  H   H2855     1.0  0.48515  0.12312  0.62673  1.0000
  H   H2856     1.0  0.29426  0.42615  0.51884  1.0000
  H   H2857     1.0  0.45247  0.12783  0.52122  1.0000
  H   H2858     1.0  0.40246  0.41177  0.52792  1.0000
  H   H2859     1.0  0.38722  0.43249  0.53909  1.0000
  H   H2860     1.0  0.47941  0.06434  0.64690  1.0000
  C   C1706     1.0  0.48737  0.07162  0.64962  1.0000
  H   H2861     1.0  0.44383  0.19932  0.58790  1.0000
  C   C1707     1.0  0.47400  0.33609  0.56347  1.0000
  H   H2862     1.0  0.41191  0.02124  0.69282  1.0000
  H   H2863     1.0  0.27606  0.48088  0.48891  1.0000
  C   C1708     1.0  0.35623  0.41121  0.56356  1.0000
  H   H2864     1.0  0.34147  0.47861  0.55099  1.0000
  H   H2865     1.0  0.46425  0.14001  0.52585  1.0000
  H   H2866     1.0  0.46474  0.33445  0.57580  1.0000
  H   H2867     1.0  0.49288  0.39565  0.67604  1.0000
  H   H2868     1.0  0.46216  0.31359  0.54192  1.0000
  H   H2869     1.0  0.49519  0.18616  0.60432  1.0000
  C   C1709     1.0  0.47766  0.39811  0.58241  1.0000
  H   H2870     1.0  0.37058  0.13555  0.48756  1.0000
  H   H2871     1.0  0.37081  0.99566  0.62772  1.0000
  C   C1710     1.0  0.35242  0.00964  0.50826  1.0000
  C   C1711     1.0  0.47949  0.19939  0.57618  1.0000
  H   H2872     1.0  0.38517  0.02768  0.64630  1.0000
  H   H2873     1.0  0.26243  0.45076  0.53233  1.0000
  C   C1712     1.0  0.40053  0.39898  0.53465  1.0000
  H   H2874     1.0  0.40153  0.02634  0.62781  1.0000
  C   C1713     1.0  0.48930  0.42377  0.64940  1.0000
  C   C1714     1.0  0.47750  0.42669  0.55145  1.0000
  C   C1715     1.0  0.39234  0.03545  0.71751  1.0000
  H   H2875     1.0  0.40208  0.03911  0.72174  1.0000
  H   H2876     1.0  0.45555  0.08875  0.64833  1.0000
  H   H2877     1.0  0.47427  0.20799  0.52057  1.0000
  C   C1716     1.0  0.48024  0.28727  0.49971  1.0000
  H   H2878     1.0  0.38713  0.99699  0.71426  1.0000
  H   H2879     1.0  0.43353  0.32059  0.55977  1.0000
  C   C1717     1.0  0.47783  0.17084  0.62102  1.0000
  H   H2880     1.0  0.35950  0.39309  0.58769  1.0000
  H   H2881     1.0  0.44760  0.19040  0.60905  1.0000
  H   H2882     1.0  0.41058  0.39261  0.54197  1.0000
  C   C1718     1.0  0.38312  0.01079  0.71404  1.0000
  H   H2883     1.0  0.47359  0.19696  0.60791  1.0000
  H   H2884     1.0  0.44698  0.05137  0.71162  1.0000
  C   C1719     1.0  0.47614  0.43609  0.53327  1.0000
  H   H2885     1.0  0.47058  0.42909  0.52744  1.0000
  H   H2886     1.0  0.26951  0.11530  0.50215  1.0000
  H   H2887     1.0  0.46768  0.44883  0.53356  1.0000
  H   H2888     1.0  0.48698  0.46823  0.70053  1.0000
  H   H2889     1.0  0.28949  0.04487  0.53585  1.0000
  N   N108      1.0  0.48053  0.18247  0.58853  1.0000
  H   H2890     1.0  0.28100  0.05423  0.50134  1.0000
  C   C1720     1.0  0.48194  0.02595  0.72968  1.0000
  H   H2891     1.0  0.39582  0.43217  0.56284  1.0000
  H   H2892     1.0  0.34237  0.14289  0.49122  1.0000
  H   H2893     1.0  0.25516  0.08442  0.50265  1.0000
  H   H2894     1.0  0.46171  0.41136  0.67137  1.0000
  H   H2895     1.0  0.47521  0.15959  0.61874  1.0000
  H   H2896     1.0  0.46815  0.34825  0.55586  1.0000
  H   H2897     1.0  0.44171  0.11714  0.65144  1.0000
  H   H2898     1.0  0.45575  0.33528  0.54246  1.0000
  H   H2899     1.0  0.46792  0.20873  0.58069  1.0000
  C   C1721     1.0  0.35359  0.39487  0.57686  1.0000
  C   C1722     1.0  0.27180  0.03383  0.49825  1.0000
  H   H2900     1.0  0.47601  0.42974  0.64758  1.0000
  H   H2901     1.0  0.39284  0.03068  0.57369  1.0000
  H   H2902     1.0  0.47091  0.28819  0.55875  1.0000
  C   C1723     1.0  0.29218  0.44543  0.49590  1.0000
  C   C1724     1.0  0.46760  0.39771  0.67284  1.0000
  C   C1725     1.0  0.49507  0.19058  0.53100  1.0000
  C   C1726     1.0  0.49609  0.17043  0.58114  1.0000
  H   H2903     1.0  0.47028  0.40838  0.64008  1.0000
  H   H2904     1.0  0.44012  0.01303  0.69791  1.0000
  H   H2905     1.0  0.47809  0.19824  0.56379  1.0000
  N   N109      1.0  0.48217  0.09030  0.64222  1.0000
  H   H2906     1.0  0.37522  0.05067  0.49238  1.0000
  H   H2907     1.0  0.39318  0.04287  0.70428  1.0000
  H   H2908     1.0  0.49790  0.43054  0.63869  1.0000
  H   H2909     1.0  0.46534  0.40750  0.58375  1.0000
  H   H2910     1.0  0.48565  0.45576  0.68716  1.0000
  H   H2911     1.0  0.49684  0.35824  0.49064  1.0000
  N   N110      1.0  0.48656  0.14334  0.49151  1.0000
  S   S521      1.0  0.25820  0.48721  0.52510  1.0000
  H   H2912     1.0  0.41449  0.02122  0.57511  1.0000
  C   C1727     1.0  0.49042  0.41103  0.61818  1.0000
  N   N111      1.0  0.47656  0.32163  0.55507  1.0000
  H   H2913     1.0  0.40797  0.01233  0.60496  1.0000
  H   H2914     1.0  0.43721  0.18041  0.59987  1.0000
  H   H2915     1.0  0.46466  0.39183  0.68651  1.0000
  H   H2916     1.0  0.33959  0.01380  0.54080  1.0000
  H   H2917     1.0  0.47740  0.34129  0.52041  1.0000
  C   C1728     1.0  0.48361  0.27704  0.51713  1.0000
  C   C1729     1.0  0.46014  0.32255  0.55019  1.0000
  H   H2918     1.0  0.46388  0.17560  0.57692  1.0000
  H   H2919     1.0  0.34915  0.41199  0.55382  1.0000
  Fe  Fe262     1.0  0.28606  0.47718  0.52643  1.0000
  C   C1730     1.0  0.48428  0.40288  0.63689  1.0000
  C   C1731     1.0  0.37852  0.01978  0.69682  1.0000
  H   H2920     1.0  0.26832  0.02167  0.50556  1.0000
  H   H2921     1.0  0.46486  0.16342  0.59719  1.0000
  N   N112      1.0  0.37459  0.41250  0.55569  1.0000
  H   H2922     1.0  0.47835  0.10502  0.61728  1.0000
  H   H2923     1.0  0.31897  0.02071  0.52091  1.0000
  H   H2924     1.0  0.33607  0.03645  0.53896  1.0000
  C   C1732     1.0  0.43067  0.06585  0.72973  1.0000
  H   H2925     1.0  0.28355  0.45457  0.50349  1.0000
  N   N113      1.0  0.38028  0.01725  0.61044  1.0000
  C   C1733     1.0  0.37598  0.02539  0.62541  1.0000
  C   C1734     1.0  0.36615  0.02529  0.60083  1.0000
  C   C1735     1.0  0.39712  0.02095  0.59957  1.0000
  C   C1736     1.0  0.48352  0.09197  0.62365  1.0000
  C   C1737     1.0  0.39014  0.02132  0.63545  1.0000
  C   C1738     1.0  0.34816  0.02251  0.61045  1.0000
  C   C1739     1.0  0.24963  0.10969  0.52403  1.0000
  C   C1740     1.0  0.46518  0.13122  0.51783  1.0000
  H   H2926     1.0  0.37253  0.03941  0.62140  1.0000
  H   H2927     1.0  0.36452  0.02174  0.63470  1.0000
  H   H2928     1.0  0.36878  0.02099  0.58891  1.0000
  H   H2929     1.0  0.36528  0.03918  0.59671  1.0000
  H   H2930     1.0  0.39809  0.03392  0.59942  1.0000
  C   C1741     1.0  0.46201  0.47408  0.69342  1.0000
  H   H2931     1.0  0.38297  0.47788  0.63136  1.0000
  C   C1742     1.0  0.48671  0.06649  0.66878  1.0000
  H   H2932     1.0  0.37079  0.05635  0.72201  1.0000
  H   H2933     1.0  0.48906  0.14556  0.59333  1.0000
  H   H2934     1.0  0.49468  0.25679  0.49055  1.0000
  H   H2935     1.0  0.34789  0.00889  0.61487  1.0000
  H   H2936     1.0  0.34312  0.02902  0.62115  1.0000
  H   H2937     1.0  0.33919  0.02817  0.60175  1.0000
  H   H2938     1.0  0.46137  0.39195  0.66641  1.0000
  N   N114      1.0  0.34255  0.02775  0.50539  1.0000
  C   C1743     1.0  0.47895  0.99878  0.72546  1.0000
  C   C1744     1.0  0.48853  0.33933  0.52608  1.0000
  H   H2939     1.0  0.34514  0.05277  0.50491  1.0000
  H   H2940     1.0  0.49191  0.41692  0.57865  1.0000
  H   H2941     1.0  0.40914  0.41400  0.55455  1.0000
  N   N115      1.0  0.25955  0.05022  0.52232  1.0000
  H   H2942     1.0  0.35168  0.43470  0.53342  1.0000
  H   H2943     1.0  0.46664  0.17619  0.63019  1.0000
  C   C1745     1.0  0.38267  0.39856  0.54609  1.0000
  S   S522      1.0  0.48713  0.47790  0.64354  1.0000
  C   C1746     1.0  0.35319  0.03973  0.50526  1.0000
  H   H2944     1.0  0.36452  0.03690  0.72879  1.0000
  C   C1747     1.0  0.45551  0.11503  0.64519  1.0000
  C   C1748     1.0  0.25945  0.09736  0.55024  1.0000
  H   H2945     1.0  0.38760  0.39674  0.57562  1.0000
  C   C1749     1.0  0.48299  0.28888  0.56144  1.0000
  H   H2946     1.0  0.42787  0.47374  0.69443  1.0000
  C   C1750     1.0  0.49430  0.22039  0.51906  1.0000
  H   H2947     1.0  0.47498  0.26800  0.52251  1.0000
  H   H2948     1.0  0.44140  0.32820  0.57334  1.0000
  C   C1751     1.0  0.42768  0.99090  0.64994  1.0000
  C   C1752     1.0  0.48666  0.20644  0.52330  1.0000
  H   H2949     1.0  0.37887  0.02911  0.49154  1.0000
  H   H2950     1.0  0.48774  0.23263  0.51312  1.0000
  C   C1753     1.0  0.48718  0.39436  0.66614  1.0000
  C   C1754     1.0  0.49381  0.99121  0.71221  1.0000
  N   N116      1.0  0.49546  0.29182  0.48630  1.0000
  H   H2951     1.0  0.49152  0.38068  0.66571  1.0000
  C   C1755     1.0  0.26457  0.06094  0.53111  1.0000
  H   H2952     1.0  0.26407  0.02598  0.53991  1.0000
  C   C1756     1.0  0.44752  0.18744  0.59708  1.0000
  C   C1757     1.0  0.37502  0.04287  0.72812  1.0000
  H   H2953     1.0  0.49181  0.22065  0.56400  1.0000
  C   C1758     1.0  0.40287  0.08090  0.72367  1.0000
  C   C1759     1.0  0.46892  0.13961  0.49887  1.0000
  H   H2954     1.0  0.46929  0.03191  0.72635  1.0000
  H   H2955     1.0  0.47338  0.06802  0.67630  1.0000
  H   H2956     1.0  0.47264  0.30476  0.57974  1.0000
  H   H2957     1.0  0.46205  0.09383  0.66440  1.0000
  H   H2958     1.0  0.25906  0.07083  0.48808  1.0000
  H   H2959     1.0  0.47053  0.29889  0.50220  1.0000
  H   H2960     1.0  0.49409  0.07334  0.67272  1.0000
  H   H2961     1.0  0.48845  0.43855  0.52509  1.0000
  H   H2962     1.0  0.26687  0.43703  0.48720  1.0000
  C   C1760     1.0  0.49055  0.32264  0.53939  1.0000
  H   H2963     1.0  0.48776  0.47716  0.67827  1.0000
  H   H2964     1.0  0.49439  0.30410  0.56972  1.0000
  C   C1761     1.0  0.49363  0.09954  0.64569  1.0000
  H   H2965     1.0  0.31228  0.02313  0.49668  1.0000
  H   H2966     1.0  0.48743  0.14985  0.51441  1.0000
  H   H2967     1.0  0.49360  0.28724  0.55033  1.0000
  H   H2968     1.0  0.47315  0.28041  0.49532  1.0000
  H   H2969     1.0  0.48544  0.38919  0.63763  1.0000
  C   C1762     1.0  0.36911  0.04111  0.49088  1.0000
  N   N117      1.0  0.39671  0.01664  0.71835  1.0000
  H   H2970     1.0  0.41542  0.99963  0.70350  1.0000
  H   H2971     1.0  0.32791  0.04626  0.48845  1.0000
  C   C1763     1.0  0.36505  0.00338  0.49282  1.0000
  H   H2972     1.0  0.40007  0.48478  0.63435  1.0000
  H   H2973     1.0  0.46648  0.13093  0.49236  1.0000
  C   C1764     1.0  0.49535  0.03102  0.71370  1.0000
  H   H2974     1.0  0.43337  0.00473  0.71993  1.0000
  C   C1765     1.0  0.49511  0.11716  0.63419  1.0000
  H   H2975     1.0  0.49408  0.02681  0.70286  1.0000
  H   H2976     1.0  0.48606  0.27782  0.57174  1.0000
  H   H2977     1.0  0.49532  0.16986  0.56834  1.0000
  H   H2978     1.0  0.36066  0.99340  0.48983  1.0000
  Fe  Fe263     1.0  0.42831  0.09892  0.78496  1.0000
  S   S523      1.0  0.44065  0.08308  0.80622  1.0000
  S   S524      1.0  0.41510  0.12573  0.78693  1.0000
  Fe  Fe264     1.0  0.44003  0.07077  0.76538  1.0000
  S   S525      1.0  0.45319  0.05300  0.78537  1.0000
  H   H2979     1.0  0.45471  0.17848  0.81461  1.0000
  Fe  Fe265     1.0  0.42968  0.06275  0.80360  1.0000
  S   S526      1.0  0.41847  0.04516  0.82677  1.0000
  Fe  Fe266     1.0  0.46277  0.07521  0.78580  1.0000
  H   H2980     1.0  0.37048  0.26687  0.80429  1.0000
  S   S527      1.0  0.41556  0.07900  0.78359  1.0000
  S   S528      1.0  0.45114  0.09245  0.76465  1.0000
  Fe  Fe267     1.0  0.41501  0.16620  0.85620  1.0000
  S   S529      1.0  0.40567  0.19084  0.83960  1.0000
  S   S530      1.0  0.43462  0.14554  0.84532  1.0000
  Fe  Fe268     1.0  0.39455  0.17756  0.88835  1.0000
  S   S531      1.0  0.38292  0.20309  0.87434  1.0000
  S   S532      1.0  0.38709  0.17139  0.91683  1.0000
  Fe  Fe269     1.0  0.38007  0.18875  0.85672  1.0000
  S   S533      1.0  0.35731  0.19668  0.84467  1.0000
  Fe  Fe270     1.0  0.40946  0.20282  0.85863  1.0000
  S   S534      1.0  0.42331  0.22432  0.84997  1.0000
  S   S535      1.0  0.38915  0.16318  0.87215  1.0000
  S   S536      1.0  0.42137  0.17821  0.87366  1.0000
  Fe  Fe271     1.0  0.33601  0.09116  0.87416  1.0000
  S   S537      1.0  0.33691  0.09458  0.84678  1.0000
  S   S538      1.0  0.36063  0.07752  0.88243  1.0000
  Fe  Fe272     1.0  0.29751  0.10692  0.88202  1.0000
  S   S539      1.0  0.29614  0.11137  0.85490  1.0000
  S   S540      1.0  0.27362  0.11167  0.90255  1.0000
  Fe  Fe273     1.0  0.31257  0.08526  0.85562  1.0000
  S   S541      1.0  0.30741  0.06621  0.84427  1.0000
  Fe  Fe274     1.0  0.32068  0.12017  0.84938  1.0000
  S   S542      1.0  0.32570  0.14323  0.82943  1.0000
  S   S543      1.0  0.31255  0.08021  0.88308  1.0000
  S   S544      1.0  0.32117  0.11744  0.87643  1.0000
  H   H2981     1.0  0.35288  0.47949  0.86033  1.0000
  H   H2982     1.0  0.36568  0.48562  0.95897  1.0000
  H   H2983     1.0  0.33525  0.01554  0.82195  1.0000
  H   H2984     1.0  0.37399  0.01442  0.75102  1.0000
  H   H2985     1.0  0.49682  0.15159  0.98180  1.0000
  H   H2986     1.0  0.47599  0.25312  0.86495  1.0000
  H   H2987     1.0  0.34484  0.04937  0.83675  1.0000
  Fe  Fe275     1.0  0.39513  0.45073  0.75594  1.0000
  S   S545      1.0  0.40687  0.45855  0.77273  1.0000
  S   S546      1.0  0.36759  0.44865  0.76358  1.0000
  C   C1766     1.0  0.47573  0.48458  0.78226  1.0000
  Fe  Fe276     1.0  0.42814  0.43614  0.76806  1.0000
  S   S547      1.0  0.43877  0.42092  0.79085  1.0000
  H   H2988     1.0  0.26201  0.08704  0.88424  1.0000
  S   S548      1.0  0.41544  0.42717  0.75285  1.0000
  Fe  Fe277     1.0  0.40504  0.30970  0.87612  1.0000
  S   S549      1.0  0.41074  0.31892  0.89620  1.0000
  S   S550      1.0  0.39252  0.28716  0.88490  1.0000
  Fe  Fe278     1.0  0.41863  0.33735  0.84792  1.0000
  S   S551      1.0  0.42575  0.34848  0.86561  1.0000
  S   S552      1.0  0.42270  0.34778  0.81979  1.0000
  Fe  Fe279     1.0  0.43549  0.32161  0.87792  1.0000
  S   S553      1.0  0.46060  0.31221  0.88612  1.0000
  Fe  Fe280     1.0  0.40031  0.34492  0.88223  1.0000
  S   S554      1.0  0.38451  0.36601  0.89532  1.0000
  S   S555      1.0  0.43071  0.31053  0.85877  1.0000
  S   S556      1.0  0.39234  0.33560  0.86363  1.0000
  Fe  Fe281     1.0  0.31521  0.46145  0.88024  1.0000
  S   S557      1.0  0.29851  0.44282  0.88626  1.0000
  S   S558      1.0  0.32808  0.46570  0.89848  1.0000
  Fe  Fe282     1.0  0.31344  0.47189  0.84335  1.0000
  S   S559      1.0  0.29652  0.45417  0.84594  1.0000
  H   H2989     1.0  0.34701  0.03191  0.81470  1.0000
  Fe  Fe283     1.0  0.31396  0.43558  0.86204  1.0000
  S   S560      1.0  0.32324  0.40832  0.86004  1.0000
  H   H2990     1.0  0.40678  0.99008  0.83618  1.0000
  S   S561      1.0  0.33205  0.45253  0.85732  1.0000
  H   H2991     1.0  0.37912  0.99319  0.74735  1.0000
  H   H2992     1.0  0.36154  0.48694  0.82702  1.0000
  H   H2993     1.0  0.45422  0.17397  0.77571  1.0000
  H   H2994     1.0  0.34467  0.11898  0.80736  1.0000
  H   H2995     1.0  0.39783  0.00048  0.85338  1.0000
  C   C1767     1.0  0.31530  0.46473  0.91886  1.0000
  C   C1768     1.0  0.32225  0.46515  0.93209  1.0000
  C   C1769     1.0  0.31203  0.46471  0.94840  1.0000
  C   C1770     1.0  0.29470  0.46450  0.95132  1.0000
  C   C1771     1.0  0.28781  0.46393  0.93814  1.0000
  C   C1772     1.0  0.29817  0.46378  0.92197  1.0000
  H   H2996     1.0  0.42826  0.47878  0.77771  1.0000
  H   H2997     1.0  0.37919  0.38688  0.84780  1.0000
  H   H2998     1.0  0.27440  0.46378  0.94039  1.0000
  H   H2999     1.0  0.29275  0.46342  0.91183  1.0000
  C   C1773     1.0  0.36741  0.37779  0.88565  1.0000
  C   C1774     1.0  0.36245  0.39533  0.88431  1.0000
  C   C1775     1.0  0.34879  0.40484  0.87658  1.0000
  C   C1776     1.0  0.34003  0.39678  0.87024  1.0000
  C   C1777     1.0  0.34495  0.37923  0.87170  1.0000
  C   C1778     1.0  0.35858  0.36975  0.87940  1.0000
  H   H3000     1.0  0.36943  0.40163  0.88889  1.0000
  H   H3001     1.0  0.34513  0.41837  0.87547  1.0000
  H   H3002     1.0  0.33819  0.37293  0.86684  1.0000
  H   H3003     1.0  0.36209  0.35618  0.88071  1.0000
  C   C1779     1.0  0.35506  0.46056  0.77852  1.0000
  C   C1780     1.0  0.34105  0.45495  0.79011  1.0000
  C   C1781     1.0  0.48702  0.13501  0.86439  1.0000
  H   H3004     1.0  0.47248  0.99177  0.76043  1.0000
  C   C1782     1.0  0.34560  0.16833  0.95601  1.0000
  Fe  Fe284     1.0  0.42095  0.47257  0.74874  1.0000
  H   H3005     1.0  0.33763  0.44369  0.78938  1.0000
  H   H3006     1.0  0.32124  0.45891  0.81216  1.0000
  H   H3007     1.0  0.26707  0.09454  0.85474  1.0000
  H   H3008     1.0  0.25360  0.03786  0.86548  1.0000
  C   C1783     1.0  0.43368  0.40088  0.79873  1.0000
  C   C1784     1.0  0.43256  0.39143  0.78793  1.0000
  C   C1785     1.0  0.42935  0.37507  0.79450  1.0000
  C   C1786     1.0  0.42711  0.36815  0.81187  1.0000
  C   C1787     1.0  0.42809  0.37772  0.82262  1.0000
  C   C1788     1.0  0.43128  0.39405  0.81608  1.0000
  H   H3009     1.0  0.43453  0.39654  0.77449  1.0000
  H   H3010     1.0  0.42860  0.36775  0.78608  1.0000
  H   H3011     1.0  0.42616  0.37267  0.83600  1.0000
  H   H3012     1.0  0.43180  0.40146  0.82450  1.0000
  C   C1789     1.0  0.31781  0.39915  0.93280  1.0000
  C   C1790     1.0  0.46193  0.35819  0.89108  1.0000
  C   C1791     1.0  0.45615  0.34441  0.89010  1.0000
  C   C1792     1.0  0.46524  0.32546  0.93311  1.0000
  H   H3013     1.0  0.38602  0.22577  0.80202  1.0000
  H   H3014     1.0  0.45815  0.46858  0.79925  1.0000
  H   H3015     1.0  0.45293  0.36996  0.89265  1.0000
  H   H3016     1.0  0.44267  0.34549  0.89126  1.0000
  H   H3017     1.0  0.37639  0.48495  0.83902  1.0000
  H   H3018     1.0  0.48379  0.11536  0.73897  1.0000
  H   H3019     1.0  0.42042  0.09178  0.89588  1.0000
  H   H3020     1.0  0.35116  0.40528  0.91579  1.0000
  H   H3021     1.0  0.45967  0.32285  0.92384  1.0000
  C   C1793     1.0  0.30870  0.04590  0.85745  1.0000
  C   C1794     1.0  0.30206  0.03376  0.85419  1.0000
  C   C1795     1.0  0.30244  0.01776  0.86519  1.0000
  C   C1796     1.0  0.30946  0.01394  0.87946  1.0000
  C   C1797     1.0  0.31659  0.02588  0.88232  1.0000
  C   C1798     1.0  0.31638  0.04169  0.87127  1.0000
  H   H3022     1.0  0.29642  0.03680  0.84330  1.0000
  H   H3023     1.0  0.29716  0.00850  0.86276  1.0000
  H   H3024     1.0  0.32235  0.02287  0.89313  1.0000
  H   H3025     1.0  0.32255  0.05042  0.87329  1.0000
  C   C1799     1.0  0.41517  0.24136  0.86032  1.0000
  C   C1800     1.0  0.42292  0.25532  0.85478  1.0000
  C   C1801     1.0  0.41603  0.26952  0.86212  1.0000
  C   C1802     1.0  0.40133  0.26983  0.87504  1.0000
  C   C1803     1.0  0.39367  0.25581  0.88066  1.0000
  C   C1804     1.0  0.40068  0.24153  0.87349  1.0000
  H   H3026     1.0  0.43412  0.25529  0.84458  1.0000
  H   H3027     1.0  0.42201  0.28026  0.85764  1.0000
  H   H3028     1.0  0.38227  0.25599  0.89064  1.0000
  H   H3029     1.0  0.39473  0.23077  0.87804  1.0000
  C   C1805     1.0  0.40125  0.17515  0.92689  1.0000
  C   C1806     1.0  0.39543  0.17822  0.94324  1.0000
  C   C1807     1.0  0.40651  0.18177  0.95114  1.0000
  C   C1808     1.0  0.42348  0.18207  0.94273  1.0000
  C   C1809     1.0  0.42937  0.17866  0.92658  1.0000
  C   C1810     1.0  0.41830  0.17518  0.91871  1.0000
  H   H3030     1.0  0.38231  0.17814  0.94971  1.0000
  H   H3031     1.0  0.36532  0.22111  0.80936  1.0000
  H   H3032     1.0  0.44253  0.17872  0.92010  1.0000
  H   H3033     1.0  0.42311  0.17221  0.90646  1.0000
  C   C1811     1.0  0.34956  0.18101  0.84054  1.0000
  C   C1812     1.0  0.34022  0.18575  0.82786  1.0000
  C   C1813     1.0  0.33325  0.17395  0.82448  1.0000
  C   C1814     1.0  0.33511  0.15737  0.83407  1.0000
  C   C1815     1.0  0.34458  0.15246  0.84672  1.0000
  C   C1816     1.0  0.35194  0.16426  0.84986  1.0000
  H   H3034     1.0  0.33826  0.19865  0.82065  1.0000
  H   H3035     1.0  0.32599  0.17782  0.81469  1.0000
  H   H3036     1.0  0.34620  0.13963  0.85407  1.0000
  H   H3037     1.0  0.35899  0.16054  0.85978  1.0000
  C   C1817     1.0  0.48065  0.37677  0.80446  1.0000
  H   H3038     1.0  0.38831  0.99792  0.76181  1.0000
  H   H3039     1.0  0.47025  0.08588  0.81302  1.0000
  C   C1818     1.0  0.40219  0.05462  0.84176  1.0000
  C   C1819     1.0  0.39324  0.07140  0.83773  1.0000
  C   C1820     1.0  0.37999  0.07838  0.85000  1.0000
  C   C1821     1.0  0.37596  0.06868  0.86639  1.0000
  C   C1822     1.0  0.38512  0.05202  0.87038  1.0000
  C   C1823     1.0  0.39802  0.04496  0.85807  1.0000
  H   H3040     1.0  0.39654  0.07896  0.82518  1.0000
  H   H3041     1.0  0.37331  0.09143  0.84698  1.0000
  H   H3042     1.0  0.38220  0.04455  0.88305  1.0000
  H   H3043     1.0  0.40494  0.03200  0.86125  1.0000
  C   C1824     1.0  0.42079  0.13182  0.80268  1.0000
  C   C1825     1.0  0.40907  0.14360  0.81150  1.0000
  C   C1826     1.0  0.41331  0.14813  0.82444  1.0000
  C   C1827     1.0  0.42935  0.14095  0.82851  1.0000
  C   C1828     1.0  0.44121  0.12951  0.81943  1.0000
  C   C1829     1.0  0.43696  0.12496  0.80654  1.0000
  H   H3044     1.0  0.39655  0.14900  0.80859  1.0000
  H   H3045     1.0  0.40403  0.15694  0.83145  1.0000
  H   H3046     1.0  0.45370  0.12418  0.82238  1.0000
  H   H3047     1.0  0.44633  0.11632  0.79944  1.0000
  C   C1830     1.0  0.36654  0.26467  0.81830  1.0000
  H   H3048     1.0  0.43521  0.07632  0.84961  1.0000
  H   H3049     1.0  0.34330  0.39218  0.96105  1.0000
  H   H3050     1.0  0.43950  0.35639  0.97330  1.0000
  C   C1831     1.0  0.48381  0.26625  0.90669  1.0000
  C   C1832     1.0  0.37650  0.10933  0.76342  1.0000
  H   H3051     1.0  0.37015  0.14456  0.97146  1.0000
  C   C1833     1.0  0.26751  0.07337  0.88457  1.0000
  C   C1834     1.0  0.41728  0.11868  0.88846  1.0000
  H   H3052     1.0  0.39707  0.24657  0.80332  1.0000
  H   H3053     1.0  0.34895  0.14317  0.92051  1.0000
  H   H3054     1.0  0.26085  0.09051  0.83792  1.0000
  H   H3055     1.0  0.27434  0.04186  0.87957  1.0000
  C   C1835     1.0  0.47296  0.19159  0.85908  1.0000
  S   S562      1.0  0.49069  0.07452  0.78293  1.0000
  H   H3056     1.0  0.40915  0.13012  0.88224  1.0000
  H   H3057     1.0  0.39890  0.10259  0.89664  1.0000
  C   C1836     1.0  0.36132  0.00293  0.87301  1.0000
  H   H3058     1.0  0.48131  0.19802  0.84805  1.0000
  C   C1837     1.0  0.34627  0.40604  0.92927  1.0000
  H   H3059     1.0  0.47208  0.01252  0.76202  1.0000
  C   C1838     1.0  0.36592  0.28120  0.82344  1.0000
  C   C1839     1.0  0.35831  0.05063  0.83287  1.0000
  H   H3060     1.0  0.36508  0.29187  0.81229  1.0000
  C   C1840     1.0  0.41205  0.10238  0.88871  1.0000
  H   H3061     1.0  0.35405  0.28442  0.83297  1.0000
  N   N118      1.0  0.41908  0.24437  0.92464  1.0000
  C   C1841     1.0  0.42805  0.24516  0.93764  1.0000
  C   C1842     1.0  0.40193  0.25659  0.92663  1.0000
  C   C1843     1.0  0.42920  0.24925  0.90698  1.0000
  C   C1844     1.0  0.41717  0.22645  0.92738  1.0000
  C   C1845     1.0  0.44677  0.23515  0.93632  1.0000
  C   C1846     1.0  0.38848  0.25141  0.94259  1.0000
  C   C1847     1.0  0.43359  0.26687  0.90221  1.0000
  C   C1848     1.0  0.40720  0.22333  0.91591  1.0000
  H   H3062     1.0  0.42789  0.25849  0.93747  1.0000
  H   H3063     1.0  0.42113  0.24021  0.95059  1.0000
  H   H3064     1.0  0.39616  0.25914  0.91550  1.0000
  H   H3065     1.0  0.40341  0.26924  0.92698  1.0000
  H   H3066     1.0  0.44133  0.23971  0.90449  1.0000
  H   H3067     1.0  0.42207  0.24916  0.89761  1.0000
  H   H3068     1.0  0.42995  0.21781  0.92507  1.0000
  H   H3069     1.0  0.41156  0.22129  0.94078  1.0000
  H   H3070     1.0  0.44778  0.22136  0.93835  1.0000
  H   H3071     1.0  0.45521  0.23967  0.92419  1.0000
  H   H3072     1.0  0.45182  0.23695  0.94648  1.0000
  C   C1849     1.0  0.37123  0.03395  0.83017  1.0000
  H   H3073     1.0  0.42054  0.33812  0.96892  1.0000
  H   H3074     1.0  0.38481  0.23966  0.94266  1.0000
  H   H3075     1.0  0.42191  0.27715  0.90272  1.0000
  H   H3076     1.0  0.44094  0.26902  0.88895  1.0000
  H   H3077     1.0  0.44160  0.26802  0.91021  1.0000
  H   H3078     1.0  0.41589  0.22046  0.90398  1.0000
  H   H3079     1.0  0.39655  0.23398  0.91285  1.0000
  H   H3080     1.0  0.40107  0.21246  0.92261  1.0000
  H   H3081     1.0  0.36627  0.11527  0.97325  1.0000
  H   H3082     1.0  0.30412  0.40330  0.96542  1.0000
  H   H3083     1.0  0.43518  0.10994  0.85761  1.0000
  C   C1850     1.0  0.48270  0.26641  0.88868  1.0000
  H   H3084     1.0  0.31725  0.40321  0.97886  1.0000
  H   H3085     1.0  0.32955  0.14966  0.94665  1.0000
  H   H3086     1.0  0.35972  0.24975  0.86880  1.0000
  N   N119      1.0  0.37764  0.24866  0.82627  1.0000
  C   C1851     1.0  0.36697  0.13911  0.79423  1.0000
  H   H3087     1.0  0.32522  0.39085  0.90850  1.0000
  C   C1852     1.0  0.46485  0.03789  0.83355  1.0000
  H   H3088     1.0  0.48884  0.36408  0.80757  1.0000
  H   H3089     1.0  0.35875  0.36635  0.95424  1.0000
  H   H3090     1.0  0.35385  0.14832  0.76435  1.0000
  H   H3091     1.0  0.36105  0.05565  0.84252  1.0000
  C   C1853     1.0  0.34906  0.48458  0.79143  1.0000
  H   H3092     1.0  0.44066  0.08976  0.87022  1.0000
  H   H3093     1.0  0.43048  0.06695  0.88262  1.0000
  H   H3094     1.0  0.43235  0.33363  0.92727  1.0000
  H   H3095     1.0  0.43784  0.16229  0.78284  1.0000
  H   H3096     1.0  0.35637  0.14232  0.80491  1.0000
  H   H3097     1.0  0.27223  0.06332  0.85470  1.0000
  C   C1854     1.0  0.37132  0.23366  0.82568  1.0000
  C   C1855     1.0  0.31684  0.40514  0.96542  1.0000
  H   H3098     1.0  0.37626  0.99088  0.84350  1.0000
  H   H3099     1.0  0.42751  0.09707  0.83737  1.0000
  C   C1856     1.0  0.31907  0.40238  0.91365  1.0000
  H   H3100     1.0  0.38577  0.23589  0.84958  1.0000
  C   C1857     1.0  0.38021  0.00303  0.83682  1.0000
  H   H3101     1.0  0.43370  0.37292  0.93703  1.0000
  H   H3102     1.0  0.41077  0.06450  0.89752  1.0000
  H   H3103     1.0  0.47886  0.32566  0.92701  1.0000
  C   C1858     1.0  0.49450  0.08594  0.79558  1.0000
  C   C1859     1.0  0.37261  0.23086  0.80800  1.0000
  C   C1860     1.0  0.35921  0.24774  0.85648  1.0000
  H   H3104     1.0  0.26459  0.12771  0.87009  1.0000
  H   H3105     1.0  0.28013  0.07281  0.87548  1.0000
  C   C1861     1.0  0.37814  0.12222  0.77256  1.0000
  H   H3106     1.0  0.33378  0.47390  0.98280  1.0000
  H   H3107     1.0  0.32353  0.15573  0.77704  1.0000
  H   H3108     1.0  0.30595  0.40645  0.91113  1.0000
  C   C1862     1.0  0.39603  0.24667  0.81671  1.0000
  N   N120      1.0  0.36648  0.01795  0.84156  1.0000
  H   H3109     1.0  0.48028  0.17031  0.74410  1.0000
  C   C1863     1.0  0.34968  0.01585  0.83972  1.0000
  C   C1864     1.0  0.36480  0.01890  0.85954  1.0000
  N   N121      1.0  0.43732  0.34556  0.94493  1.0000
  H   H3110     1.0  0.48548  0.34871  0.83347  1.0000
  H   H3111     1.0  0.43786  0.31179  0.94720  1.0000
  C   C1865     1.0  0.48437  0.36961  0.84490  1.0000
  C   C1866     1.0  0.35355  0.14823  0.92892  1.0000
  H   H3112     1.0  0.34901  0.00003  0.87324  1.0000
  H   H3113     1.0  0.40375  0.36389  0.93535  1.0000
  C   C1867     1.0  0.25778  0.08906  0.85183  1.0000
  H   H3114     1.0  0.34137  0.42750  0.94131  1.0000
  H   H3115     1.0  0.37637  0.02201  0.86111  1.0000
  H   H3116     1.0  0.35413  0.02954  0.86303  1.0000
  H   H3117     1.0  0.38689  0.11904  0.96253  1.0000
  H   H3118     1.0  0.43594  0.30540  0.96938  1.0000
  C   C1868     1.0  0.39805  0.00169  0.83992  1.0000
  H   H3119     1.0  0.34688  0.37768  0.92046  1.0000
  H   H3120     1.0  0.37060  0.37548  0.93376  1.0000
  H   H3121     1.0  0.34750  0.00299  0.84631  1.0000
  C   C1869     1.0  0.47498  0.46557  0.76453  1.0000
  C   C1870     1.0  0.44002  0.36625  0.96150  1.0000
  H   H3122     1.0  0.49417  0.31587  0.88588  1.0000
  H   H3123     1.0  0.27830  0.07366  0.90521  1.0000
  C   C1871     1.0  0.49616  0.02830  0.79868  1.0000
  H   H3124     1.0  0.48133  0.46195  0.75218  1.0000
  H   H3125     1.0  0.44779  0.00295  0.74598  1.0000
  H   H3126     1.0  0.48546  0.25840  0.84317  1.0000
  H   H3127     1.0  0.45468  0.04692  0.82739  1.0000
  H   H3128     1.0  0.41564  0.11986  0.90163  1.0000
  C   C1872     1.0  0.43158  0.09742  0.86203  1.0000
  C   C1873     1.0  0.43591  0.08985  0.84630  1.0000
  C   C1874     1.0  0.34870  0.13887  0.77531  1.0000
  H   H3129     1.0  0.38180  0.12354  0.88169  1.0000
  H   H3130     1.0  0.40232  0.11062  0.84949  1.0000
  C   C1875     1.0  0.48513  0.32766  0.88723  1.0000
  C   C1876     1.0  0.38338  0.11897  0.87011  1.0000
  H   H3131     1.0  0.37633  0.10875  0.87290  1.0000
  H   H3132     1.0  0.49849  0.41568  0.81567  1.0000
  C   C1877     1.0  0.40537  0.26044  0.81585  1.0000
  S   S563      1.0  0.44328  0.45094  0.74539  1.0000
  H   H3133     1.0  0.40022  0.27266  0.80789  1.0000
  C   C1878     1.0  0.45671  0.39877  0.85224  1.0000
  C   C1879     1.0  0.41691  0.06692  0.88389  1.0000
  H   H3134     1.0  0.37444  0.16253  0.79196  1.0000
  H   H3135     1.0  0.35758  0.23462  0.83209  1.0000
  H   H3136     1.0  0.37709  0.28135  0.82803  1.0000
  C   C1880     1.0  0.35850  0.47658  0.96828  1.0000
  H   H3137     1.0  0.40377  0.23425  0.82213  1.0000
  H   H3138     1.0  0.44924  0.09052  0.83953  1.0000
  C   C1881     1.0  0.47149  0.16242  0.97739  1.0000
  H   H3139     1.0  0.45550  0.13811  0.77223  1.0000
  C   C1882     1.0  0.37319  0.12271  0.96174  1.0000
  H   H3140     1.0  0.37416  0.03344  0.81660  1.0000
  C   C1883     1.0  0.40235  0.11366  0.86152  1.0000
  N   N122      1.0  0.41322  0.09920  0.87168  1.0000
  Fe  Fe285     1.0  0.42537  0.19472  0.97654  1.0000
  C   C1884     1.0  0.35562  0.11415  0.79764  1.0000
  H   H3141     1.0  0.47594  0.10160  0.83103  1.0000
  C   C1885     1.0  0.36856  0.10123  0.80748  1.0000
  H   H3142     1.0  0.43091  0.11848  0.88223  1.0000
  H   H3143     1.0  0.36700  0.24247  0.79959  1.0000
  H   H3144     1.0  0.35031  0.10710  0.79160  1.0000
  H   H3145     1.0  0.35301  0.26327  0.82147  1.0000
  H   H3146     1.0  0.38009  0.09529  0.79918  1.0000
  H   H3147     1.0  0.37237  0.10697  0.81588  1.0000
  H   H3148     1.0  0.36244  0.09079  0.81567  1.0000
  H   H3149     1.0  0.37425  0.09732  0.77226  1.0000
  H   H3150     1.0  0.37705  0.12971  0.86127  1.0000
  C   C1886     1.0  0.40685  0.08337  0.87431  1.0000
  H   H3151     1.0  0.32840  0.37950  0.96408  1.0000
  S   S564      1.0  0.25364  0.46910  0.87974  1.0000
  C   C1887     1.0  0.48216  0.08990  0.80973  1.0000
  H   H3152     1.0  0.41154  0.08118  0.74554  1.0000
  H   H3153     1.0  0.39288  0.24993  0.95429  1.0000
  H   H3154     1.0  0.36192  0.16441  0.77726  1.0000
  H   H3155     1.0  0.38345  0.03543  0.83196  1.0000
  H   H3156     1.0  0.33483  0.15743  0.79143  1.0000
  H   H3157     1.0  0.37185  0.99172  0.87138  1.0000
  H   H3158     1.0  0.34905  0.25797  0.85151  1.0000
  H   H3159     1.0  0.27315  0.10591  0.97737  1.0000
  H   H3160     1.0  0.37667  0.26158  0.94280  1.0000
  C   C1888     1.0  0.48826  0.25464  0.85600  1.0000
  C   C1889     1.0  0.33577  0.47840  0.80367  1.0000
  N   N123      1.0  0.37024  0.40867  0.81645  1.0000
  C   C1890     1.0  0.36007  0.39502  0.82267  1.0000
  C   C1891     1.0  0.38690  0.40198  0.82227  1.0000
  C   C1892     1.0  0.37416  0.41369  0.79746  1.0000
  C   C1893     1.0  0.35987  0.42398  0.82341  1.0000
  C   C1894     1.0  0.34329  0.39902  0.81642  1.0000
  C   C1895     1.0  0.38545  0.39771  0.84153  1.0000
  C   C1896     1.0  0.38276  0.39917  0.78803  1.0000
  C   C1897     1.0  0.36917  0.43850  0.82015  1.0000
  H   H3161     1.0  0.36798  0.38284  0.81949  1.0000
  H   H3162     1.0  0.35628  0.39225  0.83665  1.0000
  H   H3163     1.0  0.39561  0.41095  0.81642  1.0000
  H   H3164     1.0  0.39387  0.39008  0.81798  1.0000
  H   H3165     1.0  0.36238  0.42065  0.79272  1.0000
  H   H3166     1.0  0.38290  0.42268  0.79289  1.0000
  H   H3167     1.0  0.34826  0.42958  0.81803  1.0000
  H   H3168     1.0  0.35483  0.42040  0.83724  1.0000
  H   H3169     1.0  0.33720  0.38794  0.82169  1.0000
  H   H3170     1.0  0.33392  0.40987  0.82102  1.0000
  H   H3171     1.0  0.34546  0.40136  0.80251  1.0000
  H   H3172     1.0  0.40777  0.12517  0.85763  1.0000
  H   H3173     1.0  0.39848  0.39379  0.84421  1.0000
  H   H3174     1.0  0.37872  0.40866  0.84742  1.0000
  H   H3175     1.0  0.37467  0.38987  0.79065  1.0000
  H   H3176     1.0  0.39550  0.39261  0.79079  1.0000
  H   H3177     1.0  0.38485  0.40463  0.77424  1.0000
  H   H3178     1.0  0.37989  0.43473  0.82678  1.0000
  H   H3179     1.0  0.35997  0.44929  0.82506  1.0000
  H   H3180     1.0  0.37392  0.44333  0.80653  1.0000
  C   C1898     1.0  0.47048  0.00523  0.75356  1.0000
  H   H3181     1.0  0.31425  0.16220  0.97184  1.0000
  H   H3182     1.0  0.40387  0.01245  0.83210  1.0000
  C   C1899     1.0  0.48582  0.16253  0.75514  1.0000
  Fe  Fe286     1.0  0.28237  0.46298  0.86987  1.0000
  H   H3183     1.0  0.35561  0.23535  0.85910  1.0000
  C   C1900     1.0  0.49362  0.35288  0.83928  1.0000
  C   C1901     1.0  0.45195  0.16096  0.78017  1.0000
  H   H3184     1.0  0.40604  0.08121  0.86217  1.0000
  C   C1902     1.0  0.48540  0.09876  0.81995  1.0000
  H   H3185     1.0  0.36637  0.11450  0.75603  1.0000
  H   H3186     1.0  0.46460  0.15714  0.82208  1.0000
  H   H3187     1.0  0.47756  0.17253  0.81067  1.0000
  S   S565      1.0  0.29792  0.48235  0.86599  1.0000
  H   H3188     1.0  0.37791  0.13178  0.80022  1.0000
  H   H3189     1.0  0.40527  0.26213  0.82842  1.0000
  H   H3190     1.0  0.38172  0.25797  0.84633  1.0000
  H   H3191     1.0  0.38913  0.11629  0.77882  1.0000
  H   H3192     1.0  0.41702  0.05609  0.87868  1.0000
  C   C1903     1.0  0.43292  0.33274  0.96101  1.0000
  C   C1904     1.0  0.47818  0.12111  0.75019  1.0000
  H   H3193     1.0  0.40191  0.18428  0.96368  1.0000
  H   H3194     1.0  0.32574  0.41278  0.90660  1.0000
  H   H3195     1.0  0.35811  0.40233  0.93433  1.0000
  C   C1905     1.0  0.25923  0.07006  0.86019  1.0000
  H   H3196     1.0  0.37833  0.22173  0.83271  1.0000
  H   H3197     1.0  0.39344  0.08478  0.88170  1.0000
  N   N124      1.0  0.47865  0.16508  0.84621  1.0000
  C   C1906     1.0  0.47534  0.14741  0.85282  1.0000
  C   C1907     1.0  0.46490  0.17534  0.83666  1.0000
  C   C1908     1.0  0.47743  0.17216  0.86128  1.0000
  H   H3198     1.0  0.49860  0.13408  0.74271  1.0000
  H   H3199     1.0  0.48105  0.05380  0.81521  1.0000
  C   C1909     1.0  0.46571  0.17038  0.82011  1.0000
  H   H3200     1.0  0.36023  0.00523  0.88565  1.0000
  H   H3201     1.0  0.49135  0.19071  0.82110  1.0000
  H   H3202     1.0  0.46189  0.14784  0.86008  1.0000
  H   H3203     1.0  0.47669  0.14119  0.84236  1.0000
  H   H3204     1.0  0.46498  0.18901  0.83310  1.0000
  H   H3205     1.0  0.45198  0.17464  0.84484  1.0000
  H   H3206     1.0  0.46737  0.16765  0.87209  1.0000
  H   H3207     1.0  0.47459  0.19478  0.87040  1.0000
  C   C1910     1.0  0.46027  0.15002  0.76688  1.0000
  H   H3208     1.0  0.45343  0.36756  0.95585  1.0000
  H   H3209     1.0  0.46295  0.47478  0.76214  1.0000
  C   C1911     1.0  0.31811  0.14936  0.97941  1.0000
  H   H3210     1.0  0.35914  0.06017  0.82079  1.0000
  H   H3211     1.0  0.47347  0.43887  0.77029  1.0000
  H   H3212     1.0  0.36958  0.48004  0.76999  1.0000
  H   H3213     1.0  0.48790  0.01471  0.84974  1.0000
  H   H3214     1.0  0.48838  0.38504  0.79460  1.0000
  H   H3215     1.0  0.38422  0.15326  0.77405  1.0000
  N   N125      1.0  0.47956  0.14621  0.76168  1.0000
  H   H3216     1.0  0.26686  0.09087  0.96972  1.0000
  H   H3217     1.0  0.48306  0.12268  0.86849  1.0000
  C   C1912     1.0  0.37697  0.24766  0.84455  1.0000
  H   H3218     1.0  0.34435  0.13065  0.76975  1.0000
  N   N126      1.0  0.36235  0.12860  0.78494  1.0000
  C   C1913     1.0  0.38429  0.00309  0.74953  1.0000
  H   H3219     1.0  0.32540  0.42914  0.92971  1.0000
  S   S566      1.0  0.40080  0.21399  0.97931  1.0000
  C   C1914     1.0  0.33229  0.14831  0.78560  1.0000
  H   H3220     1.0  0.41906  0.25655  0.80977  1.0000
  H   H3221     1.0  0.30529  0.48588  0.97775  1.0000
  H   H3222     1.0  0.46587  0.15265  0.97559  1.0000
  H   H3223     1.0  0.38228  0.13290  0.76252  1.0000
  H   H3224     1.0  0.32525  0.13942  0.79547  1.0000
  C   C1915     1.0  0.36701  0.14198  0.96056  1.0000
  C   C1916     1.0  0.37212  0.15572  0.78351  1.0000
  H   H3225     1.0  0.28687  0.08593  0.97618  1.0000
  H   H3226     1.0  0.47365  0.17256  0.94315  1.0000
  H   H3227     1.0  0.36741  0.14256  0.92774  1.0000
  C   C1917     1.0  0.33771  0.14306  0.97726  1.0000
  C   C1918     1.0  0.47936  0.35681  0.88975  1.0000
  H   H3228     1.0  0.47139  0.41218  0.83036  1.0000
  H   H3229     1.0  0.33554  0.46581  0.92969  1.0000
  C   C1919     1.0  0.47401  0.40015  0.83981  1.0000
  H   H3230     1.0  0.46028  0.03603  0.84744  1.0000
  N   N127      1.0  0.25597  0.06564  0.87923  1.0000
  H   H3231     1.0  0.48042  0.12406  0.78215  1.0000
  H   H3232     1.0  0.46150  0.37758  0.82739  1.0000
  C   C1920     1.0  0.48039  0.18317  0.93874  1.0000
  N   N128      1.0  0.49798  0.03204  0.82746  1.0000
  S   S567      1.0  0.48661  0.37441  0.88977  1.0000
  C   C1921     1.0  0.46959  0.44958  0.77684  1.0000
  H   H3233     1.0  0.40348  0.34303  0.94865  1.0000
  H   H3234     1.0  0.35783  0.01004  0.81429  1.0000
  H   H3235     1.0  0.31739  0.46511  0.95855  1.0000
  C   C1922     1.0  0.34623  0.17641  0.97014  1.0000
  H   H3236     1.0  0.46455  0.17469  0.97121  1.0000
  H   H3237     1.0  0.47701  0.25564  0.88976  1.0000
  H   H3238     1.0  0.44802  0.39472  0.84699  1.0000
  H   H3239     1.0  0.48137  0.17078  0.76434  1.0000
  H   H3240     1.0  0.49102  0.37106  0.85404  1.0000
  H   H3241     1.0  0.48454  0.15600  0.78824  1.0000
  H   H3242     1.0  0.49812  0.01834  0.79162  1.0000
  C   C1923     1.0  0.48450  0.13753  0.74701  1.0000
  H   H3243     1.0  0.46323  0.34326  0.94742  1.0000
  H   H3244     1.0  0.25921  0.46756  0.84460  1.0000
  C   C1924     1.0  0.46777  0.32922  0.88793  1.0000
  H   H3245     1.0  0.47989  0.05344  0.83621  1.0000
  H   H3246     1.0  0.44345  0.00913  0.76556  1.0000
  H   H3247     1.0  0.37544  0.14824  0.94928  1.0000
  C   C1925     1.0  0.33172  0.46358  0.80297  1.0000
  N   N129      1.0  0.48614  0.47388  0.76969  1.0000
  H   H3248     1.0  0.33323  0.17443  0.95205  1.0000
  H   H3249     1.0  0.49182  0.01051  0.82249  1.0000
  C   C1926     1.0  0.49835  0.17749  0.94260  1.0000
  H   H3250     1.0  0.25184  0.99114  0.84886  1.0000
  C   C1927     1.0  0.33911  0.42478  0.93003  1.0000
  H   H3251     1.0  0.37368  0.39457  0.97844  1.0000
  H   H3252     1.0  0.33485  0.36778  0.93967  1.0000
  H   H3253     1.0  0.30969  0.41091  0.93662  1.0000
  C   C1928     1.0  0.36040  0.36835  0.94040  1.0000
  C   C1929     1.0  0.34759  0.01854  0.82151  1.0000
  S   S568      1.0  0.43747  0.18725  0.95180  1.0000
  H   H3254     1.0  0.28116  0.05293  0.90187  1.0000
  H   H3255     1.0  0.48169  0.18691  0.92483  1.0000
  H   H3256     1.0  0.45933  0.19688  0.85827  1.0000
  H   H3257     1.0  0.45868  0.38999  0.86437  1.0000
  C   C1930     1.0  0.34351  0.37687  0.93431  1.0000
  C   C1931     1.0  0.40874  0.35011  0.93600  1.0000
  H   H3258     1.0  0.46409  0.12370  0.75175  1.0000
  H   H3259     1.0  0.49071  0.40884  0.80123  1.0000
  H   H3260     1.0  0.46631  0.02585  0.82986  1.0000
  H   H3261     1.0  0.31003  0.38938  0.93912  1.0000
  H   H3262     1.0  0.49397  0.14878  0.96271  1.0000
  H   H3263     1.0  0.49503  0.03069  0.85412  1.0000
  C   C1932     1.0  0.26052  0.04662  0.88462  1.0000
  H   H3264     1.0  0.38877  0.10611  0.75435  1.0000
  C   C1933     1.0  0.43156  0.36303  0.94881  1.0000
  S   S569      1.0  0.28112  0.46663  0.97087  1.0000
  C   C1934     1.0  0.48132  0.04495  0.82764  1.0000
  H   H3265     1.0  0.38217  0.00322  0.82318  1.0000
  H   H3266     1.0  0.46454  0.39760  0.81480  1.0000
  C   C1935     1.0  0.49199  0.18859  0.96828  1.0000
  H   H3267     1.0  0.48480  0.27883  0.90767  1.0000
  H   H3268     1.0  0.35821  0.17094  0.97485  1.0000
  H   H3269     1.0  0.45576  0.15488  0.79237  1.0000
  C   C1936     1.0  0.35904  0.47543  0.77916  1.0000
  H   H3270     1.0  0.37240  0.11893  0.95043  1.0000
  C   C1937     1.0  0.34319  0.14377  0.94712  1.0000
  H   H3271     1.0  0.41756  0.36586  0.95422  1.0000
  S   S570      1.0  0.44592  0.05999  0.74227  1.0000
  C   C1938     1.0  0.33149  0.39204  0.95732  1.0000
  H   H3272     1.0  0.47281  0.27775  0.88480  1.0000
  N   N130      1.0  0.34835  0.14928  0.96022  1.0000
  H   H3273     1.0  0.47161  0.36739  0.85241  1.0000
  N   N131      1.0  0.33461  0.39397  0.93842  1.0000
  H   H3274     1.0  0.48269  0.03516  0.79935  1.0000
  H   H3275     1.0  0.34564  0.43272  0.91858  1.0000
  H   H3276     1.0  0.42751  0.48739  0.80382  1.0000
  H   H3277     1.0  0.34383  0.12989  0.95052  1.0000
  H   H3278     1.0  0.36516  0.35566  0.93720  1.0000
  H   H3279     1.0  0.35171  0.16211  0.92405  1.0000
  H   H3280     1.0  0.25791  0.12787  0.93663  1.0000
  C   C1939     1.0  0.49114  0.15830  0.97058  1.0000
  C   C1940     1.0  0.47158  0.38470  0.81996  1.0000
  H   H3281     1.0  0.49509  0.23300  0.88459  1.0000
  H   H3282     1.0  0.48251  0.03252  0.73926  1.0000
  H   H3283     1.0  0.49641  0.45345  0.78914  1.0000
  H   H3284     1.0  0.43245  0.35520  0.91977  1.0000
  C   C1941     1.0  0.43095  0.31557  0.95922  1.0000
  H   H3285     1.0  0.33872  0.02440  0.84612  1.0000
  H   H3286     1.0  0.47189  0.26352  0.91568  1.0000
  H   H3287     1.0  0.48964  0.16745  0.86584  1.0000
  H   H3288     1.0  0.47260  0.19436  0.94382  1.0000
  H   H3289     1.0  0.36385  0.47192  0.97984  1.0000
  H   H3290     1.0  0.49469  0.25647  0.91088  1.0000
  H   H3291     1.0  0.35543  0.17259  0.94484  1.0000
  H   H3292     1.0  0.34576  0.19015  0.96506  1.0000
  H   H3293     1.0  0.43292  0.37843  0.96514  1.0000
  H   H3294     1.0  0.45957  0.35275  0.92679  1.0000
  C   C1942     1.0  0.27192  0.06529  0.90204  1.0000
  C   C1943     1.0  0.49095  0.34153  0.88792  1.0000
  H   H3295     1.0  0.47724  0.46665  0.80690  1.0000
  H   H3296     1.0  0.31774  0.41839  0.95945  1.0000
  C   C1944     1.0  0.42850  0.34578  0.93141  1.0000
  H   H3297     1.0  0.40705  0.01328  0.74036  1.0000
  C   C1945     1.0  0.48869  0.14216  0.79010  1.0000
  H   H3298     1.0  0.47838  0.19383  0.96767  1.0000
  C   C1946     1.0  0.45641  0.34260  0.93805  1.0000
  C   C1947     1.0  0.49634  0.16383  0.83508  1.0000
  H   H3299     1.0  0.48260  0.40205  0.84694  1.0000
  C   C1948     1.0  0.48747  0.13441  0.77591  1.0000
  C   C1949     1.0  0.25361  0.12364  0.87881  1.0000
  H   H3300     1.0  0.47073  0.37536  0.79868  1.0000
  H   H3301     1.0  0.41721  0.31533  0.96149  1.0000
  N   N132      1.0  0.48260  0.38547  0.83121  1.0000
  H   H3302     1.0  0.36071  0.46542  0.96271  1.0000
  H   H3303     1.0  0.45541  0.45193  0.78092  1.0000
  H   H3304     1.0  0.48086  0.13667  0.80229  1.0000
  H   H3305     1.0  0.31246  0.14050  0.97608  1.0000
  H   H3306     1.0  0.26058  0.06365  0.91228  1.0000
  S   S571      1.0  0.30971  0.99452  0.89407  1.0000
  H   H3307     1.0  0.45017  0.41134  0.85523  1.0000
  C   C1950     1.0  0.45139  0.01080  0.75252  1.0000
  C   C1951     1.0  0.33909  0.48394  0.97265  1.0000
  H   H3308     1.0  0.45452  0.15648  0.75565  1.0000
  C   C1952     1.0  0.25426  0.11641  0.89568  1.0000
  H   H3309     1.0  0.47480  0.44512  0.78836  1.0000
  H   H3310     1.0  0.40371  0.34688  0.92661  1.0000
  H   H3311     1.0  0.27637  0.05894  0.98131  1.0000
  C   C1953     1.0  0.46763  0.47528  0.79983  1.0000
  H   H3312     1.0  0.48592  0.13940  0.87596  1.0000
  H   H3313     1.0  0.44268  0.32996  0.96873  1.0000
  H   H3314     1.0  0.49579  0.34285  0.85066  1.0000
  H   H3315     1.0  0.25906  0.04228  0.89847  1.0000
  C   C1954     1.0  0.49410  0.48551  0.75417  1.0000
  H   H3316     1.0  0.46531  0.31494  0.94440  1.0000
  H   H3317     1.0  0.33998  0.12901  0.98035  1.0000
  C   C1955     1.0  0.49814  0.02210  0.84524  1.0000
  H   H3318     1.0  0.37624  0.04237  0.74104  1.0000
  C   C1956     1.0  0.41471  0.07643  0.73414  1.0000
  H   H3319     1.0  0.33507  0.17525  0.98085  1.0000
  H   H3320     1.0  0.49851  0.19905  0.96067  1.0000
  H   H3321     1.0  0.25013  0.06583  0.85556  1.0000
  H   H3322     1.0  0.44780  0.02433  0.74649  1.0000
  H   H3323     1.0  0.48671  0.28081  0.85517  1.0000
  H   H3324     1.0  0.48228  0.11152  0.76111  1.0000
  C   C1957     1.0  0.25036  0.03686  0.87932  1.0000
  H   H3325     1.0  0.25397  0.02319  0.88513  1.0000
  H   H3326     1.0  0.33394  0.48476  0.96150  1.0000
  H   H3327     1.0  0.46039  0.48485  0.80747  1.0000
  N   N133      1.0  0.48334  0.00725  0.73696  1.0000
  C   C1958     1.0  0.27322  0.09232  0.97908  1.0000
  H   H3328     1.0  0.49772  0.24240  0.85646  1.0000
  H   H3329     1.0  0.49542  0.29339  0.87305  1.0000
  C   C1959     1.0  0.49570  0.26844  0.85847  1.0000
  H   H3330     1.0  0.47979  0.14622  0.73583  1.0000
  C   C1960     1.0  0.39998  0.00680  0.73548  1.0000
  H   H3331     1.0  0.40843  0.99412  0.73451  1.0000
  H   H3332     1.0  0.36379  0.24535  0.98151  1.0000
  H   H3333     1.0  0.49842  0.15587  0.82579  1.0000
  H   H3334     1.0  0.49873  0.00270  0.76588  1.0000
  C   C1961     1.0  0.42978  0.72909  0.12873  1.0000
  C   C1962     1.0  0.40552  0.49541  0.11274  1.0000
  Fe  Fe287     1.0  0.37982  0.94633  0.13159  1.0000
  S   S572      1.0  0.37129  0.92278  0.14759  1.0000
  S   S573      1.0  0.36277  0.96852  0.11775  1.0000
  Fe  Fe288     1.0  0.41655  0.93195  0.13483  1.0000
  S   S574      1.0  0.41103  0.90717  0.15078  1.0000
  S   S575      1.0  0.44428  0.93330  0.12783  1.0000
  Fe  Fe289     1.0  0.39507  0.90905  0.13255  1.0000
  S   S576      1.0  0.39387  0.88623  0.12407  1.0000
  Fe  Fe290     1.0  0.38799  0.92312  0.16446  1.0000
  S   S577      1.0  0.38038  0.91486  0.19296  1.0000
  S   S578      1.0  0.40253  0.93248  0.11538  1.0000
  S   S579      1.0  0.39463  0.94796  0.14969  1.0000
  Fe  Fe291     1.0  0.40720  0.86129  0.04115  1.0000
  S   S580      1.0  0.39317  0.84187  0.05897  1.0000
  S   S581      1.0  0.42217  0.87562  0.04900  1.0000
  H   H3335     1.0  0.26225  0.49911  0.01070  1.0000
  S   S582      1.0  0.38131  0.83791  0.02620  1.0000
  Fe  Fe292     1.0  0.37214  0.85491  0.04476  1.0000
  S   S583      1.0  0.34485  0.86175  0.05892  1.0000
  Fe  Fe293     1.0  0.40380  0.82695  0.03871  1.0000
  S   S584      1.0  0.41826  0.79974  0.04136  1.0000
  S   S585      1.0  0.38550  0.87529  0.02822  1.0000
  S   S586      1.0  0.41957  0.84538  0.02179  1.0000
  Fe  Fe294     1.0  0.28863  0.95844  0.08569  1.0000
  S   S587      1.0  0.29865  0.94738  0.10945  1.0000
  Fe  Fe295     1.0  0.29102  0.95234  0.05148  1.0000
  S   S588      1.0  0.30566  0.93638  0.03235  1.0000
  S   S589      1.0  0.27695  0.94190  0.07732  1.0000
  H   H3336     1.0  0.28928  0.57581  0.11603  1.0000
  Fe  Fe296     1.0  0.40079  0.71622  0.09680  1.0000
  S   S590      1.0  0.40696  0.71054  0.07105  1.0000
  S   S591      1.0  0.39345  0.74244  0.10218  1.0000
  Fe  Fe297     1.0  0.40403  0.67896  0.11437  1.0000
  S   S592      1.0  0.41054  0.67013  0.09020  1.0000
  S   S593      1.0  0.40055  0.66167  0.13991  1.0000
  Fe  Fe298     1.0  0.42719  0.68918  0.08098  1.0000
  S   S594      1.0  0.45477  0.68258  0.06809  1.0000
  Fe  Fe299     1.0  0.38963  0.69220  0.08274  1.0000
  S   S595      1.0  0.36771  0.69221  0.07183  1.0000
  S   S596      1.0  0.42235  0.69625  0.10587  1.0000
  S   S597      1.0  0.38185  0.69955  0.10777  1.0000
  Fe  Fe300     1.0  0.41516  0.53166  0.15890  1.0000
  S   S598      1.0  0.39128  0.53435  0.17905  1.0000
  S   S599      1.0  0.42615  0.50603  0.15278  1.0000
  Fe  Fe301     1.0  0.41966  0.56701  0.15625  1.0000
  S   S600      1.0  0.39597  0.57261  0.17612  1.0000
  S   S601      1.0  0.43729  0.58494  0.14290  1.0000
  Fe  Fe302     1.0  0.40527  0.54631  0.19022  1.0000
  H   H3337     1.0  0.49447  0.85062  0.10490  1.0000
  Fe  Fe303     1.0  0.38442  0.56015  0.16294  1.0000
  S   S602      1.0  0.35785  0.57169  0.15865  1.0000
  S   S603      1.0  0.42980  0.54157  0.17129  1.0000
  S   S604      1.0  0.40733  0.55667  0.14181  1.0000
  Fe  Fe304     1.0  0.33721  0.59049  0.04026  1.0000
  S   S605      1.0  0.32828  0.61766  0.04218  1.0000
  S   S606      1.0  0.34632  0.58466  0.01446  1.0000
  Fe  Fe305     1.0  0.33438  0.57779  0.07825  1.0000
  S   S607      1.0  0.32494  0.60389  0.08331  1.0000
  S   S608      1.0  0.33908  0.55447  0.09850  1.0000
  Fe  Fe306     1.0  0.30877  0.60783  0.06444  1.0000
  S   S609      1.0  0.28055  0.61976  0.06922  1.0000
  Fe  Fe307     1.0  0.34539  0.61098  0.06065  1.0000
  S   S610      1.0  0.36824  0.62131  0.05909  1.0000
  S   S611      1.0  0.31677  0.58096  0.06128  1.0000
  S   S612      1.0  0.35579  0.58441  0.05689  1.0000
  C   C1963     1.0  0.44053  0.96204  0.18633  1.0000
  C   C1964     1.0  0.26840  0.61144  0.06064  1.0000
  H   H3338     1.0  0.33905  0.53825  0.07322  1.0000
  C   C1965     1.0  0.45815  0.66743  0.13271  1.0000
  C   C1966     1.0  0.48113  0.64757  0.09394  1.0000
  N   N134      1.0  0.45863  0.59418  0.18834  1.0000
  C   C1967     1.0  0.27656  0.60090  0.04927  1.0000
  C   C1968     1.0  0.34185  0.64439  0.99628  1.0000
  H   H3339     1.0  0.28001  0.59789  0.11188  1.0000
  H   H3340     1.0  0.29026  0.59870  0.04485  1.0000
  S   S613      1.0  0.30421  0.96743  0.06011  1.0000
  C   C1969     1.0  0.40900  0.56922  0.21760  1.0000
  N   N135      1.0  0.28295  0.62063  0.98812  1.0000
  H   H3341     1.0  0.38999  0.61097  0.02674  1.0000
  H   H3342     1.0  0.40715  0.57277  0.20484  1.0000
  H   H3343     1.0  0.25640  0.58448  0.11765  1.0000
  C   C1970     1.0  0.44080  0.88045  0.11931  1.0000
  C   C1971     1.0  0.35339  0.56735  0.14129  1.0000
  C   C1972     1.0  0.33793  0.57581  0.13638  1.0000
  C   C1973     1.0  0.33372  0.57213  0.12297  1.0000
  C   C1974     1.0  0.34481  0.55970  0.11466  1.0000
  C   C1975     1.0  0.36032  0.55125  0.11952  1.0000
  C   C1976     1.0  0.36473  0.55523  0.13268  1.0000
  H   H3344     1.0  0.32914  0.58519  0.14300  1.0000
  H   H3345     1.0  0.32172  0.57869  0.11927  1.0000
  H   H3346     1.0  0.36897  0.54174  0.11301  1.0000
  H   H3347     1.0  0.37666  0.54858  0.13645  1.0000
  C   C1977     1.0  0.36762  0.67242  0.06863  1.0000
  C   C1978     1.0  0.35225  0.66883  0.06817  1.0000
  C   C1979     1.0  0.35210  0.65308  0.06549  1.0000
  C   C1980     1.0  0.36741  0.64103  0.06297  1.0000
  C   C1981     1.0  0.38275  0.64467  0.06338  1.0000
  C   C1982     1.0  0.38285  0.66025  0.06631  1.0000
  H   H3348     1.0  0.34044  0.67823  0.06994  1.0000
  H   H3349     1.0  0.34023  0.65035  0.06517  1.0000
  H   H3350     1.0  0.39464  0.63542  0.06132  1.0000
  H   H3351     1.0  0.39478  0.66301  0.06633  1.0000
  C   C1983     1.0  0.41072  0.64043  0.14033  1.0000
  C   C1984     1.0  0.40553  0.62806  0.15429  1.0000
  C   C1985     1.0  0.41347  0.61098  0.15496  1.0000
  C   C1986     1.0  0.42689  0.60623  0.14188  1.0000
  C   C1987     1.0  0.43220  0.61860  0.12795  1.0000
  C   C1988     1.0  0.42400  0.63570  0.12709  1.0000
  H   H3352     1.0  0.39531  0.63171  0.16459  1.0000
  H   H3353     1.0  0.40953  0.60159  0.16589  1.0000
  H   H3354     1.0  0.44245  0.61491  0.11770  1.0000
  H   H3355     1.0  0.42796  0.64520  0.11624  1.0000
  H   H3356     1.0  0.48652  0.60443  0.19229  1.0000
  H   H3357     1.0  0.28935  0.50101  0.98797  1.0000
  C   C1989     1.0  0.41005  0.51552  0.12613  1.0000
  H   H3358     1.0  0.44326  0.91054  0.16362  1.0000
  H   H3359     1.0  0.27348  0.58488  0.03482  1.0000
  H   H3360     1.0  0.40852  0.52844  0.12700  1.0000
  H   H3361     1.0  0.39753  0.52248  0.10521  1.0000
  C   C1990     1.0  0.46404  0.70009  0.06379  1.0000
  C   C1991     1.0  0.45371  0.71637  0.06299  1.0000
  C   C1992     1.0  0.46091  0.73025  0.06089  1.0000
  H   H3362     1.0  0.44016  0.71821  0.06405  1.0000
  H   H3363     1.0  0.45283  0.74276  0.06063  1.0000
  C   C1993     1.0  0.26078  0.92883  0.04649  1.0000
  C   C1994     1.0  0.30903  0.56266  0.01340  1.0000
  C   C1995     1.0  0.31862  0.57077  0.01876  1.0000
  C   C1996     1.0  0.33345  0.57536  0.00795  1.0000
  H   H3364     1.0  0.37851  0.52172  0.05027  1.0000
  C   C1997     1.0  0.46896  0.60047  0.17109  1.0000
  H   H3365     1.0  0.29767  0.55893  0.02184  1.0000
  H   H3366     1.0  0.31464  0.57324  0.03128  1.0000
  H   H3367     1.0  0.43317  0.87149  0.11927  1.0000
  H   H3368     1.0  0.44664  0.84061  0.04388  1.0000
  C   C1998     1.0  0.41097  0.78419  0.05843  1.0000
  C   C1999     1.0  0.39751  0.78836  0.07177  1.0000
  C   C2000     1.0  0.39222  0.77548  0.08528  1.0000
  C   C2001     1.0  0.40017  0.75846  0.08529  1.0000
  C   C2002     1.0  0.41361  0.75437  0.07199  1.0000
  C   C2003     1.0  0.41905  0.76720  0.05863  1.0000
  H   H3369     1.0  0.39127  0.80147  0.07172  1.0000
  H   H3370     1.0  0.38188  0.77872  0.09565  1.0000
  H   H3371     1.0  0.41987  0.74132  0.07206  1.0000
  H   H3372     1.0  0.42946  0.76393  0.04831  1.0000
  C   C2004     1.0  0.33391  0.88242  0.05142  1.0000
  C   C2005     1.0  0.32062  0.89081  0.06252  1.0000
  C   C2006     1.0  0.31204  0.90748  0.05687  1.0000
  C   C2007     1.0  0.31648  0.91569  0.03999  1.0000
  C   C2008     1.0  0.32955  0.90718  0.02884  1.0000
  C   C2009     1.0  0.33838  0.89065  0.03456  1.0000
  H   H3373     1.0  0.31715  0.88449  0.07558  1.0000
  H   H3374     1.0  0.30197  0.91389  0.06556  1.0000
  H   H3375     1.0  0.33305  0.91351  0.01581  1.0000
  H   H3376     1.0  0.34852  0.88421  0.02590  1.0000
  C   C2010     1.0  0.38801  0.92243  0.20641  1.0000
  C   C2011     1.0  0.38957  0.60880  0.01445  1.0000
  H   H3377     1.0  0.25199  0.93902  0.05260  1.0000
  H   H3378     1.0  0.29561  0.59424  0.99338  1.0000
  C   C2012     1.0  0.39877  0.94378  0.21233  1.0000
  C   C2013     1.0  0.39337  0.93774  0.20109  1.0000
  H   H3379     1.0  0.45707  0.77729  0.04699  1.0000
  H   H3380     1.0  0.47129  0.69177  0.15982  1.0000
  H   H3381     1.0  0.40291  0.95565  0.20812  1.0000
  H   H3382     1.0  0.39320  0.94502  0.18838  1.0000
  C   C2014     1.0  0.40266  0.88335  0.10329  1.0000
  C   C2015     1.0  0.41192  0.89447  0.09112  1.0000
  C   C2016     1.0  0.41815  0.89190  0.07452  1.0000
  C   C2017     1.0  0.41493  0.87837  0.06999  1.0000
  C   C2018     1.0  0.40593  0.86718  0.08227  1.0000
  C   C2019     1.0  0.39992  0.86960  0.09884  1.0000
  H   H3383     1.0  0.41401  0.90518  0.09440  1.0000
  H   H3384     1.0  0.42512  0.90062  0.06514  1.0000
  H   H3385     1.0  0.40372  0.85652  0.07911  1.0000
  H   H3386     1.0  0.39290  0.86088  0.10822  1.0000
  C   C2020     1.0  0.34433  0.96349  0.11574  1.0000
  C   C2021     1.0  0.33769  0.97100  0.10117  1.0000
  C   C2022     1.0  0.32341  0.96644  0.09917  1.0000
  C   C2023     1.0  0.31563  0.95453  0.11187  1.0000
  C   C2024     1.0  0.32191  0.94755  0.12665  1.0000
  C   C2025     1.0  0.33628  0.95192  0.12853  1.0000
  C   C2026     1.0  0.48543  0.91482  0.02475  1.0000
  H   H3387     1.0  0.31584  0.93847  0.13658  1.0000
  H   H3388     1.0  0.34097  0.94648  0.14001  1.0000
  H   H3389     1.0  0.35017  0.51157  0.03771  1.0000
  H   H3390     1.0  0.34956  0.55330  0.04756  1.0000
  C   C2027     1.0  0.45953  0.97591  0.14021  1.0000
  C   C2028     1.0  0.44226  0.97719  0.14061  1.0000
  C   C2029     1.0  0.43731  0.96433  0.13652  1.0000
  C   C2030     1.0  0.44971  0.95039  0.13178  1.0000
  C   C2031     1.0  0.46692  0.94944  0.13106  1.0000
  C   C2032     1.0  0.47174  0.96206  0.13545  1.0000
  H   H3391     1.0  0.42398  0.96519  0.13705  1.0000
  H   H3392     1.0  0.47650  0.93865  0.12754  1.0000
  H   H3393     1.0  0.35141  0.92860  0.23226  1.0000
  H   H3394     1.0  0.33403  0.88732  0.99756  1.0000
  N   N136      1.0  0.26634  0.56697  0.10076  1.0000
  H   H3395     1.0  0.47267  0.87618  0.13458  1.0000
  C   C2033     1.0  0.34328  0.50825  0.17193  1.0000
  C   C2034     1.0  0.35257  0.50930  0.08843  1.0000
  C   C2035     1.0  0.26699  0.59327  0.04341  1.0000
  H   H3396     1.0  0.43346  0.93578  0.21045  1.0000
  Fe  Fe308     1.0  0.39642  0.85733  0.01059  1.0000
  H   H3397     1.0  0.49709  0.59559  0.16443  1.0000
  C   C2036     1.0  0.41848  0.50220  0.13707  1.0000
  H   H3398     1.0  0.35056  0.61937  0.99169  1.0000
  H   H3399     1.0  0.46541  0.94793  0.19057  1.0000
  C   C2037     1.0  0.28167  0.89292  0.04106  1.0000
  H   H3400     1.0  0.28352  0.63597  0.02233  1.0000
  H   H3401     1.0  0.34387  0.97997  0.09123  1.0000
  H   H3402     1.0  0.32430  0.51386  0.09288  1.0000
  C   C2038     1.0  0.36054  0.50220  0.04325  1.0000
  C   C2039     1.0  0.49212  0.80750  0.04261  1.0000
  C   C2040     1.0  0.43493  0.49672  0.20159  1.0000
  N   N137      1.0  0.45248  0.92968  0.18841  1.0000
  C   C2041     1.0  0.48397  0.87862  0.00559  1.0000
  H   H3403     1.0  0.47484  0.51161  0.19496  1.0000
  H   H3404     1.0  0.42862  0.90848  0.21044  1.0000
  H   H3405     1.0  0.46839  0.90417  0.18944  1.0000
  H   H3406     1.0  0.29050  0.61127  0.01245  1.0000
  H   H3407     1.0  0.49106  0.86248  0.02933  1.0000
  C   C2042     1.0  0.26698  0.89757  0.05584  1.0000
  C   C2043     1.0  0.25092  0.56961  0.09336  1.0000
  H   H3408     1.0  0.48599  0.91418  0.03793  1.0000
  H   H3409     1.0  0.48861  0.59045  0.21216  1.0000
  H   H3410     1.0  0.34836  0.53274  0.15607  1.0000
  C   C2044     1.0  0.45810  0.89384  0.02160  1.0000
  H   H3411     1.0  0.27327  0.58098  0.99411  1.0000
  H   H3412     1.0  0.31857  0.97197  0.08777  1.0000
  C   C2045     1.0  0.32843  0.56480  0.98607  1.0000
  H   H3413     1.0  0.29403  0.56170  0.09122  1.0000
  H   H3414     1.0  0.33097  0.52572  0.06474  1.0000
  C   C2046     1.0  0.35255  0.85924  0.98452  1.0000
  C   C2047     1.0  0.46845  0.63985  0.08965  1.0000
  H   H3415     1.0  0.25629  0.91079  0.02550  1.0000
  H   H3416     1.0  0.44578  0.67682  0.13402  1.0000
  H   H3417     1.0  0.49450  0.85928  0.12220  1.0000
  C   C2048     1.0  0.31387  0.55978  0.99701  1.0000
  H   H3418     1.0  0.48828  0.87647  0.08682  1.0000
  H   H3419     1.0  0.32589  0.91985  0.98551  1.0000
  H   H3420     1.0  0.45196  0.91138  0.03860  1.0000
  C   C2049     1.0  0.49342  0.65237  0.11513  1.0000
  H   H3421     1.0  0.26840  0.61723  0.01379  1.0000
  H   H3422     1.0  0.30979  0.51444  0.99147  1.0000
  H   H3423     1.0  0.43047  0.96244  0.17981  1.0000
  H   H3424     1.0  0.33332  0.50225  0.11068  1.0000
  H   H3425     1.0  0.45503  0.64681  0.09303  1.0000
  N   N138      1.0  0.37338  0.62765  0.99092  1.0000
  H   H3426     1.0  0.40734  0.72965  0.14930  1.0000
  N   N139      1.0  0.25343  0.91306  0.05124  1.0000
  H   H3427     1.0  0.31439  0.62095  0.99643  1.0000
  C   C2050     1.0  0.31521  0.50184  0.98821  1.0000
  C   C2051     1.0  0.48676  0.89674  0.02266  1.0000
  C   C2052     1.0  0.46924  0.58641  0.20160  1.0000
  H   H3428     1.0  0.49848  0.88945  0.12195  1.0000
  N   N140      1.0  0.35336  0.91188  0.08795  1.0000
  C   C2053     1.0  0.34758  0.91208  0.10651  1.0000
  C   C2054     1.0  0.36929  0.91898  0.08133  1.0000
  C   C2055     1.0  0.35773  0.89358  0.08659  1.0000
  C   C2056     1.0  0.33894  0.92203  0.07920  1.0000
  C   C2057     1.0  0.33211  0.90401  0.11612  1.0000
  C   C2058     1.0  0.36771  0.93652  0.08473  1.0000
  C   C2059     1.0  0.36682  0.88962  0.06916  1.0000
  C   C2060     1.0  0.34389  0.93026  0.06030  1.0000
  H   H3429     1.0  0.35829  0.90564  0.11320  1.0000
  H   H3430     1.0  0.34379  0.92524  0.10841  1.0000
  H   H3431     1.0  0.37390  0.91997  0.06753  1.0000
  H   H3432     1.0  0.37992  0.91023  0.08699  1.0000
  H   H3433     1.0  0.36610  0.88575  0.09548  1.0000
  H   H3434     1.0  0.34602  0.88828  0.09041  1.0000
  H   H3435     1.0  0.32974  0.91412  0.08040  1.0000
  H   H3436     1.0  0.33116  0.93262  0.08542  1.0000
  H   H3437     1.0  0.32100  0.90941  0.10997  1.0000
  H   H3438     1.0  0.33554  0.89005  0.11775  1.0000
  H   H3439     1.0  0.32790  0.90672  0.12897  1.0000
  H   H3440     1.0  0.37864  0.94205  0.07654  1.0000
  H   H3441     1.0  0.35571  0.94545  0.08212  1.0000
  H   H3442     1.0  0.36836  0.93546  0.09797  1.0000
  H   H3443     1.0  0.37039  0.87565  0.07058  1.0000
  H   H3444     1.0  0.37892  0.89410  0.06379  1.0000
  H   H3445     1.0  0.35818  0.89427  0.06022  1.0000
  H   H3446     1.0  0.34991  0.94107  0.05837  1.0000
  H   H3447     1.0  0.33207  0.93543  0.05521  1.0000
  H   H3448     1.0  0.35237  0.92132  0.05257  1.0000
  N   N141      1.0  0.36244  0.75431  0.05709  1.0000
  C   C2061     1.0  0.37568  0.76376  0.04532  1.0000
  C   C2062     1.0  0.34505  0.76605  0.05748  1.0000
  C   C2063     1.0  0.36247  0.73885  0.05133  1.0000
  C   C2064     1.0  0.36660  0.74867  0.07432  1.0000
  C   C2065     1.0  0.39370  0.75294  0.04002  1.0000
  C   C2066     1.0  0.34160  0.78068  0.06654  1.0000
  C   C2067     1.0  0.35890  0.74221  0.03357  1.0000
  C   C2068     1.0  0.35421  0.73904  0.08831  1.0000
  H   H3449     1.0  0.37141  0.77110  0.03349  1.0000
  H   H3450     1.0  0.37747  0.77340  0.05112  1.0000
  H   H3451     1.0  0.33459  0.75902  0.06331  1.0000
  H   H3452     1.0  0.34311  0.77203  0.04444  1.0000
  H   H3453     1.0  0.37477  0.72937  0.05188  1.0000
  H   H3454     1.0  0.35257  0.73208  0.06008  1.0000
  H   H3455     1.0  0.37936  0.74000  0.07386  1.0000
  H   H3456     1.0  0.36810  0.75934  0.07881  1.0000
  H   H3457     1.0  0.40247  0.76150  0.03260  1.0000
  H   H3458     1.0  0.39913  0.74525  0.05098  1.0000
  H   H3459     1.0  0.39385  0.74456  0.03186  1.0000
  H   H3460     1.0  0.35149  0.78838  0.06133  1.0000
  H   H3461     1.0  0.32911  0.78926  0.06479  1.0000
  H   H3462     1.0  0.34063  0.77600  0.08034  1.0000
  H   H3463     1.0  0.34550  0.74907  0.03324  1.0000
  H   H3464     1.0  0.36057  0.72985  0.03027  1.0000
  H   H3465     1.0  0.36780  0.74926  0.02372  1.0000
  H   H3466     1.0  0.35756  0.72537  0.08805  1.0000
  H   H3467     1.0  0.34064  0.74409  0.08753  1.0000
  H   H3468     1.0  0.35500  0.74042  0.10079  1.0000
  H   H3469     1.0  0.47060  0.60778  0.21124  1.0000
  H   H3470     1.0  0.26109  0.88638  0.06176  1.0000
  H   H3471     1.0  0.48949  0.77760  0.03812  1.0000
  C   C2069     1.0  0.48881  0.87846  0.09914  1.0000
  N   N142      1.0  0.47601  0.89492  0.01169  1.0000
  C   C2070     1.0  0.37419  0.51830  0.06410  1.0000
  C   C2071     1.0  0.43170  0.61790  0.18371  1.0000
  H   H3472     1.0  0.47208  0.85920  0.02495  1.0000
  C   C2072     1.0  0.36956  0.50287  0.14964  1.0000
  H   H3473     1.0  0.45434  0.92694  0.21417  1.0000
  C   C2073     1.0  0.44553  0.60905  0.19417  1.0000
  H   H3474     1.0  0.46652  0.83583  0.05008  1.0000
  H   H3475     1.0  0.40920  0.49481  0.21553  1.0000
  C   C2074     1.0  0.43997  0.92932  0.17856  1.0000
  H   H3476     1.0  0.36356  0.61090  0.01388  1.0000
  C   C2075     1.0  0.47876  0.91939  0.16601  1.0000
  S   S614      1.0  0.26633  0.98041  0.08354  1.0000
  H   H3477     1.0  0.39957  0.83053  0.99287  1.0000
  C   C2076     1.0  0.40908  0.55267  0.22682  1.0000
  C   C2077     1.0  0.46322  0.49809  0.18349  1.0000
  C   C2078     1.0  0.38801  0.91323  0.22303  1.0000
  H   H3478     1.0  0.33521  0.49172  0.09448  1.0000
  H   H3479     1.0  0.43014  0.50204  0.18969  1.0000
  H   H3480     1.0  0.44491  0.97413  0.18078  1.0000
  H   H3481     1.0  0.25244  0.57811  0.08066  1.0000
  H   H3482     1.0  0.45032  0.89802  0.21320  1.0000
  H   H3483     1.0  0.42502  0.91092  0.18053  1.0000
  H   H3484     1.0  0.35104  0.52905  0.17740  1.0000
  H   H3485     1.0  0.33021  0.53431  0.17297  1.0000
  N   N143      1.0  0.47590  0.80131  0.04561  1.0000
  H   H3486     1.0  0.44904  0.82583  0.06306  1.0000
  C   C2079     1.0  0.26948  0.59462  0.99451  1.0000
  H   H3487     1.0  0.46423  0.86181  0.11846  1.0000
  C   C2080     1.0  0.47021  0.79242  0.06365  1.0000
  H   H3488     1.0  0.45647  0.65659  0.14349  1.0000
  H   H3489     1.0  0.29287  0.88477  0.04625  1.0000
  H   H3490     1.0  0.36658  0.54414  0.06915  1.0000
  H   H3491     1.0  0.48417  0.93089  0.16127  1.0000
  H   H3492     1.0  0.45714  0.91686  0.07427  1.0000
  H   H3493     1.0  0.28423  0.53564  0.09075  1.0000
  H   H3494     1.0  0.43961  0.88052  0.13270  1.0000
  C   C2081     1.0  0.35652  0.49981  0.06258  1.0000
  H   H3495     1.0  0.45077  0.89087  0.01388  1.0000
  C   C2082     1.0  0.44513  0.92611  0.20714  1.0000
  H   H3496     1.0  0.37694  0.52821  0.08468  1.0000
  H   H3497     1.0  0.29647  0.54530  0.07134  1.0000
  H   H3498     1.0  0.45546  0.79150  0.02669  1.0000
  H   H3499     1.0  0.38982  0.59509  0.01681  1.0000
  H   H3500     1.0  0.47476  0.91123  0.09453  1.0000
  C   C2083     1.0  0.33529  0.50405  0.09679  1.0000
  H   H3501     1.0  0.47295  0.63327  0.13733  1.0000
  H   H3502     1.0  0.37878  0.59224  0.99438  1.0000
  H   H3503     1.0  0.28155  0.53262  0.13081  1.0000
  C   C2084     1.0  0.48491  0.86214  0.01933  1.0000
  C   C2085     1.0  0.26575  0.58322  0.10554  1.0000
  H   H3504     1.0  0.47741  0.77900  0.06577  1.0000
  C   C2086     1.0  0.46226  0.66258  0.11545  1.0000
  C   C2087     1.0  0.43969  0.90909  0.21502  1.0000
  N   N144      1.0  0.37556  0.61979  0.11705  1.0000
  C   C2088     1.0  0.39422  0.61964  0.10920  1.0000
  C   C2089     1.0  0.36562  0.63772  0.11259  1.0000
  C   C2090     1.0  0.37010  0.60815  0.10959  1.0000
  C   C2091     1.0  0.37389  0.61350  0.13586  1.0000
  C   C2092     1.0  0.40647  0.60202  0.11094  1.0000
  C   C2093     1.0  0.37056  0.65116  0.11857  1.0000
  C   C2094     1.0  0.35131  0.61243  0.10786  1.0000
  C   C2095     1.0  0.35561  0.61569  0.14675  1.0000
  H   H3505     1.0  0.39591  0.62563  0.09548  1.0000
  H   H3506     1.0  0.39925  0.62724  0.11487  1.0000
  H   H3507     1.0  0.35167  0.63873  0.11770  1.0000
  H   H3508     1.0  0.36701  0.64187  0.09867  1.0000
  H   H3509     1.0  0.37759  0.60790  0.09644  1.0000
  H   H3510     1.0  0.37287  0.59481  0.11679  1.0000
  H   H3511     1.0  0.37979  0.59976  0.13901  1.0000
  H   H3512     1.0  0.38107  0.61987  0.14069  1.0000
  H   H3513     1.0  0.40334  0.59343  0.10488  1.0000
  H   H3514     1.0  0.41970  0.60355  0.10458  1.0000
  H   H3515     1.0  0.40675  0.59587  0.12430  1.0000
  H   H3516     1.0  0.38345  0.65327  0.11178  1.0000
  H   H3517     1.0  0.36151  0.66349  0.11564  1.0000
  H   H3518     1.0  0.36983  0.64801  0.13235  1.0000
  H   H3519     1.0  0.34901  0.60177  0.10404  1.0000
  H   H3520     1.0  0.34880  0.62383  0.09771  1.0000
  H   H3521     1.0  0.34191  0.61424  0.11963  1.0000
  H   H3522     1.0  0.34889  0.62914  0.14570  1.0000
  H   H3523     1.0  0.35639  0.61052  0.16020  1.0000
  H   H3524     1.0  0.34797  0.60836  0.14393  1.0000
  H   H3525     1.0  0.36295  0.94444  0.22954  1.0000
  C   C2096     1.0  0.25047  0.61482  0.06566  1.0000
  H   H3526     1.0  0.46756  0.74310  0.11657  1.0000
  C   C2097     1.0  0.45178  0.72976  0.10273  1.0000
  C   C2098     1.0  0.43362  0.75623  0.10903  1.0000
  C   C2099     1.0  0.44510  0.76742  0.09592  1.0000
  H   H3527     1.0  0.44265  0.73003  0.09506  1.0000
  H   H3528     1.0  0.46195  0.73606  0.09391  1.0000
  H   H3529     1.0  0.42592  0.76369  0.11856  1.0000
  H   H3530     1.0  0.42407  0.75500  0.10270  1.0000
  H   H3531     1.0  0.42378  0.72390  0.12148  1.0000
  C   C2100     1.0  0.47243  0.79978  0.07768  1.0000
  H   H3532     1.0  0.45019  0.76279  0.08400  1.0000
  H   H3533     1.0  0.43721  0.78036  0.09265  1.0000
  H   H3534     1.0  0.45576  0.76845  0.10083  1.0000
  H   H3535     1.0  0.47848  0.91889  0.19172  1.0000
  H   H3536     1.0  0.25929  0.60046  0.98721  1.0000
  H   H3537     1.0  0.48421  0.90997  0.11729  1.0000
  H   H3538     1.0  0.45969  0.87162  0.09839  1.0000
  C   C2101     1.0  0.28069  0.54623  0.12471  1.0000
  H   H3539     1.0  0.27907  0.55330  0.13460  1.0000
  H   H3540     1.0  0.42688  0.93586  0.18396  1.0000
  C   C2102     1.0  0.39879  0.93458  0.22895  1.0000
  H   H3541     1.0  0.47294  0.66105  0.17076  1.0000
  N   N145      1.0  0.35646  0.51465  0.06940  1.0000
  H   H3542     1.0  0.48311  0.60531  0.12475  1.0000
  C   C2103     1.0  0.24916  0.50513  0.01681  1.0000
  S   S615      1.0  0.39674  0.49142  0.09788  1.0000
  H   H3543     1.0  0.46927  0.55791  0.19012  1.0000
  H   H3544     1.0  0.44084  0.57777  0.20025  1.0000
  H   H3545     1.0  0.46166  0.75470  0.13967  1.0000
  C   C2104     1.0  0.45033  0.75057  0.13894  1.0000
  H   H3546     1.0  0.26603  0.64580  0.01161  1.0000
  H   H3547     1.0  0.44565  0.92120  0.01841  1.0000
  H   H3548     1.0  0.27819  0.88508  0.03438  1.0000
  H   H3549     1.0  0.45009  0.81160  0.04130  1.0000
  C   C2105     1.0  0.26489  0.93753  0.02761  1.0000
  H   H3550     1.0  0.27303  0.89915  0.06542  1.0000
  H   H3551     1.0  0.27264  0.92635  0.05128  1.0000
  C   C2106     1.0  0.40385  0.51213  0.11379  1.0000
  H   H3552     1.0  0.43355  0.50793  0.20679  1.0000
  H   H3553     1.0  0.49063  0.81701  0.05003  1.0000
  H   H3554     1.0  0.42463  0.62998  0.18760  1.0000
  H   H3555     1.0  0.33421  0.50749  0.16473  1.0000
  H   H3556     1.0  0.46797  0.67347  0.13377  1.0000
  H   H3557     1.0  0.34928  0.51707  0.00342  1.0000
  H   H3558     1.0  0.47866  0.57477  0.19911  1.0000
  C   C2107     1.0  0.28404  0.54719  0.08053  1.0000
  H   H3559     1.0  0.45905  0.89623  0.13061  1.0000
  C   C2108     1.0  0.35916  0.50680  0.13587  1.0000
  H   H3560     1.0  0.49430  0.64043  0.08957  1.0000
  C   C2109     1.0  0.28057  0.62097  0.00639  1.0000
  C   C2110     1.0  0.33833  0.57236  0.99161  1.0000
  C   C2111     1.0  0.47464  0.63239  0.12404  1.0000
  H   H3561     1.0  0.49679  0.91979  0.01677  1.0000
  H   H3562     1.0  0.47040  0.91941  0.15779  1.0000
  H   H3563     1.0  0.45187  0.61914  0.19410  1.0000
  H   H3564     1.0  0.35492  0.49562  0.13540  1.0000
  C   C2112     1.0  0.45956  0.87438  0.11060  1.0000
  H   H3565     1.0  0.46957  0.62623  0.09572  1.0000
  H   H3566     1.0  0.48491  0.79470  0.02104  1.0000
  H   H3567     1.0  0.29162  0.58826  0.09469  1.0000
  H   H3568     1.0  0.43395  0.90741  0.03409  1.0000
  H   H3569     1.0  0.32707  0.51956  0.00461  1.0000
  C   C2113     1.0  0.27939  0.63821  0.01029  1.0000
  H   H3570     1.0  0.46091  0.58210  0.21405  1.0000
  C   C2114     1.0  0.34351  0.52707  0.16938  1.0000
  C   C2115     1.0  0.33985  0.51775  0.99601  1.0000
  H   H3571     1.0  0.43518  0.90808  0.22887  1.0000
  N   N146      1.0  0.44269  0.73891  0.11687  1.0000
  C   C2116     1.0  0.46948  0.91753  0.18475  1.0000
  H   H3572     1.0  0.37480  0.50866  0.17682  1.0000
  H   H3573     1.0  0.36738  0.62930  0.01722  1.0000
  H   H3574     1.0  0.47255  0.89769  0.07216  1.0000
  H   H3575     1.0  0.36112  0.49006  0.04011  1.0000
  H   H3576     1.0  0.44093  0.76243  0.13579  1.0000
  C   C2117     1.0  0.45997  0.56519  0.18216  1.0000
  C   C2118     1.0  0.44910  0.58157  0.18769  1.0000
  H   H3577     1.0  0.45180  0.70334  0.11642  1.0000
  H   H3578     1.0  0.46914  0.77100  0.02794  1.0000
  C   C2119     1.0  0.43870  0.91181  0.17698  1.0000
  H   H3579     1.0  0.26412  0.59521  0.00790  1.0000
  C   C2120     1.0  0.28274  0.58611  0.10716  1.0000
  H   H3580     1.0  0.45126  0.55681  0.18340  1.0000
  H   H3581     1.0  0.41101  0.59417  0.21775  1.0000
  H   H3582     1.0  0.47704  0.87737  0.99654  1.0000
  H   H3583     1.0  0.49780  0.61421  0.13036  1.0000
  H   H3584     1.0  0.46108  0.72660  0.13260  1.0000
  H   H3585     1.0  0.45064  0.65903  0.11462  1.0000
  C   C2121     1.0  0.48172  0.69776  0.06200  1.0000
  H   H3586     1.0  0.34164  0.64205  0.00990  1.0000
  H   H3587     1.0  0.45037  0.89734  0.08262  1.0000
  H   H3588     1.0  0.29325  0.54671  0.11601  1.0000
  H   H3589     1.0  0.25305  0.52575  0.98415  1.0000
  H   H3590     1.0  0.48787  0.58755  0.15242  1.0000
  H   H3591     1.0  0.39796  0.63998  0.00144  1.0000
  H   H3592     1.0  0.25545  0.62796  0.99017  1.0000
  Fe  Fe309     1.0  0.25594  0.96487  0.07263  1.0000
  H   H3593     1.0  0.34148  0.96620  0.21565  1.0000
  C   C2122     1.0  0.46082  0.71113  0.10804  1.0000
  C   C2123     1.0  0.36233  0.53064  0.22636  1.0000
  H   H3594     1.0  0.33720  0.50428  0.18543  1.0000
  S   S616      1.0  0.26898  0.97406  0.04599  1.0000
  C   C2124     1.0  0.26530  0.55262  0.11603  1.0000
  C   C2125     1.0  0.41458  0.73881  0.14004  1.0000
  H   H3595     1.0  0.47154  0.70988  0.11407  1.0000
  C   C2126     1.0  0.47840  0.72779  0.06009  1.0000
  C   C2127     1.0  0.45597  0.73951  0.12570  1.0000
  H   H3596     1.0  0.27397  0.54864  0.07358  1.0000
  H   H3597     1.0  0.47366  0.92415  0.02233  1.0000
  H   H3598     1.0  0.28206  0.57401  0.07616  1.0000
  C   C2128     1.0  0.47956  0.78894  0.03435  1.0000
  H   H3599     1.0  0.34811  0.94808  0.20667  1.0000
  H   H3600     1.0  0.42204  0.61017  0.18626  1.0000
  S   S617      1.0  0.40618  0.53740  0.21782  1.0000
  H   H3601     1.0  0.44558  0.90074  0.18487  1.0000
  H   H3602     1.0  0.44040  0.58723  0.17870  1.0000
  H   H3603     1.0  0.41858  0.74564  0.14726  1.0000
  H   H3604     1.0  0.48392  0.89867  0.13851  1.0000
  H   H3605     1.0  0.46665  0.90730  0.98882  1.0000
  H   H3606     1.0  0.44531  0.74324  0.15160  1.0000
  H   H3607     1.0  0.43612  0.71791  0.13721  1.0000
  H   H3608     1.0  0.38378  0.50666  0.06799  1.0000
  H   H3609     1.0  0.45833  0.88332  0.03295  1.0000
  N   N147      1.0  0.36044  0.49666  0.16748  1.0000
  H   H3610     1.0  0.40545  0.74778  0.13252  1.0000
  H   H3611     1.0  0.28798  0.64582  0.00080  1.0000
  H   H3612     1.0  0.46647  0.70581  0.09657  1.0000
  H   H3613     1.0  0.48983  0.68525  0.06231  1.0000
  N   N148      1.0  0.47125  0.88611  0.10817  1.0000
  C   C2129     1.0  0.48887  0.71159  0.06028  1.0000
  H   H3614     1.0  0.33622  0.54487  0.04042  1.0000
  C   C2130     1.0  0.34738  0.54124  0.04645  1.0000
  H   H3615     1.0  0.43716  0.62109  0.17000  1.0000
  H   H3616     1.0  0.25402  0.55630  0.12602  1.0000
  H   H3617     1.0  0.40145  0.61158  0.00560  1.0000
  H   H3618     1.0  0.46148  0.60263  0.16127  1.0000
  C   C2131     1.0  0.34283  0.52980  0.06412  1.0000
  C   C2132     1.0  0.28202  0.56312  0.08718  1.0000
  H   H3619     1.0  0.48489  0.96099  0.13550  1.0000
  C   C2133     1.0  0.47923  0.59810  0.20431  1.0000
  C   C2134     1.0  0.46554  0.51441  0.18680  1.0000
  C   C2135     1.0  0.37265  0.61955  0.00939  1.0000
  C   C2136     1.0  0.46193  0.81596  0.04012  1.0000
  H   H3620     1.0  0.36747  0.51060  0.12336  1.0000
  H   H3621     1.0  0.38915  0.53573  0.06447  1.0000
  S   S618      1.0  0.48670  0.74467  0.06055  1.0000
  H   H3622     1.0  0.27060  0.94843  0.02623  1.0000
  Fe  Fe310     1.0  0.49318  0.98101  0.15007  1.0000
  C   C2137     1.0  0.45610  0.94723  0.18360  1.0000
  H   H3623     1.0  0.45340  0.91050  0.10485  1.0000
  H   H3624     1.0  0.43484  0.89313  0.11278  1.0000
  C   C2138     1.0  0.46115  0.90348  0.08077  1.0000
  H   H3625     1.0  0.35249  0.53613  0.21856  1.0000
  H   H3626     1.0  0.35246  0.51967  0.09429  1.0000
  H   H3627     1.0  0.37271  0.52195  0.21943  1.0000
  H   H3628     1.0  0.46115  0.79899  0.08834  1.0000
  C   C2139     1.0  0.47148  0.88842  0.12522  1.0000
  S   S619      1.0  0.30178  0.54973  0.99039  1.0000
  H   H3629     1.0  0.46217  0.95037  0.17003  1.0000
  H   H3630     1.0  0.49191  0.65214  0.12867  1.0000
  H   H3631     1.0  0.44306  0.93679  0.16547  1.0000
  H   H3632     1.0  0.48386  0.88869  0.03553  1.0000
  H   H3633     1.0  0.43501  0.96201  0.19987  1.0000
  C   C2140     1.0  0.46427  0.78196  0.03416  1.0000
  H   H3634     1.0  0.27434  0.92912  0.01976  1.0000
  H   H3635     1.0  0.45650  0.79187  0.06615  1.0000
  H   H3636     1.0  0.48943  0.57633  0.17310  1.0000
  C   C2141     1.0  0.34098  0.95267  0.21837  1.0000
  C   C2142     1.0  0.35564  0.63114  0.98755  1.0000
  H   H3637     1.0  0.26107  0.59437  0.09595  1.0000
  H   H3638     1.0  0.35835  0.53559  0.03745  1.0000
  H   H3639     1.0  0.45684  0.50198  0.17256  1.0000
  H   H3640     1.0  0.43269  0.98788  0.14441  1.0000
  H   H3641     1.0  0.37314  0.50547  0.03713  1.0000
  C   C2143     1.0  0.48395  0.66546  0.16230  1.0000
  C   C2144     1.0  0.34982  0.94198  0.23293  1.0000
  H   H3642     1.0  0.32763  0.95130  0.22049  1.0000
  H   H3643     1.0  0.43867  0.60520  0.20750  1.0000
  H   H3644     1.0  0.47133  0.61312  0.17029  1.0000
  H   H3645     1.0  0.47082  0.52233  0.17460  1.0000
  H   H3646     1.0  0.45780  0.49596  0.21841  1.0000
  H   H3647     1.0  0.46588  0.82184  0.02652  1.0000
  H   H3648     1.0  0.28618  0.90399  0.03232  1.0000
  C   C2145     1.0  0.48543  0.89712  0.12551  1.0000
  C   C2146     1.0  0.48671  0.58921  0.16532  1.0000
  H   H3649     1.0  0.46907  0.92154  0.99937  1.0000
  H   H3650     1.0  0.36275  0.49851  0.09276  1.0000
  C   C2147     1.0  0.37659  0.53245  0.07109  1.0000
  H   H3651     1.0  0.46642  0.56775  0.16864  1.0000
  C   C2148     1.0  0.48298  0.68287  0.15605  1.0000
  C   C2149     1.0  0.46511  0.90330  0.09766  1.0000
  C   C2150     1.0  0.47508  0.90904  0.99620  1.0000
  H   H3652     1.0  0.31481  0.49249  0.00051  1.0000
  C   C2151     1.0  0.44710  0.90953  0.02837  1.0000
  H   H3653     1.0  0.48802  0.68027  0.10788  1.0000
  H   H3654     1.0  0.45340  0.52214  0.19252  1.0000
  H   H3655     1.0  0.47345  0.81315  0.07407  1.0000
  C   C2152     1.0  0.41127  0.58133  0.22491  1.0000
  C   C2153     1.0  0.45598  0.83021  0.05000  1.0000
  H   H3656     1.0  0.25702  0.50685  0.03877  1.0000
  H   H3657     1.0  0.38128  0.49332  0.14591  1.0000
  H   H3658     1.0  0.36742  0.54119  0.22715  1.0000
  H   H3659     1.0  0.37423  0.51442  0.14853  1.0000
  H   H3660     1.0  0.34798  0.51750  0.13724  1.0000
  H   H3661     1.0  0.46318  0.67436  0.10553  1.0000
  H   H3662     1.0  0.32904  0.64382  0.99516  1.0000
  C   C2154     1.0  0.37127  0.49625  0.17937  1.0000
  H   H3663     1.0  0.34383  0.49629  0.06691  1.0000
  N   N149      1.0  0.47789  0.64871  0.11213  1.0000
  H   H3664     1.0  0.49288  0.85145  0.01341  1.0000
  H   H3665     1.0  0.48984  0.90852  0.16463  1.0000
  C   C2155     1.0  0.31858  0.91044  0.98625  1.0000
  C   C2156     1.0  0.34422  0.50127  0.98959  1.0000
  H   H3666     1.0  0.26259  0.54152  0.11327  1.0000
  H   H3667     1.0  0.46228  0.62989  0.12376  1.0000
  C   C2157     1.0  0.28535  0.60255  0.98689  1.0000
  H   H3668     1.0  0.25316  0.94282  0.02242  1.0000
  Fe  Fe311     1.0  0.28082  0.98816  0.05713  1.0000
  H   H3669     1.0  0.36399  0.49420  0.19269  1.0000
  H   H3670     1.0  0.48362  0.79187  0.08301  1.0000
  H   H3671     1.0  0.47620  0.49079  0.17872  1.0000
  H   H3672     1.0  0.47141  0.64084  0.07579  1.0000
  H   H3673     1.0  0.38391  0.90134  0.22717  1.0000
  H   H3674     1.0  0.25276  0.49627  0.98737  1.0000
  H   H3675     1.0  0.30928  0.90971  0.99858  1.0000
  H   H3676     1.0  0.48070  0.66035  0.08551  1.0000
  H   H3677     1.0  0.25237  0.90533  0.08761  1.0000
  H   H3678     1.0  0.49769  0.64280  0.22687  1.0000
  H   H3679     1.0  0.35389  0.91565  0.98781  1.0000
  C   C2158     1.0  0.48896  0.61645  0.12179  1.0000
  H   H3680     1.0  0.49739  0.87852  0.99849  1.0000
  H   H3681     1.0  0.34329  0.49072  0.00086  1.0000
  S   S620      1.0  0.49492  0.71081  0.13712  1.0000
  H   H3682     1.0  0.34357  0.65743  0.99000  1.0000
  H   H3683     1.0  0.34064  0.52898  0.98550  1.0000
  H   H3684     1.0  0.37003  0.65302  0.99454  1.0000
  H   H3685     1.0  0.49551  0.81434  0.02925  1.0000
  C   C2159     1.0  0.49695  0.68879  0.14476  1.0000
  C   C2160     1.0  0.39681  0.64390  0.98807  1.0000
  H   H3686     1.0  0.49666  0.61707  0.10880  1.0000
  C   C2161     1.0  0.37869  0.64438  0.98639  1.0000
  H   H3687     1.0  0.49767  0.88723  0.09551  1.0000
  C   C2162     1.0  0.49768  0.86105  0.10833  1.0000
  C   C2163     1.0  0.49235  0.91093  0.98396  1.0000
  H   H3688     1.0  0.32096  0.88492  0.98518  1.0000
  H   H3689     1.0  0.36274  0.88742  0.98681  1.0000
  H   H3690     1.0  0.34040  0.85867  0.99402  1.0000
  C   C2164     1.0  0.49816  0.66923  0.10479  1.0000
  S   S621      1.0  0.49787  0.95780  0.17030  1.0000
  H   H3691     1.0  0.24961  0.55752  0.09135  1.0000
  H   H3692     1.0  0.36230  0.86070  0.99041  1.0000
  C   C2165     1.0  0.32987  0.89264  0.98532  1.0000
  C   C2166     1.0  0.24911  0.59649  0.04847  1.0000
  Fe  Fe312     1.0  0.40041  0.65795  0.42984  1.0000
  S   S622      1.0  0.37812  0.67661  0.42071  1.0000
  S   S623      1.0  0.40195  0.65553  0.45665  1.0000
  Fe  Fe313     1.0  0.41207  0.64369  0.39783  1.0000
  S   S624      1.0  0.39078  0.66170  0.38647  1.0000
  S   S625      1.0  0.42983  0.62331  0.38469  1.0000
  Fe  Fe314     1.0  0.39721  0.68097  0.39623  1.0000
  S   S626      1.0  0.40035  0.70657  0.38003  1.0000
  Fe  Fe315     1.0  0.37432  0.65512  0.41209  1.0000
  S   S627      1.0  0.34847  0.64951  0.41494  1.0000
  S   S628      1.0  0.41987  0.66342  0.40584  1.0000
  S   S629      1.0  0.39524  0.63609  0.42310  1.0000
  Fe  Fe316     1.0  0.31480  0.53195  0.42441  1.0000
  S   S630      1.0  0.29474  0.54516  0.40930  1.0000
  S   S631      1.0  0.32554  0.50403  0.43108  1.0000
  Fe  Fe317     1.0  0.32183  0.56507  0.42673  1.0000
  S   S632      1.0  0.30205  0.58107  0.41210  1.0000
  S   S633      1.0  0.34186  0.57292  0.43451  1.0000
  Fe  Fe318     1.0  0.28580  0.56239  0.42763  1.0000
  Fe  Fe319     1.0  0.31289  0.56237  0.39524  1.0000
  S   S634      1.0  0.31929  0.57124  0.36698  1.0000
  S   S635      1.0  0.30480  0.54787  0.44379  1.0000
  S   S636      1.0  0.33361  0.54766  0.40895  1.0000
  Fe  Fe320     1.0  0.41849  0.60022  0.30667  1.0000
  S   S637      1.0  0.42796  0.57487  0.32213  1.0000
  S   S638      1.0  0.41360  0.62462  0.31513  1.0000
  Fe  Fe321     1.0  0.41967  0.58553  0.27690  1.0000
  S   S639      1.0  0.42958  0.55908  0.28999  1.0000
  H   H3693     1.0  0.49677  0.64560  0.34525  1.0000
  Fe  Fe322     1.0  0.40998  0.56609  0.31262  1.0000
  S   S640      1.0  0.39615  0.54661  0.33067  1.0000
  Fe  Fe323     1.0  0.44658  0.57033  0.29816  1.0000
  S   S641      1.0  0.47503  0.56059  0.29527  1.0000
  S   S642      1.0  0.39867  0.59197  0.29898  1.0000
  S   S643      1.0  0.43829  0.59632  0.28329  1.0000
  H   H3694     1.0  0.32367  0.93000  0.24987  1.0000
  H   H3695     1.0  0.29369  0.88789  0.47127  1.0000
  Fe  Fe324     1.0  0.41677  0.80913  0.41385  1.0000
  S   S644      1.0  0.41799  0.79492  0.39456  1.0000
  S   S645      1.0  0.44010  0.80454  0.42434  1.0000
  Fe  Fe325     1.0  0.37826  0.82307  0.41799  1.0000
  S   S646      1.0  0.37613  0.80939  0.39945  1.0000
  S   S647      1.0  0.35806  0.84070  0.43285  1.0000
  Fe  Fe326     1.0  0.39437  0.78720  0.41179  1.0000
  S   S648      1.0  0.39421  0.75953  0.42319  1.0000
  Fe  Fe327     1.0  0.40007  0.81838  0.38390  1.0000
  S   S649      1.0  0.40324  0.82940  0.35584  1.0000
  S   S650      1.0  0.39423  0.80028  0.43172  1.0000
  S   S651      1.0  0.40099  0.83330  0.40177  1.0000
  Fe  Fe328     1.0  0.28666  0.91132  0.40625  1.0000
  S   S652      1.0  0.30639  0.92485  0.40607  1.0000
  S   S653      1.0  0.29492  0.88507  0.40101  1.0000
  Fe  Fe329     1.0  0.28916  0.93140  0.42990  1.0000
  S   S654      1.0  0.29878  0.92531  0.45371  1.0000
  Fe  Fe330     1.0  0.28994  0.94769  0.39295  1.0000
  S   S655      1.0  0.30343  0.96506  0.37111  1.0000
  S   S656      1.0  0.27051  0.91613  0.43110  1.0000
  S   S657      1.0  0.27116  0.93373  0.39121  1.0000
  Fe  Fe331     1.0  0.38740  0.95868  0.29740  1.0000
  S   S658      1.0  0.37275  0.95532  0.28034  1.0000
  Fe  Fe332     1.0  0.40324  0.92078  0.30583  1.0000
  S   S659      1.0  0.38980  0.91445  0.28926  1.0000
  S   S660      1.0  0.41954  0.90235  0.32347  1.0000
  Fe  Fe333     1.0  0.39685  0.93768  0.27058  1.0000
  Fe  Fe334     1.0  0.36699  0.93280  0.30040  1.0000
  S   S661      1.0  0.34034  0.92812  0.31051  1.0000
  S   S662      1.0  0.41215  0.94274  0.28633  1.0000
  S   S663      1.0  0.37984  0.93731  0.31828  1.0000
  C   C2167     1.0  0.33243  0.50879  0.35049  1.0000
  C   C2168     1.0  0.35116  0.50186  0.38964  1.0000
  S   S664      1.0  0.47041  0.86902  0.40995  1.0000
  C   C2169     1.0  0.34943  0.87900  0.47650  1.0000
  S   S665      1.0  0.27441  0.95574  0.41697  1.0000
  H   H3696     1.0  0.38887  0.51187  0.23892  1.0000
  H   H3697     1.0  0.36145  0.97068  0.33580  1.0000
  H   H3698     1.0  0.31471  0.95194  0.24771  1.0000
  C   C2170     1.0  0.30003  0.49526  0.42211  1.0000
  C   C2171     1.0  0.33173  0.64616  0.45920  1.0000
  C   C2172     1.0  0.31899  0.51929  0.37696  1.0000
  H   H3699     1.0  0.35495  0.55325  0.27111  1.0000
  C   C2173     1.0  0.25513  0.96187  0.46719  1.0000
  C   C2174     1.0  0.30569  0.94078  0.45882  1.0000
  C   C2175     1.0  0.30116  0.52394  0.37266  1.0000
  C   C2176     1.0  0.46735  0.53676  0.26453  1.0000
  C   C2177     1.0  0.31516  0.96513  0.46934  1.0000
  C   C2178     1.0  0.30852  0.96969  0.45474  1.0000
  C   C2179     1.0  0.30382  0.95745  0.44941  1.0000
  H   H3700     1.0  0.46014  0.51007  0.31551  1.0000
  H   H3701     1.0  0.36750  0.49951  0.48329  1.0000
  C   C2180     1.0  0.35439  0.54722  0.26114  1.0000
  H   H3702     1.0  0.29850  0.96097  0.43828  1.0000
  C   C2181     1.0  0.31281  0.95550  0.35362  1.0000
  C   C2182     1.0  0.32557  0.96195  0.34078  1.0000
  C   C2183     1.0  0.33398  0.95372  0.32739  1.0000
  C   C2184     1.0  0.32920  0.93933  0.32648  1.0000
  C   C2185     1.0  0.31587  0.93337  0.33888  1.0000
  C   C2186     1.0  0.30793  0.94124  0.35256  1.0000
  H   H3703     1.0  0.32911  0.97321  0.34129  1.0000
  H   H3704     1.0  0.34403  0.95862  0.31770  1.0000
  H   H3705     1.0  0.31191  0.92244  0.33811  1.0000
  H   H3706     1.0  0.29801  0.93624  0.36226  1.0000
  C   C2187     1.0  0.44843  0.82253  0.42019  1.0000
  C   C2188     1.0  0.43874  0.83862  0.41478  1.0000
  C   C2189     1.0  0.44543  0.85298  0.41184  1.0000
  C   C2190     1.0  0.46180  0.85121  0.41435  1.0000
  H   H3707     1.0  0.38276  0.83419  0.45518  1.0000
  H   H3708     1.0  0.32281  0.87244  0.35127  1.0000
  H   H3709     1.0  0.42605  0.84007  0.41300  1.0000
  H   H3710     1.0  0.43800  0.86542  0.40750  1.0000
  H   H3711     1.0  0.39369  0.91193  0.24696  1.0000
  H   H3712     1.0  0.45175  0.66523  0.47084  1.0000
  C   C2191     1.0  0.40804  0.84962  0.34706  1.0000
  C   C2192     1.0  0.41247  0.85842  0.35654  1.0000
  C   C2193     1.0  0.41586  0.87464  0.34924  1.0000
  C   C2194     1.0  0.41472  0.88223  0.33245  1.0000
  C   C2195     1.0  0.41035  0.87344  0.32294  1.0000
  C   C2196     1.0  0.40712  0.85715  0.33020  1.0000
  H   H3713     1.0  0.41337  0.85274  0.36946  1.0000
  H   H3714     1.0  0.41932  0.88135  0.35662  1.0000
  H   H3715     1.0  0.40965  0.87910  0.30992  1.0000
  H   H3716     1.0  0.40377  0.85040  0.32276  1.0000
  C   C2197     1.0  0.34030  0.85256  0.42414  1.0000
  C   C2198     1.0  0.33226  0.86846  0.42787  1.0000
  C   C2199     1.0  0.31813  0.87832  0.42108  1.0000
  C   C2200     1.0  0.31198  0.87237  0.41044  1.0000
  C   C2201     1.0  0.31976  0.85627  0.40703  1.0000
  C   C2202     1.0  0.33397  0.84642  0.41377  1.0000
  H   H3717     1.0  0.33719  0.87330  0.43575  1.0000
  H   H3718     1.0  0.31201  0.89052  0.42414  1.0000
  H   H3719     1.0  0.31483  0.85143  0.39912  1.0000
  H   H3720     1.0  0.33998  0.83405  0.41100  1.0000
  H   H3721     1.0  0.36478  0.49754  0.45719  1.0000
  C   C2203     1.0  0.45005  0.70222  0.40552  1.0000
  C   C2204     1.0  0.34093  0.56498  0.35723  1.0000
  C   C2205     1.0  0.35143  0.55054  0.36489  1.0000
  C   C2206     1.0  0.36842  0.54519  0.35672  1.0000
  C   C2207     1.0  0.37514  0.55437  0.34091  1.0000
  C   C2208     1.0  0.36480  0.56904  0.33332  1.0000
  C   C2209     1.0  0.34765  0.57421  0.34139  1.0000
  H   H3722     1.0  0.34634  0.54309  0.37682  1.0000
  H   H3723     1.0  0.37637  0.53383  0.36262  1.0000
  H   H3724     1.0  0.36982  0.57609  0.32101  1.0000
  H   H3725     1.0  0.33956  0.58534  0.33532  1.0000
  C   C2210     1.0  0.39937  0.72139  0.39163  1.0000
  C   C2211     1.0  0.40120  0.71595  0.40834  1.0000
  C   C2212     1.0  0.40045  0.72778  0.41756  1.0000
  C   C2213     1.0  0.39722  0.74516  0.41037  1.0000
  C   C2214     1.0  0.39592  0.75061  0.39347  1.0000
  C   C2215     1.0  0.39714  0.73869  0.38406  1.0000
  H   H3726     1.0  0.40329  0.70260  0.41413  1.0000
  H   H3727     1.0  0.40236  0.72340  0.43030  1.0000
  H   H3728     1.0  0.39358  0.76399  0.38777  1.0000
  H   H3729     1.0  0.39587  0.74292  0.37106  1.0000
  C   C2216     1.0  0.40971  0.67045  0.46189  1.0000
  C   C2217     1.0  0.41868  0.68175  0.44961  1.0000
  C   C2218     1.0  0.42532  0.69291  0.45454  1.0000
  C   C2219     1.0  0.42297  0.69286  0.47165  1.0000
  H   H3730     1.0  0.33603  0.96121  0.27812  1.0000
  H   H3731     1.0  0.36989  0.70739  0.43405  1.0000
  H   H3732     1.0  0.42069  0.68168  0.43641  1.0000
  H   H3733     1.0  0.43236  0.70152  0.44517  1.0000
  C   C2220     1.0  0.48399  0.63899  0.25356  1.0000
  H   H3734     1.0  0.37894  0.49430  0.24637  1.0000
  C   C2221     1.0  0.34696  0.62814  0.41954  1.0000
  C   C2222     1.0  0.36069  0.61500  0.42356  1.0000
  C   C2223     1.0  0.35894  0.59814  0.42810  1.0000
  C   C2224     1.0  0.34359  0.59422  0.42821  1.0000
  C   C2225     1.0  0.32997  0.60726  0.42370  1.0000
  C   C2226     1.0  0.33161  0.62421  0.41955  1.0000
  H   H3735     1.0  0.37260  0.61776  0.42342  1.0000
  H   H3736     1.0  0.36954  0.58810  0.43150  1.0000
  H   H3737     1.0  0.31805  0.60435  0.42382  1.0000
  H   H3738     1.0  0.32093  0.63430  0.41642  1.0000
  C   C2227     1.0  0.42654  0.62398  0.36470  1.0000
  C   C2228     1.0  0.41780  0.63878  0.35560  1.0000
  C   C2229     1.0  0.41437  0.63890  0.34019  1.0000
  C   C2230     1.0  0.41978  0.62426  0.33363  1.0000
  C   C2231     1.0  0.42935  0.60967  0.34225  1.0000
  C   C2232     1.0  0.43277  0.60956  0.35773  1.0000
  H   H3739     1.0  0.41387  0.65026  0.36024  1.0000
  H   H3740     1.0  0.40724  0.65034  0.33345  1.0000
  H   H3741     1.0  0.43406  0.59845  0.33709  1.0000
  H   H3742     1.0  0.43998  0.59818  0.36444  1.0000
  C   C2233     1.0  0.47120  0.57032  0.32458  1.0000
  H   H3743     1.0  0.46808  0.57797  0.34776  1.0000
  H   H3744     1.0  0.46013  0.56475  0.32914  1.0000
  C   C2234     1.0  0.25731  0.86069  0.41800  1.0000
  H   H3745     1.0  0.47652  0.53140  0.25404  1.0000
  H   H3746     1.0  0.37986  0.53499  0.25111  1.0000
  H   H3747     1.0  0.33818  0.73279  0.48144  1.0000
  H   H3748     1.0  0.48110  0.64650  0.26329  1.0000
  S   S666      1.0  0.25849  0.56902  0.44198  1.0000
  H   H3749     1.0  0.43615  0.70562  0.40557  1.0000
  H   H3750     1.0  0.49480  0.95354  0.23753  1.0000
  H   H3751     1.0  0.29339  0.50837  0.42089  1.0000
  H   H3752     1.0  0.26352  0.56138  0.48035  1.0000
  C   C2235     1.0  0.41375  0.56038  0.25075  1.0000
  H   H3753     1.0  0.41544  0.55696  0.26356  1.0000
  C   C2236     1.0  0.47583  0.57763  0.33521  1.0000
  H   H3754     1.0  0.36217  0.73208  0.44411  1.0000
  C   C2237     1.0  0.33953  0.54950  0.47464  1.0000
  H   H3755     1.0  0.49665  0.67030  0.46831  1.0000
  C   C2238     1.0  0.31397  0.93815  0.27344  1.0000
  C   C2239     1.0  0.39390  0.49676  0.26250  1.0000
  H   H3756     1.0  0.34189  0.49855  0.34484  1.0000
  H   H3757     1.0  0.41360  0.51056  0.28834  1.0000
  H   H3758     1.0  0.38576  0.51057  0.43826  1.0000
  C   C2240     1.0  0.46408  0.50231  0.26646  1.0000
  S   S667      1.0  0.41755  0.59232  0.24968  1.0000
  H   H3759     1.0  0.46247  0.67955  0.44230  1.0000
  H   H3760     1.0  0.43337  0.52321  0.29461  1.0000
  C   C2241     1.0  0.43170  0.86754  0.45518  1.0000
  S   S668      1.0  0.31929  0.98038  0.47739  1.0000
  H   H3761     1.0  0.42131  0.85738  0.44042  1.0000
  C   C2242     1.0  0.36041  0.72079  0.45453  1.0000
  H   H3762     1.0  0.46458  0.62790  0.38782  1.0000
  H   H3763     1.0  0.38514  0.73350  0.45271  1.0000
  H   H3764     1.0  0.45794  0.49179  0.26749  1.0000
  H   H3765     1.0  0.30145  0.94728  0.27515  1.0000
  Fe  Fe335     1.0  0.25681  0.93994  0.41626  1.0000
  C   C2243     1.0  0.33819  0.51415  0.28176  1.0000
  H   H3766     1.0  0.49019  0.53117  0.35383  1.0000
  C   C2244     1.0  0.46589  0.66278  0.46631  1.0000
  H   H3767     1.0  0.45248  0.87531  0.34091  1.0000
  S   S669      1.0  0.49683  0.59155  0.34417  1.0000
  C   C2245     1.0  0.48520  0.65533  0.34912  1.0000
  H   H3768     1.0  0.35927  0.49543  0.36505  1.0000
  C   C2246     1.0  0.47595  0.64107  0.32329  1.0000
  H   H3769     1.0  0.36553  0.93525  0.25770  1.0000
  C   C2247     1.0  0.44468  0.73528  0.41613  1.0000
  H   H3770     1.0  0.37175  0.95587  0.35191  1.0000
  H   H3771     1.0  0.34148  0.52915  0.24782  1.0000
  H   H3772     1.0  0.47484  0.67957  0.33193  1.0000
  C   C2248     1.0  0.46123  0.49535  0.29703  1.0000
  H   H3773     1.0  0.47176  0.64192  0.24923  1.0000
  H   H3774     1.0  0.48193  0.61149  0.38142  1.0000
  H   H3775     1.0  0.34828  0.93595  0.27486  1.0000
  C   C2249     1.0  0.45446  0.50001  0.31447  1.0000
  H   H3776     1.0  0.34459  0.62000  0.46411  1.0000
  H   H3777     1.0  0.49256  0.67970  0.33983  1.0000
  H   H3778     1.0  0.32688  0.85298  0.46679  1.0000
  H   H3779     1.0  0.47121  0.68023  0.40084  1.0000
  H   H3780     1.0  0.46649  0.74600  0.48203  1.0000
  H   H3781     1.0  0.48838  0.53124  0.32716  1.0000
  C   C2250     1.0  0.33736  0.52552  0.33966  1.0000
  H   H3782     1.0  0.35356  0.96518  0.24714  1.0000
  C   C2251     1.0  0.35418  0.52112  0.24385  1.0000
  H   H3783     1.0  0.36373  0.50110  0.28265  1.0000
  C   C2252     1.0  0.40702  0.67074  0.47893  1.0000
  H   H3784     1.0  0.46180  0.72365  0.46395  1.0000
  N   N150      1.0  0.35609  0.52118  0.46582  1.0000
  C   C2253     1.0  0.38690  0.51667  0.44792  1.0000
  H   H3785     1.0  0.39204  0.71422  0.46627  1.0000
  N   N151      1.0  0.45747  0.50939  0.28218  1.0000
  H   H3786     1.0  0.26059  0.97900  0.44302  1.0000
  C   C2254     1.0  0.35583  0.65044  0.47654  1.0000
  C   C2255     1.0  0.41381  0.57693  0.24142  1.0000
  C   C2256     1.0  0.39341  0.91926  0.23428  1.0000
  H   H3787     1.0  0.38506  0.70337  0.44693  1.0000
  H   H3788     1.0  0.42810  0.49386  0.29867  1.0000
  H   H3789     1.0  0.25980  0.84813  0.41484  1.0000
  H   H3790     1.0  0.36550  0.53646  0.44155  1.0000
  C   C2257     1.0  0.47606  0.85477  0.33946  1.0000
  C   C2258     1.0  0.35317  0.50790  0.45858  1.0000
  N   N152      1.0  0.36480  0.51607  0.25708  1.0000
  H   H3791     1.0  0.36792  0.90233  0.32462  1.0000
  H   H3792     1.0  0.48676  0.65755  0.36098  1.0000
  C   C2259     1.0  0.36362  0.96868  0.34868  1.0000
  C   C2260     1.0  0.49037  0.83318  0.36045  1.0000
  C   C2261     1.0  0.41142  0.54825  0.24344  1.0000
  Fe  Fe336     1.0  0.49868  0.85989  0.40745  1.0000
  H   H3793     1.0  0.48607  0.91345  0.30322  1.0000
  H   H3794     1.0  0.31702  0.97009  0.26934  1.0000
  C   C2262     1.0  0.34806  0.75363  0.46392  1.0000
  H   H3795     1.0  0.45824  0.76654  0.42227  1.0000
  C   C2263     1.0  0.38906  0.84203  0.45923  1.0000
  H   H3796     1.0  0.43005  0.49756  0.27606  1.0000
  H   H3797     1.0  0.48604  0.63185  0.37927  1.0000
  S   S670      1.0  0.40678  0.94206  0.24220  1.0000
  H   H3798     1.0  0.45851  0.65592  0.37658  1.0000
  H   H3799     1.0  0.36419  0.89864  0.46758  1.0000
  H   H3800     1.0  0.48100  0.61598  0.23995  1.0000
  H   H3801     1.0  0.48521  0.78841  0.45542  1.0000
  H   H3802     1.0  0.32621  0.64296  0.45016  1.0000
  H   H3803     1.0  0.49232  0.86551  0.35735  1.0000
  H   H3804     1.0  0.44029  0.50381  0.31761  1.0000
  H   H3805     1.0  0.45775  0.61710  0.29824  1.0000
  H   H3806     1.0  0.46027  0.51169  0.25522  1.0000
  C   C2264     1.0  0.36875  0.53100  0.26081  1.0000
  H   H3807     1.0  0.44976  0.85610  0.33747  1.0000
  H   H3808     1.0  0.39730  0.52373  0.44204  1.0000
  H   H3809     1.0  0.31106  0.92533  0.27754  1.0000
  H   H3810     1.0  0.35673  0.55674  0.24916  1.0000
  H   H3811     1.0  0.34121  0.54534  0.26383  1.0000
  H   H3812     1.0  0.35126  0.96840  0.35780  1.0000
  C   C2265     1.0  0.35222  0.93314  0.26218  1.0000
  N   N153      1.0  0.37319  0.60403  0.36812  1.0000
  C   C2266     1.0  0.38000  0.61090  0.34972  1.0000
  C   C2267     1.0  0.38745  0.60039  0.37735  1.0000
  C   C2268     1.0  0.35835  0.61663  0.37561  1.0000
  C   C2269     1.0  0.36704  0.58831  0.36968  1.0000
  C   C2270     1.0  0.36694  0.61697  0.33823  1.0000
  C   C2271     1.0  0.40163  0.58452  0.37470  1.0000
  C   C2272     1.0  0.36194  0.63413  0.37393  1.0000
  C   C2273     1.0  0.36034  0.57901  0.38784  1.0000
  H   H3813     1.0  0.38602  0.62167  0.34812  1.0000
  H   H3814     1.0  0.39045  0.60123  0.34412  1.0000
  H   H3815     1.0  0.38246  0.59925  0.39118  1.0000
  H   H3816     1.0  0.39396  0.61122  0.37351  1.0000
  H   H3817     1.0  0.34699  0.61858  0.37019  1.0000
  H   H3818     1.0  0.35397  0.61164  0.38934  1.0000
  H   H3819     1.0  0.35618  0.59140  0.36327  1.0000
  H   H3820     1.0  0.37694  0.57914  0.36283  1.0000
  H   H3821     1.0  0.36185  0.60645  0.33732  1.0000
  H   H3822     1.0  0.35629  0.62732  0.34216  1.0000
  H   H3823     1.0  0.37359  0.62214  0.32524  1.0000
  H   H3824     1.0  0.40747  0.58479  0.36118  1.0000
  H   H3825     1.0  0.41200  0.58402  0.38092  1.0000
  H   H3826     1.0  0.39684  0.57273  0.38056  1.0000
  H   H3827     1.0  0.36520  0.64084  0.36060  1.0000
  H   H3828     1.0  0.37217  0.63323  0.38047  1.0000
  H   H3829     1.0  0.35019  0.64217  0.38009  1.0000
  H   H3830     1.0  0.34623  0.58333  0.39170  1.0000
  H   H3831     1.0  0.36624  0.58070  0.39736  1.0000
  H   H3832     1.0  0.36343  0.56518  0.38845  1.0000
  H   H3833     1.0  0.49308  0.92410  0.39320  1.0000
  C   C2274     1.0  0.41854  0.85834  0.45382  1.0000
  C   C2275     1.0  0.37002  0.52913  0.45331  1.0000
  H   H3834     1.0  0.48841  0.82291  0.35569  1.0000
  S   S671      1.0  0.43234  0.70599  0.47782  1.0000
  H   H3835     1.0  0.47518  0.70988  0.41274  1.0000
  H   H3836     1.0  0.34324  0.98448  0.39566  1.0000
  C   C2276     1.0  0.35592  0.50556  0.27286  1.0000
  H   H3837     1.0  0.46532  0.63577  0.28723  1.0000
  C   C2277     1.0  0.47659  0.62533  0.37825  1.0000
  H   H3838     1.0  0.45079  0.67529  0.41083  1.0000
  H   H3839     1.0  0.35034  0.91371  0.34591  1.0000
  H   H3840     1.0  0.45476  0.54253  0.26104  1.0000
  H   H3841     1.0  0.45908  0.53043  0.29145  1.0000
  H   H3842     1.0  0.32094  0.93927  0.28236  1.0000
  C   C2278     1.0  0.46600  0.52341  0.28126  1.0000
  H   H3843     1.0  0.37326  0.53863  0.45811  1.0000
  H   H3844     1.0  0.49622  0.66855  0.32382  1.0000
  H   H3845     1.0  0.37497  0.88208  0.31943  1.0000
  H   H3846     1.0  0.32880  0.51889  0.27352  1.0000
  H   H3847     1.0  0.43571  0.71202  0.37857  1.0000
  H   H3848     1.0  0.41411  0.83115  0.44612  1.0000
  H   H3849     1.0  0.47911  0.51834  0.28379  1.0000
  H   H3850     1.0  0.33293  0.50457  0.29249  1.0000
  H   H3851     1.0  0.32157  0.64719  0.47065  1.0000
  C   C2279     1.0  0.48004  0.86199  0.36468  1.0000
  H   H3852     1.0  0.45339  0.74362  0.38921  1.0000
  N   N154      1.0  0.33185  0.50553  0.36909  1.0000
  C   C2280     1.0  0.47302  0.63006  0.36034  1.0000
  H   H3853     1.0  0.48582  0.82223  0.45812  1.0000
  H   H3854     1.0  0.45668  0.73370  0.42026  1.0000
  H   H3855     1.0  0.47777  0.60050  0.27888  1.0000
  H   H3856     1.0  0.49131  0.50124  0.26621  1.0000
  H   H3857     1.0  0.33643  0.53995  0.45474  1.0000
  H   H3858     1.0  0.47963  0.80912  0.47824  1.0000
  H   H3859     1.0  0.44510  0.86104  0.45066  1.0000
  H   H3860     1.0  0.43007  0.86919  0.46813  1.0000
  C   C2281     1.0  0.44795  0.73291  0.39795  1.0000
  C   C2282     1.0  0.45476  0.65744  0.36448  1.0000
  H   H3861     1.0  0.48168  0.85681  0.37793  1.0000
  C   C2283     1.0  0.34936  0.50503  0.37127  1.0000
  H   H3862     1.0  0.48477  0.70130  0.39466  1.0000
  H   H3863     1.0  0.47962  0.73879  0.39574  1.0000
  H   H3864     1.0  0.49375  0.76634  0.46179  1.0000
  H   H3865     1.0  0.26925  0.98233  0.45862  1.0000
  C   C2284     1.0  0.48624  0.72705  0.39110  1.0000
  H   H3866     1.0  0.48914  0.72990  0.37713  1.0000
  H   H3867     1.0  0.45945  0.66372  0.32999  1.0000
  C   C2285     1.0  0.36737  0.88090  0.34645  1.0000
  H   H3868     1.0  0.48782  0.50939  0.33020  1.0000
  H   H3869     1.0  0.44153  0.82882  0.37087  1.0000
  H   H3870     1.0  0.48400  0.83373  0.42217  1.0000
  C   C2286     1.0  0.47144  0.83514  0.41993  1.0000
  H   H3871     1.0  0.47229  0.54718  0.26599  1.0000
  N   N155      1.0  0.46916  0.64873  0.35236  1.0000
  H   H3872     1.0  0.34428  0.86229  0.35112  1.0000
  H   H3873     1.0  0.37279  0.60477  0.45932  1.0000
  C   C2287     1.0  0.49066  0.58409  0.32985  1.0000
  H   H3874     1.0  0.48814  0.49637  0.24835  1.0000
  H   H3875     1.0  0.49716  0.54542  0.36126  1.0000
  H   H3876     1.0  0.29537  0.51276  0.37581  1.0000
  H   H3877     1.0  0.48336  0.97199  0.28550  1.0000
  H   H3878     1.0  0.43613  0.76681  0.47983  1.0000
  H   H3879     1.0  0.42198  0.75863  0.47316  1.0000
  H   H3880     1.0  0.33363  0.97180  0.24073  1.0000
  C   C2288     1.0  0.31263  0.93629  0.47318  1.0000
  H   H3881     1.0  0.36676  0.69359  0.45439  1.0000
  H   H3882     1.0  0.48639  0.74197  0.46830  1.0000
  H   H3883     1.0  0.38191  0.98413  0.33740  1.0000
  H   H3884     1.0  0.48600  0.92725  0.27585  1.0000
  H   H3885     1.0  0.35146  0.52376  0.33505  1.0000
  H   H3886     1.0  0.33909  0.52430  0.28732  1.0000
  H   H3887     1.0  0.32741  0.55902  0.47347  1.0000
  H   H3888     1.0  0.49317  0.66063  0.23611  1.0000
  N   N156      1.0  0.34098  0.94477  0.25047  1.0000
  H   H3889     1.0  0.31690  0.51562  0.39096  1.0000
  H   H3890     1.0  0.32447  0.88187  0.46150  1.0000
  H   H3891     1.0  0.33114  0.52989  0.32867  1.0000
  H   H3892     1.0  0.37027  0.59643  0.48194  1.0000
  H   H3893     1.0  0.33897  0.83447  0.47787  1.0000
  H   H3894     1.0  0.39077  0.50671  0.45870  1.0000
  H   H3895     1.0  0.49030  0.82798  0.37414  1.0000
  C   C2289     1.0  0.45534  0.82874  0.36552  1.0000
  H   H3896     1.0  0.49618  0.63580  0.28231  1.0000
  H   H3897     1.0  0.35064  0.51342  0.44564  1.0000
  N   N157      1.0  0.47623  0.84879  0.35803  1.0000
  H   H3898     1.0  0.37281  0.52733  0.27308  1.0000
  C   C2290     1.0  0.45968  0.84418  0.36864  1.0000
  C   C2291     1.0  0.40782  0.83277  0.45923  1.0000
  C   C2292     1.0  0.49616  0.57599  0.30304  1.0000
  H   H3899     1.0  0.33505  0.65867  0.45312  1.0000
  C   C2293     1.0  0.35336  0.91401  0.26472  1.0000
  C   C2294     1.0  0.46685  0.87889  0.36449  1.0000
  H   H3900     1.0  0.32381  0.53112  0.37366  1.0000
  C   C2295     1.0  0.32328  0.94128  0.25460  1.0000
  C   C2296     1.0  0.37382  0.62283  0.47367  1.0000
  H   H3901     1.0  0.44854  0.85489  0.36707  1.0000
  H   H3902     1.0  0.48333  0.58745  0.25778  1.0000
  C   C2297     1.0  0.46919  0.62179  0.29000  1.0000
  H   H3903     1.0  0.46245  0.62403  0.36090  1.0000
  H   H3904     1.0  0.43720  0.68105  0.36852  1.0000
  H   H3905     1.0  0.47232  0.80838  0.42704  1.0000
  H   H3906     1.0  0.33144  0.89681  0.34846  1.0000
  H   H3907     1.0  0.32912  0.86240  0.37101  1.0000
  H   H3908     1.0  0.36883  0.86716  0.34766  1.0000
  C   C2298     1.0  0.38217  0.72620  0.46587  1.0000
  H   H3909     1.0  0.49251  0.77580  0.44005  1.0000
  H   H3910     1.0  0.46520  0.69019  0.45670  1.0000
  H   H3911     1.0  0.47053  0.88649  0.37129  1.0000
  H   H3912     1.0  0.45373  0.87736  0.37116  1.0000
  H   H3913     1.0  0.46706  0.88649  0.35146  1.0000
  H   H3914     1.0  0.37965  0.75003  0.47345  1.0000
  H   H3915     1.0  0.48452  0.62333  0.35252  1.0000
  C   C2299     1.0  0.46477  0.82079  0.42283  1.0000
  N   N158      1.0  0.46587  0.75603  0.45549  1.0000
  C   C2300     1.0  0.46747  0.77297  0.45698  1.0000
  C   C2301     1.0  0.44723  0.75684  0.45658  1.0000
  C   C2302     1.0  0.36359  0.70615  0.48308  1.0000
  C   C2303     1.0  0.47259  0.74265  0.46954  1.0000
  H   H3916     1.0  0.33287  0.53605  0.34638  1.0000
  C   C2304     1.0  0.43546  0.75659  0.47425  1.0000
  H   H3917     1.0  0.40748  0.81971  0.46657  1.0000
  H   H3918     1.0  0.43595  0.80644  0.46012  1.0000
  H   H3919     1.0  0.46051  0.78347  0.44840  1.0000
  H   H3920     1.0  0.45787  0.82872  0.35193  1.0000
  H   H3921     1.0  0.44559  0.74641  0.45181  1.0000
  H   H3922     1.0  0.44162  0.76859  0.44815  1.0000
  H   H3923     1.0  0.25873  0.56288  0.40964  1.0000
  H   H3924     1.0  0.35742  0.63404  0.45020  1.0000
  C   C2305     1.0  0.47619  0.75184  0.43889  1.0000
  H   H3925     1.0  0.48623  0.95633  0.26414  1.0000
  H   H3926     1.0  0.31787  0.89816  0.47267  1.0000
  C   C2306     1.0  0.48586  0.77574  0.45336  1.0000
  H   H3927     1.0  0.46261  0.81674  0.37209  1.0000
  C   C2307     1.0  0.48813  0.81794  0.47115  1.0000
  H   H3928     1.0  0.34291  0.90605  0.46418  1.0000
  C   C2308     1.0  0.46313  0.65040  0.33654  1.0000
  C   C2309     1.0  0.45878  0.86454  0.33471  1.0000
  C   C2310     1.0  0.36535  0.88944  0.32825  1.0000
  H   H3929     1.0  0.49838  0.52005  0.31035  1.0000
  C   C2311     1.0  0.30138  0.88076  0.48091  1.0000
  H   H3930     1.0  0.43507  0.73488  0.39524  1.0000
  H   H3931     1.0  0.44351  0.65154  0.36772  1.0000
  H   H3932     1.0  0.32017  0.50810  0.34805  1.0000
  H   H3933     1.0  0.46122  0.77518  0.46986  1.0000
  H   H3934     1.0  0.48857  0.64447  0.32002  1.0000
  C   C2312     1.0  0.44512  0.71907  0.36964  1.0000
  H   H3935     1.0  0.43572  0.52625  0.27260  1.0000
  H   H3936     1.0  0.34066  0.91067  0.26933  1.0000
  H   H3937     1.0  0.45811  0.68366  0.35732  1.0000
  H   H3938     1.0  0.48442  0.82935  0.47660  1.0000
  H   H3939     1.0  0.46308  0.61722  0.26871  1.0000
  H   H3940     1.0  0.37321  0.69541  0.47838  1.0000
  H   H3941     1.0  0.49015  0.74991  0.43814  1.0000
  H   H3942     1.0  0.29244  0.53312  0.38014  1.0000
  H   H3943     1.0  0.26496  0.92618  0.47739  1.0000
  C   C2313     1.0  0.47170  0.76496  0.42305  1.0000
  C   C2314     1.0  0.35412  0.98455  0.38455  1.0000
  C   C2315     1.0  0.47118  0.72440  0.47066  1.0000
  C   C2316     1.0  0.31956  0.88432  0.47444  1.0000
  H   H3944     1.0  0.36377  0.65599  0.46438  1.0000
  H   H3945     1.0  0.45252  0.80608  0.46998  1.0000
  H   H3946     1.0  0.43720  0.74835  0.41673  1.0000
  H   H3947     1.0  0.38172  0.62981  0.46245  1.0000
  H   H3948     1.0  0.44380  0.83359  0.45132  1.0000
  H   H3949     1.0  0.25981  0.85828  0.43078  1.0000
  H   H3950     1.0  0.47526  0.49037  0.29572  1.0000
  H   H3951     1.0  0.41788  0.97698  0.29269  1.0000
  H   H3952     1.0  0.25789  0.89494  0.41335  1.0000
  H   H3953     1.0  0.48328  0.67661  0.44579  1.0000
  C   C2317     1.0  0.44821  0.67660  0.35866  1.0000
  C   C2318     1.0  0.42721  0.50366  0.28691  1.0000
  H   H3954     1.0  0.34672  0.72016  0.45677  1.0000
  H   H3955     1.0  0.43679  0.72662  0.42513  1.0000
  H   H3956     1.0  0.36094  0.90704  0.27447  1.0000
  H   H3957     1.0  0.38807  0.85436  0.45006  1.0000
  H   H3958     1.0  0.47923  0.61720  0.29755  1.0000
  N   N159      1.0  0.35352  0.88771  0.36020  1.0000
  C   C2319     1.0  0.35401  0.90604  0.35789  1.0000
  C   C2320     1.0  0.43847  0.51650  0.28401  1.0000
  C   C2321     1.0  0.35729  0.87842  0.37729  1.0000
  C   C2322     1.0  0.46958  0.67823  0.45213  1.0000
  C   C2323     1.0  0.34223  0.91510  0.37188  1.0000
  H   H3959     1.0  0.47085  0.70511  0.37244  1.0000
  C   C2324     1.0  0.36416  0.85912  0.37994  1.0000
  H   H3960     1.0  0.45994  0.84133  0.38225  1.0000
  H   H3961     1.0  0.36728  0.90735  0.35683  1.0000
  N   N160      1.0  0.41805  0.84117  0.46547  1.0000
  H   H3962     1.0  0.44843  0.71404  0.35802  1.0000
  H   H3963     1.0  0.45487  0.68456  0.38883  1.0000
  H   H3964     1.0  0.36715  0.88333  0.38009  1.0000
  H   H3965     1.0  0.34568  0.88066  0.38748  1.0000
  H   H3966     1.0  0.32624  0.89067  0.37040  1.0000
  H   H3967     1.0  0.47096  0.64479  0.31157  1.0000
  H   H3968     1.0  0.34338  0.92853  0.36845  1.0000
  H   H3969     1.0  0.32858  0.91527  0.37313  1.0000
  H   H3970     1.0  0.34586  0.90946  0.38426  1.0000
  H   H3971     1.0  0.48035  0.84391  0.33303  1.0000
  C   C2325     1.0  0.48126  0.56955  0.30848  1.0000
  H   H3972     1.0  0.37729  0.85591  0.37238  1.0000
  H   H3973     1.0  0.35577  0.85248  0.37725  1.0000
  H   H3974     1.0  0.36520  0.85395  0.39328  1.0000
  H   H3975     1.0  0.47990  0.76052  0.41163  1.0000
  C   C2326     1.0  0.37674  0.60476  0.47087  1.0000
  H   H3976     1.0  0.48546  0.86296  0.33303  1.0000
  C   C2327     1.0  0.34032  0.96287  0.25047  1.0000
  C   C2328     1.0  0.33313  0.86999  0.35822  1.0000
  H   H3977     1.0  0.46763  0.72712  0.36832  1.0000
  H   H3978     1.0  0.30166  0.53027  0.35920  1.0000
  H   H3979     1.0  0.43878  0.73268  0.36674  1.0000
  H   H3980     1.0  0.37998  0.88211  0.34755  1.0000
  H   H3981     1.0  0.45119  0.64552  0.33976  1.0000
  C   C2329     1.0  0.33588  0.88706  0.35919  1.0000
  C   C2330     1.0  0.48688  0.67165  0.33537  1.0000
  H   H3982     1.0  0.26223  0.90211  0.38474  1.0000
  H   H3983     1.0  0.34380  0.51278  0.39542  1.0000
  H   H3984     1.0  0.36480  0.50046  0.38978  1.0000
  H   H3985     1.0  0.39067  0.59903  0.46904  1.0000
  C   C2331     1.0  0.46152  0.71650  0.37614  1.0000
  H   H3986     1.0  0.35259  0.88987  0.32626  1.0000
  H   H3987     1.0  0.26666  0.86761  0.40866  1.0000
  C   C2332     1.0  0.35076  0.73663  0.47684  1.0000
  C   C2333     1.0  0.34785  0.63244  0.46239  1.0000
  H   H3988     1.0  0.32575  0.50723  0.46770  1.0000
  H   H3989     1.0  0.48092  0.95089  0.29469  1.0000
  H   H3990     1.0  0.46095  0.86984  0.32090  1.0000
  C   C2334     1.0  0.49716  0.64660  0.23863  1.0000
  H   H3991     1.0  0.44325  0.67992  0.34698  1.0000
  H   H3992     1.0  0.47422  0.77744  0.42228  1.0000
  H   H3993     1.0  0.35325  0.51718  0.36472  1.0000
  C   C2335     1.0  0.47622  0.71280  0.39885  1.0000
  H   H3994     1.0  0.40652  0.49115  0.25526  1.0000
  H   H3995     1.0  0.38104  0.97626  0.35892  1.0000
  N   N161      1.0  0.45892  0.71613  0.39461  1.0000
  H   H3996     1.0  0.26705  0.95266  0.46317  1.0000
  H   H3997     1.0  0.30670  0.98269  0.44778  1.0000
  C   C2336     1.0  0.43884  0.81155  0.46960  1.0000
  C   C2337     1.0  0.47465  0.61443  0.27407  1.0000
  C   C2338     1.0  0.38586  0.73644  0.47660  1.0000
  H   H3998     1.0  0.39987  0.73573  0.47375  1.0000
  H   H3999     1.0  0.30131  0.86723  0.48280  1.0000
  H   H4000     1.0  0.45059  0.70044  0.41891  1.0000
  C   C2339     1.0  0.43622  0.83098  0.46448  1.0000
  H   H4001     1.0  0.34034  0.75329  0.45521  1.0000
  H   H4002     1.0  0.42988  0.88039  0.44692  1.0000
  C   C2340     1.0  0.37127  0.70533  0.44723  1.0000
  C   C2341     1.0  0.49847  0.91726  0.29703  1.0000
  H   H4003     1.0  0.40585  0.86720  0.45588  1.0000
  C   C2342     1.0  0.33847  0.49896  0.46900  1.0000
  C   C2343     1.0  0.49040  0.95856  0.28698  1.0000
  C   C2344     1.0  0.38146  0.50479  0.25039  1.0000
  H   H4004     1.0  0.29208  0.56511  0.47813  1.0000
  H   H4005     1.0  0.36030  0.75700  0.45631  1.0000
  H   H4006     1.0  0.47461  0.73954  0.43772  1.0000
  H   H4007     1.0  0.47747  0.62713  0.32753  1.0000
  H   H4008     1.0  0.46930  0.65177  0.46017  1.0000
  H   H4009     1.0  0.39614  0.50617  0.26816  1.0000
  H   H4010     1.0  0.36010  0.90920  0.25314  1.0000
  H   H4011     1.0  0.35336  0.87580  0.46384  1.0000
  H   H4012     1.0  0.44281  0.83481  0.47223  1.0000
  C   C2345     1.0  0.49588  0.51891  0.32419  1.0000
  H   H4013     1.0  0.35009  0.55608  0.46785  1.0000
  N   N162      1.0  0.36446  0.72259  0.47028  1.0000
  C   C2346     1.0  0.45733  0.68467  0.40105  1.0000
  C   C2347     1.0  0.48356  0.49486  0.26222  1.0000
  H   H4014     1.0  0.48380  0.71687  0.46544  1.0000
  H   H4015     1.0  0.32877  0.52912  0.47542  1.0000
  H   H4016     1.0  0.31397  0.92352  0.48060  1.0000
  C   C2348     1.0  0.40995  0.84402  0.48306  1.0000
  C   C2349     1.0  0.33975  0.53456  0.46732  1.0000
  C   C2350     1.0  0.37262  0.98209  0.34967  1.0000
  C   C2351     1.0  0.31758  0.94835  0.47826  1.0000
  H   H4017     1.0  0.41146  0.53546  0.25066  1.0000
  H   H4018     1.0  0.35908  0.97127  0.38305  1.0000
  H   H4019     1.0  0.43833  0.74413  0.48295  1.0000
  C   C2352     1.0  0.36054  0.51293  0.48286  1.0000
  C   C2353     1.0  0.49529  0.59191  0.25099  1.0000
  N   N163      1.0  0.35543  0.63257  0.47671  1.0000
  H   H4020     1.0  0.33901  0.49441  0.48250  1.0000
  H   H4021     1.0  0.26863  0.98653  0.38274  1.0000
  C   C2354     1.0  0.25792  0.97931  0.45658  1.0000
  H   H4022     1.0  0.49878  0.72282  0.39492  1.0000
  H   H4023     1.0  0.34302  0.65899  0.47705  1.0000
  C   C2355     1.0  0.35069  0.89763  0.47329  1.0000
  H   H4024     1.0  0.38177  0.84375  0.47198  1.0000
  H   H4025     1.0  0.35123  0.50969  0.24194  1.0000
  H   H4026     1.0  0.49095  0.93233  0.24666  1.0000
  C   C2356     1.0  0.33102  0.96903  0.26692  1.0000
  H   H4027     1.0  0.43128  0.80700  0.48220  1.0000
  H   H4028     1.0  0.34952  0.85075  0.46481  1.0000
  H   H4029     1.0  0.34084  0.76395  0.47066  1.0000
  H   H4030     1.0  0.47109  0.68492  0.48203  1.0000
  N   N164      1.0  0.47484  0.65877  0.48076  1.0000
  C   C2357     1.0  0.49377  0.65746  0.47336  1.0000
  N   N165      1.0  0.48920  0.62026  0.26052  1.0000
  C   C2358     1.0  0.49210  0.61143  0.24625  1.0000
  S   S672      1.0  0.38054  0.98481  0.30276  1.0000
  H   H4031     1.0  0.33288  0.98197  0.26548  1.0000
  C   C2359     1.0  0.49768  0.95442  0.26939  1.0000
  H   H4032     1.0  0.35436  0.49394  0.27003  1.0000
  H   H4033     1.0  0.28446  0.49358  0.46916  1.0000
  H   H4034     1.0  0.38508  0.51914  0.48162  1.0000
  H   H4035     1.0  0.49781  0.65128  0.46234  1.0000
  C   C2360     1.0  0.33746  0.84841  0.47367  1.0000
  H   H4036     1.0  0.34715  0.49017  0.39760  1.0000
  C   C2361     1.0  0.31589  0.48997  0.42684  1.0000
  H   H4037     1.0  0.35957  0.87101  0.48335  1.0000
  C   C2362     1.0  0.41344  0.68202  0.48376  1.0000
  H   H4038     1.0  0.27834  0.95649  0.48379  1.0000
  H   H4039     1.0  0.26473  0.98895  0.48293  1.0000
  H   H4040     1.0  0.39795  0.85401  0.48340  1.0000
  C   C2363     1.0  0.48012  0.58408  0.71362  1.0000
  Fe  Fe337     1.0  0.44451  0.57850  0.66791  1.0000
  S   S673      1.0  0.45721  0.56129  0.64977  1.0000
  S   S674      1.0  0.44677  0.56481  0.69469  1.0000
  Fe  Fe338     1.0  0.43748  0.60877  0.63915  1.0000
  S   S675      1.0  0.44973  0.59367  0.61928  1.0000
  S   S676      1.0  0.42673  0.63661  0.63061  1.0000
  Fe  Fe339     1.0  0.43553  0.57431  0.63661  1.0000
  S   S677      1.0  0.42486  0.55943  0.62486  1.0000
  Fe  Fe340     1.0  0.47005  0.58233  0.63436  1.0000
  H   H4041     1.0  0.49302  0.80914  0.61103  1.0000
  S   S678      1.0  0.42162  0.59007  0.65586  1.0000
  S   S679      1.0  0.45891  0.59883  0.65313  1.0000
  Fe  Fe341     1.0  0.43438  0.68907  0.54078  1.0000
  S   S680      1.0  0.40887  0.70187  0.55391  1.0000
  S   S681      1.0  0.45450  0.67179  0.55470  1.0000
  H   H4042     1.0  0.26396  0.61481  0.54056  1.0000
  Fe  Fe342     1.0  0.41308  0.72440  0.53305  1.0000
  S   S682      1.0  0.40609  0.74947  0.54060  1.0000
  Fe  Fe343     1.0  0.39822  0.69396  0.53633  1.0000
  S   S683      1.0  0.37363  0.68483  0.54464  1.0000
  S   S684      1.0  0.43927  0.71213  0.52061  1.0000
  S   S685      1.0  0.42350  0.67917  0.52485  1.0000
  Fe  Fe344     1.0  0.34490  0.58903  0.58408  1.0000
  S   S686      1.0  0.36582  0.57909  0.56388  1.0000
  S   S687      1.0  0.35061  0.58946  0.60877  1.0000
  Fe  Fe345     1.0  0.31811  0.59962  0.56193  1.0000
  S   S688      1.0  0.33759  0.59078  0.54006  1.0000
  S   S689      1.0  0.29227  0.61193  0.55512  1.0000
  Fe  Fe346     1.0  0.34599  0.56822  0.55958  1.0000
  S   S690      1.0  0.35176  0.54117  0.55735  1.0000
  Fe  Fe347     1.0  0.35518  0.60270  0.54656  1.0000
  S   S691      1.0  0.37362  0.61678  0.52668  1.0000
  S   S692      1.0  0.32561  0.57621  0.58125  1.0000
  S   S693      1.0  0.33523  0.61350  0.56699  1.0000
  C   C2364     1.0  0.47715  0.92878  0.58632  1.0000
  C   C2365     1.0  0.47046  0.96151  0.68902  1.0000
  H   H4043     1.0  0.30214  0.52053  0.59997  1.0000
  S   S694      1.0  0.31484  0.52407  0.51003  1.0000
  N   N166      1.0  0.47242  0.95925  0.67135  1.0000
  Fe  Fe348     1.0  0.44420  0.82762  0.51801  1.0000
  S   S695      1.0  0.44963  0.84996  0.49740  1.0000
  S   S696      1.0  0.45237  0.80332  0.50855  1.0000
  Fe  Fe349     1.0  0.43322  0.84888  0.54485  1.0000
  S   S697      1.0  0.43819  0.87259  0.52605  1.0000
  S   S698      1.0  0.42320  0.84966  0.57239  1.0000
  Fe  Fe350     1.0  0.42508  0.86445  0.51066  1.0000
  Fe  Fe351     1.0  0.46212  0.85558  0.51496  1.0000
  C   C2366     1.0  0.48886  0.84473  0.56382  1.0000
  S   S699      1.0  0.41851  0.84165  0.53003  1.0000
  S   S700      1.0  0.45816  0.83240  0.53491  1.0000
  Fe  Fe352     1.0  0.41603  0.92719  0.64692  1.0000
  S   S701      1.0  0.43980  0.93091  0.62727  1.0000
  S   S702      1.0  0.41982  0.91660  0.67366  1.0000
  Fe  Fe353     1.0  0.39386  0.93821  0.62071  1.0000
  S   S703      1.0  0.41592  0.94285  0.59919  1.0000
  S   S704      1.0  0.36727  0.94176  0.61652  1.0000
  Fe  Fe354     1.0  0.43039  0.91847  0.61228  1.0000
  S   S705      1.0  0.44934  0.90140  0.59610  1.0000
  Fe  Fe355     1.0  0.42315  0.95479  0.61617  1.0000
  C   C2367     1.0  0.29026  0.55619  0.55572  1.0000
  S   S706      1.0  0.40783  0.91265  0.63275  1.0000
  S   S707      1.0  0.39985  0.95221  0.63688  1.0000
  C   C2368     1.0  0.25728  0.52867  0.53622  1.0000
  S   S708      1.0  0.30087  0.95209  0.51943  1.0000
  Fe  Fe356     1.0  0.33077  0.96891  0.53623  1.0000
  S   S709      1.0  0.31326  0.95223  0.55316  1.0000
  H   H4044     1.0  0.49448  0.93573  0.55134  1.0000
  Fe  Fe357     1.0  0.32251  0.93776  0.53243  1.0000
  S   S710      1.0  0.33286  0.90962  0.53938  1.0000
  Fe  Fe358     1.0  0.29347  0.96846  0.53832  1.0000
  S   S711      1.0  0.34076  0.95385  0.51609  1.0000
  H   H4045     1.0  0.47573  0.62804  0.64325  1.0000
  C   C2369     1.0  0.28326  0.56319  0.49069  1.0000
  H   H4046     1.0  0.45428  0.93644  0.57593  1.0000
  H   H4047     1.0  0.27730  0.54161  0.52199  1.0000
  H   H4048     1.0  0.42410  0.97014  0.64187  1.0000
  C   C2370     1.0  0.36330  0.95103  0.59610  1.0000
  C   C2371     1.0  0.37482  0.95949  0.58350  1.0000
  C   C2372     1.0  0.37102  0.96721  0.56754  1.0000
  C   C2373     1.0  0.35587  0.96623  0.56392  1.0000
  C   C2374     1.0  0.34453  0.95748  0.57641  1.0000
  C   C2375     1.0  0.34817  0.95004  0.59247  1.0000
  H   H4049     1.0  0.38640  0.96054  0.58615  1.0000
  H   H4050     1.0  0.37978  0.97411  0.55802  1.0000
  H   H4051     1.0  0.33907  0.94372  0.60218  1.0000
  C   C2376     1.0  0.38584  0.89054  0.50852  1.0000
  C   C2377     1.0  0.37472  0.90478  0.50130  1.0000
  C   C2378     1.0  0.35854  0.91087  0.51079  1.0000
  C   C2379     1.0  0.35333  0.90260  0.52750  1.0000
  C   C2380     1.0  0.36440  0.88826  0.53469  1.0000
  C   C2381     1.0  0.38070  0.88235  0.52529  1.0000
  H   H4052     1.0  0.34994  0.92171  0.50503  1.0000
  H   H4053     1.0  0.36037  0.88175  0.54758  1.0000
  H   H4054     1.0  0.38921  0.87138  0.53099  1.0000
  C   C2382     1.0  0.43075  0.86377  0.57909  1.0000
  C   C2383     1.0  0.44258  0.87289  0.56800  1.0000
  C   C2384     1.0  0.44786  0.88469  0.57326  1.0000
  C   C2385     1.0  0.44144  0.88740  0.58967  1.0000
  C   C2386     1.0  0.42982  0.87810  0.60092  1.0000
  C   C2387     1.0  0.42464  0.86615  0.59566  1.0000
  H   H4055     1.0  0.44788  0.87075  0.55542  1.0000
  H   H4056     1.0  0.45698  0.89173  0.56460  1.0000
  H   H4057     1.0  0.42513  0.87986  0.61375  1.0000
  H   H4058     1.0  0.41588  0.85875  0.60443  1.0000
  H   H4059     1.0  0.41232  0.49311  0.69273  1.0000
  C   C2388     1.0  0.48352  0.88142  0.52615  1.0000
  H   H4060     1.0  0.47218  0.50491  0.67224  1.0000
  H   H4061     1.0  0.33768  0.50329  0.53129  1.0000
  H   H4062     1.0  0.47021  0.88410  0.52551  1.0000
  C   C2389     1.0  0.27449  0.60218  0.56257  1.0000
  C   C2390     1.0  0.27197  0.59119  0.57836  1.0000
  H   H4063     1.0  0.31838  0.50101  0.58180  1.0000
  H   H4064     1.0  0.40393  0.95339  0.51018  1.0000
  H   H4065     1.0  0.34704  0.90248  0.48501  1.0000
  H   H4066     1.0  0.31813  0.62898  0.49672  1.0000
  H   H4067     1.0  0.28104  0.58854  0.58630  1.0000
  H   H4068     1.0  0.44548  0.94262  0.65736  1.0000
  H   H4069     1.0  0.25525  0.57598  0.59654  1.0000
  C   C2391     1.0  0.34238  0.53699  0.54310  1.0000
  C   C2392     1.0  0.33263  0.54994  0.53299  1.0000
  C   C2393     1.0  0.32450  0.54602  0.52243  1.0000
  C   C2394     1.0  0.32608  0.52912  0.52207  1.0000
  C   C2395     1.0  0.33621  0.51626  0.53178  1.0000
  C   C2396     1.0  0.34428  0.52018  0.54233  1.0000
  H   H4070     1.0  0.33100  0.56293  0.53353  1.0000
  H   H4071     1.0  0.31669  0.55605  0.51489  1.0000
  H   H4072     1.0  0.39718  0.98304  0.59874  1.0000
  H   H4073     1.0  0.35179  0.51018  0.55016  1.0000
  C   C2397     1.0  0.41924  0.76416  0.53152  1.0000
  C   C2398     1.0  0.41519  0.77903  0.53757  1.0000
  C   C2399     1.0  0.42536  0.79109  0.53065  1.0000
  C   C2400     1.0  0.43962  0.78831  0.51762  1.0000
  C   C2401     1.0  0.44376  0.77342  0.51156  1.0000
  C   C2402     1.0  0.43357  0.76133  0.51850  1.0000
  H   H4074     1.0  0.40411  0.78122  0.54766  1.0000
  H   H4075     1.0  0.42215  0.80252  0.53542  1.0000
  C   C2403     1.0  0.37344  0.66668  0.53828  1.0000
  C   C2404     1.0  0.35853  0.66029  0.54359  1.0000
  C   C2405     1.0  0.35834  0.64525  0.53958  1.0000
  C   C2406     1.0  0.37311  0.63643  0.53040  1.0000
  C   C2407     1.0  0.38780  0.64319  0.52445  1.0000
  C   C2408     1.0  0.38796  0.65828  0.52841  1.0000
  H   H4076     1.0  0.34716  0.66687  0.55101  1.0000
  H   H4077     1.0  0.34673  0.64055  0.54355  1.0000
  H   H4078     1.0  0.39917  0.63655  0.51710  1.0000
  H   H4079     1.0  0.39937  0.66323  0.52395  1.0000
  C   C2409     1.0  0.40436  0.56825  0.62022  1.0000
  C   C2410     1.0  0.39184  0.57870  0.62994  1.0000
  C   C2411     1.0  0.37536  0.58495  0.62641  1.0000
  C   C2412     1.0  0.37142  0.58120  0.61286  1.0000
  C   C2413     1.0  0.38405  0.57096  0.60299  1.0000
  C   C2414     1.0  0.40036  0.56431  0.60681  1.0000
  H   H4080     1.0  0.39473  0.58172  0.64038  1.0000
  H   H4081     1.0  0.36566  0.59281  0.63415  1.0000
  H   H4082     1.0  0.38118  0.56783  0.59264  1.0000
  H   H4083     1.0  0.40995  0.55617  0.59929  1.0000
  C   C2415     1.0  0.43461  0.64603  0.60944  1.0000
  C   C2416     1.0  0.45004  0.63847  0.59994  1.0000
  C   C2417     1.0  0.45614  0.64651  0.58323  1.0000
  C   C2418     1.0  0.44670  0.66198  0.57577  1.0000
  C   C2419     1.0  0.43136  0.66955  0.58533  1.0000
  C   C2420     1.0  0.42541  0.66167  0.60210  1.0000
  H   H4084     1.0  0.45745  0.62657  0.60551  1.0000
  H   H4085     1.0  0.46810  0.64062  0.57600  1.0000
  H   H4086     1.0  0.42419  0.68165  0.57999  1.0000
  H   H4087     1.0  0.41357  0.66771  0.60940  1.0000
  C   C2421     1.0  0.33371  0.85623  0.48919  1.0000
  C   C2422     1.0  0.42803  0.98209  0.63787  1.0000
  H   H4088     1.0  0.40037  0.51474  0.71861  1.0000
  C   C2423     1.0  0.49086  0.55178  0.58552  1.0000
  H   H4089     1.0  0.42322  0.98583  0.66319  1.0000
  H   H4090     1.0  0.45978  0.49482  0.66577  1.0000
  H   H4091     1.0  0.48788  0.93405  0.67753  1.0000
  C   C2424     1.0  0.43395  0.57344  0.71201  1.0000
  C   C2425     1.0  0.42055  0.58757  0.70996  1.0000
  H   H4092     1.0  0.37620  0.64600  0.49056  1.0000
  H   H4093     1.0  0.27827  0.56261  0.56299  1.0000
  H   H4094     1.0  0.41826  0.59377  0.69748  1.0000
  H   H4095     1.0  0.33269  0.95689  0.57391  1.0000
  H   H4096     1.0  0.41378  0.94010  0.48493  1.0000
  C   C2426     1.0  0.35935  0.51861  0.61956  1.0000
  C   C2427     1.0  0.41177  0.95112  0.70990  1.0000
  C   C2428     1.0  0.42141  0.93458  0.71290  1.0000
  C   C2429     1.0  0.42438  0.92433  0.70131  1.0000
  C   C2430     1.0  0.41777  0.93057  0.68664  1.0000
  C   C2431     1.0  0.40899  0.94745  0.68314  1.0000
  C   C2432     1.0  0.40600  0.95771  0.69476  1.0000
  H   H4097     1.0  0.42636  0.92960  0.72426  1.0000
  H   H4098     1.0  0.43154  0.91140  0.70385  1.0000
  H   H4099     1.0  0.40397  0.95244  0.67180  1.0000
  H   H4100     1.0  0.39875  0.97060  0.69224  1.0000
  C   C2433     1.0  0.47444  0.52506  0.61941  1.0000
  C   C2434     1.0  0.43542  0.49471  0.69928  1.0000
  H   H4101     1.0  0.32190  0.85260  0.49782  1.0000
  S   S712      1.0  0.35151  0.97610  0.54376  1.0000
  H   H4102     1.0  0.45921  0.48974  0.71755  1.0000
  H   H4103     1.0  0.44550  0.96352  0.67138  1.0000
  H   H4104     1.0  0.48498  0.87636  0.57041  1.0000
  H   H4105     1.0  0.45197  0.62885  0.50826  1.0000
  H   H4106     1.0  0.43100  0.49037  0.67606  1.0000
  H   H4107     1.0  0.44235  0.96664  0.69857  1.0000
  S   S713      1.0  0.31029  0.98663  0.52322  1.0000
  H   H4108     1.0  0.33844  0.50766  0.60508  1.0000
  H   H4109     1.0  0.26580  0.52167  0.54510  1.0000
  H   H4110     1.0  0.47925  0.57079  0.71534  1.0000
  H   H4111     1.0  0.41827  0.84944  0.48747  1.0000
  H   H4112     1.0  0.28870  0.56045  0.54245  1.0000
  H   H4113     1.0  0.38967  0.52399  0.56436  1.0000
  H   H4114     1.0  0.46288  0.67786  0.51521  1.0000
  C   C2435     1.0  0.47002  0.66786  0.61820  1.0000
  H   H4115     1.0  0.26754  0.94822  0.54120  1.0000
  C   C2436     1.0  0.37651  0.52145  0.59069  1.0000
  H   H4116     1.0  0.42023  0.90930  0.52548  1.0000
  C   C2437     1.0  0.48007  0.68086  0.60572  1.0000
  H   H4117     1.0  0.39948  0.60449  0.72247  1.0000
  H   H4118     1.0  0.34870  0.51219  0.49284  1.0000
  H   H4119     1.0  0.45241  0.52563  0.65659  1.0000
  C   C2438     1.0  0.40627  0.91190  0.53124  1.0000
  H   H4120     1.0  0.26798  0.56818  0.52182  1.0000
  H   H4121     1.0  0.45681  0.95210  0.58504  1.0000
  H   H4122     1.0  0.35053  0.87865  0.50874  1.0000
  H   H4123     1.0  0.48933  0.67557  0.59523  1.0000
  S   S714      1.0  0.43287  0.97868  0.60532  1.0000
  H   H4124     1.0  0.34647  0.48967  0.59561  1.0000
  H   H4125     1.0  0.35415  0.53855  0.63331  1.0000
  C   C2439     1.0  0.42156  0.93574  0.54229  1.0000
  H   H4126     1.0  0.46131  0.52508  0.69509  1.0000
  C   C2440     1.0  0.40797  0.93935  0.51187  1.0000
  N   N167      1.0  0.49283  0.93393  0.58734  1.0000
  C   C2441     1.0  0.27053  0.55315  0.49020  1.0000
  C   C2442     1.0  0.49095  0.86945  0.58130  1.0000
  H   H4127     1.0  0.48395  0.96094  0.57776  1.0000
  Fe  Fe359     1.0  0.31849  0.96958  0.50496  1.0000
  C   C2443     1.0  0.48856  0.94598  0.66778  1.0000
  N   N168      1.0  0.39926  0.93075  0.52901  1.0000
  H   H4128     1.0  0.40027  0.50626  0.57778  1.0000
  N   N169      1.0  0.45448  0.49270  0.69283  1.0000
  C   C2444     1.0  0.43679  0.56548  0.72827  1.0000
  S   S715      1.0  0.26577  0.98111  0.54698  1.0000
  H   H4129     1.0  0.27817  0.54176  0.48514  1.0000
  H   H4130     1.0  0.48190  0.98254  0.66229  1.0000
  H   H4131     1.0  0.27413  0.92826  0.49369  1.0000
  H   H4132     1.0  0.44969  0.52650  0.61476  1.0000
  H   H4133     1.0  0.45342  0.67605  0.49286  1.0000
  H   H4134     1.0  0.43666  0.74993  0.51374  1.0000
  H   H4135     1.0  0.47329  0.97075  0.60300  1.0000
  H   H4136     1.0  0.25005  0.58526  0.51979  1.0000
  H   H4137     1.0  0.39551  0.51116  0.61352  1.0000
  C   C2445     1.0  0.45705  0.95305  0.67121  1.0000
  H   H4138     1.0  0.32576  0.64678  0.49775  1.0000
  H   H4139     1.0  0.46721  0.93239  0.65733  1.0000
  N   N170      1.0  0.37258  0.50914  0.60724  1.0000
  C   C2446     1.0  0.36555  0.49526  0.60523  1.0000
  C   C2447     1.0  0.47155  0.64199  0.49164  1.0000
  H   H4140     1.0  0.44697  0.65080  0.50839  1.0000
  H   H4141     1.0  0.48681  0.68615  0.61207  1.0000
  C   C2448     1.0  0.26223  0.60610  0.55267  1.0000
  H   H4142     1.0  0.32323  0.94463  0.48918  1.0000
  H   H4143     1.0  0.47603  0.49594  0.70062  1.0000
  C   C2449     1.0  0.47318  0.97621  0.65945  1.0000
  H   H4144     1.0  0.37775  0.97652  0.61095  1.0000
  H   H4145     1.0  0.29142  0.55646  0.49992  1.0000
  H   H4146     1.0  0.48694  0.96506  0.63691  1.0000
  H   H4147     1.0  0.45391  0.97403  0.70895  1.0000
  H   H4148     1.0  0.48473  0.95248  0.61517  1.0000
  H   H4149     1.0  0.44168  0.52053  0.70983  1.0000
  C   C2450     1.0  0.36723  0.57123  0.71375  1.0000
  H   H4150     1.0  0.35372  0.62047  0.50327  1.0000
  N   N171      1.0  0.36604  0.89150  0.60167  1.0000
  C   C2451     1.0  0.38497  0.89109  0.59728  1.0000
  C   C2452     1.0  0.36376  0.87347  0.60697  1.0000
  C   C2453     1.0  0.35695  0.90042  0.61591  1.0000
  C   C2454     1.0  0.35865  0.90098  0.58643  1.0000
  C   C2455     1.0  0.39012  0.90812  0.59438  1.0000
  C   C2456     1.0  0.36887  0.86368  0.59268  1.0000
  C   C2457     1.0  0.36357  0.89305  0.63240  1.0000
  C   C2458     1.0  0.33937  0.90216  0.58826  1.0000
  H   H4151     1.0  0.39131  0.88221  0.60732  1.0000
  H   H4152     1.0  0.39129  0.88601  0.58572  1.0000
  H   H4153     1.0  0.35036  0.87274  0.61359  1.0000
  H   H4154     1.0  0.37152  0.86591  0.61647  1.0000
  H   H4155     1.0  0.35743  0.91404  0.61198  1.0000
  H   H4156     1.0  0.34306  0.90034  0.61928  1.0000
  H   H4157     1.0  0.36000  0.91432  0.58303  1.0000
  H   H4158     1.0  0.36592  0.89593  0.57502  1.0000
  H   H4159     1.0  0.38780  0.91203  0.60644  1.0000
  H   H4160     1.0  0.40409  0.90657  0.58903  1.0000
  H   H4161     1.0  0.38361  0.91847  0.58548  1.0000
  H   H4162     1.0  0.36022  0.86891  0.58366  1.0000
  H   H4163     1.0  0.38235  0.86333  0.58578  1.0000
  H   H4164     1.0  0.36775  0.85034  0.59824  1.0000
  H   H4165     1.0  0.35629  0.90109  0.64162  1.0000
  H   H4166     1.0  0.37725  0.89313  0.63063  1.0000
  H   H4167     1.0  0.36146  0.88007  0.63818  1.0000
  H   H4168     1.0  0.33156  0.91379  0.59268  1.0000
  H   H4169     1.0  0.33466  0.89113  0.59692  1.0000
  H   H4170     1.0  0.33692  0.90262  0.57582  1.0000
  H   H4171     1.0  0.31436  0.52984  0.58052  1.0000
  C   C2459     1.0  0.40623  0.82850  0.49706  1.0000
  H   H4172     1.0  0.48640  0.74805  0.56441  1.0000
  C   C2460     1.0  0.40256  0.93814  0.54194  1.0000
  C   C2461     1.0  0.37721  0.53447  0.72463  1.0000
  S   S716      1.0  0.39959  0.71795  0.51684  1.0000
  H   H4173     1.0  0.46733  0.83025  0.58893  1.0000
  H   H4174     1.0  0.25858  0.91565  0.49871  1.0000
  H   H4175     1.0  0.26745  0.52890  0.60068  1.0000
  H   H4176     1.0  0.48070  0.96733  0.68967  1.0000
  H   H4177     1.0  0.47099  0.80947  0.61404  1.0000
  C   C2462     1.0  0.25680  0.53527  0.57847  1.0000
  H   H4178     1.0  0.36912  0.54195  0.61379  1.0000
  S   S717      1.0  0.40609  0.88336  0.49635  1.0000
  H   H4179     1.0  0.47657  0.82725  0.61693  1.0000
  H   H4180     1.0  0.39823  0.49364  0.60469  1.0000
  C   C2463     1.0  0.29689  0.54736  0.59494  1.0000
  H   H4181     1.0  0.41191  0.53270  0.72604  1.0000
  H   H4182     1.0  0.41753  0.82215  0.50278  1.0000
  C   C2464     1.0  0.38031  0.93516  0.52945  1.0000
  H   H4183     1.0  0.48835  0.92406  0.61443  1.0000
  H   H4184     1.0  0.44473  0.52854  0.67768  1.0000
  C   C2465     1.0  0.47605  0.75550  0.55769  1.0000
  C   C2466     1.0  0.26225  0.92750  0.49064  1.0000
  H   H4185     1.0  0.37557  0.52637  0.63177  1.0000
  C   C2467     1.0  0.25732  0.58416  0.58415  1.0000
  H   H4186     1.0  0.49215  0.73981  0.52975  1.0000
  H   H4187     1.0  0.45482  0.77126  0.50148  1.0000
  H   H4188     1.0  0.37751  0.93026  0.51975  1.0000
  H   H4189     1.0  0.37565  0.94917  0.52638  1.0000
  H   H4190     1.0  0.38350  0.53047  0.59186  1.0000
  H   H4191     1.0  0.48879  0.73419  0.50495  1.0000
  H   H4192     1.0  0.37863  0.91117  0.48834  1.0000
  C   C2468     1.0  0.45911  0.50246  0.67492  1.0000
  C   C2469     1.0  0.36859  0.92830  0.54601  1.0000
  C   C2470     1.0  0.40445  0.90127  0.54951  1.0000
  H   H4193     1.0  0.39613  0.93302  0.55494  1.0000
  H   H4194     1.0  0.35503  0.93349  0.54497  1.0000
  H   H4195     1.0  0.36991  0.93227  0.55694  1.0000
  H   H4196     1.0  0.37048  0.91440  0.54820  1.0000
  H   H4197     1.0  0.40166  0.88897  0.54985  1.0000
  H   H4198     1.0  0.49432  0.51843  0.58879  1.0000
  C   C2471     1.0  0.25462  0.95555  0.54139  1.0000
  N   N172      1.0  0.47122  0.73044  0.54856  1.0000
  C   C2472     1.0  0.46369  0.74462  0.55798  1.0000
  C   C2473     1.0  0.45666  0.72277  0.54898  1.0000
  C   C2474     1.0  0.47910  0.73806  0.53061  1.0000
  C   C2475     1.0  0.48469  0.71786  0.55716  1.0000
  H   H4199     1.0  0.44710  0.55447  0.72993  1.0000
  C   C2476     1.0  0.44782  0.71410  0.56655  1.0000
  C   C2477     1.0  0.30114  0.53090  0.58852  1.0000
  C   C2478     1.0  0.47327  0.67072  0.50674  1.0000
  H   H4200     1.0  0.45260  0.75345  0.55292  1.0000
  H   H4201     1.0  0.45854  0.73966  0.57154  1.0000
  H   H4202     1.0  0.46082  0.71305  0.54130  1.0000
  H   H4203     1.0  0.44660  0.73259  0.54322  1.0000
  C   C2479     1.0  0.40624  0.88341  0.71817  1.0000
  C   C2480     1.0  0.36512  0.53204  0.62477  1.0000
  C   C2481     1.0  0.46765  0.67296  0.49013  1.0000
  H   H4204     1.0  0.48005  0.71461  0.57109  1.0000
  H   H4205     1.0  0.44432  0.65758  0.64504  1.0000
  N   N173      1.0  0.33215  0.87510  0.48554  1.0000
  H   H4206     1.0  0.41099  0.68225  0.49689  1.0000
  H   H4207     1.0  0.43804  0.70826  0.56497  1.0000
  H   H4208     1.0  0.45689  0.70368  0.57294  1.0000
  H   H4209     1.0  0.44085  0.72321  0.57473  1.0000
  C   C2482     1.0  0.40326  0.54515  0.72247  1.0000
  C   C2483     1.0  0.40504  0.93475  0.49649  1.0000
  C   C2484     1.0  0.48800  0.65751  0.63905  1.0000
  H   H4210     1.0  0.39537  0.83273  0.50712  1.0000
  H   H4211     1.0  0.47535  0.65759  0.51415  1.0000
  H   H4212     1.0  0.48359  0.54502  0.58145  1.0000
  C   C2485     1.0  0.32787  0.63285  0.50075  1.0000
  H   H4213     1.0  0.46164  0.95316  0.64399  1.0000
  C   C2486     1.0  0.38751  0.51361  0.57559  1.0000
  H   H4214     1.0  0.29502  0.55879  0.58485  1.0000
  H   H4215     1.0  0.40190  0.89433  0.70829  1.0000
  C   C2487     1.0  0.38726  0.48936  0.63109  1.0000
  H   H4216     1.0  0.46982  0.92395  0.59910  1.0000
  H   H4217     1.0  0.46807  0.72972  0.51421  1.0000
  C   C2488     1.0  0.49544  0.52937  0.64069  1.0000
  H   H4218     1.0  0.49715  0.64807  0.66241  1.0000
  H   H4219     1.0  0.49680  0.89872  0.59961  1.0000
  H   H4220     1.0  0.35460  0.50971  0.63128  1.0000
  H   H4221     1.0  0.28703  0.53243  0.55312  1.0000
  H   H4222     1.0  0.37731  0.57118  0.70211  1.0000
  H   H4223     1.0  0.41928  0.88352  0.71897  1.0000
  H   H4224     1.0  0.40731  0.87184  0.71370  1.0000
  H   H4225     1.0  0.42799  0.94437  0.53146  1.0000
  H   H4226     1.0  0.46975  0.85708  0.59183  1.0000
  H   H4227     1.0  0.49714  0.69116  0.56137  1.0000
  H   H4228     1.0  0.46264  0.66434  0.61092  1.0000
  H   H4229     1.0  0.46708  0.71814  0.48406  1.0000
  H   H4230     1.0  0.44672  0.63660  0.65726  1.0000
  H   H4231     1.0  0.25500  0.52600  0.49990  1.0000
  C   C2489     1.0  0.38684  0.51584  0.72549  1.0000
  C   C2490     1.0  0.46392  0.94251  0.57740  1.0000
  H   H4232     1.0  0.35226  0.50916  0.58427  1.0000
  H   H4233     1.0  0.35711  0.56530  0.71307  1.0000
  H   H4234     1.0  0.39994  0.66217  0.48847  1.0000
  C   C2491     1.0  0.43330  0.98891  0.62070  1.0000
  H   H4235     1.0  0.46958  0.94900  0.56467  1.0000
  H   H4236     1.0  0.37206  0.51496  0.50227  1.0000
  C   C2492     1.0  0.27059  0.53575  0.58728  1.0000
  H   H4237     1.0  0.28278  0.50772  0.57353  1.0000
  H   H4238     1.0  0.46679  0.97974  0.63489  1.0000
  H   H4239     1.0  0.34487  0.61123  0.49252  1.0000
  H   H4240     1.0  0.42233  0.93904  0.55392  1.0000
  H   H4241     1.0  0.39184  0.94040  0.49446  1.0000
  H   H4242     1.0  0.49573  0.58730  0.65200  1.0000
  H   H4243     1.0  0.35326  0.73926  0.48803  1.0000
  H   H4244     1.0  0.31386  0.87673  0.50921  1.0000
  C   C2493     1.0  0.32591  0.88087  0.50202  1.0000
  N   N174      1.0  0.28888  0.52883  0.57923  1.0000
  C   C2494     1.0  0.38349  0.98767  0.60430  1.0000
  H   H4245     1.0  0.47189  0.94901  0.69807  1.0000
  H   H4246     1.0  0.48491  0.67577  0.50438  1.0000
  C   C2495     1.0  0.48394  0.85339  0.59037  1.0000
  H   H4247     1.0  0.42889  0.50814  0.69898  1.0000
  H   H4248     1.0  0.48692  0.71493  0.52008  1.0000
  H   H4249     1.0  0.38192  0.73161  0.49025  1.0000
  H   H4250     1.0  0.46821  0.53368  0.62828  1.0000
  H   H4251     1.0  0.45080  0.98549  0.68842  1.0000
  H   H4252     1.0  0.39421  0.90708  0.55890  1.0000
  H   H4253     1.0  0.49772  0.82451  0.49743  1.0000
  C   C2496     1.0  0.49554  0.86959  0.51768  1.0000
  H   H4254     1.0  0.30121  0.56078  0.55668  1.0000
  H   H4255     1.0  0.33230  0.87948  0.52573  1.0000
  C   C2497     1.0  0.36696  0.70511  0.50041  1.0000
  Fe  Fe360     1.0  0.42541  0.70365  0.50606  1.0000
  H   H4256     1.0  0.49701  0.85394  0.55653  1.0000
  H   H4257     1.0  0.36203  0.66616  0.48970  1.0000
  C   C2498     1.0  0.48885  0.89023  0.53501  1.0000
  H   H4258     1.0  0.25073  0.51937  0.53498  1.0000
  H   H4259     1.0  0.34786  0.52547  0.61421  1.0000
  H   H4260     1.0  0.38105  0.50555  0.57213  1.0000
  C   C2499     1.0  0.48090  0.82518  0.59030  1.0000
  H   H4261     1.0  0.27651  0.52490  0.51377  1.0000
  C   C2500     1.0  0.48076  0.72846  0.51687  1.0000
  H   H4262     1.0  0.28548  0.54788  0.60549  1.0000
  H   H4263     1.0  0.34421  0.84945  0.49599  1.0000
  C   C2501     1.0  0.45376  0.64684  0.65057  1.0000
  H   H4264     1.0  0.47150  0.75098  0.52635  1.0000
  C   C2502     1.0  0.49361  0.54492  0.60379  1.0000
  C   C2503     1.0  0.38441  0.91368  0.73282  1.0000
  C   C2504     1.0  0.48055  0.81760  0.60915  1.0000
  C   C2505     1.0  0.40730  0.55065  0.70306  1.0000
  C   C2506     1.0  0.26665  0.97876  0.49413  1.0000
  H   H4265     1.0  0.35468  0.64812  0.50349  1.0000
  H   H4266     1.0  0.46667  0.52135  0.59772  1.0000
  S   S718      1.0  0.40631  0.96364  0.72504  1.0000
  N   N175      1.0  0.38486  0.54503  0.73124  1.0000
  H   H4267     1.0  0.42878  0.92251  0.54247  1.0000
  C   C2507     1.0  0.46186  0.49788  0.70466  1.0000
  H   H4268     1.0  0.32552  0.62926  0.51476  1.0000
  H   H4269     1.0  0.36453  0.52955  0.58699  1.0000
  C   C2508     1.0  0.49453  0.64432  0.61429  1.0000
  H   H4270     1.0  0.28610  0.50392  0.59431  1.0000
  H   H4271     1.0  0.46030  0.67494  0.62724  1.0000
  C   C2509     1.0  0.29338  0.53673  0.56073  1.0000
  H   H4272     1.0  0.48603  0.85010  0.60341  1.0000
  H   H4273     1.0  0.38066  0.50964  0.71942  1.0000
  H   H4274     1.0  0.40031  0.90644  0.52426  1.0000
  H   H4275     1.0  0.35084  0.70305  0.48529  1.0000
  C   C2510     1.0  0.25021  0.97190  0.54437  1.0000
  H   H4276     1.0  0.46725  0.59203  0.71231  1.0000
  H   H4277     1.0  0.48579  0.81412  0.58419  1.0000
  H   H4278     1.0  0.43428  0.51781  0.66907  1.0000
  C   C2511     1.0  0.44686  0.51951  0.66959  1.0000
  H   H4279     1.0  0.42211  0.93627  0.51060  1.0000
  C   C2512     1.0  0.45825  0.94494  0.65648  1.0000
  H   H4280     1.0  0.47544  0.85168  0.56342  1.0000
  H   H4281     1.0  0.41677  0.89795  0.55362  1.0000
  H   H4282     1.0  0.40212  0.81916  0.49293  1.0000
  H   H4283     1.0  0.48317  0.52621  0.64832  1.0000
  C   C2513     1.0  0.45576  0.51642  0.70651  1.0000
  C   C2514     1.0  0.34979  0.50105  0.59706  1.0000
  H   H4284     1.0  0.35873  0.71546  0.50659  1.0000
  C   C2515     1.0  0.29075  0.51010  0.58093  1.0000
  C   C2516     1.0  0.47768  0.95677  0.60480  1.0000
  H   H4285     1.0  0.30717  0.53216  0.55564  1.0000
  C   C2517     1.0  0.36261  0.65254  0.49097  1.0000
  H   H4286     1.0  0.48359  0.56514  0.58431  1.0000
  N   N176      1.0  0.49272  0.52668  0.61167  1.0000
  H   H4287     1.0  0.48868  0.79921  0.50377  1.0000
  H   H4288     1.0  0.48092  0.91788  0.57997  1.0000
  H   H4289     1.0  0.26846  0.54913  0.58796  1.0000
  H   H4290     1.0  0.47814  0.66601  0.64667  1.0000
  C   C2518     1.0  0.49318  0.83091  0.55356  1.0000
  H   H4291     1.0  0.39688  0.95200  0.53990  1.0000
  N   N177      1.0  0.38655  0.62873  0.58615  1.0000
  C   C2519     1.0  0.36934  0.63082  0.59824  1.0000
  C   C2520     1.0  0.39953  0.61681  0.59582  1.0000
  C   C2521     1.0  0.38513  0.62118  0.57235  1.0000
  C   C2522     1.0  0.39067  0.64603  0.57910  1.0000
  C   C2523     1.0  0.35386  0.64113  0.59032  1.0000
  C   C2524     1.0  0.40109  0.62192  0.61146  1.0000
  C   C2525     1.0  0.40138  0.60969  0.56406  1.0000
  C   C2526     1.0  0.40852  0.64678  0.56779  1.0000
  H   H4292     1.0  0.36648  0.61823  0.60502  1.0000
  H   H4293     1.0  0.36926  0.63727  0.60815  1.0000
  H   H4294     1.0  0.41257  0.61492  0.58771  1.0000
  H   H4295     1.0  0.39651  0.60404  0.60016  1.0000
  H   H4296     1.0  0.37550  0.61303  0.57717  1.0000
  H   H4297     1.0  0.38035  0.63131  0.56211  1.0000
  H   H4298     1.0  0.38141  0.65434  0.57139  1.0000
  H   H4299     1.0  0.38920  0.65250  0.58944  1.0000
  H   H4300     1.0  0.35230  0.63573  0.58037  1.0000
  H   H4301     1.0  0.34198  0.64089  0.60031  1.0000
  H   H4302     1.0  0.35455  0.65461  0.58520  1.0000
  H   H4303     1.0  0.41211  0.61303  0.61640  1.0000
  H   H4304     1.0  0.40361  0.63479  0.60846  1.0000
  H   H4305     1.0  0.38965  0.62084  0.62184  1.0000
  H   H4306     1.0  0.40442  0.59727  0.57280  1.0000
  H   H4307     1.0  0.41271  0.61541  0.55976  1.0000
  H   H4308     1.0  0.39889  0.60706  0.55282  1.0000
  H   H4309     1.0  0.41896  0.63977  0.57452  1.0000
  H   H4310     1.0  0.40977  0.66019  0.56383  1.0000
  H   H4311     1.0  0.41021  0.64244  0.55608  1.0000
  H   H4312     1.0  0.45395  0.94331  0.68289  1.0000
  N   N178      1.0  0.25825  0.54800  0.50654  1.0000
  H   H4313     1.0  0.39939  0.54684  0.69677  1.0000
  H   H4314     1.0  0.34102  0.86035  0.51831  1.0000
  C   C2527     1.0  0.47829  0.97670  0.64034  1.0000
  H   H4315     1.0  0.49017  0.94225  0.65573  1.0000
  C   C2528     1.0  0.40991  0.59359  0.72412  1.0000
  H   H4316     1.0  0.30776  0.54771  0.60002  1.0000
  H   H4317     1.0  0.42062  0.54436  0.69807  1.0000
  H   H4318     1.0  0.36413  0.69311  0.50896  1.0000
  C   C2529     1.0  0.48950  0.95223  0.58836  1.0000
  H   H4319     1.0  0.46620  0.95125  0.60866  1.0000
  C   C2530     1.0  0.30904  0.50004  0.57510  1.0000
  C   C2531     1.0  0.49265  0.70122  0.55089  1.0000
  C   C2532     1.0  0.37167  0.52112  0.48888  1.0000
  H   H4320     1.0  0.47962  0.89970  0.54120  1.0000
  C   C2533     1.0  0.34612  0.62377  0.49339  1.0000
  H   H4321     1.0  0.48572  0.77931  0.49154  1.0000
  H   H4322     1.0  0.48962  0.64564  0.60283  1.0000
  N   N179      1.0  0.48056  0.65219  0.62740  1.0000
  H   H4323     1.0  0.49568  0.72361  0.55574  1.0000
  H   H4324     1.0  0.47087  0.69167  0.59989  1.0000
  H   H4325     1.0  0.37614  0.53986  0.71133  1.0000
  S   S719      1.0  0.48930  0.85885  0.50601  1.0000
  C   C2534     1.0  0.45264  0.64159  0.50010  1.0000
  H   H4326     1.0  0.39367  0.91629  0.72065  1.0000
  C   C2535     1.0  0.33835  0.87432  0.51417  1.0000
  H   H4327     1.0  0.46880  0.76580  0.56445  1.0000
  H   H4328     1.0  0.32243  0.89493  0.49990  1.0000
  H   H4329     1.0  0.48753  0.87819  0.59003  1.0000
  H   H4330     1.0  0.31375  0.50377  0.56131  1.0000
  H   H4331     1.0  0.40635  0.56454  0.69900  1.0000
  C   C2536     1.0  0.46880  0.64030  0.63690  1.0000
  H   H4332     1.0  0.25639  0.52224  0.57842  1.0000
  H   H4333     1.0  0.46055  0.51783  0.71701  1.0000
  C   C2537     1.0  0.45334  0.97260  0.69641  1.0000
  C   C2538     1.0  0.26605  0.96120  0.49215  1.0000
  N   N180      1.0  0.49121  0.83861  0.58181  1.0000
  Fe  Fe361     1.0  0.31394  0.49659  0.51775  1.0000
  H   H4334     1.0  0.48163  0.76174  0.54472  1.0000
  H   H4335     1.0  0.48561  0.98679  0.63391  1.0000
  H   H4336     1.0  0.49323  0.61744  0.62052  1.0000
  H   H4337     1.0  0.48414  0.55341  0.61172  1.0000
  H   H4338     1.0  0.44465  0.64369  0.49082  1.0000
  C   C2539     1.0  0.38895  0.50128  0.61346  1.0000
  S   S720      1.0  0.49757  0.57759  0.62060  1.0000
  C   C2540     1.0  0.26820  0.53590  0.51914  1.0000
  H   H4339     1.0  0.48358  0.69610  0.54731  1.0000
  H   H4340     1.0  0.26664  0.95287  0.50487  1.0000
  H   H4341     1.0  0.46331  0.63690  0.62796  1.0000
  H   H4342     1.0  0.38067  0.70439  0.49951  1.0000
  H   H4343     1.0  0.48916  0.58777  0.70159  1.0000
  H   H4344     1.0  0.45814  0.65029  0.66021  1.0000
  H   H4345     1.0  0.49410  0.83693  0.53999  1.0000
  H   H4346     1.0  0.37537  0.94081  0.73091  1.0000
  H   H4347     1.0  0.40793  0.92089  0.49740  1.0000
  C   C2541     1.0  0.46226  0.52923  0.60729  1.0000
  H   H4348     1.0  0.48497  0.60102  0.72582  1.0000
  H   H4349     1.0  0.33948  0.54547  0.48825  1.0000
  H   H4350     1.0  0.37870  0.49576  0.64114  1.0000
  H   H4351     1.0  0.48294  0.82368  0.55725  1.0000
  H   H4352     1.0  0.37976  0.62141  0.48446  1.0000
  H   H4353     1.0  0.45965  0.54291  0.60137  1.0000
  H   H4354     1.0  0.25833  0.54315  0.56549  1.0000
  H   H4355     1.0  0.47863  0.63742  0.50196  1.0000
  H   H4356     1.0  0.36115  0.58472  0.71399  1.0000
  C   C2542     1.0  0.48498  0.58727  0.72872  1.0000
  H   H4357     1.0  0.47405  0.51199  0.62695  1.0000
  S   S721      1.0  0.29541  0.48938  0.54168  1.0000
  N   N181      1.0  0.25093  0.95998  0.48608  1.0000
  C   C2543     1.0  0.25394  0.57125  0.52344  1.0000
  H   H4358     1.0  0.27943  0.97817  0.49626  1.0000
  H   H4359     1.0  0.37270  0.91306  0.72923  1.0000
  H   H4360     1.0  0.49712  0.66565  0.63167  1.0000
  H   H4361     1.0  0.25707  0.98228  0.50538  1.0000
  H   H4362     1.0  0.36666  0.53478  0.48844  1.0000
  H   H4363     1.0  0.49258  0.63189  0.65610  1.0000
  H   H4364     1.0  0.46055  0.98513  0.66144  1.0000
  H   H4365     1.0  0.49401  0.54326  0.63658  1.0000
  H   H4366     1.0  0.40808  0.55382  0.72697  1.0000
  H   H4367     1.0  0.38090  0.88309  0.73266  1.0000
  H   H4368     1.0  0.47316  0.98778  0.73296  1.0000
  H   H4369     1.0  0.29471  0.88536  0.49264  1.0000
  H   H4370     1.0  0.36375  0.53444  0.73168  1.0000
  C   C2544     1.0  0.37413  0.56285  0.72998  1.0000
  H   H4371     1.0  0.38136  0.57151  0.73157  1.0000
  H   H4372     1.0  0.47648  0.63201  0.48406  1.0000
  C   C2545     1.0  0.49790  0.64337  0.65107  1.0000
  C   C2546     1.0  0.49888  0.92317  0.60304  1.0000
  H   H4373     1.0  0.27660  0.57599  0.49293  1.0000
  H   H4374     1.0  0.48854  0.98794  0.70305  1.0000
  H   H4375     1.0  0.48887  0.50708  0.73371  1.0000
  H   H4376     1.0  0.43143  0.53739  0.85534  1.0000
  H   H4377     1.0  0.39374  0.52474  0.75129  1.0000
  C   C2547     1.0  0.40839  0.89792  0.74645  1.0000
  H   H4378     1.0  0.48020  0.79868  0.88719  1.0000
  H   H4379     1.0  0.33845  0.54393  0.80567  1.0000
  Fe  Fe362     1.0  0.43535  0.94227  0.77411  1.0000
  S   S722      1.0  0.41768  0.96649  0.76510  1.0000
  C   C2548     1.0  0.48772  0.65203  0.86699  1.0000
  Fe  Fe363     1.0  0.39791  0.95730  0.78742  1.0000
  S   S723      1.0  0.38888  0.94379  0.77319  1.0000
  S   S724      1.0  0.37944  0.97396  0.80452  1.0000
  Fe  Fe364     1.0  0.40865  0.92143  0.78237  1.0000
  S   S725      1.0  0.40067  0.89638  0.79284  1.0000
  H   H4380     1.0  0.39293  0.50317  0.78816  1.0000
  S   S726      1.0  0.41654  0.93449  0.79793  1.0000
  H   H4381     1.0  0.47977  0.80393  0.85955  1.0000
  Fe  Fe365     1.0  0.39343  0.82011  0.91660  1.0000
  S   S727      1.0  0.37527  0.80814  0.91069  1.0000
  S   S728      1.0  0.39707  0.81237  0.94346  1.0000
  Fe  Fe366     1.0  0.40567  0.83615  0.87921  1.0000
  S   S729      1.0  0.38903  0.82475  0.87074  1.0000
  S   S730      1.0  0.42323  0.85240  0.86069  1.0000
  Fe  Fe367     1.0  0.36915  0.83311  0.89265  1.0000
  S   S731      1.0  0.34362  0.84811  0.88709  1.0000
  Fe  Fe368     1.0  0.39694  0.80108  0.88950  1.0000
  S   S732      1.0  0.40917  0.77525  0.88344  1.0000
  S   S733      1.0  0.38551  0.84565  0.90037  1.0000
  S   S734      1.0  0.41541  0.81185  0.89627  1.0000
  Fe  Fe369     1.0  0.29922  0.95433  0.86532  1.0000
  S   S735      1.0  0.31759  0.95212  0.88123  1.0000
  S   S736      1.0  0.30855  0.95191  0.83821  1.0000
  Fe  Fe370     1.0  0.30116  0.93643  0.90138  1.0000
  S   S737      1.0  0.31452  0.91357  0.91798  1.0000
  H   H4382     1.0  0.47222  0.76823  0.84878  1.0000
  S   S738      1.0  0.28404  0.93665  0.88477  1.0000
  C   C2549     1.0  0.27797  0.94426  0.81622  1.0000
  H   H4383     1.0  0.49412  0.66630  0.83431  1.0000
  H   H4384     1.0  0.43654  0.71867  0.93187  1.0000
  H   H4385     1.0  0.25467  0.63981  0.96074  1.0000
  C   C2550     1.0  0.38072  0.50340  0.79767  1.0000
  S   S739      1.0  0.46907  0.72185  0.89882  1.0000
  H   H4386     1.0  0.33239  0.56241  0.97351  1.0000
  Fe  Fe371     1.0  0.38424  0.68866  0.90090  1.0000
  S   S740      1.0  0.39420  0.66988  0.92255  1.0000
  S   S741      1.0  0.36988  0.71546  0.90250  1.0000
  Fe  Fe372     1.0  0.39454  0.66257  0.87889  1.0000
  S   S742      1.0  0.40559  0.64181  0.89856  1.0000
  S   S743      1.0  0.39248  0.66002  0.85358  1.0000
  Fe  Fe373     1.0  0.38214  0.65178  0.91683  1.0000
  S   S744      1.0  0.36894  0.63310  0.93758  1.0000
  Fe  Fe374     1.0  0.41660  0.66164  0.90247  1.0000
  S   S745      1.0  0.44382  0.65549  0.90553  1.0000
  S   S746      1.0  0.37021  0.67120  0.89685  1.0000
  S   S747      1.0  0.40757  0.68174  0.88112  1.0000
  Fe  Fe375     1.0  0.41235  0.58068  0.81613  1.0000
  S   S748      1.0  0.38881  0.59434  0.80594  1.0000
  S   S749      1.0  0.42559  0.59004  0.83080  1.0000
  Fe  Fe376     1.0  0.41266  0.54758  0.80791  1.0000
  S   S750      1.0  0.38907  0.55842  0.79739  1.0000
  S   S751      1.0  0.42461  0.51990  0.81045  1.0000
  Fe  Fe377     1.0  0.40116  0.58066  0.78460  1.0000
  S   S752      1.0  0.39863  0.59334  0.75780  1.0000
  Fe  Fe378     1.0  0.37897  0.57084  0.81947  1.0000
  S   S753      1.0  0.35157  0.57231  0.83344  1.0000
  S   S754      1.0  0.42571  0.56889  0.79361  1.0000
  S   S755      1.0  0.40159  0.55807  0.83114  1.0000
  Fe  Fe379     1.0  0.27683  0.56573  0.93958  1.0000
  S   S756      1.0  0.29702  0.54353  0.94794  1.0000
  H   H4387     1.0  0.46455  0.56979  0.78629  1.0000
  Fe  Fe380     1.0  0.29946  0.59049  0.93484  1.0000
  S   S757      1.0  0.32119  0.56999  0.94273  1.0000
  S   S758      1.0  0.30200  0.61774  0.92790  1.0000
  Fe  Fe381     1.0  0.31528  0.55603  0.92670  1.0000
  S   S759      1.0  0.33727  0.54025  0.91161  1.0000
  Fe  Fe382     1.0  0.30075  0.55967  0.96310  1.0000
  S   S760      1.0  0.29489  0.57727  0.91700  1.0000
  S   S761      1.0  0.27918  0.58107  0.95641  1.0000
  H   H4388     1.0  0.37244  0.91592  0.97081  1.0000
  H   H4389     1.0  0.36110  0.53859  0.79823  1.0000
  H   H4390     1.0  0.25732  0.50895  0.91918  1.0000
  C   C2551     1.0  0.34774  0.56288  0.85503  1.0000
  C   C2552     1.0  0.36085  0.55186  0.86256  1.0000
  C   C2553     1.0  0.35750  0.54471  0.87990  1.0000
  C   C2554     1.0  0.34110  0.54885  0.88983  1.0000
  C   C2555     1.0  0.32796  0.55978  0.88227  1.0000
  C   C2556     1.0  0.33124  0.56666  0.86489  1.0000
  H   H4391     1.0  0.37355  0.54882  0.85507  1.0000
  H   H4392     1.0  0.36770  0.53619  0.88568  1.0000
  H   H4393     1.0  0.31520  0.56279  0.88972  1.0000
  H   H4394     1.0  0.32102  0.57513  0.85910  1.0000
  C   C2557     1.0  0.35031  0.62902  0.93479  1.0000
  C   C2558     1.0  0.34020  0.64079  0.92419  1.0000
  C   C2559     1.0  0.32537  0.63723  0.92223  1.0000
  C   C2560     1.0  0.32060  0.62186  0.93077  1.0000
  C   C2561     1.0  0.33052  0.61026  0.94166  1.0000
  C   C2562     1.0  0.34529  0.61385  0.94369  1.0000
  H   H4395     1.0  0.34370  0.65270  0.91760  1.0000
  H   H4396     1.0  0.31762  0.64640  0.91400  1.0000
  H   H4397     1.0  0.32663  0.59872  0.94889  1.0000
  H   H4398     1.0  0.35285  0.60481  0.95215  1.0000
  C   C2563     1.0  0.40151  0.64035  0.84766  1.0000
  C   C2564     1.0  0.39648  0.63695  0.83457  1.0000
  C   C2565     1.0  0.40353  0.62143  0.82951  1.0000
  C   C2566     1.0  0.41591  0.60935  0.83730  1.0000
  C   C2567     1.0  0.42097  0.61278  0.85037  1.0000
  C   C2568     1.0  0.41369  0.62816  0.85565  1.0000
  H   H4399     1.0  0.38713  0.64635  0.82828  1.0000
  H   H4400     1.0  0.39967  0.61900  0.81930  1.0000
  H   H4401     1.0  0.43058  0.60351  0.85642  1.0000
  H   H4402     1.0  0.41773  0.63068  0.86568  1.0000
  C   C2569     1.0  0.46237  0.70315  0.90104  1.0000
  C   C2570     1.0  0.44551  0.70430  0.90013  1.0000
  C   C2571     1.0  0.43973  0.68967  0.90174  1.0000
  C   C2572     1.0  0.45081  0.67380  0.90419  1.0000
  C   C2573     1.0  0.46765  0.67259  0.90526  1.0000
  C   C2574     1.0  0.47344  0.68727  0.90366  1.0000
  H   H4403     1.0  0.43687  0.71654  0.89831  1.0000
  H   H4404     1.0  0.42664  0.69069  0.90122  1.0000
  C   C2575     1.0  0.30229  0.49899  0.97965  1.0000
  S   S762      1.0  0.42900  0.92725  0.75924  1.0000
  C   C2576     1.0  0.42753  0.50389  0.76220  1.0000
  C   C2577     1.0  0.42751  0.52065  0.76170  1.0000
  C   C2578     1.0  0.42678  0.52558  0.77650  1.0000
  C   C2579     1.0  0.42667  0.51363  0.79171  1.0000
  C   C2580     1.0  0.42764  0.49667  0.79205  1.0000
  H   H4405     1.0  0.30860  0.53336  0.89812  1.0000
  H   H4406     1.0  0.42755  0.52996  0.74996  1.0000
  H   H4407     1.0  0.42616  0.53867  0.77617  1.0000
  H   H4408     1.0  0.43478  0.73850  0.97174  1.0000
  C   C2581     1.0  0.38440  0.53710  0.74970  1.0000
  H   H4409     1.0  0.38625  0.50851  0.73867  1.0000
  C   C2582     1.0  0.39794  0.75887  0.88882  1.0000
  C   C2583     1.0  0.38032  0.76157  0.89551  1.0000
  C   C2584     1.0  0.37191  0.74806  0.89994  1.0000
  C   C2585     1.0  0.38106  0.73181  0.89773  1.0000
  C   C2586     1.0  0.39868  0.72914  0.89105  1.0000
  C   C2587     1.0  0.40706  0.74266  0.88652  1.0000
  H   H4410     1.0  0.37318  0.77403  0.89729  1.0000
  H   H4411     1.0  0.35825  0.75024  0.90501  1.0000
  H   H4412     1.0  0.40584  0.71671  0.88923  1.0000
  H   H4413     1.0  0.42068  0.74054  0.88126  1.0000
  C   C2588     1.0  0.39741  0.82774  0.95393  1.0000
  C   C2589     1.0  0.39838  0.82275  0.97098  1.0000
  H   H4414     1.0  0.37765  0.65088  0.97315  1.0000
  H   H4415     1.0  0.27412  0.54026  0.88043  1.0000
  C   C2590     1.0  0.39736  0.85651  0.95443  1.0000
  C   C2591     1.0  0.39687  0.84468  0.94566  1.0000
  H   H4416     1.0  0.27597  0.94158  0.85019  1.0000
  N   N182      1.0  0.34511  0.89123  0.97070  1.0000
  H   H4417     1.0  0.39707  0.86956  0.94796  1.0000
  H   H4418     1.0  0.39625  0.84862  0.93248  1.0000
  C   C2592     1.0  0.33533  0.86611  0.89593  1.0000
  C   C2593     1.0  0.34045  0.86715  0.91002  1.0000
  C   C2594     1.0  0.33373  0.88163  0.91690  1.0000
  C   C2595     1.0  0.32210  0.89526  0.90957  1.0000
  C   C2596     1.0  0.31695  0.89421  0.89549  1.0000
  C   C2597     1.0  0.32344  0.87959  0.88878  1.0000
  H   H4419     1.0  0.34927  0.85663  0.91586  1.0000
  H   H4420     1.0  0.33755  0.88222  0.92792  1.0000
  H   H4421     1.0  0.30794  0.90459  0.88979  1.0000
  H   H4422     1.0  0.31935  0.87877  0.87797  1.0000
  C   C2598     1.0  0.40719  0.88419  0.81157  1.0000
  C   C2599     1.0  0.42064  0.88704  0.81666  1.0000
  C   C2600     1.0  0.42555  0.87713  0.83165  1.0000
  C   C2601     1.0  0.41691  0.86445  0.84178  1.0000
  C   C2602     1.0  0.40338  0.86173  0.83672  1.0000
  C   C2603     1.0  0.39863  0.87146  0.82161  1.0000
  H   H4423     1.0  0.42744  0.89670  0.80893  1.0000
  H   H4424     1.0  0.43603  0.87933  0.83545  1.0000
  H   H4425     1.0  0.39658  0.85209  0.84435  1.0000
  H   H4426     1.0  0.38821  0.86917  0.81779  1.0000
  C   C2604     1.0  0.35923  0.96868  0.81325  1.0000
  C   C2605     1.0  0.35221  0.96083  0.80492  1.0000
  C   C2606     1.0  0.33652  0.95597  0.81251  1.0000
  C   C2607     1.0  0.32758  0.95919  0.82837  1.0000
  C   C2608     1.0  0.33424  0.96767  0.83639  1.0000
  C   C2609     1.0  0.35008  0.97226  0.82891  1.0000
  H   H4427     1.0  0.35881  0.95851  0.79263  1.0000
  H   H4428     1.0  0.33137  0.94960  0.80614  1.0000
  H   H4429     1.0  0.36253  0.56327  0.74044  1.0000
  C   C2610     1.0  0.31268  0.52019  0.89632  1.0000
  H   H4430     1.0  0.47125  0.49688  0.74286  1.0000
  C   C2611     1.0  0.42799  0.49180  0.77730  1.0000
  H   H4431     1.0  0.26870  0.61948  0.96121  1.0000
  H   H4432     1.0  0.45453  0.66432  0.86942  1.0000
  C   C2612     1.0  0.46519  0.97177  0.79851  1.0000
  C   C2613     1.0  0.45899  0.96205  0.79129  1.0000
  C   C2614     1.0  0.46990  0.95413  0.77850  1.0000
  C   C2615     1.0  0.47717  0.52145  0.82674  1.0000
  C   C2616     1.0  0.46883  0.77792  0.88653  1.0000
  H   H4433     1.0  0.47462  0.56269  0.82767  1.0000
  H   H4434     1.0  0.44598  0.96028  0.79593  1.0000
  H   H4435     1.0  0.43997  0.78873  0.87529  1.0000
  H   H4436     1.0  0.48174  0.66301  0.87311  1.0000
  H   H4437     1.0  0.32981  0.89844  0.95176  1.0000
  H   H4438     1.0  0.24948  0.91883  0.86134  1.0000
  H   H4439     1.0  0.43349  0.65654  0.85958  1.0000
  H   H4440     1.0  0.47802  0.92356  0.82372  1.0000
  C   C2617     1.0  0.41893  0.88109  0.75485  1.0000
  H   H4441     1.0  0.34718  0.51316  0.81297  1.0000
  C   C2618     1.0  0.48668  0.95646  0.77253  1.0000
  C   C2619     1.0  0.34959  0.49179  0.85150  1.0000
  H   H4442     1.0  0.28223  0.95634  0.81323  1.0000
  H   H4443     1.0  0.37941  0.90324  0.76839  1.0000
  H   H4444     1.0  0.36033  0.88999  0.93548  1.0000
  H   H4445     1.0  0.27022  0.96881  0.83574  1.0000
  H   H4446     1.0  0.45691  0.97756  0.80869  1.0000
  H   H4447     1.0  0.39888  0.80966  0.97743  1.0000
  H   H4448     1.0  0.48088  0.62484  0.85807  1.0000
  H   H4449     1.0  0.48294  0.94628  0.82895  1.0000
  C   C2620     1.0  0.25626  0.96957  0.83751  1.0000
  H   H4450     1.0  0.45761  0.74492  0.86681  1.0000
  H   H4451     1.0  0.33922  0.52163  0.83121  1.0000
  S   S763      1.0  0.49692  0.72894  0.92497  1.0000
  C   C2621     1.0  0.27370  0.53532  0.90815  1.0000
  H   H4452     1.0  0.45781  0.77250  0.89465  1.0000
  H   H4453     1.0  0.43637  0.72150  0.95244  1.0000
  H   H4454     1.0  0.28026  0.54101  0.91441  1.0000
  N   N183      1.0  0.28167  0.51668  0.90947  1.0000
  H   H4455     1.0  0.43044  0.88364  0.75715  1.0000
  N   N184      1.0  0.46767  0.78238  0.86824  1.0000
  H   H4456     1.0  0.27773  0.50667  0.95344  1.0000
  H   H4457     1.0  0.25293  0.97783  0.82558  1.0000
  C   C2622     1.0  0.44674  0.65511  0.85179  1.0000
  Fe  Fe383     1.0  0.29903  0.97446  0.88996  1.0000
  H   H4458     1.0  0.37867  0.49029  0.80158  1.0000
  H   H4459     1.0  0.47080  0.78761  0.90715  1.0000
  S   S764      1.0  0.49037  0.98475  0.80262  1.0000
  H   H4460     1.0  0.45741  0.64212  0.87339  1.0000
  S   S765      1.0  0.28395  0.95864  0.91172  1.0000
  Fe  Fe384     1.0  0.26795  0.96016  0.89352  1.0000
  H   H4461     1.0  0.48995  0.82862  0.95630  1.0000
  H   H4462     1.0  0.39688  0.87048  0.74372  1.0000
  C   C2623     1.0  0.29752  0.51319  0.89592  1.0000
  C   C2624     1.0  0.38206  0.50988  0.81257  1.0000
  H   H4463     1.0  0.27454  0.49328  0.91124  1.0000
  H   H4464     1.0  0.44919  0.64362  0.84673  1.0000
  N   N185      1.0  0.46928  0.54015  0.82411  1.0000
  H   H4465     1.0  0.47500  0.55740  0.74448  1.0000
  C   C2625     1.0  0.46943  0.76621  0.86277  1.0000
  N   N186      1.0  0.35973  0.60672  0.87675  1.0000
  C   C2626     1.0  0.37204  0.61339  0.88215  1.0000
  C   C2627     1.0  0.36708  0.58809  0.87740  1.0000
  C   C2628     1.0  0.34274  0.60932  0.88917  1.0000
  C   C2629     1.0  0.35799  0.61660  0.85923  1.0000
  C   C2630     1.0  0.36632  0.63206  0.88372  1.0000
  C   C2631     1.0  0.38410  0.58362  0.86478  1.0000
  C   C2632     1.0  0.33054  0.59778  0.89086  1.0000
  C   C2633     1.0  0.34758  0.61069  0.85024  1.0000
  H   H4466     1.0  0.37468  0.60570  0.89459  1.0000
  H   H4467     1.0  0.38463  0.61242  0.87312  1.0000
  H   H4468     1.0  0.35813  0.58177  0.87511  1.0000
  H   H4469     1.0  0.36906  0.58144  0.89032  1.0000
  H   H4470     1.0  0.34473  0.60736  0.90219  1.0000
  H   H4471     1.0  0.33540  0.62261  0.88618  1.0000
  H   H4472     1.0  0.35168  0.63005  0.85941  1.0000
  H   H4473     1.0  0.37071  0.61740  0.85072  1.0000
  H   H4474     1.0  0.37591  0.63508  0.88872  1.0000
  H   H4475     1.0  0.36575  0.64083  0.87132  1.0000
  H   H4476     1.0  0.35389  0.63468  0.89257  1.0000
  H   H4477     1.0  0.38294  0.58923  0.85151  1.0000
  H   H4478     1.0  0.39483  0.58728  0.86733  1.0000
  H   H4479     1.0  0.38772  0.56968  0.86606  1.0000
  H   H4480     1.0  0.31785  0.60271  0.89843  1.0000
  H   H4481     1.0  0.33519  0.58474  0.89778  1.0000
  H   H4482     1.0  0.32841  0.59736  0.87865  1.0000
  H   H4483     1.0  0.33380  0.61686  0.85318  1.0000
  H   H4484     1.0  0.34896  0.59688  0.85315  1.0000
  H   H4485     1.0  0.35250  0.61401  0.83638  1.0000
  H   H4486     1.0  0.40700  0.63598  0.98022  1.0000
  H   H4487     1.0  0.33509  0.91571  0.95547  1.0000
  C   C2634     1.0  0.26250  0.92145  0.85661  1.0000
  H   H4488     1.0  0.46804  0.54815  0.85670  1.0000
  H   H4489     1.0  0.27234  0.51077  0.88128  1.0000
  S   S766      1.0  0.46350  0.94043  0.77032  1.0000
  S   S767      1.0  0.39796  0.86668  0.98253  1.0000
  H   H4490     1.0  0.27720  0.63844  0.95438  1.0000
  C   C2635     1.0  0.47070  0.54697  0.80536  1.0000
  H   H4491     1.0  0.46227  0.54198  0.80057  1.0000
  C   C2636     1.0  0.26207  0.51188  0.89271  1.0000
  H   H4492     1.0  0.32639  0.51383  0.95423  1.0000
  Fe  Fe385     1.0  0.41012  0.95105  0.75158  1.0000
  H   H4493     1.0  0.42844  0.56541  0.75491  1.0000
  H   H4494     1.0  0.34728  0.50153  0.85885  1.0000
  H   H4495     1.0  0.47652  0.63444  0.88939  1.0000
  C   C2637     1.0  0.47004  0.51122  0.81867  1.0000
  C   C2638     1.0  0.35507  0.90258  0.93872  1.0000
  H   H4496     1.0  0.35432  0.90816  0.75506  1.0000
  C   C2639     1.0  0.35094  0.51816  0.95194  1.0000
  C   C2640     1.0  0.26719  0.63221  0.96352  1.0000
  C   C2641     1.0  0.47966  0.54876  0.82992  1.0000
  C   C2642     1.0  0.26735  0.63172  0.98191  1.0000
  C   C2643     1.0  0.48162  0.50073  0.74583  1.0000
  H   H4497     1.0  0.29499  0.49667  0.92678  1.0000
  H   H4498     1.0  0.29529  0.51722  0.92790  1.0000
  H   H4499     1.0  0.48644  0.68628  0.90444  1.0000
  C   C2644     1.0  0.36067  0.89527  0.76082  1.0000
  H   H4500     1.0  0.45604  0.71789  0.93724  1.0000
  C   C2645     1.0  0.28699  0.50968  0.92624  1.0000
  H   H4501     1.0  0.35207  0.54680  0.81719  1.0000
  H   H4502     1.0  0.48155  0.79314  0.84368  1.0000
  H   H4503     1.0  0.47744  0.63642  0.83795  1.0000
  C   C2646     1.0  0.27425  0.54660  0.89022  1.0000
  H   H4504     1.0  0.38924  0.53969  0.77274  1.0000
  N   N187      1.0  0.37347  0.71942  0.84780  1.0000
  C   C2647     1.0  0.38590  0.70446  0.84153  1.0000
  C   C2648     1.0  0.36201  0.71234  0.86393  1.0000
  C   C2649     1.0  0.38371  0.72962  0.85171  1.0000
  C   C2650     1.0  0.36385  0.72974  0.83423  1.0000
  C   C2651     1.0  0.40020  0.70847  0.82594  1.0000
  C   C2652     1.0  0.35124  0.70079  0.86232  1.0000
  C   C2653     1.0  0.37363  0.74595  0.85778  1.0000
  C   C2654     1.0  0.34629  0.74135  0.83987  1.0000
  H   H4505     1.0  0.39232  0.69585  0.85167  1.0000
  H   H4506     1.0  0.37908  0.69665  0.83806  1.0000
  H   H4507     1.0  0.35309  0.72231  0.87023  1.0000
  H   H4508     1.0  0.36983  0.70477  0.87335  1.0000
  H   H4509     1.0  0.39106  0.72165  0.86145  1.0000
  H   H4510     1.0  0.39333  0.73388  0.84041  1.0000
  H   H4511     1.0  0.37191  0.73781  0.82435  1.0000
  H   H4512     1.0  0.36127  0.72120  0.82761  1.0000
  H   H4513     1.0  0.40667  0.69665  0.82128  1.0000
  H   H4514     1.0  0.39520  0.71792  0.81541  1.0000
  H   H4515     1.0  0.41023  0.71264  0.82918  1.0000
  H   H4516     1.0  0.34430  0.70645  0.85193  1.0000
  H   H4517     1.0  0.35926  0.68818  0.86063  1.0000
  H   H4518     1.0  0.34155  0.69852  0.87425  1.0000
  H   H4519     1.0  0.38264  0.75158  0.86100  1.0000
  H   H4520     1.0  0.36363  0.74366  0.86936  1.0000
  H   H4521     1.0  0.36809  0.75560  0.84768  1.0000
  H   H4522     1.0  0.34514  0.75365  0.83061  1.0000
  H   H4523     1.0  0.34400  0.74437  0.85234  1.0000
  H   H4524     1.0  0.33566  0.73589  0.83958  1.0000
  N   N188      1.0  0.42338  0.75456  0.93617  1.0000
  C   C2655     1.0  0.41102  0.74869  0.92998  1.0000
  C   C2656     1.0  0.44082  0.74349  0.93141  1.0000
  C   C2657     1.0  0.42365  0.77258  0.92684  1.0000
  C   C2658     1.0  0.41728  0.75346  0.95495  1.0000
  C   C2659     1.0  0.39246  0.75922  0.93215  1.0000
  C   C2660     1.0  0.44228  0.72435  0.93883  1.0000
  C   C2661     1.0  0.43546  0.78123  0.93124  1.0000
  C   C2662     1.0  0.43090  0.75182  0.96504  1.0000
  H   H4525     1.0  0.41574  0.74832  0.91635  1.0000
  H   H4526     1.0  0.41001  0.73551  0.93665  1.0000
  H   H4527     1.0  0.45098  0.74712  0.93491  1.0000
  H   H4528     1.0  0.44479  0.74518  0.91744  1.0000
  H   H4529     1.0  0.42721  0.77337  0.91295  1.0000
  H   H4530     1.0  0.41071  0.78092  0.92929  1.0000
  H   H4531     1.0  0.40693  0.76469  0.95750  1.0000
  H   H4532     1.0  0.41139  0.74225  0.96090  1.0000
  H   H4533     1.0  0.39150  0.77130  0.92261  1.0000
  H   H4534     1.0  0.33743  0.49247  0.84802  1.0000
  H   H4535     1.0  0.37862  0.49924  0.85837  1.0000
  H   H4536     1.0  0.26902  0.91609  0.84530  1.0000
  H   H4537     1.0  0.49741  0.79879  0.96532  1.0000
  H   H4538     1.0  0.49419  0.90673  0.84310  1.0000
  H   H4539     1.0  0.43075  0.78336  0.94428  1.0000
  H   H4540     1.0  0.43508  0.79402  0.92293  1.0000
  H   H4541     1.0  0.44901  0.77437  0.92924  1.0000
  H   H4542     1.0  0.44242  0.75665  0.95771  1.0000
  H   H4543     1.0  0.45266  0.52965  0.85888  1.0000
  C   C2663     1.0  0.44479  0.53182  0.84954  1.0000
  C   C2664     1.0  0.44690  0.79960  0.84865  1.0000
  H   H4544     1.0  0.35508  0.51098  0.94174  1.0000
  S   S768      1.0  0.28172  0.97795  0.87250  1.0000
  H   H4545     1.0  0.45506  0.80826  0.84006  1.0000
  H   H4546     1.0  0.39191  0.93184  0.74237  1.0000
  H   H4547     1.0  0.49048  0.92302  0.97450  1.0000
  C   C2665     1.0  0.49633  0.94231  0.83066  1.0000
  H   H4548     1.0  0.49260  0.89772  0.80080  1.0000
  H   H4549     1.0  0.43341  0.80679  0.84946  1.0000
  H   H4550     1.0  0.35596  0.63542  0.97375  1.0000
  H   H4551     1.0  0.44694  0.55694  0.83548  1.0000
  H   H4552     1.0  0.47377  0.49753  0.82429  1.0000
  C   C2666     1.0  0.37948  0.89417  0.76090  1.0000
  H   H4553     1.0  0.45842  0.68701  0.84755  1.0000
  H   H4554     1.0  0.45375  0.57207  0.80733  1.0000
  H   H4555     1.0  0.45709  0.80239  0.89435  1.0000
  C   C2667     1.0  0.45921  0.65341  0.86308  1.0000
  H   H4556     1.0  0.49127  0.51929  0.82153  1.0000
  H   H4557     1.0  0.49680  0.93455  0.84353  1.0000
  H   H4558     1.0  0.44829  0.78872  0.84304  1.0000
  Fe  Fe386     1.0  0.49510  0.71946  0.90334  1.0000
  C   C2668     1.0  0.35080  0.53840  0.80977  1.0000
  H   H4559     1.0  0.37071  0.51193  0.79108  1.0000
  H   H4560     1.0  0.35539  0.97829  0.83543  1.0000
  C   C2669     1.0  0.45393  0.75771  0.86972  1.0000
  H   H4561     1.0  0.45592  0.51472  0.82076  1.0000
  H   H4562     1.0  0.44966  0.80626  0.87018  1.0000
  H   H4563     1.0  0.44952  0.75598  0.88358  1.0000
  H   H4564     1.0  0.26262  0.52098  0.94174  1.0000
  H   H4565     1.0  0.34019  0.87035  0.96353  1.0000
  H   H4566     1.0  0.48992  0.54945  0.85062  1.0000
  C   C2670     1.0  0.48175  0.79105  0.85724  1.0000
  H   H4567     1.0  0.25493  0.93425  0.82535  1.0000
  H   H4568     1.0  0.47074  0.90698  0.80815  1.0000
  N   N189      1.0  0.36452  0.90813  0.85559  1.0000
  C   C2671     1.0  0.36618  0.92386  0.84198  1.0000
  C   C2672     1.0  0.35263  0.91334  0.87121  1.0000
  C   C2673     1.0  0.35719  0.89628  0.85042  1.0000
  C   C2674     1.0  0.38204  0.89906  0.85874  1.0000
  C   C2675     1.0  0.37640  0.92094  0.82440  1.0000
  C   C2676     1.0  0.35979  0.92226  0.88062  1.0000
  C   C2677     1.0  0.33985  0.90400  0.84510  1.0000
  C   C2678     1.0  0.38274  0.88299  0.87294  1.0000
  H   H4569     1.0  0.35338  0.93187  0.84049  1.0000
  H   H4570     1.0  0.37258  0.93198  0.84550  1.0000
  H   H4571     1.0  0.34832  0.90232  0.88045  1.0000
  H   H4572     1.0  0.34062  0.92207  0.86814  1.0000
  H   H4573     1.0  0.36637  0.89076  0.83996  1.0000
  H   H4574     1.0  0.35522  0.88514  0.86095  1.0000
  H   H4575     1.0  0.39037  0.89471  0.84732  1.0000
  H   H4576     1.0  0.38900  0.90761  0.86085  1.0000
  H   H4577     1.0  0.37048  0.91390  0.81904  1.0000
  H   H4578     1.0  0.37677  0.93336  0.81556  1.0000
  H   H4579     1.0  0.38992  0.91454  0.82446  1.0000
  H   H4580     1.0  0.37083  0.91384  0.88580  1.0000
  H   H4581     1.0  0.36334  0.93412  0.87254  1.0000
  H   H4582     1.0  0.34968  0.92573  0.89158  1.0000
  H   H4583     1.0  0.34069  0.91448  0.83381  1.0000
  H   H4584     1.0  0.32966  0.90846  0.85551  1.0000
  H   H4585     1.0  0.33572  0.89404  0.84181  1.0000
  H   H4586     1.0  0.38296  0.87185  0.86817  1.0000
  H   H4587     1.0  0.37199  0.88402  0.88399  1.0000
  H   H4588     1.0  0.39451  0.88061  0.87784  1.0000
  H   H4589     1.0  0.49307  0.54679  0.82251  1.0000
  C   C2679     1.0  0.33343  0.51530  0.96302  1.0000
  H   H4590     1.0  0.47591  0.69414  0.83216  1.0000
  C   C2680     1.0  0.26894  0.50713  0.90897  1.0000
  H   H4591     1.0  0.41668  0.90283  0.73435  1.0000
  H   H4592     1.0  0.39859  0.61349  0.98058  1.0000
  H   H4593     1.0  0.25364  0.52471  0.89127  1.0000
  N   N190      1.0  0.33340  0.50068  0.97809  1.0000
  H   H4594     1.0  0.41179  0.87539  0.76730  1.0000
  H   H4595     1.0  0.48955  0.53770  0.74916  1.0000
  H   H4596     1.0  0.32723  0.97071  0.84836  1.0000
  H   H4597     1.0  0.48273  0.89340  0.82317  1.0000
  C   C2681     1.0  0.45061  0.54403  0.83283  1.0000
  H   H4598     1.0  0.25403  0.50292  0.89364  1.0000
  H   H4599     1.0  0.47583  0.51532  0.84032  1.0000
  H   H4600     1.0  0.48058  0.75650  0.86669  1.0000
  H   H4601     1.0  0.31095  0.91509  0.97632  1.0000
  C   C2682     1.0  0.39817  0.85151  0.97155  1.0000
  C   C2683     1.0  0.27237  0.50900  0.94211  1.0000
  H   H4602     1.0  0.37330  0.53223  0.83130  1.0000
  H   H4603     1.0  0.37794  0.55900  0.76179  1.0000
  C   C2684     1.0  0.35045  0.52039  0.82046  1.0000
  H   H4604     1.0  0.40061  0.55161  0.75441  1.0000
  H   H4605     1.0  0.26615  0.49834  0.94391  1.0000
  C   C2685     1.0  0.26239  0.94044  0.85343  1.0000
  H   H4606     1.0  0.39342  0.50136  0.81725  1.0000
  H   H4607     1.0  0.35699  0.52460  0.84727  1.0000
  H   H4608     1.0  0.34971  0.53184  0.94594  1.0000
  C   C2686     1.0  0.47258  0.68447  0.84373  1.0000
  N   N191      1.0  0.36647  0.51096  0.82682  1.0000
  H   H4609     1.0  0.28586  0.93450  0.82446  1.0000
  C   C2687     1.0  0.39331  0.88302  0.73529  1.0000
  H   H4610     1.0  0.32566  0.62500  0.97494  1.0000
  C   C2688     1.0  0.41266  0.58562  0.74039  1.0000
  H   H4611     1.0  0.49318  0.57704  0.75931  1.0000
  H   H4612     1.0  0.35938  0.88595  0.75442  1.0000
  H   H4613     1.0  0.32224  0.52004  0.88421  1.0000
  H   H4614     1.0  0.44305  0.76485  0.86365  1.0000
  H   H4615     1.0  0.47608  0.51037  0.75367  1.0000
  C   C2689     1.0  0.46596  0.56643  0.79959  1.0000
  C   C2690     1.0  0.48409  0.63586  0.84794  1.0000
  C   C2691     1.0  0.36917  0.52027  0.83852  1.0000
  H   H4616     1.0  0.47550  0.51296  0.80492  1.0000
  C   C2692     1.0  0.46920  0.79267  0.89393  1.0000
  C   C2693     1.0  0.38829  0.54764  0.76001  1.0000
  H   H4617     1.0  0.25193  0.95555  0.81430  1.0000
  H   H4618     1.0  0.44457  0.51946  0.84741  1.0000
  H   H4619     1.0  0.26278  0.55719  0.89066  1.0000
  H   H4620     1.0  0.37030  0.92897  0.75200  1.0000
  H   H4621     1.0  0.36117  0.51520  0.95898  1.0000
  C   C2694     1.0  0.38516  0.61652  0.97927  1.0000
  C   C2695     1.0  0.48736  0.55149  0.74842  1.0000
  H   H4622     1.0  0.31936  0.51213  0.90645  1.0000
  C   C2696     1.0  0.48220  0.97363  0.79285  1.0000
  H   H4623     1.0  0.44210  0.54438  0.82450  1.0000
  H   H4624     1.0  0.49638  0.62458  0.87700  1.0000
  C   C2697     1.0  0.48027  0.66672  0.83975  1.0000
  C   C2698     1.0  0.45068  0.79424  0.86650  1.0000
  C   C2699     1.0  0.35929  0.91348  0.97482  1.0000
  H   H4625     1.0  0.30118  0.62490  0.96440  1.0000
  H   H4626     1.0  0.35347  0.89235  0.77408  1.0000
  C   C2700     1.0  0.35000  0.87314  0.96852  1.0000
  H   H4627     1.0  0.29496  0.51815  0.88308  1.0000
  H   H4628     1.0  0.37235  0.89084  0.96537  1.0000
  H   H4629     1.0  0.26008  0.53716  0.91510  1.0000
  C   C2701     1.0  0.38046  0.59950  0.98117  1.0000
  H   H4630     1.0  0.49070  0.60570  0.75321  1.0000
  S   S769      1.0  0.32465  0.48917  0.81992  1.0000
  C   C2702     1.0  0.48050  0.54339  0.84867  1.0000
  S   S770      1.0  0.42606  0.49857  0.74405  1.0000
  C   C2703     1.0  0.48359  0.90315  0.81131  1.0000
  N   N192      1.0  0.47784  0.65198  0.85443  1.0000
  H   H4631     1.0  0.46483  0.49379  0.77736  1.0000
  C   C2704     1.0  0.49271  0.96633  0.77956  1.0000
  H   H4632     1.0  0.26979  0.91440  0.86659  1.0000
  H   H4633     1.0  0.36554  0.90759  0.94007  1.0000
  H   H4634     1.0  0.34998  0.91114  0.92775  1.0000
  H   H4635     1.0  0.47620  0.66032  0.90735  1.0000
  H   H4636     1.0  0.30133  0.50805  0.96750  1.0000
  H   H4637     1.0  0.47499  0.66601  0.82925  1.0000
  H   H4638     1.0  0.32608  0.52745  0.96670  1.0000
  H   H4639     1.0  0.44686  0.66643  0.84135  1.0000
  H   H4640     1.0  0.26592  0.64505  0.98270  1.0000
  C   C2705     1.0  0.42622  0.57159  0.74243  1.0000
  H   H4641     1.0  0.49742  0.90070  0.97678  1.0000
  H   H4642     1.0  0.38402  0.88144  0.76852  1.0000
  H   H4643     1.0  0.42357  0.87173  0.74670  1.0000
  H   H4644     1.0  0.48636  0.55301  0.76131  1.0000
  C   C2706     1.0  0.36430  0.49327  0.83568  1.0000
  H   H4645     1.0  0.48033  0.76776  0.88873  1.0000
  H   H4646     1.0  0.47789  0.68647  0.85357  1.0000
  H   H4647     1.0  0.38716  0.76180  0.94497  1.0000
  H   H4648     1.0  0.48392  0.54260  0.79831  1.0000
  H   H4649     1.0  0.28074  0.94008  0.80418  1.0000
  C   C2707     1.0  0.34038  0.90232  0.95453  1.0000
  C   C2708     1.0  0.36028  0.89504  0.97434  1.0000
  H   H4650     1.0  0.48663  0.92882  0.80187  1.0000
  C   C2709     1.0  0.48822  0.91883  0.81341  1.0000
  H   H4651     1.0  0.39540  0.50645  0.84117  1.0000
  C   C2710     1.0  0.29853  0.62711  0.97737  1.0000
  H   H4652     1.0  0.40657  0.90702  0.75452  1.0000
  H   H4653     1.0  0.29000  0.60113  0.97357  1.0000
  H   H4654     1.0  0.38418  0.51872  0.85659  1.0000
  H   H4655     1.0  0.37161  0.53421  0.75625  1.0000
  C   C2711     1.0  0.48921  0.63626  0.88153  1.0000
  C   C2712     1.0  0.38265  0.51040  0.84916  1.0000
  H   H4656     1.0  0.36876  0.60129  0.97638  1.0000
  H   H4657     1.0  0.36217  0.87089  0.95903  1.0000
  N   N193      1.0  0.39139  0.89720  0.74385  1.0000
  H   H4658     1.0  0.35165  0.49639  0.79153  1.0000
  H   H4659     1.0  0.47620  0.57240  0.79989  1.0000
  H   H4660     1.0  0.35204  0.92306  0.96599  1.0000
  H   H4661     1.0  0.30223  0.49929  0.89680  1.0000
  S   S771      1.0  0.25351  0.55643  0.94087  1.0000
  H   H4662     1.0  0.39096  0.59166  0.97341  1.0000
  H   H4663     1.0  0.38413  0.75208  0.92997  1.0000
  C   C2713     1.0  0.38028  0.92955  0.74020  1.0000
  N   N194      1.0  0.25278  0.95218  0.84042  1.0000
  H   H4664     1.0  0.47429  0.58554  0.73990  1.0000
  H   H4665     1.0  0.29638  0.64108  0.97543  1.0000
  H   H4666     1.0  0.48375  0.49219  0.78432  1.0000
  H   H4667     1.0  0.38569  0.52236  0.80726  1.0000
  H   H4668     1.0  0.49508  0.95055  0.76247  1.0000
  H   H4669     1.0  0.48496  0.52958  0.85293  1.0000
  H   H4670     1.0  0.38565  0.62333  0.96586  1.0000
  H   H4671     1.0  0.34975  0.57596  0.98318  1.0000
  H   H4672     1.0  0.25705  0.94412  0.86578  1.0000
  C   C2714     1.0  0.25861  0.94640  0.82400  1.0000
  H   H4673     1.0  0.42501  0.75915  0.97511  1.0000
  H   H4674     1.0  0.49643  0.63809  0.88995  1.0000
  H   H4675     1.0  0.25009  0.97190  0.86405  1.0000
  H   H4676     1.0  0.25142  0.50932  0.84288  1.0000
  H   H4677     1.0  0.28536  0.55278  0.88623  1.0000
  C   C2715     1.0  0.39872  0.83458  0.97977  1.0000
  H   H4678     1.0  0.35729  0.84674  0.98093  1.0000
  H   H4679     1.0  0.31922  0.60535  0.98370  1.0000
  C   C2716     1.0  0.31527  0.61903  0.98371  1.0000
  H   H4680     1.0  0.35802  0.49921  0.98360  1.0000
  H   H4681     1.0  0.39916  0.65694  0.98350  1.0000
  H   H4682     1.0  0.60539  0.01250  0.12469  1.0000
  C   C2717     1.0  0.57373  0.05818  0.23276  1.0000
  H   H4683     1.0  0.58976  0.14961  0.01770  1.0000
  C   C2718     1.0  0.61163  0.40040  0.99763  1.0000
  N   N195      1.0  0.72289  0.04958  0.06307  1.0000
  H   H4684     1.0  0.51978  0.30285  0.02386  1.0000
  H   H4685     1.0  0.57063  0.47322  0.04481  1.0000
  C   C2719     1.0  0.50960  0.27197  0.03489  1.0000
  H   H4686     1.0  0.66314  0.48436  0.08558  1.0000
  H   H4687     1.0  0.50053  0.38903  0.21283  1.0000
  H   H4688     1.0  0.60637  0.04793  0.09532  1.0000
  Fe  Fe387     1.0  0.53176  0.11952  0.18183  1.0000
  S   S772      1.0  0.53212  0.09977  0.16840  1.0000
  S   S773      1.0  0.52984  0.14725  0.16984  1.0000
  Fe  Fe388     1.0  0.53295  0.09451  0.21566  1.0000
  S   S774      1.0  0.53381  0.07278  0.20463  1.0000
  C   C2720     1.0  0.52381  0.46710  0.23330  1.0000
  Fe  Fe389     1.0  0.55238  0.08401  0.18258  1.0000
  S   S775      1.0  0.57462  0.06662  0.16950  1.0000
  C   C2721     1.0  0.57687  0.39800  0.98715  1.0000
  S   S776      1.0  0.68295  0.46854  0.01065  1.0000
  S   S777      1.0  0.55344  0.10435  0.19465  1.0000
  H   H4689     1.0  0.52036  0.46980  0.09479  1.0000
  Fe  Fe390     1.0  0.52395  0.22116  0.04645  1.0000
  S   S778      1.0  0.54324  0.23386  0.04903  1.0000
  S   S779      1.0  0.51267  0.22970  0.02331  1.0000
  Fe  Fe391     1.0  0.52194  0.19917  0.08201  1.0000
  S   S780      1.0  0.54076  0.21038  0.08774  1.0000
  S   S781      1.0  0.54960  0.99935  0.12467  1.0000
  Fe  Fe392     1.0  0.52683  0.23551  0.07473  1.0000
  S   S782      1.0  0.51544  0.25989  0.08415  1.0000
  Fe  Fe393     1.0  0.55545  0.20773  0.06156  1.0000
  S   S783      1.0  0.58410  0.19806  0.05577  1.0000
  S   S784      1.0  0.50668  0.22435  0.07132  1.0000
  S   S785      1.0  0.53748  0.19498  0.05664  1.0000
  Fe  Fe394     1.0  0.67277  0.10369  0.06655  1.0000
  S   S786      1.0  0.66092  0.09259  0.05229  1.0000
  S   S787      1.0  0.69767  0.11131  0.05158  1.0000
  Fe  Fe395     1.0  0.64423  0.09901  0.09816  1.0000
  S   S788      1.0  0.63073  0.08710  0.08639  1.0000
  S   S789      1.0  0.63299  0.10466  0.12412  1.0000
  Fe  Fe396     1.0  0.65701  0.07303  0.07617  1.0000
  S   S790      1.0  0.66562  0.04506  0.07685  1.0000
  Fe  Fe397     1.0  0.63591  0.10792  0.06378  1.0000
  S   S791      1.0  0.61403  0.12141  0.05076  1.0000
  S   S792      1.0  0.67027  0.08314  0.08992  1.0000
  S   S793      1.0  0.64793  0.12079  0.07605  1.0000
  Fe  Fe398     1.0  0.52057  0.45561  0.14794  1.0000
  S   S794      1.0  0.54284  0.43762  0.15758  1.0000
  H   H4690     1.0  0.66731  0.47932  0.06571  1.0000
  Fe  Fe399     1.0  0.53170  0.44732  0.18147  1.0000
  C   C2722     1.0  0.56310  0.48444  0.22668  1.0000
  Fe  Fe400     1.0  0.55515  0.46004  0.14839  1.0000
  S   S795      1.0  0.58226  0.45433  0.13359  1.0000
  Fe  Fe401     1.0  0.65564  0.46525  0.02047  1.0000
  H   H4691     1.0  0.57263  0.17651  0.99072  1.0000
  Fe  Fe402     1.0  0.62916  0.44312  0.03383  1.0000
  S   S796      1.0  0.60751  0.46510  0.02857  1.0000
  S   S797      1.0  0.62392  0.41707  0.04631  1.0000
  C   C2723     1.0  0.60609  0.41877  0.98827  1.0000
  H   H4692     1.0  0.72748  0.09429  0.00139  1.0000
  S   S798      1.0  0.64085  0.45610  0.04653  1.0000
  Fe  Fe403     1.0  0.53137  0.37169  0.09075  1.0000
  S   S799      1.0  0.52162  0.39253  0.07047  1.0000
  S   S800      1.0  0.52997  0.37556  0.11668  1.0000
  Fe  Fe404     1.0  0.54290  0.34572  0.06844  1.0000
  S   S801      1.0  0.53451  0.36482  0.04618  1.0000
  S   S802      1.0  0.55580  0.31904  0.06503  1.0000
  Fe  Fe405     1.0  0.54588  0.38244  0.05335  1.0000
  S   S803      1.0  0.55833  0.40229  0.03389  1.0000
  H   H4693     1.0  0.59140  0.20881  0.01748  1.0000
  H   H4694     1.0  0.72582  0.09386  0.09973  1.0000
  S   S804      1.0  0.55658  0.36272  0.07401  1.0000
  H   H4695     1.0  0.51768  0.02562  0.16442  1.0000
  H   H4696     1.0  0.56702  0.00859  0.19195  1.0000
  H   H4697     1.0  0.51786  0.23810  0.98719  1.0000
  C   C2724     1.0  0.55700  0.01768  0.19863  1.0000
  C   C2725     1.0  0.53927  0.04273  0.17145  1.0000
  C   C2726     1.0  0.71526  0.46553  0.04794  1.0000
  H   H4698     1.0  0.60080  0.39608  0.00735  1.0000
  C   C2727     1.0  0.71157  0.03701  0.07112  1.0000
  H   H4699     1.0  0.69379  0.05862  0.04606  1.0000
  C   C2728     1.0  0.69547  0.46672  0.02514  1.0000
  C   C2729     1.0  0.71109  0.47195  0.01928  1.0000
  H   H4700     1.0  0.59922  0.11942  0.09080  1.0000
  C   C2730     1.0  0.60584  0.41282  0.04264  1.0000
  C   C2731     1.0  0.59537  0.42516  0.03281  1.0000
  C   C2732     1.0  0.58066  0.42186  0.03049  1.0000
  C   C2733     1.0  0.57644  0.40609  0.03776  1.0000
  C   C2734     1.0  0.58702  0.39356  0.04736  1.0000
  C   C2735     1.0  0.60172  0.39693  0.04979  1.0000
  H   H4701     1.0  0.59871  0.43716  0.02672  1.0000
  H   H4702     1.0  0.57258  0.43153  0.02294  1.0000
  H   H4703     1.0  0.58408  0.38118  0.05259  1.0000
  H   H4704     1.0  0.61003  0.38715  0.05701  1.0000
  C   C2736     1.0  0.58099  0.05725  0.21410  1.0000
  H   H4705     1.0  0.53024  0.38681  0.21500  1.0000
  H   H4706     1.0  0.53794  0.06445  0.15046  1.0000
  H   H4707     1.0  0.57413  0.41858  0.99889  1.0000
  H   H4708     1.0  0.52321  0.46636  0.20809  1.0000
  C   C2737     1.0  0.51557  0.42918  0.12633  1.0000
  H   H4709     1.0  0.55604  0.98950  0.18468  1.0000
  C   C2738     1.0  0.59668  0.48328  0.07916  1.0000
  C   C2739     1.0  0.52492  0.39634  0.11998  1.0000
  C   C2740     1.0  0.52451  0.39880  0.13588  1.0000
  C   C2741     1.0  0.52006  0.41520  0.13900  1.0000
  H   H4710     1.0  0.50081  0.35511  0.01181  1.0000
  C   C2742     1.0  0.53029  0.47530  0.09650  1.0000
  H   H4711     1.0  0.52751  0.38797  0.14586  1.0000
  H   H4712     1.0  0.51948  0.41696  0.15138  1.0000
  C   C2743     1.0  0.58727  0.46564  0.11267  1.0000
  C   C2744     1.0  0.60610  0.46714  0.08485  1.0000
  C   C2745     1.0  0.60151  0.45843  0.10156  1.0000
  H   H4713     1.0  0.61703  0.46135  0.07645  1.0000
  H   H4714     1.0  0.60905  0.44604  0.10590  1.0000
  C   C2746     1.0  0.52678  0.27624  0.07858  1.0000
  C   C2747     1.0  0.51847  0.29179  0.08320  1.0000
  C   C2748     1.0  0.52708  0.30515  0.07884  1.0000
  C   C2749     1.0  0.54417  0.30295  0.07005  1.0000
  C   C2750     1.0  0.55240  0.28743  0.06535  1.0000
  C   C2751     1.0  0.54373  0.27416  0.06950  1.0000
  H   H4715     1.0  0.54682  0.01706  0.15401  1.0000
  H   H4716     1.0  0.52064  0.31702  0.08253  1.0000
  H   H4717     1.0  0.56563  0.28563  0.05859  1.0000
  H   H4718     1.0  0.55026  0.26224  0.06591  1.0000
  C   C2752     1.0  0.59216  0.17666  0.05466  1.0000
  C   C2753     1.0  0.60969  0.16977  0.05369  1.0000
  C   C2754     1.0  0.61648  0.15273  0.05276  1.0000
  C   C2755     1.0  0.60580  0.14258  0.05249  1.0000
  C   C2756     1.0  0.58834  0.14953  0.05316  1.0000
  C   C2757     1.0  0.58154  0.16649  0.05431  1.0000
  H   H4719     1.0  0.61804  0.17760  0.05375  1.0000
  H   H4720     1.0  0.63003  0.14756  0.05190  1.0000
  H   H4721     1.0  0.58005  0.14173  0.05292  1.0000
  H   H4722     1.0  0.56808  0.17160  0.05497  1.0000
  C   C2758     1.0  0.58561  0.12046  0.09757  1.0000
  S   S805      1.0  0.64621  0.44983  0.00841  1.0000
  C   C2759     1.0  0.55992  0.15857  0.09875  1.0000
  H   H4723     1.0  0.60018  0.42600  0.99834  1.0000
  H   H4724     1.0  0.58754  0.04106  0.08115  1.0000
  C   C2760     1.0  0.59138  0.07671  0.15741  1.0000
  C   C2761     1.0  0.60186  0.07114  0.14302  1.0000
  C   C2762     1.0  0.61491  0.07944  0.13295  1.0000
  C   C2763     1.0  0.61772  0.09316  0.13732  1.0000
  C   C2764     1.0  0.60769  0.09827  0.15209  1.0000
  C   C2765     1.0  0.59441  0.09022  0.16199  1.0000
  H   H4725     1.0  0.59969  0.06059  0.13952  1.0000
  H   H4726     1.0  0.62292  0.07521  0.12187  1.0000
  H   H4727     1.0  0.61004  0.10865  0.15575  1.0000
  H   H4728     1.0  0.58668  0.09437  0.17326  1.0000
  C   C2766     1.0  0.52493  0.15524  0.14972  1.0000
  C   C2767     1.0  0.52433  0.17239  0.14220  1.0000
  C   C2768     1.0  0.52018  0.17922  0.12629  1.0000
  C   C2769     1.0  0.51646  0.16894  0.11786  1.0000
  H   H4729     1.0  0.72665  0.02012  0.08973  1.0000
  C   C2770     1.0  0.52167  0.14486  0.14106  1.0000
  H   H4730     1.0  0.52694  0.18048  0.14878  1.0000
  H   H4731     1.0  0.51945  0.19254  0.12075  1.0000
  H   H4732     1.0  0.58353  0.04047  0.11089  1.0000
  H   H4733     1.0  0.51632  0.27701  0.00706  1.0000
  H   H4734     1.0  0.69539  0.45535  0.06711  1.0000
  H   H4735     1.0  0.66538  0.00092  0.04975  1.0000
  C   C2771     1.0  0.52868  0.19987  0.01305  1.0000
  H   H4736     1.0  0.59299  0.45349  0.98741  1.0000
  H   H4737     1.0  0.54118  0.17664  0.00466  1.0000
  H   H4738     1.0  0.52769  0.19394  0.02626  1.0000
  C   C2772     1.0  0.64725  0.02375  0.04234  1.0000
  C   C2773     1.0  0.64121  0.04087  0.04312  1.0000
  C   C2774     1.0  0.64734  0.04782  0.05310  1.0000
  C   C2775     1.0  0.65954  0.03762  0.06231  1.0000
  C   C2776     1.0  0.66618  0.02076  0.06087  1.0000
  C   C2777     1.0  0.66008  0.01386  0.05089  1.0000
  H   H4739     1.0  0.63140  0.04864  0.03640  1.0000
  H   H4740     1.0  0.64222  0.06089  0.05409  1.0000
  H   H4741     1.0  0.67582  0.01289  0.06776  1.0000
  S   S806      1.0  0.53339  0.47768  0.13747  1.0000
  H   H4742     1.0  0.58161  0.44492  0.05905  1.0000
  C   C2778     1.0  0.57763  0.48171  0.10698  1.0000
  C   C2779     1.0  0.59980  0.03676  0.07271  1.0000
  C   C2780     1.0  0.54976  0.01385  0.16677  1.0000
  C   C2781     1.0  0.68991  0.46062  0.04240  1.0000
  H   H4743     1.0  0.53302  0.27803  0.01669  1.0000
  H   H4744     1.0  0.72775  0.11444  0.98750  1.0000
  H   H4745     1.0  0.58213  0.22070  0.99944  1.0000
  C   C2782     1.0  0.73843  0.14606  0.07057  1.0000
  C   C2783     1.0  0.51741  0.15170  0.12520  1.0000
  C   C2784     1.0  0.73532  0.10403  0.99557  1.0000
  H   H4746     1.0  0.51671  0.26569  0.04520  1.0000
  S   S807      1.0  0.72647  0.46590  0.06276  1.0000
  H   H4747     1.0  0.73684  0.10865  0.00601  1.0000
  H   H4748     1.0  0.74119  0.04176  0.07938  1.0000
  H   H4749     1.0  0.57221  0.44817  0.99172  1.0000
  C   C2785     1.0  0.69978  0.46004  0.05375  1.0000
  C   C2786     1.0  0.71323  0.10134  0.07879  1.0000
  H   H4750     1.0  0.70069  0.10050  0.08668  1.0000
  H   H4751     1.0  0.55134  0.17133  0.09748  1.0000
  H   H4752     1.0  0.52982  0.47244  0.05909  1.0000
  H   H4753     1.0  0.69801  0.07904  0.03596  1.0000
  N   N196      1.0  0.58280  0.39131  0.10485  1.0000
  C   C2787     1.0  0.58968  0.37279  0.11169  1.0000
  C   C2788     1.0  0.59810  0.39885  0.09517  1.0000
  C   C2789     1.0  0.57178  0.39220  0.09295  1.0000
  C   C2790     1.0  0.57248  0.39929  0.11955  1.0000
  C   C2791     1.0  0.57625  0.36176  0.12021  1.0000
  C   C2792     1.0  0.61015  0.39964  0.10584  1.0000
  C   C2793     1.0  0.56462  0.40980  0.08294  1.0000
  C   C2794     1.0  0.56830  0.41884  0.11657  1.0000
  H   H4754     1.0  0.59870  0.36670  0.10147  1.0000
  H   H4755     1.0  0.59724  0.37123  0.12125  1.0000
  H   H4756     1.0  0.59448  0.41180  0.08782  1.0000
  H   H4757     1.0  0.60598  0.39167  0.08535  1.0000
  H   H4758     1.0  0.57895  0.38422  0.08360  1.0000
  H   H4759     1.0  0.56036  0.38691  0.09989  1.0000
  H   H4760     1.0  0.56004  0.39530  0.12446  1.0000
  H   H4761     1.0  0.57896  0.39442  0.13042  1.0000
  H   H4762     1.0  0.56610  0.36707  0.13016  1.0000
  H   H4763     1.0  0.57033  0.35965  0.11086  1.0000
  H   H4764     1.0  0.58272  0.34905  0.12636  1.0000
  H   H4765     1.0  0.60338  0.40675  0.11591  1.0000
  H   H4766     1.0  0.61695  0.38687  0.11138  1.0000
  H   H4767     1.0  0.62016  0.40643  0.09749  1.0000
  H   H4768     1.0  0.55678  0.40820  0.07494  1.0000
  H   H4769     1.0  0.57479  0.41597  0.07416  1.0000
  H   H4770     1.0  0.55589  0.41807  0.09128  1.0000
  H   H4771     1.0  0.55429  0.42388  0.11776  1.0000
  H   H4772     1.0  0.57482  0.42537  0.10435  1.0000
  H   H4773     1.0  0.57200  0.42277  0.12641  1.0000
  H   H4774     1.0  0.56060  0.03015  0.19476  1.0000
  H   H4775     1.0  0.62336  0.05285  0.11107  1.0000
  H   H4776     1.0  0.51269  0.43754  0.10056  1.0000
  H   H4777     1.0  0.57320  0.14870  0.00852  1.0000
  H   H4778     1.0  0.50430  0.04932  0.18060  1.0000
  C   C2795     1.0  0.55104  0.99460  0.17297  1.0000
  H   H4779     1.0  0.57640  0.02444  0.12743  1.0000
  H   H4780     1.0  0.55698  0.01292  0.21229  1.0000
  H   H4781     1.0  0.62743  0.17005  0.98817  1.0000
  H   H4782     1.0  0.50947  0.08280  0.16063  1.0000
  N   N197      1.0  0.58391  0.14232  0.11514  1.0000
  C   C2796     1.0  0.58883  0.14135  0.13139  1.0000
  C   C2797     1.0  0.59794  0.14824  0.10087  1.0000
  C   C2798     1.0  0.58280  0.12472  0.11493  1.0000
  C   C2799     1.0  0.56677  0.15440  0.11492  1.0000
  C   C2800     1.0  0.57650  0.13485  0.14780  1.0000
  C   C2801     1.0  0.59978  0.16647  0.09892  1.0000
  H   H4783     1.0  0.60183  0.13314  0.13177  1.0000
  H   H4784     1.0  0.58965  0.15397  0.13243  1.0000
  H   H4785     1.0  0.59629  0.14773  0.08845  1.0000
  H   H4786     1.0  0.61055  0.13954  0.10220  1.0000
  H   H4787     1.0  0.59254  0.11497  0.12121  1.0000
  H   H4788     1.0  0.57019  0.12195  0.12234  1.0000
  H   H4789     1.0  0.55671  0.14921  0.12514  1.0000
  H   H4790     1.0  0.56649  0.16650  0.11809  1.0000
  H   H4791     1.0  0.58240  0.13290  0.15870  1.0000
  H   H4792     1.0  0.56434  0.14433  0.14990  1.0000
  H   H4793     1.0  0.57375  0.12259  0.14813  1.0000
  H   H4794     1.0  0.58801  0.17594  0.09640  1.0000
  H   H4795     1.0  0.60353  0.16819  0.10986  1.0000
  H   H4796     1.0  0.61021  0.16932  0.08783  1.0000
  H   H4797     1.0  0.50537  0.29346  0.09023  1.0000
  C   C2802     1.0  0.50404  0.03588  0.18641  1.0000
  C   C2803     1.0  0.51934  0.39020  0.22541  1.0000
  C   C2804     1.0  0.50484  0.31596  0.04325  1.0000
  H   H4798     1.0  0.56683  0.46397  0.08803  1.0000
  H   H4799     1.0  0.59290  0.04734  0.21256  1.0000
  C   C2805     1.0  0.57766  0.41647  0.98581  1.0000
  C   C2806     1.0  0.58194  0.45085  0.06906  1.0000
  H   H4800     1.0  0.61092  0.18698  0.00972  1.0000
  H   H4801     1.0  0.73340  0.13555  0.06948  1.0000
  H   H4802     1.0  0.71970  0.07619  0.05085  1.0000
  C   C2807     1.0  0.74570  0.16339  0.09433  1.0000
  H   H4803     1.0  0.61642  0.15301  0.99939  1.0000
  H   H4804     1.0  0.71360  0.06092  0.03077  1.0000
  H   H4805     1.0  0.60688  0.04714  0.06759  1.0000
  Fe  Fe406     1.0  0.61985  0.47842  0.03997  1.0000
  Fe  Fe407     1.0  0.51358  0.09044  0.19173  1.0000
  C   C2808     1.0  0.74374  0.09887  0.07608  1.0000
  H   H4806     1.0  0.50635  0.18562  0.98773  1.0000
  H   H4807     1.0  0.56474  0.19878  0.00476  1.0000
  H   H4808     1.0  0.71304  0.04521  0.10011  1.0000
  H   H4809     1.0  0.71548  0.47665  0.00592  1.0000
  H   H4810     1.0  0.53568  0.00634  0.20165  1.0000
  C   C2809     1.0  0.56179  0.48142  0.05326  1.0000
  H   H4811     1.0  0.50112  0.08657  0.13351  1.0000
  H   H4812     1.0  0.59355  0.16407  0.98687  1.0000
  H   H4813     1.0  0.55559  0.03894  0.22560  1.0000
  H   H4814     1.0  0.53864  0.99111  0.17493  1.0000
  H   H4815     1.0  0.57190  0.00119  0.09181  1.0000
  H   H4816     1.0  0.72741  0.15457  0.07698  1.0000
  H   H4817     1.0  0.52157  0.40874  0.09483  1.0000
  H   H4818     1.0  0.55809  0.44767  0.08657  1.0000
  H   H4819     1.0  0.63982  0.47371  0.08347  1.0000
  H   H4820     1.0  0.58739  0.38853  0.99222  1.0000
  H   H4821     1.0  0.70133  0.07085  0.06546  1.0000
  H   H4822     1.0  0.50253  0.17183  0.06186  1.0000
  H   H4823     1.0  0.62141  0.39989  0.00460  1.0000
  H   H4824     1.0  0.57012  0.48738  0.05715  1.0000
  H   H4825     1.0  0.62904  0.98913  0.08674  1.0000
  C   C2810     1.0  0.52112  0.41041  0.10714  1.0000
  H   H4826     1.0  0.74328  0.15260  0.05750  1.0000
  C   C2811     1.0  0.52302  0.22470  0.99102  1.0000
  C   C2812     1.0  0.62041  0.16409  0.00057  1.0000
  S   S808      1.0  0.50800  0.46313  0.17275  1.0000
  S   S809      1.0  0.63774  0.01470  0.03171  1.0000
  S   S810      1.0  0.52961  0.43077  0.20763  1.0000
  H   H4827     1.0  0.70767  0.06733  0.09007  1.0000
  H   H4828     1.0  0.63487  0.00678  0.11170  1.0000
  H   H4829     1.0  0.60049  0.17053  0.02159  1.0000
  H   H4830     1.0  0.56873  0.16318  0.02195  1.0000
  S   S811      1.0  0.51142  0.11155  0.20400  1.0000
  H   H4831     1.0  0.52142  0.48073  0.23073  1.0000
  H   H4832     1.0  0.55850  0.44051  0.05591  1.0000
  C   C2813     1.0  0.72033  0.01944  0.08002  1.0000
  S   S812      1.0  0.50791  0.44961  0.13045  1.0000
  C   C2814     1.0  0.74576  0.10379  0.05854  1.0000
  S   S813      1.0  0.51863  0.35294  0.08709  1.0000
  Fe  Fe408     1.0  0.52306  0.48353  0.16325  1.0000
  H   H4833     1.0  0.59673  0.03421  0.06174  1.0000
  H   H4834     1.0  0.52240  0.05242  0.15300  1.0000
  H   H4835     1.0  0.71044  0.01186  0.08653  1.0000
  H   H4836     1.0  0.57004  0.15942  0.08725  1.0000
  H   H4837     1.0  0.55260  0.14921  0.09907  1.0000
  C   C2815     1.0  0.56406  0.45838  0.07878  1.0000
  C   C2816     1.0  0.58339  0.02687  0.11406  1.0000
  C   C2817     1.0  0.72096  0.47138  0.03064  1.0000
  N   N198      1.0  0.59090  0.18447  0.99919  1.0000
  H   H4838     1.0  0.72972  0.01235  0.07085  1.0000
  H   H4839     1.0  0.58147  0.02422  0.21959  1.0000
  C   C2818     1.0  0.71217  0.06613  0.05564  1.0000
  H   H4840     1.0  0.56475  0.39545  0.99596  1.0000
  C   C2819     1.0  0.57661  0.19509  0.00974  1.0000
  H   H4841     1.0  0.53925  0.44659  0.04850  1.0000
  C   C2820     1.0  0.52798  0.44129  0.22363  1.0000
  H   H4842     1.0  0.73106  0.14367  0.10989  1.0000
  H   H4843     1.0  0.67801  0.45634  0.04700  1.0000
  S   S814      1.0  0.51004  0.17747  0.09848  1.0000
  C   C2821     1.0  0.63166  0.00795  0.09941  1.0000
  C   C2822     1.0  0.52482  0.45896  0.22045  1.0000
  C   C2823     1.0  0.53901  0.01894  0.19594  1.0000
  C   C2824     1.0  0.58411  0.17085  0.99632  1.0000
  H   H4844     1.0  0.56371  0.07008  0.23307  1.0000
  S   S815      1.0  0.50681  0.99568  0.15851  1.0000
  H   H4845     1.0  0.57159  0.05554  0.20796  1.0000
  C   C2825     1.0  0.51911  0.02365  0.17761  1.0000
  N   N199      1.0  0.61504  0.02059  0.09765  1.0000
  C   C2826     1.0  0.73376  0.15565  0.11037  1.0000
  C   C2827     1.0  0.61783  0.03772  0.09709  1.0000
  C   C2828     1.0  0.61094  0.02050  0.08127  1.0000
  C   C2829     1.0  0.60134  0.01516  0.11252  1.0000
  H   H4846     1.0  0.61759  0.39152  0.98904  1.0000
  C   C2830     1.0  0.62310  0.03942  0.11259  1.0000
  H   H4847     1.0  0.58269  0.10787  0.09947  1.0000
  H   H4848     1.0  0.73284  0.47566  0.02604  1.0000
  H   H4849     1.0  0.64246  0.01229  0.08954  1.0000
  H   H4850     1.0  0.53002  0.02764  0.20387  1.0000
  C   C2831     1.0  0.70410  0.06585  0.04130  1.0000
  H   H4851     1.0  0.62794  0.04125  0.08590  1.0000
  H   H4852     1.0  0.62290  0.01801  0.07155  1.0000
  H   H4853     1.0  0.70610  0.03460  0.06156  1.0000
  H   H4854     1.0  0.74600  0.03140  0.05547  1.0000
  H   H4855     1.0  0.54473  0.04484  0.14388  1.0000
  H   H4856     1.0  0.73304  0.11170  0.03766  1.0000
  H   H4857     1.0  0.57306  0.18772  0.02280  1.0000
  C   C2832     1.0  0.53625  0.19008  0.00081  1.0000
  H   H4858     1.0  0.61389  0.03591  0.12451  1.0000
  H   H4859     1.0  0.63627  0.03216  0.11344  1.0000
  C   C2833     1.0  0.54051  0.46282  0.06400  1.0000
  C   C2834     1.0  0.54914  0.45163  0.05102  1.0000
  H   H4860     1.0  0.73895  0.15372  0.12173  1.0000
  H   H4861     1.0  0.55268  0.04327  0.17070  1.0000
  N   N200      1.0  0.53680  0.02480  0.17795  1.0000
  C   C2835     1.0  0.57747  0.99010  0.10025  1.0000
  H   H4862     1.0  0.58967  0.46062  0.06345  1.0000
  C   C2836     1.0  0.73149  0.10769  0.05120  1.0000
  C   C2837     1.0  0.71519  0.10648  0.06130  1.0000
  C   C2838     1.0  0.58029  0.21142  0.01159  1.0000
  H   H4863     1.0  0.73758  0.17253  0.08581  1.0000
  H   H4864     1.0  0.52236  0.13159  0.14659  1.0000
  C   C2839     1.0  0.52262  0.27159  0.01794  1.0000
  H   H4865     1.0  0.62966  0.15906  0.00903  1.0000
  H   H4866     1.0  0.57593  0.02436  0.10625  1.0000
  H   H4867     1.0  0.58458  0.06945  0.20701  1.0000
  H   H4868     1.0  0.60452  0.01001  0.08295  1.0000
  H   H4869     1.0  0.52889  0.25824  0.01732  1.0000
  H   H4870     1.0  0.59934  0.00272  0.11223  1.0000
  S   S816      1.0  0.54621  0.46803  0.17330  1.0000
  C   C2840     1.0  0.51620  0.42676  0.11038  1.0000
  H   H4871     1.0  0.72541  0.05949  0.10010  1.0000
  C   C2841     1.0  0.72747  0.09761  0.08616  1.0000
  H   H4872     1.0  0.50347  0.03349  0.20011  1.0000
  H   H4873     1.0  0.53125  0.05096  0.18031  1.0000
  H   H4874     1.0  0.72102  0.16446  0.11195  1.0000
  H   H4875     1.0  0.50629  0.36875  0.03186  1.0000
  H   H4876     1.0  0.53426  0.45452  0.07537  1.0000
  H   H4877     1.0  0.73697  0.06367  0.07037  1.0000
  C   C2842     1.0  0.53578  0.05136  0.15369  1.0000
  C   C2843     1.0  0.57872  0.15746  0.01216  1.0000
  H   H4878     1.0  0.51498  0.32333  0.03992  1.0000
  Fe  Fe409     1.0  0.51119  0.37320  0.06516  1.0000
  H   H4879     1.0  0.58906  0.44112  0.07797  1.0000
  Fe  Fe410     1.0  0.62534  0.47288  0.00414  1.0000
  H   H4880     1.0  0.57728  0.12966  0.08948  1.0000
  C   C2844     1.0  0.51230  0.29933  0.03692  1.0000
  H   H4881     1.0  0.70024  0.04218  0.08032  1.0000
  C   C2845     1.0  0.52219  0.21724  0.00816  1.0000
  C   C2846     1.0  0.54068  0.48340  0.07948  1.0000
  H   H4882     1.0  0.51688  0.01073  0.18384  1.0000
  H   H4883     1.0  0.73204  0.03788  0.04136  1.0000
  C   C2847     1.0  0.60531  0.17693  0.00846  1.0000
  H   H4884     1.0  0.56280  0.01622  0.16459  1.0000
  H   H4885     1.0  0.53848  0.46556  0.10448  1.0000
  C   C2848     1.0  0.73713  0.04266  0.04966  1.0000
  H   H4886     1.0  0.51493  0.14361  0.11856  1.0000
  H   H4887     1.0  0.55522  0.45873  0.03874  1.0000
  H   H4888     1.0  0.52337  0.48531  0.10372  1.0000
  H   H4889     1.0  0.56905  0.21761  0.02013  1.0000
  H   H4890     1.0  0.52191  0.29161  0.04457  1.0000
  H   H4891     1.0  0.50126  0.26334  0.03588  1.0000
  N   N201      1.0  0.55192  0.47127  0.06859  1.0000
  H   H4892     1.0  0.56283  0.47742  0.21742  1.0000
  C   C2849     1.0  0.50312  0.39866  0.21810  1.0000
  C   C2850     1.0  0.71831  0.05633  0.09237  1.0000
  N   N202      1.0  0.49952  0.28928  0.03744  1.0000
  H   H4893     1.0  0.59794  0.01062  0.22964  1.0000
  C   C2851     1.0  0.73073  0.05266  0.07584  1.0000
  H   H4894     1.0  0.74122  0.06576  0.03021  1.0000
  C   C2852     1.0  0.58414  0.01689  0.23195  1.0000
  H   H4895     1.0  0.50687  0.40874  0.20703  1.0000
  H   H4896     1.0  0.69347  0.48503  0.07937  1.0000
  H   H4897     1.0  0.56676  0.48746  0.11555  1.0000
  S   S817      1.0  0.63551  0.48876  0.01490  1.0000
  C   C2853     1.0  0.63229  0.98973  0.09842  1.0000
  H   H4898     1.0  0.52309  0.39877  0.23096  1.0000
  C   C2854     1.0  0.64057  0.48690  0.07668  1.0000
  H   H4899     1.0  0.74758  0.12960  0.09193  1.0000
  H   H4900     1.0  0.57391  0.47710  0.23284  1.0000
  C   C2855     1.0  0.65921  0.48875  0.07321  1.0000
  C   C2856     1.0  0.74844  0.05503  0.03829  1.0000
  H   H4901     1.0  0.50068  0.31346  0.05716  1.0000
  Fe  Fe411     1.0  0.61849  0.43247  0.40501  1.0000
  S   S818      1.0  0.63379  0.42891  0.37945  1.0000
  S   S819      1.0  0.60969  0.41175  0.42625  1.0000
  Fe  Fe412     1.0  0.61789  0.46983  0.39667  1.0000
  S   S820      1.0  0.63356  0.46925  0.37059  1.0000
  H   H4902     1.0  0.54073  0.23117  0.46865  1.0000
  Fe  Fe413     1.0  0.61647  0.45319  0.36968  1.0000
  S   S821      1.0  0.60763  0.45764  0.34548  1.0000
  Fe  Fe414     1.0  0.64948  0.44528  0.38269  1.0000
  S   S822      1.0  0.67811  0.43915  0.37281  1.0000
  S   S823      1.0  0.59967  0.45534  0.39504  1.0000
  S   S824      1.0  0.63530  0.44726  0.40908  1.0000
  Fe  Fe415     1.0  0.54243  0.33727  0.45298  1.0000
  S   S825      1.0  0.56834  0.32069  0.44641  1.0000
  Fe  Fe416     1.0  0.53565  0.34349  0.41809  1.0000
  S   S826      1.0  0.56081  0.32707  0.40865  1.0000
  Fe  Fe417     1.0  0.55537  0.30908  0.43370  1.0000
  S   S827      1.0  0.56248  0.28047  0.43812  1.0000
  Fe  Fe418     1.0  0.57148  0.34009  0.42217  1.0000
  S   S828      1.0  0.59596  0.34889  0.40856  1.0000
  S   S829      1.0  0.54659  0.35782  0.42991  1.0000
  Fe  Fe419     1.0  0.52276  0.45340  0.29196  1.0000
  H   H4903     1.0  0.61426  0.05009  0.43280  1.0000
  S   S830      1.0  0.52562  0.46822  0.26490  1.0000
  Fe  Fe420     1.0  0.52842  0.42189  0.31999  1.0000
  C   C2857     1.0  0.52052  0.26738  0.43397  1.0000
  S   S831      1.0  0.54174  0.39467  0.32768  1.0000
  Fe  Fe421     1.0  0.52322  0.45645  0.32709  1.0000
  S   S832      1.0  0.52932  0.46928  0.34440  1.0000
  H   H4904     1.0  0.60842  0.04455  0.32656  1.0000
  S   S833      1.0  0.54256  0.44302  0.30805  1.0000
  H   H4905     1.0  0.59676  0.14831  0.41959  1.0000
  H   H4906     1.0  0.56355  0.38586  0.36526  1.0000
  C   C2858     1.0  0.54184  0.02827  0.24986  1.0000
  H   H4907     1.0  0.57647  0.46412  0.37113  1.0000
  S   S834      1.0  0.53483  0.01611  0.29434  1.0000
  H   H4908     1.0  0.56587  0.41731  0.33002  1.0000
  Fe  Fe422     1.0  0.62602  0.09426  0.44759  1.0000
  S   S835      1.0  0.62902  0.11909  0.43041  1.0000
  S   S836      1.0  0.60211  0.09262  0.46798  1.0000
  Fe  Fe423     1.0  0.66286  0.07681  0.43304  1.0000
  S   S837      1.0  0.66788  0.10065  0.41435  1.0000
  S   S838      1.0  0.68427  0.05373  0.43778  1.0000
  Fe  Fe424     1.0  0.65499  0.11308  0.43611  1.0000
  S   S839      1.0  0.66519  0.13162  0.44318  1.0000
  Fe  Fe425     1.0  0.64136  0.10377  0.41052  1.0000
  S   S840      1.0  0.63281  0.11454  0.38581  1.0000
  S   S841      1.0  0.65104  0.08930  0.45504  1.0000
  S   S842      1.0  0.63710  0.07892  0.42757  1.0000
  Fe  Fe426     1.0  0.52136  0.21182  0.42813  1.0000
  S   S843      1.0  0.51027  0.43479  0.33988  1.0000
  Fe  Fe427     1.0  0.53625  0.18421  0.40794  1.0000
  S   S844      1.0  0.52555  0.16417  0.42876  1.0000
  S   S845      1.0  0.55271  0.17741  0.38364  1.0000
  Fe  Fe428     1.0  0.53472  0.17517  0.44524  1.0000
  S   S846      1.0  0.54565  0.16068  0.46815  1.0000
  S   S847      1.0  0.54710  0.19392  0.42435  1.0000
  Fe  Fe429     1.0  0.56436  0.09430  0.31597  1.0000
  S   S848      1.0  0.53760  0.09445  0.33117  1.0000
  S   S849      1.0  0.57039  0.10466  0.28780  1.0000
  Fe  Fe430     1.0  0.58010  0.07973  0.34710  1.0000
  S   S850      1.0  0.55455  0.07904  0.36466  1.0000
  S   S851      1.0  0.60348  0.06767  0.35827  1.0000
  Fe  Fe431     1.0  0.54891  0.06896  0.34531  1.0000
  S   S852      1.0  0.53738  0.04604  0.35434  1.0000
  Fe  Fe432     1.0  0.54582  0.10459  0.34900  1.0000
  S   S853      1.0  0.52665  0.12547  0.36015  1.0000
  S   S854      1.0  0.57507  0.06781  0.32864  1.0000
  S   S855      1.0  0.57188  0.10631  0.33289  1.0000
  H   H4909     1.0  0.51714  0.13007  0.31567  1.0000
  H   H4910     1.0  0.58444  0.06006  0.23707  1.0000
  S   S856      1.0  0.73273  0.44141  0.41140  1.0000
  C   C2859     1.0  0.54577  0.16238  0.37770  1.0000
  C   C2860     1.0  0.55744  0.15136  0.36792  1.0000
  C   C2861     1.0  0.55186  0.13940  0.36309  1.0000
  C   C2862     1.0  0.53449  0.13891  0.36748  1.0000
  C   C2863     1.0  0.52288  0.14997  0.37717  1.0000
  C   C2864     1.0  0.52853  0.16151  0.38247  1.0000
  H   H4911     1.0  0.57082  0.15193  0.36422  1.0000
  H   H4912     1.0  0.56094  0.13083  0.35573  1.0000
  H   H4913     1.0  0.62500  0.44218  0.46240  1.0000
  H   H4914     1.0  0.51949  0.17004  0.38991  1.0000
  C   C2865     1.0  0.62419  0.10139  0.37878  1.0000
  C   C2866     1.0  0.62842  0.08377  0.38401  1.0000
  C   C2867     1.0  0.62195  0.07352  0.37770  1.0000
  C   C2868     1.0  0.61094  0.08083  0.36642  1.0000
  C   C2869     1.0  0.60646  0.09845  0.36144  1.0000
  C   C2870     1.0  0.61326  0.10868  0.36741  1.0000
  H   H4915     1.0  0.63709  0.07800  0.39248  1.0000
  H   H4916     1.0  0.62556  0.05989  0.38149  1.0000
  H   H4917     1.0  0.59809  0.10419  0.35266  1.0000
  H   H4918     1.0  0.61009  0.12225  0.36310  1.0000
  C   C2871     1.0  0.58541  0.11087  0.46711  1.0000
  H   H4919     1.0  0.59584  0.02970  0.31602  1.0000
  H   H4920     1.0  0.50907  0.40076  0.35135  1.0000
  C   C2872     1.0  0.56034  0.14122  0.46724  1.0000
  C   C2873     1.0  0.57157  0.13818  0.45218  1.0000
  C   C2874     1.0  0.58420  0.12306  0.45211  1.0000
  H   H4921     1.0  0.57067  0.14771  0.44074  1.0000
  H   H4922     1.0  0.59289  0.12073  0.44049  1.0000
  C   C2875     1.0  0.53604  0.02403  0.31109  1.0000
  C   C2876     1.0  0.53668  0.01359  0.32706  1.0000
  C   C2877     1.0  0.53688  0.02046  0.34040  1.0000
  C   C2878     1.0  0.53699  0.03763  0.33763  1.0000
  C   C2879     1.0  0.53679  0.04796  0.32158  1.0000
  C   C2880     1.0  0.53597  0.04123  0.30841  1.0000
  C   C2881     1.0  0.58875  0.41107  0.47031  1.0000
  H   H4923     1.0  0.53699  0.01247  0.35284  1.0000
  H   H4924     1.0  0.53680  0.06123  0.31942  1.0000
  H   H4925     1.0  0.53520  0.04941  0.29616  1.0000
  C   C2882     1.0  0.67544  0.12092  0.45993  1.0000
  C   C2883     1.0  0.73306  0.42666  0.48070  1.0000
  H   H4926     1.0  0.70472  0.48039  0.42342  1.0000
  H   H4927     1.0  0.61116  0.38460  0.48296  1.0000
  C   C2884     1.0  0.70473  0.48748  0.37248  1.0000
  C   C2885     1.0  0.54862  0.26937  0.43543  1.0000
  C   C2886     1.0  0.55491  0.25246  0.43392  1.0000
  C   C2887     1.0  0.54406  0.24301  0.43237  1.0000
  C   C2888     1.0  0.52679  0.25043  0.43254  1.0000
  H   H4928     1.0  0.56830  0.24679  0.43364  1.0000
  H   H4929     1.0  0.54906  0.23007  0.43096  1.0000
  C   C2889     1.0  0.52288  0.36825  0.38222  1.0000
  S   S857      1.0  0.51173  0.20396  0.40964  1.0000
  C   C2890     1.0  0.51760  0.39018  0.35741  1.0000
  C   C2891     1.0  0.53405  0.38426  0.34847  1.0000
  H   H4930     1.0  0.53232  0.41820  0.24235  1.0000
  H   H4931     1.0  0.72262  0.45443  0.47846  1.0000
  C   C2892     1.0  0.69307  0.43910  0.38412  1.0000
  C   C2893     1.0  0.68802  0.44169  0.40059  1.0000
  C   C2894     1.0  0.70039  0.44181  0.40906  1.0000
  C   C2895     1.0  0.71780  0.43946  0.40108  1.0000
  C   C2896     1.0  0.72286  0.43645  0.38477  1.0000
  C   C2897     1.0  0.71052  0.43627  0.37634  1.0000
  H   H4932     1.0  0.67462  0.44376  0.40674  1.0000
  H   H4933     1.0  0.69643  0.44407  0.42173  1.0000
  H   H4934     1.0  0.73625  0.43459  0.37853  1.0000
  H   H4935     1.0  0.71451  0.43413  0.36362  1.0000
  C   C2898     1.0  0.57726  0.40975  0.33513  1.0000
  H   H4936     1.0  0.72247  0.12960  0.41528  1.0000
  C   C2899     1.0  0.58577  0.46134  0.34539  1.0000
  C   C2900     1.0  0.58110  0.46143  0.33059  1.0000
  C   C2901     1.0  0.56383  0.46365  0.33023  1.0000
  C   C2902     1.0  0.55108  0.46616  0.34459  1.0000
  C   C2903     1.0  0.55570  0.46655  0.35926  1.0000
  C   C2904     1.0  0.57301  0.46403  0.35971  1.0000
  H   H4937     1.0  0.59093  0.45944  0.31944  1.0000
  H   H4938     1.0  0.56040  0.46359  0.31879  1.0000
  H   H4939     1.0  0.67940  0.00235  0.46454  1.0000
  C   C2905     1.0  0.52692  0.13427  0.30450  1.0000
  C   C2906     1.0  0.60561  0.39459  0.42101  1.0000
  C   C2907     1.0  0.59331  0.38591  0.43209  1.0000
  C   C2908     1.0  0.59009  0.37196  0.42832  1.0000
  C   C2909     1.0  0.59954  0.36635  0.41366  1.0000
  C   C2910     1.0  0.61198  0.37489  0.40269  1.0000
  C   C2911     1.0  0.61486  0.38912  0.40623  1.0000
  H   H4940     1.0  0.58612  0.39003  0.44357  1.0000
  H   H4941     1.0  0.58050  0.36541  0.43686  1.0000
  H   H4942     1.0  0.61924  0.37060  0.39131  1.0000
  H   H4943     1.0  0.62434  0.39570  0.39760  1.0000
  C   C2912     1.0  0.73649  0.06703  0.41136  1.0000
  C   C2913     1.0  0.72208  0.07452  0.40428  1.0000
  C   C2914     1.0  0.70638  0.06989  0.41203  1.0000
  C   C2915     1.0  0.70467  0.05803  0.42726  1.0000
  C   C2916     1.0  0.71921  0.04998  0.43419  1.0000
  C   C2917     1.0  0.73516  0.05443  0.42621  1.0000
  H   H4944     1.0  0.72302  0.08414  0.39273  1.0000
  H   H4945     1.0  0.69563  0.07543  0.40605  1.0000
  H   H4946     1.0  0.71803  0.04076  0.44597  1.0000
  C   C2918     1.0  0.62382  0.03792  0.43349  1.0000
  C   C2919     1.0  0.52866  0.44001  0.25268  1.0000
  C   C2920     1.0  0.52592  0.45765  0.24939  1.0000
  H   H4947     1.0  0.49930  0.38681  0.38108  1.0000
  C   C2921     1.0  0.58602  0.02207  0.32181  1.0000
  C   C2922     1.0  0.53141  0.27686  0.43533  1.0000
  C   C2923     1.0  0.53988  0.09364  0.25582  1.0000
  C   C2924     1.0  0.53593  0.08849  0.27346  1.0000
  C   C2925     1.0  0.54533  0.09169  0.28333  1.0000
  C   C2926     1.0  0.55860  0.10026  0.27564  1.0000
  C   C2927     1.0  0.56248  0.10555  0.25799  1.0000
  H   H4948     1.0  0.54608  0.43100  0.35740  1.0000
  H   H4949     1.0  0.52572  0.08176  0.27952  1.0000
  H   H4950     1.0  0.54232  0.08746  0.29688  1.0000
  H   H4951     1.0  0.57277  0.11218  0.25199  1.0000
  H   H4952     1.0  0.58512  0.18449  0.45942  1.0000
  H   H4953     1.0  0.58352  0.99327  0.36923  1.0000
  H   H4954     1.0  0.73997  0.13365  0.45552  1.0000
  H   H4955     1.0  0.54765  0.35134  0.37927  1.0000
  H   H4956     1.0  0.53277  0.03332  0.26060  1.0000
  H   H4957     1.0  0.56246  0.43280  0.37625  1.0000
  H   H4958     1.0  0.54810  0.05775  0.26169  1.0000
  H   H4959     1.0  0.55736  0.36520  0.34941  1.0000
  H   H4960     1.0  0.52018  0.28034  0.47274  1.0000
  H   H4961     1.0  0.56641  0.05215  0.28278  1.0000
  N   N203      1.0  0.56667  0.04333  0.24428  1.0000
  H   H4962     1.0  0.55133  0.48440  0.23676  1.0000
  H   H4963     1.0  0.57688  0.13308  0.41606  1.0000
  N   N204      1.0  0.56569  0.41043  0.36679  1.0000
  C   C2928     1.0  0.57829  0.41548  0.35065  1.0000
  H   H4964     1.0  0.54227  0.05400  0.23707  1.0000
  C   C2929     1.0  0.57966  0.14466  0.40666  1.0000
  H   H4965     1.0  0.53651  0.00038  0.32925  1.0000
  C   C2930     1.0  0.57217  0.05203  0.26927  1.0000
  H   H4966     1.0  0.57885  0.14288  0.39439  1.0000
  C   C2931     1.0  0.57375  0.19444  0.45660  1.0000
  C   C2932     1.0  0.71388  0.12202  0.42490  1.0000
  C   C2933     1.0  0.56426  0.38356  0.39106  1.0000
  H   H4967     1.0  0.53159  0.40131  0.38185  1.0000
  H   H4968     1.0  0.52077  0.42202  0.37390  1.0000
  H   H4969     1.0  0.53311  0.41938  0.38896  1.0000
  H   H4970     1.0  0.57230  0.38575  0.39845  1.0000
  H   H4971     1.0  0.56637  0.36964  0.39270  1.0000
  H   H4972     1.0  0.55069  0.38810  0.39666  1.0000
  S   S858      1.0  0.52913  0.32439  0.44203  1.0000
  C   C2934     1.0  0.59754  0.14675  0.40676  1.0000
  H   H4973     1.0  0.57722  0.00636  0.23667  1.0000
  H   H4974     1.0  0.59263  0.40274  0.38278  1.0000
  H   H4975     1.0  0.63858  0.16049  0.41049  1.0000
  H   H4976     1.0  0.59126  0.17830  0.41016  1.0000
  H   H4977     1.0  0.57721  0.39610  0.33787  1.0000
  H   H4978     1.0  0.51212  0.15050  0.33282  1.0000
  C   C2935     1.0  0.54798  0.41717  0.36311  1.0000
  H   H4979     1.0  0.51571  0.25144  0.47836  1.0000
  H   H4980     1.0  0.67148  0.14326  0.46945  1.0000
  H   H4981     1.0  0.71786  0.10900  0.46241  1.0000
  H   H4982     1.0  0.58512  0.41930  0.39439  1.0000
  C   C2936     1.0  0.57366  0.11369  0.48202  1.0000
  H   H4983     1.0  0.55033  0.01628  0.25478  1.0000
  H   H4984     1.0  0.50948  0.14958  0.38062  1.0000
  H   H4985     1.0  0.59015  0.00990  0.31759  1.0000
  H   H4986     1.0  0.62270  0.02417  0.32591  1.0000
  H   H4987     1.0  0.63373  0.47925  0.42227  1.0000
  H   H4988     1.0  0.69180  0.47543  0.40392  1.0000
  H   H4989     1.0  0.59305  0.42446  0.37210  1.0000
  H   H4990     1.0  0.59684  0.40271  0.46160  1.0000
  C   C2937     1.0  0.72405  0.48435  0.37185  1.0000
  H   H4991     1.0  0.55929  0.41483  0.39227  1.0000
  C   C2938     1.0  0.72341  0.10417  0.43214  1.0000
  H   H4992     1.0  0.74408  0.39797  0.46781  1.0000
  C   C2939     1.0  0.68201  0.10345  0.46243  1.0000
  H   H4993     1.0  0.53402  0.02529  0.24273  1.0000
  H   H4994     1.0  0.59312  0.01774  0.48222  1.0000
  H   H4995     1.0  0.57677  0.42946  0.34714  1.0000
  H   H4996     1.0  0.61117  0.45965  0.45205  1.0000
  C   C2940     1.0  0.61535  0.15088  0.46407  1.0000
  H   H4997     1.0  0.61350  0.00188  0.32940  1.0000
  H   H4998     1.0  0.74780  0.45650  0.43421  1.0000
  H   H4999     1.0  0.73720  0.99243  0.43638  1.0000
  H   H5000     1.0  0.73013  0.45381  0.45126  1.0000
  C   C2941     1.0  0.56956  0.39135  0.37213  1.0000
  C   C2942     1.0  0.56138  0.12893  0.48214  1.0000
  C   C2943     1.0  0.73073  0.11148  0.45562  1.0000
  H   H5001     1.0  0.52048  0.14396  0.29514  1.0000
  S   S859      1.0  0.51551  0.35871  0.40337  1.0000
  H   H5002     1.0  0.50651  0.36831  0.46081  1.0000
  H   H5003     1.0  0.68493  0.04372  0.47677  1.0000
  C   C2944     1.0  0.55319  0.10218  0.24807  1.0000
  H   H5004     1.0  0.56794  0.24181  0.46896  1.0000
  H   H5005     1.0  0.52285  0.18220  0.30759  1.0000
  H   H5006     1.0  0.70437  0.12080  0.41849  1.0000
  H   H5007     1.0  0.72581  0.07998  0.47130  1.0000
  C   C2945     1.0  0.52249  0.16855  0.31033  1.0000
  H   H5008     1.0  0.53944  0.20860  0.45633  1.0000
  H   H5009     1.0  0.54912  0.16924  0.26249  1.0000
  H   H5010     1.0  0.51466  0.16796  0.30190  1.0000
  H   H5011     1.0  0.58351  0.04684  0.48063  1.0000
  H   H5012     1.0  0.58355  0.38594  0.36856  1.0000
  H   H5013     1.0  0.71349  0.00075  0.41132  1.0000
  H   H5014     1.0  0.64928  0.02488  0.46111  1.0000
  H   H5015     1.0  0.55633  0.10617  0.23448  1.0000
  H   H5016     1.0  0.60641  0.13434  0.40563  1.0000
  H   H5017     1.0  0.72628  0.42469  0.47191  1.0000
  H   H5018     1.0  0.62573  0.10947  0.47918  1.0000
  C   C2946     1.0  0.72929  0.13083  0.45196  1.0000
  C   C2947     1.0  0.59017  0.05063  0.46730  1.0000
  H   H5019     1.0  0.66590  0.47890  0.39770  1.0000
  H   H5020     1.0  0.50175  0.08127  0.36551  1.0000
  C   C2948     1.0  0.64295  0.04366  0.47614  1.0000
  H   H5021     1.0  0.57648  0.19905  0.44268  1.0000
  C   C2949     1.0  0.52972  0.43186  0.23982  1.0000
  H   H5022     1.0  0.74621  0.04859  0.43180  1.0000
  H   H5023     1.0  0.59414  0.03707  0.35416  1.0000
  C   C2950     1.0  0.56734  0.41889  0.37971  1.0000
  C   C2951     1.0  0.68798  0.09462  0.47713  1.0000
  Fe  Fe433     1.0  0.50179  0.18478  0.43170  1.0000
  H   H5024     1.0  0.71174  0.36721  0.40393  1.0000
  H   H5025     1.0  0.62379  0.40823  0.46133  1.0000
  H   H5026     1.0  0.57223  0.01045  0.34537  1.0000
  C   C2952     1.0  0.69180  0.48892  0.40248  1.0000
  H   H5027     1.0  0.73134  0.48267  0.35904  1.0000
  C   C2953     1.0  0.68955  0.00865  0.46422  1.0000
  C   C2954     1.0  0.61575  0.03329  0.33399  1.0000
  H   H5028     1.0  0.52829  0.16989  0.27556  1.0000
  C   C2955     1.0  0.51200  0.38214  0.37420  1.0000
  H   H5029     1.0  0.60919  0.02230  0.45317  1.0000
  H   H5030     1.0  0.59063  0.16401  0.37378  1.0000
  H   H5031     1.0  0.50721  0.27323  0.43389  1.0000
  C   C2956     1.0  0.53866  0.37167  0.47262  1.0000
  H   H5032     1.0  0.54587  0.46857  0.37039  1.0000
  H   H5033     1.0  0.70188  0.47465  0.37577  1.0000
  C   C2957     1.0  0.74466  0.08443  0.44712  1.0000
  H   H5034     1.0  0.68976  0.99438  0.43427  1.0000
  N   N205      1.0  0.59587  0.01213  0.35044  1.0000
  C   C2958     1.0  0.58836  0.00462  0.36852  1.0000
  H   H5035     1.0  0.49950  0.13593  0.25249  1.0000
  C   C2959     1.0  0.58134  0.01911  0.34121  1.0000
  C   C2960     1.0  0.60410  0.02601  0.35055  1.0000
  C   C2961     1.0  0.57344  0.01652  0.37793  1.0000
  C   C2962     1.0  0.66705  0.48594  0.38441  1.0000
  H   H5036     1.0  0.72373  0.01465  0.41626  1.0000
  H   H5037     1.0  0.55532  0.03633  0.27085  1.0000
  H   H5038     1.0  0.73630  0.99843  0.40537  1.0000
  H   H5039     1.0  0.57421  0.06500  0.26315  1.0000
  H   H5040     1.0  0.58870  0.44486  0.45811  1.0000
  H   H5041     1.0  0.60054  0.13187  0.47448  1.0000
  H   H5042     1.0  0.50806  0.16774  0.48160  1.0000
  C   C2963     1.0  0.61706  0.41022  0.47425  1.0000
  H   H5043     1.0  0.59172  0.41029  0.35228  1.0000
  H   H5044     1.0  0.61156  0.02210  0.36065  1.0000
  H   H5045     1.0  0.57708  0.02808  0.37840  1.0000
  H   H5046     1.0  0.56195  0.02008  0.37242  1.0000
  H   H5047     1.0  0.56962  0.00974  0.39118  1.0000
  H   H5048     1.0  0.64247  0.04601  0.45050  1.0000
  C   C2964     1.0  0.60848  0.99792  0.34311  1.0000
  H   H5049     1.0  0.52106  0.13876  0.47593  1.0000
  C   C2965     1.0  0.61135  0.44839  0.46267  1.0000
  H   H5050     1.0  0.57709  0.01844  0.25786  1.0000
  H   H5051     1.0  0.65662  0.04446  0.47281  1.0000
  H   H5052     1.0  0.54630  0.41119  0.35361  1.0000
  C   C2966     1.0  0.60122  0.43671  0.46017  1.0000
  H   H5053     1.0  0.57972  0.17826  0.39589  1.0000
  H   H5054     1.0  0.70641  0.12885  0.43503  1.0000
  C   C2967     1.0  0.51211  0.16416  0.32855  1.0000
  H   H5055     1.0  0.57254  0.44806  0.48204  1.0000
  H   H5056     1.0  0.51690  0.16814  0.33759  1.0000
  H   H5057     1.0  0.61094  0.00061  0.47695  1.0000
  S   S860      1.0  0.51254  0.23890  0.43139  1.0000
  S   S861      1.0  0.52818  0.08852  0.24409  1.0000
  H   H5058     1.0  0.60705  0.15676  0.45476  1.0000
  H   H5059     1.0  0.58371  0.06372  0.46206  1.0000
  H   H5060     1.0  0.70029  0.01527  0.43795  1.0000
  H   H5061     1.0  0.57370  0.03135  0.34440  1.0000
  H   H5062     1.0  0.66896  0.40464  0.42910  1.0000
  C   C2968     1.0  0.58049  0.02732  0.24557  1.0000
  C   C2969     1.0  0.62250  0.15929  0.39457  1.0000
  C   C2970     1.0  0.60365  0.15843  0.37646  1.0000
  C   C2971     1.0  0.73203  0.07427  0.46014  1.0000
  C   C2972     1.0  0.62470  0.16349  0.41047  1.0000
  C   C2973     1.0  0.61651  0.16537  0.36082  1.0000
  C   C2974     1.0  0.59800  0.19360  0.38504  1.0000
  H   H5063     1.0  0.62926  0.16768  0.38382  1.0000
  H   H5064     1.0  0.63015  0.14629  0.39377  1.0000
  H   H5065     1.0  0.60602  0.14473  0.37655  1.0000
  H   H5066     1.0  0.61987  0.17716  0.41045  1.0000
  H   H5067     1.0  0.61851  0.15598  0.42235  1.0000
  H   H5068     1.0  0.61627  0.17886  0.35945  1.0000
  H   H5069     1.0  0.61320  0.16419  0.34935  1.0000
  H   H5070     1.0  0.62970  0.15767  0.36096  1.0000
  H   H5071     1.0  0.59271  0.19692  0.37352  1.0000
  H   H5072     1.0  0.61198  0.19274  0.38144  1.0000
  H   H5073     1.0  0.59277  0.20421  0.39175  1.0000
  N   N206      1.0  0.54041  0.15794  0.30684  1.0000
  C   C2975     1.0  0.54985  0.16055  0.31861  1.0000
  H   H5074     1.0  0.57438  0.02914  0.31682  1.0000
  C   C2976     1.0  0.54939  0.16436  0.28901  1.0000
  C   C2977     1.0  0.54084  0.13929  0.31002  1.0000
  C   C2978     1.0  0.56934  0.15323  0.31549  1.0000
  C   C2979     1.0  0.58566  0.41606  0.38230  1.0000
  H   H5075     1.0  0.69387  0.00408  0.47630  1.0000
  H   H5076     1.0  0.60894  0.05501  0.47733  1.0000
  H   H5077     1.0  0.54797  0.17428  0.31827  1.0000
  H   H5078     1.0  0.54460  0.15477  0.33190  1.0000
  H   H5079     1.0  0.61390  0.28284  0.47643  1.0000
  H   H5080     1.0  0.50721  0.40542  0.42221  1.0000
  H   H5081     1.0  0.55003  0.17783  0.28719  1.0000
  H   H5082     1.0  0.56288  0.15715  0.28637  1.0000
  H   H5083     1.0  0.55353  0.13255  0.30389  1.0000
  H   H5084     1.0  0.53957  0.13355  0.32373  1.0000
  H   H5085     1.0  0.57409  0.15270  0.32677  1.0000
  H   H5086     1.0  0.57276  0.14024  0.31327  1.0000
  H   H5087     1.0  0.57628  0.16149  0.30470  1.0000
  H   H5088     1.0  0.58459  0.04279  0.26870  1.0000
  H   H5089     1.0  0.56628  0.41198  0.46148  1.0000
  C   C2980     1.0  0.54190  0.38521  0.47712  1.0000
  H   H5090     1.0  0.69292  0.08114  0.47905  1.0000
  H   H5091     1.0  0.62503  0.41649  0.47821  1.0000
  S   S862      1.0  0.50986  0.19378  0.45027  1.0000
  H   H5092     1.0  0.53291  0.12308  0.29871  1.0000
  H   H5093     1.0  0.58840  0.04277  0.45963  1.0000
  H   H5094     1.0  0.71742  0.13649  0.46024  1.0000
  H   H5095     1.0  0.51795  0.37831  0.23489  1.0000
  C   C2981     1.0  0.55969  0.04730  0.26161  1.0000
  H   H5096     1.0  0.72221  0.07255  0.45451  1.0000
  C   C2982     1.0  0.50433  0.26192  0.47985  1.0000
  H   H5097     1.0  0.56260  0.18863  0.45974  1.0000
  H   H5098     1.0  0.51469  0.39017  0.43947  1.0000
  N   N207      1.0  0.59931  0.42114  0.47401  1.0000
  N   N208      1.0  0.73751  0.10299  0.44077  1.0000
  H   H5099     1.0  0.58116  0.30918  0.48141  1.0000
  H   H5100     1.0  0.63136  0.01450  0.45067  1.0000
  H   H5101     1.0  0.56893  0.22125  0.45547  1.0000
  H   H5102     1.0  0.73907  0.10582  0.46499  1.0000
  H   H5103     1.0  0.64710  0.41329  0.42780  1.0000
  H   H5104     1.0  0.56940  0.15539  0.41038  1.0000
  C   C2983     1.0  0.54185  0.16316  0.27473  1.0000
  H   H5105     1.0  0.61301  0.06060  0.45538  1.0000
  H   H5106     1.0  0.53047  0.43261  0.26499  1.0000
  H   H5107     1.0  0.49970  0.26546  0.46798  1.0000
  H   H5108     1.0  0.49935  0.15570  0.46676  1.0000
  H   H5109     1.0  0.54355  0.14978  0.27407  1.0000
  C   C2984     1.0  0.61856  0.02133  0.48229  1.0000
  H   H5110     1.0  0.58421  0.20851  0.46739  1.0000
  H   H5111     1.0  0.71328  0.09787  0.44084  1.0000
  H   H5112     1.0  0.53773  0.37278  0.45984  1.0000
  C   C2985     1.0  0.54470  0.37000  0.35631  1.0000
  S   S863      1.0  0.53138  0.34013  0.47973  1.0000
  H   H5113     1.0  0.62206  0.03148  0.42440  1.0000
  N   N209      1.0  0.67642  0.38601  0.40301  1.0000
  C   C2986     1.0  0.69272  0.39151  0.40136  1.0000
  C   C2987     1.0  0.66154  0.40011  0.40771  1.0000
  C   C2988     1.0  0.67548  0.38259  0.38670  1.0000
  C   C2989     1.0  0.67594  0.36990  0.41629  1.0000
  C   C2990     1.0  0.70958  0.37955  0.39492  1.0000
  C   C2991     1.0  0.65781  0.40223  0.42606  1.0000
  C   C2992     1.0  0.67796  0.39701  0.37103  1.0000
  C   C2993     1.0  0.65960  0.36286  0.42022  1.0000
  H   H5114     1.0  0.69277  0.40421  0.39288  1.0000
  H   H5115     1.0  0.69368  0.39311  0.41371  1.0000
  H   H5116     1.0  0.64949  0.39872  0.40544  1.0000
  H   H5117     1.0  0.66359  0.41252  0.39945  1.0000
  H   H5118     1.0  0.68503  0.37099  0.38383  1.0000
  H   H5119     1.0  0.66283  0.37981  0.38777  1.0000
  H   H5120     1.0  0.68671  0.35955  0.41238  1.0000
  H   H5121     1.0  0.67831  0.37103  0.42827  1.0000
  H   H5122     1.0  0.71032  0.37751  0.38228  1.0000
  H   H5123     1.0  0.61826  0.16144  0.46750  1.0000
  H   H5124     1.0  0.72043  0.38546  0.39362  1.0000
  H   H5125     1.0  0.68370  0.02231  0.46323  1.0000
  H   H5126     1.0  0.65353  0.39120  0.43528  1.0000
  C   C2994     1.0  0.56087  0.23973  0.48229  1.0000
  H   H5127     1.0  0.67666  0.39316  0.35993  1.0000
  H   H5128     1.0  0.69081  0.39994  0.36794  1.0000
  H   H5129     1.0  0.66806  0.40866  0.37250  1.0000
  H   H5130     1.0  0.66103  0.35412  0.41190  1.0000
  H   H5131     1.0  0.64785  0.37278  0.41890  1.0000
  H   H5132     1.0  0.65717  0.35590  0.43358  1.0000
  C   C2995     1.0  0.62132  0.02632  0.45125  1.0000
  H   H5133     1.0  0.63696  0.04029  0.42895  1.0000
  H   H5134     1.0  0.71509  0.01115  0.45107  1.0000
  H   H5135     1.0  0.59824  0.00008  0.37630  1.0000
  C   C2996     1.0  0.53241  0.20928  0.46938  1.0000
  C   C2997     1.0  0.53925  0.36219  0.37325  1.0000
  H   H5136     1.0  0.64078  0.14721  0.47911  1.0000
  H   H5137     1.0  0.56434  0.43013  0.46936  1.0000
  H   H5138     1.0  0.57780  0.42764  0.44888  1.0000
  H   H5139     1.0  0.63537  0.05669  0.47655  1.0000
  H   H5140     1.0  0.62588  0.03743  0.33714  1.0000
  C   C2998     1.0  0.50535  0.39337  0.43126  1.0000
  H   H5141     1.0  0.60758  0.43303  0.44788  1.0000
  C   C2999     1.0  0.72481  0.00144  0.41539  1.0000
  H   H5142     1.0  0.68252  0.09673  0.45302  1.0000
  N   N210      1.0  0.60430  0.16085  0.39340  1.0000
  C   C3000     1.0  0.67597  0.12966  0.47160  1.0000
  H   H5143     1.0  0.52653  0.28993  0.43632  1.0000
  H   H5144     1.0  0.72853  0.13768  0.43893  1.0000
  C   C3001     1.0  0.53276  0.41468  0.37806  1.0000
  H   H5145     1.0  0.72848  0.09741  0.42158  1.0000
  N   N211      1.0  0.55795  0.21014  0.48114  1.0000
  H   H5146     1.0  0.54345  0.39668  0.46775  1.0000
  H   H5147     1.0  0.67432  0.47723  0.37587  1.0000
  S   S864      1.0  0.51082  0.43073  0.30189  1.0000
  C   C3002     1.0  0.59295  0.17740  0.39686  1.0000
  H   H5148     1.0  0.58862  0.41194  0.32490  1.0000
  H   H5149     1.0  0.63168  0.99928  0.35025  1.0000
  C   C3003     1.0  0.57142  0.20934  0.46505  1.0000
  C   C3004     1.0  0.63946  0.03677  0.46250  1.0000
  H   H5150     1.0  0.62710  0.14335  0.45743  1.0000
  C   C3005     1.0  0.57346  0.42106  0.46209  1.0000
  C   C3006     1.0  0.60906  0.05038  0.46614  1.0000
  H   H5151     1.0  0.51930  0.21675  0.46836  1.0000
  N   N212      1.0  0.62167  0.03372  0.46554  1.0000
  C   C3007     1.0  0.70471  0.00632  0.44913  1.0000
  H   H5152     1.0  0.50934  0.31205  0.47874  1.0000
  H   H5153     1.0  0.72823  0.47262  0.38102  1.0000
  C   C3008     1.0  0.55176  0.04170  0.23834  1.0000
  H   H5154     1.0  0.62244  0.48882  0.33690  1.0000
  H   H5155     1.0  0.50076  0.30174  0.45922  1.0000
  H   H5156     1.0  0.74757  0.12351  0.42198  1.0000
  H   H5157     1.0  0.51844  0.11992  0.47147  1.0000
  C   C3009     1.0  0.54048  0.21863  0.47741  1.0000
  H   H5158     1.0  0.73927  0.06135  0.46479  1.0000
  H   H5159     1.0  0.74785  0.46145  0.45339  1.0000
  H   H5160     1.0  0.58367  0.40230  0.48200  1.0000
  H   H5161     1.0  0.59278  0.03017  0.24564  1.0000
  H   H5162     1.0  0.60551  0.45313  0.47445  1.0000
  H   H5163     1.0  0.63934  0.12336  0.47546  1.0000
  C   C3010     1.0  0.51749  0.12642  0.48162  1.0000
  C   C3011     1.0  0.74421  0.45255  0.44816  1.0000
  H   H5164     1.0  0.50695  0.36506  0.34649  1.0000
  S   S865      1.0  0.50446  0.46861  0.31022  1.0000
  H   H5165     1.0  0.50843  0.38360  0.42374  1.0000
  H   H5166     1.0  0.71901  0.48507  0.40374  1.0000
  C   C3012     1.0  0.62426  0.98985  0.35109  1.0000
  C   C3013     1.0  0.60546  0.14010  0.47946  1.0000
  H   H5167     1.0  0.53089  0.19660  0.47709  1.0000
  H   H5168     1.0  0.50105  0.41736  0.24082  1.0000
  C   C3014     1.0  0.50964  0.27656  0.48342  1.0000
  H   H5169     1.0  0.74845  0.42673  0.44751  1.0000
  H   H5170     1.0  0.54733  0.24667  0.48312  1.0000
  H   H5171     1.0  0.51222  0.42347  0.53223  1.0000
  H   H5172     1.0  0.56178  0.20341  0.58707  1.0000
  H   H5173     1.0  0.70336  0.47770  0.54660  1.0000
  H   H5174     1.0  0.58887  0.31087  0.52314  1.0000
  H   H5175     1.0  0.53116  0.22109  0.48918  1.0000
  H   H5176     1.0  0.60425  0.04066  0.65989  1.0000
  H   H5177     1.0  0.65627  0.06497  0.54547  1.0000
  S   S866      1.0  0.65472  0.46787  0.54227  1.0000
  C   C3015     1.0  0.60601  0.43553  0.61588  1.0000
  H   H5178     1.0  0.59566  0.28464  0.53823  1.0000
  S   S867      1.0  0.56154  0.46085  0.65088  1.0000
  Fe  Fe434     1.0  0.54881  0.44677  0.64062  1.0000
  S   S868      1.0  0.56321  0.42252  0.63268  1.0000
  Fe  Fe435     1.0  0.53707  0.46365  0.67048  1.0000
  H   H5179     1.0  0.50793  0.17492  0.57944  1.0000
  S   S869      1.0  0.53724  0.46969  0.62312  1.0000
  Fe  Fe436     1.0  0.55771  0.39268  0.52290  1.0000
  S   S870      1.0  0.58408  0.37650  0.52250  1.0000
  S   S871      1.0  0.54753  0.40081  0.49913  1.0000
  Fe  Fe437     1.0  0.55231  0.39475  0.55935  1.0000
  S   S872      1.0  0.57814  0.37848  0.56199  1.0000
  S   S873      1.0  0.53277  0.40674  0.57936  1.0000
  Fe  Fe438     1.0  0.58741  0.39416  0.53656  1.0000
  S   S874      1.0  0.61238  0.40265  0.53075  1.0000
  Fe  Fe439     1.0  0.57221  0.36245  0.54778  1.0000
  S   S875      1.0  0.57904  0.33388  0.55482  1.0000
  S   S876      1.0  0.56190  0.41158  0.53485  1.0000
  S   S877      1.0  0.54547  0.37755  0.54727  1.0000
  H   H5180     1.0  0.58375  0.27061  0.51400  1.0000
  Fe  Fe440     1.0  0.56703  0.23313  0.54602  1.0000
  S   S878      1.0  0.55422  0.24557  0.56798  1.0000
  S   S879      1.0  0.59584  0.22661  0.54004  1.0000
  Fe  Fe441     1.0  0.53358  0.23664  0.53638  1.0000
  S   S880      1.0  0.51806  0.24902  0.55764  1.0000
  C   C3016     1.0  0.49979  0.12700  0.49392  1.0000
  Fe  Fe442     1.0  0.53834  0.26410  0.55055  1.0000
  S   S881      1.0  0.52981  0.29252  0.54653  1.0000
  Fe  Fe443     1.0  0.53524  0.22926  0.57307  1.0000
  S   S882      1.0  0.52465  0.21767  0.60006  1.0000
  S   S883      1.0  0.55271  0.25308  0.52806  1.0000
  S   S884      1.0  0.54921  0.21535  0.55233  1.0000
  Fe  Fe444     1.0  0.54308  0.12725  0.65060  1.0000
  S   S885      1.0  0.55463  0.14077  0.66275  1.0000
  S   S886      1.0  0.53040  0.13898  0.62827  1.0000
  Fe  Fe445     1.0  0.55656  0.09281  0.67154  1.0000
  S   S887      1.0  0.57008  0.10331  0.68459  1.0000
  S   S888      1.0  0.55539  0.06541  0.68007  1.0000
  Fe  Fe446     1.0  0.54581  0.12317  0.68729  1.0000
  Fe  Fe447     1.0  0.57778  0.11959  0.65896  1.0000
  S   S889      1.0  0.60337  0.12666  0.64691  1.0000
  S   S890      1.0  0.53188  0.11174  0.67533  1.0000
  S   S891      1.0  0.56664  0.10697  0.64567  1.0000
  Fe  Fe448     1.0  0.66607  0.10503  0.56700  1.0000
  S   S892      1.0  0.66510  0.13242  0.56465  1.0000
  S   S893      1.0  0.65449  0.08866  0.59119  1.0000
  Fe  Fe449     1.0  0.68296  0.10653  0.52941  1.0000
  S   S894      1.0  0.68298  0.13407  0.52465  1.0000
  H   H5181     1.0  0.57535  0.18926  0.50890  1.0000
  Fe  Fe450     1.0  0.69201  0.12670  0.54906  1.0000
  S   S895      1.0  0.71402  0.13630  0.55160  1.0000
  Fe  Fe451     1.0  0.65626  0.13655  0.54066  1.0000
  S   S896      1.0  0.63099  0.15116  0.53385  1.0000
  S   S897      1.0  0.69338  0.09895  0.55293  1.0000
  S   S898      1.0  0.65589  0.10929  0.54392  1.0000
  H   H5182     1.0  0.63167  0.38570  0.48477  1.0000
  S   S899      1.0  0.63783  0.48402  0.58515  1.0000
  H   H5183     1.0  0.50057  0.38863  0.52350  1.0000
  C   C3017     1.0  0.57374  0.18354  0.49917  1.0000
  Fe  Fe452     1.0  0.53630  0.01188  0.63585  1.0000
  S   S900      1.0  0.52782  0.04017  0.63117  1.0000
  Fe  Fe453     1.0  0.63801  0.48525  0.52486  1.0000
  H   H5184     1.0  0.58993  0.26468  0.54256  1.0000
  H   H5185     1.0  0.52758  0.11855  0.48854  1.0000
  Fe  Fe454     1.0  0.67489  0.48245  0.52665  1.0000
  H   H5186     1.0  0.51104  0.14470  0.58391  1.0000
  H   H5187     1.0  0.72799  0.47723  0.55822  1.0000
  C   C3018     1.0  0.58198  0.45315  0.59198  1.0000
  H   H5188     1.0  0.57650  0.33925  0.50945  1.0000
  H   H5189     1.0  0.61429  0.02797  0.49297  1.0000
  H   H5190     1.0  0.60932  0.15147  0.50388  1.0000
  H   H5191     1.0  0.61775  0.47234  0.61759  1.0000
  H   H5192     1.0  0.56652  0.24555  0.48922  1.0000
  C   C3019     1.0  0.54541  0.05945  0.66755  1.0000
  C   C3020     1.0  0.54147  0.04345  0.67238  1.0000
  C   C3021     1.0  0.53540  0.03772  0.66147  1.0000
  C   C3022     1.0  0.53355  0.04789  0.64564  1.0000
  C   C3023     1.0  0.53680  0.06417  0.64112  1.0000
  C   C3024     1.0  0.54263  0.07001  0.65212  1.0000
  H   H5193     1.0  0.54355  0.03528  0.68434  1.0000
  H   H5194     1.0  0.53235  0.02536  0.66526  1.0000
  H   H5195     1.0  0.53538  0.07205  0.62888  1.0000
  H   H5196     1.0  0.54562  0.08240  0.64836  1.0000
  C   C3025     1.0  0.61701  0.11604  0.63126  1.0000
  C   C3026     1.0  0.61513  0.10046  0.62990  1.0000
  C   C3027     1.0  0.62662  0.09213  0.61752  1.0000
  C   C3028     1.0  0.63967  0.09958  0.60613  1.0000
  C   C3029     1.0  0.64128  0.11529  0.60734  1.0000
  C   C3030     1.0  0.63023  0.12331  0.62006  1.0000
  H   H5197     1.0  0.60514  0.09463  0.63866  1.0000
  H   H5198     1.0  0.62538  0.07992  0.61675  1.0000
  H   H5199     1.0  0.65142  0.12099  0.59889  1.0000
  H   H5200     1.0  0.63195  0.13518  0.62127  1.0000
  C   C3031     1.0  0.60737  0.44953  0.56801  1.0000
  H   H5201     1.0  0.55250  0.31388  0.50254  1.0000
  H   H5202     1.0  0.59179  0.40626  0.57880  1.0000
  C   C3032     1.0  0.58106  0.31190  0.51395  1.0000
  H   H5203     1.0  0.50694  0.09174  0.64461  1.0000
  C   C3033     1.0  0.60558  0.20557  0.53855  1.0000
  C   C3034     1.0  0.62275  0.19919  0.53982  1.0000
  C   C3035     1.0  0.63078  0.18242  0.53852  1.0000
  C   C3036     1.0  0.62167  0.17212  0.53571  1.0000
  C   C3037     1.0  0.60454  0.17855  0.53433  1.0000
  C   C3038     1.0  0.59647  0.19519  0.53588  1.0000
  H   H5204     1.0  0.62985  0.20723  0.54183  1.0000
  H   H5205     1.0  0.64402  0.17753  0.53951  1.0000
  H   H5206     1.0  0.59748  0.17058  0.53217  1.0000
  H   H5207     1.0  0.58331  0.20008  0.53472  1.0000
  C   C3039     1.0  0.52770  0.19560  0.60729  1.0000
  C   C3040     1.0  0.52637  0.18884  0.62461  1.0000
  C   C3041     1.0  0.52780  0.17138  0.63103  1.0000
  C   C3042     1.0  0.53012  0.16065  0.62020  1.0000
  C   C3043     1.0  0.53159  0.16736  0.60282  1.0000
  C   C3044     1.0  0.53062  0.18480  0.59632  1.0000
  H   H5208     1.0  0.50676  0.20104  0.56616  1.0000
  H   H5209     1.0  0.52657  0.16633  0.64444  1.0000
  H   H5210     1.0  0.53359  0.15903  0.59439  1.0000
  H   H5211     1.0  0.53171  0.18994  0.58294  1.0000
  C   C3045     1.0  0.56440  0.32264  0.55394  1.0000
  C   C3046     1.0  0.54999  0.33093  0.54712  1.0000
  C   C3047     1.0  0.53916  0.32159  0.54540  1.0000
  C   C3048     1.0  0.54272  0.30388  0.55040  1.0000
  C   C3049     1.0  0.55693  0.29559  0.55757  1.0000
  C   C3050     1.0  0.56774  0.30496  0.55933  1.0000
  H   H5212     1.0  0.54745  0.34447  0.54271  1.0000
  H   H5213     1.0  0.52841  0.32813  0.53961  1.0000
  H   H5214     1.0  0.55974  0.28195  0.56156  1.0000
  H   H5215     1.0  0.57884  0.29849  0.56470  1.0000
  H   H5216     1.0  0.64067  0.03532  0.48883  1.0000
  C   C3051     1.0  0.52411  0.39979  0.65382  1.0000
  H   H5217     1.0  0.60340  0.00320  0.49817  1.0000
  H   H5218     1.0  0.58554  0.00078  0.66816  1.0000
  C   C3052     1.0  0.53740  0.35569  0.50134  1.0000
  C   C3053     1.0  0.54120  0.36898  0.50569  1.0000
  H   H5219     1.0  0.61328  0.47217  0.55008  1.0000
  C   C3054     1.0  0.59870  0.42437  0.58848  1.0000
  H   H5220     1.0  0.53561  0.34431  0.51076  1.0000
  H   H5221     1.0  0.54228  0.36779  0.51843  1.0000
  C   C3055     1.0  0.55440  0.41789  0.61828  1.0000
  C   C3056     1.0  0.56280  0.40396  0.61092  1.0000
  C   C3057     1.0  0.55636  0.40058  0.59875  1.0000
  C   C3058     1.0  0.54135  0.41095  0.59415  1.0000
  C   C3059     1.0  0.53271  0.42461  0.60183  1.0000
  C   C3060     1.0  0.53922  0.42810  0.61388  1.0000
  H   H5222     1.0  0.57437  0.39584  0.61452  1.0000
  H   H5223     1.0  0.56284  0.38975  0.59321  1.0000
  H   H5224     1.0  0.52097  0.43246  0.59845  1.0000
  H   H5225     1.0  0.53238  0.43856  0.61985  1.0000
  C   C3061     1.0  0.71911  0.47160  0.52326  1.0000
  C   C3062     1.0  0.73592  0.46813  0.51384  1.0000
  C   C3063     1.0  0.59178  0.42539  0.49111  1.0000
  H   H5226     1.0  0.55917  0.46842  0.58309  1.0000
  C   C3064     1.0  0.73023  0.47469  0.54581  1.0000
  C   C3065     1.0  0.71627  0.47502  0.53923  1.0000
  C   C3066     1.0  0.74782  0.12883  0.55405  1.0000
  H   H5227     1.0  0.70392  0.09107  0.64438  1.0000
  H   H5228     1.0  0.73815  0.46590  0.50134  1.0000
  C   C3067     1.0  0.61638  0.45794  0.52048  1.0000
  C   C3068     1.0  0.60053  0.45410  0.52209  1.0000
  C   C3069     1.0  0.59892  0.43716  0.52606  1.0000
  C   C3070     1.0  0.61331  0.42401  0.52769  1.0000
  C   C3071     1.0  0.62906  0.42788  0.52636  1.0000
  C   C3072     1.0  0.63055  0.44478  0.52301  1.0000
  H   H5229     1.0  0.58948  0.46425  0.52033  1.0000
  H   H5230     1.0  0.58666  0.43428  0.52748  1.0000
  H   H5231     1.0  0.64022  0.41775  0.52776  1.0000
  H   H5232     1.0  0.64281  0.44761  0.52180  1.0000
  N   N213      1.0  0.61499  0.12949  0.49300  1.0000
  H   H5233     1.0  0.57102  0.48036  0.68570  1.0000
  H   H5234     1.0  0.57436  0.10428  0.49362  1.0000
  H   H5235     1.0  0.72581  0.44293  0.49915  1.0000
  H   H5236     1.0  0.65518  0.02104  0.53016  1.0000
  H   H5237     1.0  0.61319  0.05369  0.64018  1.0000
  H   H5238     1.0  0.57607  0.44705  0.60489  1.0000
  C   C3073     1.0  0.73370  0.12229  0.55485  1.0000
  H   H5239     1.0  0.59625  0.47683  0.56731  1.0000
  H   H5240     1.0  0.55945  0.00478  0.70693  1.0000
  C   C3074     1.0  0.73527  0.10475  0.55900  1.0000
  H   H5241     1.0  0.72468  0.09952  0.55948  1.0000
  C   C3075     1.0  0.53424  0.47460  0.70784  1.0000
  C   C3076     1.0  0.57423  0.43782  0.49325  1.0000
  H   H5242     1.0  0.58533  0.18314  0.48886  1.0000
  C   C3077     1.0  0.59874  0.00822  0.57228  1.0000
  H   H5243     1.0  0.55376  0.22003  0.50353  1.0000
  H   H5244     1.0  0.56582  0.13267  0.70881  1.0000
  H   H5245     1.0  0.60407  0.41962  0.56300  1.0000
  S   S901      1.0  0.53715  0.45780  0.69812  1.0000
  H   H5246     1.0  0.51660  0.39806  0.52509  1.0000
  H   H5247     1.0  0.62002  0.00709  0.61677  1.0000
  C   C3078     1.0  0.60586  0.29480  0.49831  1.0000
  H   H5248     1.0  0.64464  0.11082  0.50570  1.0000
  H   H5249     1.0  0.70254  0.05260  0.50981  1.0000
  S   S902      1.0  0.66003  0.99976  0.50450  1.0000
  H   H5250     1.0  0.68505  0.02196  0.54505  1.0000
  S   S903      1.0  0.52438  0.48805  0.65570  1.0000
  H   H5251     1.0  0.60924  0.11143  0.51658  1.0000
  H   H5252     1.0  0.59488  0.06259  0.65436  1.0000
  H   H5253     1.0  0.57285  0.02129  0.66236  1.0000
  H   H5254     1.0  0.58993  0.41375  0.50092  1.0000
  S   S904      1.0  0.61833  0.47923  0.51473  1.0000
  H   H5255     1.0  0.50296  0.15122  0.60336  1.0000
  C   C3079     1.0  0.68658  0.13406  0.59613  1.0000
  H   H5256     1.0  0.56776  0.16539  0.62588  1.0000
  H   H5257     1.0  0.58770  0.13880  0.52038  1.0000
  H   H5258     1.0  0.58693  0.48023  0.63047  1.0000
  C   C3080     1.0  0.70561  0.07896  0.59651  1.0000
  H   H5259     1.0  0.60529  0.42206  0.61851  1.0000
  H   H5260     1.0  0.57722  0.13557  0.50555  1.0000
  H   H5261     1.0  0.72427  0.09021  0.60040  1.0000
  H   H5262     1.0  0.52410  0.19715  0.63314  1.0000
  C   C3081     1.0  0.61996  0.14041  0.50159  1.0000
  H   H5263     1.0  0.60827  0.02067  0.60111  1.0000
  H   H5264     1.0  0.60835  0.18469  0.58169  1.0000
  C   C3082     1.0  0.51222  0.39862  0.64325  1.0000
  C   C3083     1.0  0.64052  0.10441  0.49810  1.0000
  H   H5265     1.0  0.74675  0.14239  0.55089  1.0000
  H   H5266     1.0  0.73198  0.41572  0.49163  1.0000
  H   H5267     1.0  0.61324  0.29471  0.50756  1.0000
  H   H5268     1.0  0.55270  0.30367  0.48654  1.0000
  H   H5269     1.0  0.58156  0.13404  0.72940  1.0000
  H   H5270     1.0  0.69238  0.07696  0.60173  1.0000
  H   H5271     1.0  0.62049  0.44182  0.56436  1.0000
  H   H5272     1.0  0.60035  0.44849  0.55904  1.0000
  H   H5273     1.0  0.51588  0.27086  0.49431  1.0000
  C   C3084     1.0  0.72213  0.44231  0.48770  1.0000
  H   H5274     1.0  0.49955  0.44747  0.54668  1.0000
  H   H5275     1.0  0.61178  0.45634  0.59595  1.0000
  H   H5276     1.0  0.55187  0.08996  0.72294  1.0000
  Fe  Fe455     1.0  0.51485  0.47165  0.64494  1.0000
  S   S905      1.0  0.51960  0.23606  0.51734  1.0000
  H   H5277     1.0  0.50073  0.06649  0.64363  1.0000
  H   H5278     1.0  0.67265  0.06469  0.51375  1.0000
  H   H5279     1.0  0.71582  0.10581  0.64469  1.0000
  H   H5280     1.0  0.57368  0.45810  0.56772  1.0000
  N   N214      1.0  0.58701  0.29669  0.50598  1.0000
  H   H5281     1.0  0.60009  0.11010  0.50038  1.0000
  C   C3085     1.0  0.60873  0.46819  0.56384  1.0000
  S   S906      1.0  0.52553  0.44750  0.66152  1.0000
  H   H5282     1.0  0.51136  0.09167  0.61558  1.0000
  H   H5283     1.0  0.71334  0.07797  0.61886  1.0000
  H   H5284     1.0  0.56133  0.44601  0.58569  1.0000
  H   H5285     1.0  0.50190  0.38657  0.55289  1.0000
  H   H5286     1.0  0.50234  0.40300  0.61227  1.0000
  H   H5287     1.0  0.60819  0.26864  0.52641  1.0000
  C   C3086     1.0  0.56008  0.13036  0.72215  1.0000
  H   H5288     1.0  0.54661  0.19420  0.50391  1.0000
  H   H5289     1.0  0.54605  0.04191  0.71408  1.0000
  H   H5290     1.0  0.61173  0.01615  0.64973  1.0000
  H   H5291     1.0  0.50313  0.32036  0.54266  1.0000
  H   H5292     1.0  0.51482  0.38514  0.64231  1.0000
  C   C3087     1.0  0.56845  0.45636  0.58144  1.0000
  H   H5293     1.0  0.57547  0.21585  0.49278  1.0000
  C   C3088     1.0  0.50255  0.39943  0.52740  1.0000
  H   H5294     1.0  0.55421  0.18429  0.48671  1.0000
  C   C3089     1.0  0.60307  0.11924  0.50598  1.0000
  H   H5295     1.0  0.50577  0.07233  0.61564  1.0000
  H   H5296     1.0  0.65345  0.03013  0.54779  1.0000
  H   H5297     1.0  0.51627  0.15112  0.49826  1.0000
  H   H5298     1.0  0.68740  0.01054  0.52968  1.0000
  H   H5299     1.0  0.51102  0.99944  0.72880  1.0000
  H   H5300     1.0  0.52201  0.43999  0.54573  1.0000
  C   C3090     1.0  0.61107  0.44315  0.59683  1.0000
  S   S907      1.0  0.70210  0.47155  0.51456  1.0000
  H   H5301     1.0  0.58975  0.42035  0.60048  1.0000
  H   H5302     1.0  0.52082  0.39337  0.66723  1.0000
  H   H5303     1.0  0.55365  0.29135  0.50734  1.0000
  H   H5304     1.0  0.50750  0.43504  0.56520  1.0000
  N   N215      1.0  0.68292  0.03775  0.52013  1.0000
  C   C3091     1.0  0.55509  0.03954  0.72238  1.0000
  H   H5305     1.0  0.69912  0.12224  0.62531  1.0000
  C   C3092     1.0  0.70051  0.04043  0.51865  1.0000
  C   C3093     1.0  0.67000  0.05349  0.52388  1.0000
  C   C3094     1.0  0.54000  0.47140  0.72277  1.0000
  H   H5306     1.0  0.62814  0.15898  0.59653  1.0000
  H   H5307     1.0  0.55267  0.13118  0.49383  1.0000
  N   N216      1.0  0.69926  0.10375  0.61154  1.0000
  H   H5308     1.0  0.60826  0.30607  0.48818  1.0000
  C   C3095     1.0  0.51107  0.18869  0.53457  1.0000
  H   H5309     1.0  0.60187  0.00468  0.64173  1.0000
  H   H5310     1.0  0.52081  0.41059  0.54943  1.0000
  C   C3096     1.0  0.60939  0.48238  0.61062  1.0000
  H   H5311     1.0  0.70188  0.04183  0.53094  1.0000
  H   H5312     1.0  0.67608  0.06025  0.48803  1.0000
  H   H5313     1.0  0.59374  0.44292  0.62196  1.0000
  H   H5314     1.0  0.64691  0.14031  0.49924  1.0000
  H   H5315     1.0  0.50251  0.99976  0.70491  1.0000
  C   C3097     1.0  0.50942  0.42033  0.54619  1.0000
  C   C3098     1.0  0.67123  0.11100  0.63394  1.0000
  C   C3099     1.0  0.61732  0.02001  0.60888  1.0000
  H   H5316     1.0  0.58337  0.20149  0.57560  1.0000
  H   H5317     1.0  0.67838  0.06675  0.53833  1.0000
  S   S908      1.0  0.51901  0.99375  0.64841  1.0000
  H   H5318     1.0  0.62741  0.14801  0.58099  1.0000
  H   H5319     1.0  0.53740  0.39340  0.64871  1.0000
  H   H5320     1.0  0.58150  0.16441  0.63904  1.0000
  H   H5321     1.0  0.58984  0.01803  0.67324  1.0000
  C   C3100     1.0  0.57820  0.17076  0.62657  1.0000
  H   H5322     1.0  0.58615  0.04517  0.60041  1.0000
  H   H5323     1.0  0.58157  0.42750  0.57114  1.0000
  H   H5324     1.0  0.50909  0.29095  0.51502  1.0000
  H   H5325     1.0  0.62446  0.43650  0.59220  1.0000
  C   C3101     1.0  0.68117  0.03460  0.50397  1.0000
  C   C3102     1.0  0.58588  0.12937  0.51444  1.0000
  H   H5326     1.0  0.62951  0.02209  0.59996  1.0000
  H   H5327     1.0  0.53073  0.20130  0.53372  1.0000
  H   H5328     1.0  0.61593  0.43605  0.62216  1.0000
  Fe  Fe456     1.0  0.64583  0.48874  0.55672  1.0000
  C   C3103     1.0  0.71555  0.02615  0.51323  1.0000
  H   H5329     1.0  0.51735  0.30950  0.50533  1.0000
  C   C3104     1.0  0.51847  0.20275  0.53078  1.0000
  C   C3105     1.0  0.61508  0.00128  0.56379  1.0000
  S   S909      1.0  0.62209  0.00953  0.54216  1.0000
  H   H5330     1.0  0.50388  0.08855  0.71912  1.0000
  H   H5331     1.0  0.65228  0.09736  0.49092  1.0000
  C   C3106     1.0  0.63009  0.11704  0.48554  1.0000
  H   H5332     1.0  0.61141  0.41587  0.58973  1.0000
  H   H5333     1.0  0.66093  0.00790  0.54916  1.0000
  H   H5334     1.0  0.61833  0.46996  0.56970  1.0000
  H   H5335     1.0  0.68783  0.14207  0.58316  1.0000
  Fe  Fe457     1.0  0.54790  0.48396  0.63518  1.0000
  H   H5336     1.0  0.58280  0.46557  0.59367  1.0000
  H   H5337     1.0  0.71003  0.11756  0.58706  1.0000
  N   N217      1.0  0.59943  0.44265  0.58609  1.0000
  C   C3107     1.0  0.74707  0.47086  0.53651  1.0000
  H   H5338     1.0  0.57272  0.17028  0.50536  1.0000
  H   H5339     1.0  0.68101  0.12755  0.49575  1.0000
  C   C3108     1.0  0.59364  0.41948  0.57446  1.0000
  C   C3109     1.0  0.57513  0.19669  0.58782  1.0000
  H   H5340     1.0  0.57913  0.12045  0.52466  1.0000
  H   H5341     1.0  0.58043  0.12728  0.60739  1.0000
  H   H5342     1.0  0.72589  0.08975  0.63286  1.0000
  H   H5343     1.0  0.57826  0.20024  0.59815  1.0000
  H   H5344     1.0  0.63535  0.16687  0.57449  1.0000
  H   H5345     1.0  0.71619  0.02461  0.50042  1.0000
  H   H5346     1.0  0.63343  0.09477  0.50651  1.0000
  H   H5347     1.0  0.59051  0.01860  0.56550  1.0000
  C   C3110     1.0  0.51011  0.21858  0.52297  1.0000
  C   C3111     1.0  0.66946  0.05830  0.54048  1.0000
  C   C3112     1.0  0.66128  0.02046  0.54049  1.0000
  H   H5348     1.0  0.60404  0.15736  0.61803  1.0000
  H   H5349     1.0  0.62205  0.13314  0.51432  1.0000
  H   H5350     1.0  0.66785  0.03368  0.50490  1.0000
  S   S910      1.0  0.55636  0.99863  0.65097  1.0000
  H   H5351     1.0  0.50063  0.42018  0.67183  1.0000
  C   C3113     1.0  0.69721  0.11609  0.59508  1.0000
  H   H5352     1.0  0.56780  0.31251  0.52145  1.0000
  C   C3114     1.0  0.52948  0.07412  0.72159  1.0000
  H   H5353     1.0  0.50200  0.12350  0.50700  1.0000
  C   C3115     1.0  0.55805  0.30210  0.49772  1.0000
  H   H5354     1.0  0.73870  0.99129  0.50450  1.0000
  C   C3116     1.0  0.56217  0.22076  0.49068  1.0000
  H   H5355     1.0  0.67278  0.13416  0.60083  1.0000
  H   H5356     1.0  0.57952  0.13903  0.62224  1.0000
  C   C3117     1.0  0.60760  0.17151  0.58233  1.0000
  N   N218      1.0  0.59499  0.03193  0.63318  1.0000
  C   C3118     1.0  0.61074  0.03379  0.61940  1.0000
  C   C3119     1.0  0.58889  0.04769  0.64029  1.0000
  C   C3120     1.0  0.58084  0.02979  0.62646  1.0000
  S   S911      1.0  0.53151  0.12740  0.71340  1.0000
  N   N219      1.0  0.59276  0.16639  0.59601  1.0000
  C   C3121     1.0  0.60121  0.05108  0.64913  1.0000
  C   C3122     1.0  0.57546  0.04376  0.61151  1.0000
  H   H5357     1.0  0.56596  0.14727  0.60681  1.0000
  H   H5358     1.0  0.60868  0.04631  0.61050  1.0000
  H   H5359     1.0  0.62163  0.03363  0.62476  1.0000
  H   H5360     1.0  0.57645  0.04757  0.64938  1.0000
  H   H5361     1.0  0.58637  0.05916  0.63021  1.0000
  H   H5362     1.0  0.56375  0.06301  0.71339  1.0000
  H   H5363     1.0  0.56899  0.02941  0.63645  1.0000
  H   H5364     1.0  0.56761  0.03302  0.71573  1.0000
  C   C3123     1.0  0.71136  0.08773  0.60723  1.0000
  S   S912      1.0  0.54927  0.99902  0.61432  1.0000
  H   H5365     1.0  0.68417  0.08648  0.62949  1.0000
  H   H5366     1.0  0.59441  0.33060  0.49480  1.0000
  C   C3124     1.0  0.53822  0.48465  0.73064  1.0000
  H   H5367     1.0  0.62797  0.27505  0.49120  1.0000
  C   C3125     1.0  0.68231  0.09958  0.62164  1.0000
  H   H5368     1.0  0.67267  0.04726  0.55064  1.0000
  C   C3126     1.0  0.57659  0.17746  0.59083  1.0000
  H   H5369     1.0  0.56548  0.04026  0.60747  1.0000
  C   C3127     1.0  0.59291  0.00164  0.58949  1.0000
  C   C3128     1.0  0.54365  0.12708  0.72775  1.0000
  C   C3129     1.0  0.59951  0.01638  0.64655  1.0000
  H   H5370     1.0  0.69113  0.14037  0.60346  1.0000
  C   C3130     1.0  0.55321  0.99419  0.71104  1.0000
  C   C3131     1.0  0.59507  0.27465  0.53229  1.0000
  C   C3132     1.0  0.70766  0.11086  0.62099  1.0000
  H   H5371     1.0  0.58021  0.48696  0.66397  1.0000
  C   C3133     1.0  0.58332  0.28136  0.51950  1.0000
  H   H5372     1.0  0.61331  0.39330  0.49951  1.0000
  C   C3134     1.0  0.51448  0.29844  0.50271  1.0000
  C   C3135     1.0  0.54333  0.38383  0.49364  1.0000
  C   C3136     1.0  0.50216  0.30487  0.49044  1.0000
  H   H5373     1.0  0.59350  0.14662  0.58376  1.0000
  C   C3137     1.0  0.59330  0.14818  0.59652  1.0000
  H   H5374     1.0  0.57298  0.44445  0.50338  1.0000
  H   H5375     1.0  0.56998  0.28405  0.52699  1.0000
  H   H5376     1.0  0.67693  0.10907  0.64495  1.0000
  H   H5377     1.0  0.60523  0.13976  0.60006  1.0000
  C   C3138     1.0  0.55728  0.19299  0.49266  1.0000
  C   C3139     1.0  0.63633  0.14729  0.49264  1.0000
  H   H5378     1.0  0.71425  0.06633  0.59611  1.0000
  C   C3140     1.0  0.57880  0.14034  0.60901  1.0000
  C   C3141     1.0  0.51251  0.08601  0.72794  1.0000
  C   C3142     1.0  0.71355  0.09853  0.63663  1.0000
  H   H5379     1.0  0.56366  0.43097  0.49682  1.0000
  C   C3143     1.0  0.62554  0.16055  0.58394  1.0000
  C   C3144     1.0  0.58602  0.01437  0.66334  1.0000
  H   H5380     1.0  0.70673  0.08612  0.58331  1.0000
  H   H5381     1.0  0.50149  0.09069  0.59962  1.0000
  H   H5382     1.0  0.53587  0.08129  0.70938  1.0000
  C   C3145     1.0  0.68002  0.02239  0.53396  1.0000
  H   H5383     1.0  0.52456  0.41314  0.65261  1.0000
  H   H5384     1.0  0.66875  0.12459  0.62798  1.0000
  H   H5385     1.0  0.56957  0.05609  0.61520  1.0000
  H   H5386     1.0  0.57529  0.17492  0.57899  1.0000
  H   H5387     1.0  0.58037  0.00719  0.59590  1.0000
  H   H5388     1.0  0.52608  0.06403  0.71792  1.0000
  H   H5389     1.0  0.60577  0.17151  0.56975  1.0000
  H   H5390     1.0  0.51697  0.40560  0.63037  1.0000
  H   H5391     1.0  0.68921  0.02216  0.50164  1.0000
  H   H5392     1.0  0.50754  0.46821  0.61240  1.0000
  H   H5393     1.0  0.69106  0.11131  0.58769  1.0000
  C   C3146     1.0  0.50936  0.43659  0.55141  1.0000
  C   C3147     1.0  0.59469  0.16838  0.61262  1.0000
  C   C3148     1.0  0.57773  0.29880  0.49226  1.0000
  H   H5394     1.0  0.60016  0.17966  0.61057  1.0000
  C   C3149     1.0  0.61805  0.39251  0.48609  1.0000
  H   H5395     1.0  0.51760  0.17641  0.54050  1.0000
  H   H5396     1.0  0.58416  0.01741  0.62265  1.0000
  S   S913      1.0  0.69230  0.09153  0.50889  1.0000
  H   H5397     1.0  0.56499  0.17459  0.60017  1.0000
  H   H5398     1.0  0.57324  0.18434  0.62704  1.0000
  C   C3150     1.0  0.55742  0.05585  0.72564  1.0000
  H   H5399     1.0  0.71916  0.11533  0.61247  1.0000
  H   H5400     1.0  0.65685  0.05297  0.52358  1.0000
  H   H5401     1.0  0.67425  0.09954  0.61307  1.0000
  H   H5402     1.0  0.65855  0.10749  0.63903  1.0000
  C   C3151     1.0  0.68553  0.04806  0.48784  1.0000
  H   H5403     1.0  0.71499  0.01389  0.52234  1.0000
  H   H5404     1.0  0.69869  0.05001  0.48549  1.0000
  C   C3152     1.0  0.58132  0.32934  0.50184  1.0000
  H   H5405     1.0  0.50470  0.39723  0.57447  1.0000
  C   C3153     1.0  0.59189  0.48676  0.61789  1.0000
  H   H5406     1.0  0.60853  0.26832  0.49608  1.0000
  H   H5407     1.0  0.50863  0.02639  0.71571  1.0000
  C   C3154     1.0  0.53631  0.35693  0.48477  1.0000
  C   C3155     1.0  0.68702  0.10315  0.48956  1.0000
  H   H5408     1.0  0.51458  0.09845  0.72799  1.0000
  H   H5409     1.0  0.52694  0.29104  0.49702  1.0000
  H   H5410     1.0  0.54620  0.45867  0.72806  1.0000
  H   H5411     1.0  0.72777  0.02935  0.51289  1.0000
  H   H5412     1.0  0.54898  0.99613  0.68643  1.0000
  C   C3156     1.0  0.50539  0.16158  0.49510  1.0000
  H   H5413     1.0  0.50790  0.11651  0.62553  1.0000
  H   H5414     1.0  0.58178  0.28726  0.48687  1.0000
  H   H5415     1.0  0.63404  0.16062  0.49378  1.0000
  H   H5416     1.0  0.57270  0.33231  0.49295  1.0000
  H   H5417     1.0  0.60084  0.43006  0.49535  1.0000
  C   C3157     1.0  0.68141  0.12075  0.48654  1.0000
  Fe  Fe458     1.0  0.64222  0.99095  0.52856  1.0000
  H   H5418     1.0  0.70850  0.44127  0.49166  1.0000
  H   H5419     1.0  0.50457  0.17129  0.50209  1.0000
  C   C3158     1.0  0.50166  0.08633  0.61326  1.0000
  H   H5420     1.0  0.55730  0.48813  0.67115  1.0000
  H   H5421     1.0  0.59409  0.14922  0.48465  1.0000
  C   C3159     1.0  0.61438  0.27941  0.49001  1.0000
  C   C3160     1.0  0.54736  0.98924  0.69936  1.0000
  H   H5422     1.0  0.50023  0.45747  0.59126  1.0000
  H   H5423     1.0  0.63065  0.01218  0.48456  1.0000
  H   H5424     1.0  0.50016  0.33860  0.51578  1.0000
  C   C3161     1.0  0.49962  0.15204  0.59127  1.0000
  H   H5425     1.0  0.49972  0.34218  0.55544  1.0000
  C   C3162     1.0  0.60566  0.01026  0.48483  1.0000
  C   C3163     1.0  0.56895  0.13120  0.73382  1.0000
  H   H5426     1.0  0.56698  0.05135  0.73375  1.0000
  N   N220      1.0  0.54157  0.06724  0.73355  1.0000
  Fe  Fe459     1.0  0.53012  0.12180  0.82102  1.0000
  S   S914      1.0  0.53504  0.14560  0.80237  1.0000
  H   H5427     1.0  0.71339  0.46499  0.95752  1.0000
  Fe  Fe460     1.0  0.56567  0.11132  0.82824  1.0000
  S   S915      1.0  0.57366  0.13414  0.81002  1.0000
  S   S916      1.0  0.58173  0.09163  0.84513  1.0000
  Fe  Fe461     1.0  0.54803  0.14852  0.82127  1.0000
  S   S917      1.0  0.54658  0.17361  0.82711  1.0000
  Fe  Fe462     1.0  0.56008  0.12895  0.79287  1.0000
  S   S918      1.0  0.57269  0.13056  0.76528  1.0000
  S   S919      1.0  0.54089  0.12612  0.84074  1.0000
  S   S920      1.0  0.55420  0.10480  0.81028  1.0000
  Fe  Fe463     1.0  0.69248  0.10445  0.87689  1.0000
  S   S921      1.0  0.68148  0.09276  0.90352  1.0000
  S   S922      1.0  0.71677  0.11445  0.86809  1.0000
  Fe  Fe464     1.0  0.66265  0.10159  0.86379  1.0000
  S   S923      1.0  0.64918  0.08992  0.88941  1.0000
  S   S924      1.0  0.65240  0.10908  0.84018  1.0000
  Fe  Fe465     1.0  0.65643  0.10936  0.89816  1.0000
  S   S925      1.0  0.63786  0.12359  0.91714  1.0000
  Fe  Fe466     1.0  0.67539  0.07449  0.89208  1.0000
  S   S926      1.0  0.68234  0.04616  0.90117  1.0000
  S   S927      1.0  0.66787  0.12224  0.87229  1.0000
  S   S928      1.0  0.68848  0.08490  0.86570  1.0000
  Fe  Fe467     1.0  0.54926  0.19903  0.94143  1.0000
  S   S929      1.0  0.56434  0.21908  0.92823  1.0000
  S   S930      1.0  0.54819  0.18527  0.96859  1.0000
  Fe  Fe468     1.0  0.53773  0.19970  0.90970  1.0000
  S   S931      1.0  0.55158  0.22002  0.89383  1.0000
  S   S932      1.0  0.52229  0.18631  0.90150  1.0000
  Fe  Fe469     1.0  0.57291  0.20509  0.90712  1.0000
  S   S933      1.0  0.59996  0.19913  0.89231  1.0000
  Fe  Fe470     1.0  0.54172  0.23218  0.91627  1.0000
  S   S934      1.0  0.52768  0.25930  0.91615  1.0000
  S   S935      1.0  0.55969  0.18390  0.92132  1.0000
  S   S936      1.0  0.52594  0.21304  0.93116  1.0000
  H   H5428     1.0  0.50568  0.08048  0.74063  1.0000
  C   C3164     1.0  0.51238  0.44927  0.76546  1.0000
  H   H5429     1.0  0.61419  0.48721  0.80117  1.0000
  H   H5430     1.0  0.50067  0.12767  0.77095  1.0000
  C   C3165     1.0  0.50714  0.23367  0.88720  1.0000
  H   H5431     1.0  0.50860  0.17318  0.74688  1.0000
  H   H5432     1.0  0.74286  0.04850  0.91869  1.0000
  Fe  Fe471     1.0  0.63429  0.44751  0.89923  1.0000
  S   S937      1.0  0.65402  0.43109  0.88301  1.0000
  S   S938      1.0  0.63601  0.43763  0.92658  1.0000
  Fe  Fe472     1.0  0.61914  0.46986  0.86924  1.0000
  S   S939      1.0  0.63807  0.45518  0.85107  1.0000
  H   H5433     1.0  0.51164  0.17853  0.81403  1.0000
  Fe  Fe473     1.0  0.63270  0.43229  0.87098  1.0000
  S   S940      1.0  0.62922  0.41014  0.86303  1.0000
  Fe  Fe474     1.0  0.65747  0.45553  0.86501  1.0000
  S   S941      1.0  0.68414  0.45869  0.85103  1.0000
  S   S942      1.0  0.61257  0.44685  0.88853  1.0000
  S   S943      1.0  0.63897  0.47215  0.88185  1.0000
  Fe  Fe475     1.0  0.54760  0.34550  0.86856  1.0000
  S   S944      1.0  0.53522  0.35355  0.89314  1.0000
  S   S945      1.0  0.56113  0.31873  0.86646  1.0000
  Fe  Fe476     1.0  0.54007  0.38166  0.84782  1.0000
  S   S946      1.0  0.52739  0.39253  0.87074  1.0000
  S   S947      1.0  0.54304  0.39753  0.82135  1.0000
  Fe  Fe477     1.0  0.54902  0.37490  0.88195  1.0000
  S   S948      1.0  0.56136  0.38305  0.89823  1.0000
  S   S949      1.0  0.56286  0.36574  0.85825  1.0000
  S   S950      1.0  0.52619  0.36048  0.85570  1.0000
  H   H5434     1.0  0.73978  0.41923  0.91522  1.0000
  H   H5435     1.0  0.50712  0.37821  0.81441  1.0000
  C   C3166     1.0  0.59476  0.41745  0.94721  1.0000
  H   H5436     1.0  0.61661  0.41599  0.95685  1.0000
  C   C3167     1.0  0.53645  0.12395  0.74512  1.0000
  H   H5437     1.0  0.67314  0.18394  0.88825  1.0000
  C   C3168     1.0  0.69707  0.46490  0.86065  1.0000
  C   C3169     1.0  0.69114  0.46841  0.87679  1.0000
  C   C3170     1.0  0.70207  0.47277  0.88427  1.0000
  C   C3171     1.0  0.71903  0.47334  0.87577  1.0000
  H   H5438     1.0  0.53574  0.09094  0.74165  1.0000
  C   C3172     1.0  0.71391  0.46581  0.85207  1.0000
  H   H5439     1.0  0.67817  0.46772  0.88349  1.0000
  H   H5440     1.0  0.57664  0.39582  0.97484  1.0000
  H   H5441     1.0  0.50835  0.05159  0.75721  1.0000
  C   C3173     1.0  0.53350  0.05823  0.75077  1.0000
  C   C3174     1.0  0.63207  0.45134  0.94021  1.0000
  C   C3175     1.0  0.62373  0.46831  0.93623  1.0000
  H   H5442     1.0  0.55713  0.07026  0.75870  1.0000
  H   H5443     1.0  0.57115  0.46527  0.85999  1.0000
  H   H5444     1.0  0.50060  0.13238  0.85767  1.0000
  C   C3176     1.0  0.63621  0.44458  0.95608  1.0000
  H   H5445     1.0  0.62042  0.47357  0.92402  1.0000
  S   S951      1.0  0.53391  0.99992  0.78457  1.0000
  C   C3177     1.0  0.51257  0.04115  0.82052  1.0000
  H   H5446     1.0  0.58265  0.45888  0.80409  1.0000
  C   C3178     1.0  0.61072  0.40219  0.87336  1.0000
  C   C3179     1.0  0.60583  0.39162  0.86611  1.0000
  C   C3180     1.0  0.59073  0.38566  0.87367  1.0000
  C   C3181     1.0  0.58049  0.39013  0.88861  1.0000
  C   C3182     1.0  0.58563  0.40031  0.89614  1.0000
  C   C3183     1.0  0.60066  0.40641  0.88848  1.0000
  H   H5447     1.0  0.61365  0.38822  0.85447  1.0000
  H   H5448     1.0  0.58703  0.37768  0.86786  1.0000
  H   H5449     1.0  0.57785  0.40365  0.90780  1.0000
  H   H5450     1.0  0.60451  0.41425  0.89435  1.0000
  N   N221      1.0  0.63308  0.99684  0.95746  1.0000
  C   C3184     1.0  0.51794  0.45385  0.81531  1.0000
  H   H5451     1.0  0.61794  0.42342  0.98139  1.0000
  C   C3185     1.0  0.51966  0.42497  0.83176  1.0000
  C   C3186     1.0  0.53332  0.41915  0.81932  1.0000
  C   C3187     1.0  0.53915  0.43069  0.80482  1.0000
  C   C3188     1.0  0.53161  0.44802  0.80290  1.0000
  H   H5452     1.0  0.74070  0.98959  0.85188  1.0000
  H   H5453     1.0  0.54963  0.42623  0.79510  1.0000
  H   H5454     1.0  0.53624  0.45676  0.79167  1.0000
  H   H5455     1.0  0.56723  0.00099  0.84981  1.0000
  C   C3189     1.0  0.70981  0.41854  0.88599  1.0000
  H   H5456     1.0  0.64270  0.43145  0.95916  1.0000
  C   C3190     1.0  0.50553  0.28168  0.87524  1.0000
  H   H5457     1.0  0.65214  0.48686  0.95050  1.0000
  H   H5458     1.0  0.61970  0.48299  0.82961  1.0000
  H   H5459     1.0  0.71833  0.48486  0.95538  1.0000
  H   H5460     1.0  0.73505  0.44149  0.90735  1.0000
  H   H5461     1.0  0.52581  0.01563  0.84511  1.0000
  H   H5462     1.0  0.70966  0.99501  0.85257  1.0000
  C   C3191     1.0  0.53737  0.27562  0.90252  1.0000
  C   C3192     1.0  0.55289  0.27209  0.89107  1.0000
  C   C3193     1.0  0.56006  0.28542  0.88000  1.0000
  C   C3194     1.0  0.55177  0.30230  0.88036  1.0000
  C   C3195     1.0  0.53628  0.30582  0.89185  1.0000
  C   C3196     1.0  0.52909  0.29251  0.90288  1.0000
  H   H5463     1.0  0.55933  0.25910  0.89068  1.0000
  H   H5464     1.0  0.57205  0.28264  0.87112  1.0000
  H   H5465     1.0  0.52983  0.31878  0.89222  1.0000
  H   H5466     1.0  0.51703  0.29531  0.91168  1.0000
  H   H5467     1.0  0.68778  0.48286  0.92616  1.0000
  H   H5468     1.0  0.52571  0.03397  0.75984  1.0000
  H   H5469     1.0  0.51074  0.15574  0.73789  1.0000
  H   H5470     1.0  0.53191  0.22089  0.96549  1.0000
  C   C3197     1.0  0.66647  0.03609  0.90103  1.0000
  C   C3198     1.0  0.64919  0.04409  0.90460  1.0000
  C   C3199     1.0  0.63656  0.03597  0.90462  1.0000
  H   H5471     1.0  0.64551  0.05640  0.90769  1.0000
  H   H5472     1.0  0.62320  0.04221  0.90748  1.0000
  C   C3200     1.0  0.62739  0.14453  0.90987  1.0000
  C   C3201     1.0  0.63250  0.15340  0.89338  1.0000
  C   C3202     1.0  0.62422  0.17028  0.88812  1.0000
  C   C3203     1.0  0.61058  0.17823  0.89924  1.0000
  C   C3204     1.0  0.60550  0.16939  0.91573  1.0000
  C   C3205     1.0  0.61395  0.15262  0.92105  1.0000
  H   H5473     1.0  0.64284  0.14739  0.88468  1.0000
  H   H5474     1.0  0.62822  0.17710  0.87536  1.0000
  H   H5475     1.0  0.59525  0.17557  0.92451  1.0000
  H   H5476     1.0  0.61002  0.14588  0.93387  1.0000
  S   S952      1.0  0.50400  0.11592  0.82842  1.0000
  C   C3206     1.0  0.54523  0.12491  0.75678  1.0000
  H   H5477     1.0  0.71094  0.15028  0.87758  1.0000
  C   C3207     1.0  0.65015  0.99532  0.94518  1.0000
  H   H5478     1.0  0.68444  0.01358  0.89488  1.0000
  C   C3208     1.0  0.51418  0.05259  0.83127  1.0000
  H   H5479     1.0  0.53951  0.12268  0.77012  1.0000
  C   C3209     1.0  0.67396  0.46545  0.96852  1.0000
  H   H5480     1.0  0.51151  0.04941  0.80790  1.0000
  C   C3210     1.0  0.60178  0.09577  0.84341  1.0000
  C   C3211     1.0  0.61051  0.08833  0.85658  1.0000
  C   C3212     1.0  0.62625  0.09208  0.85562  1.0000
  C   C3213     1.0  0.63329  0.10324  0.84146  1.0000
  C   C3214     1.0  0.62483  0.11018  0.82809  1.0000
  C   C3215     1.0  0.60914  0.10643  0.82905  1.0000
  H   H5481     1.0  0.60498  0.07989  0.86766  1.0000
  H   H5482     1.0  0.63288  0.08631  0.86580  1.0000
  H   H5483     1.0  0.63039  0.11856  0.81697  1.0000
  H   H5484     1.0  0.60293  0.11160  0.81852  1.0000
  C   C3216     1.0  0.54034  0.17636  0.84805  1.0000
  C   C3217     1.0  0.54461  0.18970  0.85185  1.0000
  C   C3218     1.0  0.53963  0.19247  0.86834  1.0000
  C   C3219     1.0  0.52980  0.18228  0.88102  1.0000
  C   C3220     1.0  0.52537  0.16903  0.87720  1.0000
  C   C3221     1.0  0.53085  0.16590  0.86082  1.0000
  H   H5485     1.0  0.55193  0.19784  0.84201  1.0000
  H   H5486     1.0  0.54315  0.20269  0.87112  1.0000
  H   H5487     1.0  0.51779  0.16108  0.88698  1.0000
  H   H5488     1.0  0.52756  0.15556  0.85804  1.0000
  H   H5489     1.0  0.61256  0.03619  0.87082  1.0000
  H   H5490     1.0  0.60642  0.05863  0.84889  1.0000
  H   H5491     1.0  0.74889  0.09264  0.97476  1.0000
  H   H5492     1.0  0.60656  0.00810  0.95595  1.0000
  H   H5493     1.0  0.64101  0.03463  0.86605  1.0000
  C   C3222     1.0  0.59032  0.44063  0.96901  1.0000
  H   H5494     1.0  0.66118  0.47218  0.93052  1.0000
  H   H5495     1.0  0.52511  0.10429  0.79834  1.0000
  S   S953      1.0  0.55899  0.99176  0.74217  1.0000
  H   H5496     1.0  0.52214  0.04375  0.73926  1.0000
  C   C3223     1.0  0.73562  0.10446  0.91030  1.0000
  C   C3224     1.0  0.72523  0.10531  0.89933  1.0000
  C   C3225     1.0  0.72964  0.11277  0.88222  1.0000
  C   C3226     1.0  0.63033  0.02891  0.95469  1.0000
  C   C3227     1.0  0.67108  0.01986  0.89756  1.0000
  H   H5497     1.0  0.73210  0.09879  0.92355  1.0000
  H   H5498     1.0  0.71377  0.10031  0.90415  1.0000
  H   H5499     1.0  0.60753  0.18692  0.97434  1.0000
  H   H5500     1.0  0.61866  0.01379  0.81271  1.0000
  H   H5501     1.0  0.72224  0.07729  0.88128  1.0000
  H   H5502     1.0  0.59618  0.05203  0.83667  1.0000
  H   H5503     1.0  0.51215  0.15236  0.75969  1.0000
  H   H5504     1.0  0.64323  0.03466  0.82931  1.0000
  H   H5505     1.0  0.67025  0.45247  0.94355  1.0000
  C   C3228     1.0  0.54692  0.08227  0.73551  1.0000
  H   H5506     1.0  0.52607  0.29531  0.86435  1.0000
  C   C3229     1.0  0.73465  0.42720  0.88965  1.0000
  C   C3230     1.0  0.51187  0.44226  0.82966  1.0000
  H   H5507     1.0  0.70274  0.17255  0.87392  1.0000
  H   H5508     1.0  0.51652  0.04541  0.84385  1.0000
  C   C3231     1.0  0.58414  0.20475  0.97153  1.0000
  H   H5509     1.0  0.50510  0.44213  0.76179  1.0000
  H   H5510     1.0  0.62130  0.01082  0.93628  1.0000
  H   H5511     1.0  0.69580  0.45086  0.97997  1.0000
  C   C3232     1.0  0.60693  0.48852  0.82744  1.0000
  H   H5512     1.0  0.68152  0.43860  0.97911  1.0000
  C   C3233     1.0  0.51011  0.09093  0.79163  1.0000
  C   C3234     1.0  0.61873  0.06182  0.82281  1.0000
  H   H5513     1.0  0.60035  0.02269  0.83796  1.0000
  H   H5514     1.0  0.59672  0.42987  0.93897  1.0000
  C   C3235     1.0  0.51294  0.25067  0.87950  1.0000
  H   H5515     1.0  0.57881  0.34979  0.88759  1.0000
  H   H5516     1.0  0.50829  0.38726  0.83048  1.0000
  N   N222      1.0  0.67862  0.47895  0.95323  1.0000
  H   H5517     1.0  0.64282  0.01742  0.84665  1.0000
  N   N223      1.0  0.73444  0.05068  0.88762  1.0000
  H   H5518     1.0  0.50485  0.03685  0.79121  1.0000
  C   C3236     1.0  0.61060  0.02788  0.86357  1.0000
  C   C3237     1.0  0.50087  0.99859  0.74050  1.0000
  H   H5519     1.0  0.67974  0.45830  0.92175  1.0000
  C   C3238     1.0  0.73535  0.06903  0.88033  1.0000
  H   H5520     1.0  0.71456  0.13763  0.90920  1.0000
  C   C3239     1.0  0.69156  0.48718  0.95569  1.0000
  H   H5521     1.0  0.65621  0.04107  0.84754  1.0000
  H   H5522     1.0  0.70765  0.43061  0.87653  1.0000
  C   C3240     1.0  0.50074  0.46145  0.77673  1.0000
  H   H5523     1.0  0.69617  0.44518  0.96063  1.0000
  H   H5524     1.0  0.72522  0.42789  0.85189  1.0000
  H   H5525     1.0  0.52160  0.43983  0.77258  1.0000
  H   H5526     1.0  0.65019  0.00676  0.93476  1.0000
  H   H5527     1.0  0.68170  0.17020  0.85961  1.0000
  H   H5528     1.0  0.71679  0.02529  0.87300  1.0000
  C   C3241     1.0  0.59128  0.02801  0.86880  1.0000
  H   H5529     1.0  0.58338  0.04035  0.86372  1.0000
  H   H5530     1.0  0.58830  0.01762  0.86514  1.0000
  H   H5531     1.0  0.58739  0.02575  0.88278  1.0000
  H   H5532     1.0  0.61749  0.01485  0.86858  1.0000
  H   H5533     1.0  0.60922  0.07125  0.81604  1.0000
  S   S954      1.0  0.54667  0.48784  0.77485  1.0000
  H   H5534     1.0  0.66203  0.99941  0.89438  1.0000
  C   C3242     1.0  0.52904  0.15309  0.95308  1.0000
  H   H5535     1.0  0.69428  0.43516  0.90317  1.0000
  H   H5536     1.0  0.63424  0.44897  0.98053  1.0000
  H   H5537     1.0  0.61376  0.32833  0.87393  1.0000
  N   N224      1.0  0.49924  0.26631  0.87562  1.0000
  C   C3243     1.0  0.73818  0.42338  0.85477  1.0000
  H   H5538     1.0  0.59026  0.21300  0.96007  1.0000
  H   H5539     1.0  0.51481  0.41612  0.84279  1.0000
  H   H5540     1.0  0.58089  0.44378  0.96085  1.0000
  C   C3244     1.0  0.50179  0.18062  0.82562  1.0000
  C   C3245     1.0  0.52201  0.28473  0.86208  1.0000
  H   H5541     1.0  0.61923  0.03309  0.94852  1.0000
  H   H5542     1.0  0.52329  0.14180  0.95759  1.0000
  H   H5543     1.0  0.72824  0.37175  0.91111  1.0000
  C   C3246     1.0  0.60897  0.05144  0.83886  1.0000
  H   H5544     1.0  0.61954  0.01161  0.97646  1.0000
  H   H5545     1.0  0.56114  0.45518  0.80871  1.0000
  H   H5546     1.0  0.57944  0.19599  0.96705  1.0000
  C   C3247     1.0  0.69884  0.16014  0.87766  1.0000
  H   H5547     1.0  0.53145  0.15687  0.93910  1.0000
  H   H5548     1.0  0.72362  0.15524  0.89607  1.0000
  H   H5549     1.0  0.74243  0.01790  0.90552  1.0000
  H   H5550     1.0  0.62870  0.03808  0.96260  1.0000
  H   H5551     1.0  0.54309  0.48213  0.74193  1.0000
  C   C3248     1.0  0.72619  0.04538  0.87660  1.0000
  H   H5552     1.0  0.58085  0.41775  0.95137  1.0000
  C   C3249     1.0  0.58290  0.45236  0.98170  1.0000
  C   C3250     1.0  0.64114  0.01990  0.90089  1.0000
  N   N225      1.0  0.57514  0.44053  0.83886  1.0000
  C   C3251     1.0  0.56304  0.43051  0.83778  1.0000
  C   C3252     1.0  0.56887  0.45866  0.83049  1.0000
  C   C3253     1.0  0.57425  0.43915  0.85730  1.0000
  C   C3254     1.0  0.59292  0.43295  0.83015  1.0000
  C   C3255     1.0  0.56534  0.41208  0.84792  1.0000
  C   C3256     1.0  0.56938  0.46195  0.81149  1.0000
  C   C3257     1.0  0.58020  0.45281  0.86193  1.0000
  C   C3258     1.0  0.60717  0.44248  0.82750  1.0000
  H   H5553     1.0  0.54944  0.43684  0.84207  1.0000
  H   H5554     1.0  0.56432  0.42970  0.82454  1.0000
  H   H5555     1.0  0.57621  0.46723  0.83179  1.0000
  H   H5556     1.0  0.55544  0.46349  0.83687  1.0000
  H   H5557     1.0  0.56084  0.43956  0.86467  1.0000
  H   H5558     1.0  0.58184  0.42670  0.86274  1.0000
  H   H5559     1.0  0.59754  0.42003  0.83738  1.0000
  H   H5560     1.0  0.59297  0.43077  0.81769  1.0000
  H   H5561     1.0  0.56251  0.41128  0.86171  1.0000
  H   H5562     1.0  0.55607  0.40612  0.84569  1.0000
  H   H5563     1.0  0.57822  0.40441  0.84376  1.0000
  C   C3259     1.0  0.63125  0.01097  0.96612  1.0000
  H   H5564     1.0  0.56425  0.47561  0.80698  1.0000
  C   C3260     1.0  0.68784  0.44929  0.97207  1.0000
  H   H5565     1.0  0.58036  0.44914  0.87558  1.0000
  C   C3261     1.0  0.71064  0.47848  0.95120  1.0000
  C   C3262     1.0  0.68513  0.47233  0.93719  1.0000
  H   H5566     1.0  0.61361  0.43803  0.83833  1.0000
  H   H5567     1.0  0.60282  0.45634  0.82524  1.0000
  H   H5568     1.0  0.61695  0.44005  0.81598  1.0000
  C   C3263     1.0  0.74453  0.11927  0.87615  1.0000
  H   H5569     1.0  0.51993  0.99836  0.75378  1.0000
  H   H5570     1.0  0.66063  0.99532  0.95107  1.0000
  C   C3264     1.0  0.61433  0.02157  0.83620  1.0000
  C   C3265     1.0  0.51323  0.10010  0.80169  1.0000
  H   H5571     1.0  0.52539  0.05842  0.82473  1.0000
  C   C3266     1.0  0.56145  0.12874  0.75113  1.0000
  H   H5572     1.0  0.51714  0.22348  0.88203  1.0000
  C   C3267     1.0  0.57566  0.99441  0.82545  1.0000
  H   H5573     1.0  0.50621  0.15687  0.84258  1.0000
  S   S955      1.0  0.61673  0.48403  0.97945  1.0000
  C   C3268     1.0  0.64242  0.04093  0.85251  1.0000
  H   H5574     1.0  0.72903  0.43947  0.88213  1.0000
  H   H5575     1.0  0.52555  0.06761  0.75850  1.0000
  H   H5576     1.0  0.66156  0.17491  0.91997  1.0000
  H   H5577     1.0  0.70214  0.15795  0.85182  1.0000
  N   N226      1.0  0.61776  0.03335  0.84493  1.0000
  C   C3269     1.0  0.63150  0.45451  0.96818  1.0000
  C   C3270     1.0  0.56060  0.07838  0.74608  1.0000
  H   H5578     1.0  0.54183  0.14931  0.95636  1.0000
  S   S956      1.0  0.50779  0.47540  0.81286  1.0000
  H   H5579     1.0  0.69749  0.47545  0.89673  1.0000
  C   C3271     1.0  0.60368  0.41299  0.96217  1.0000
  H   H5580     1.0  0.60194  0.44472  0.96056  1.0000
  H   H5581     1.0  0.50747  0.18520  0.83356  1.0000
  H   H5582     1.0  0.71670  0.02337  0.89444  1.0000
  C   C3272     1.0  0.72488  0.46994  0.85961  1.0000
  H   H5583     1.0  0.73437  0.39867  0.86755  1.0000
  H   H5584     1.0  0.50835  0.28095  0.88759  1.0000
  N   N227      1.0  0.59560  0.14688  0.86460  1.0000
  C   C3273     1.0  0.61404  0.14719  0.85606  1.0000
  C   C3274     1.0  0.59429  0.14238  0.88343  1.0000
  C   C3275     1.0  0.58389  0.16381  0.86007  1.0000
  C   C3276     1.0  0.59031  0.13402  0.85883  1.0000
  C   C3277     1.0  0.61762  0.15446  0.83686  1.0000
  C   C3278     1.0  0.60266  0.12399  0.89075  1.0000
  C   C3279     1.0  0.58789  0.17876  0.86444  1.0000
  C   C3280     1.0  0.57182  0.13153  0.86650  1.0000
  H   H5585     1.0  0.61942  0.15440  0.86186  1.0000
  H   H5586     1.0  0.62219  0.13417  0.85790  1.0000
  H   H5587     1.0  0.58076  0.14499  0.89045  1.0000
  H   H5588     1.0  0.60039  0.15061  0.88717  1.0000
  H   H5589     1.0  0.58356  0.16708  0.84642  1.0000
  H   H5590     1.0  0.57043  0.16336  0.86675  1.0000
  H   H5591     1.0  0.59129  0.13752  0.84495  1.0000
  H   H5592     1.0  0.59930  0.12153  0.86072  1.0000
  H   H5593     1.0  0.61372  0.14729  0.82984  1.0000
  H   H5594     1.0  0.61152  0.16807  0.83364  1.0000
  H   H5595     1.0  0.63165  0.15335  0.83217  1.0000
  H   H5596     1.0  0.60200  0.12260  0.90438  1.0000
  H   H5597     1.0  0.59584  0.11481  0.88973  1.0000
  H   H5598     1.0  0.61640  0.12062  0.88472  1.0000
  H   H5599     1.0  0.57921  0.19066  0.85956  1.0000
  H   H5600     1.0  0.60117  0.18035  0.85867  1.0000
  H   H5601     1.0  0.58545  0.17746  0.87828  1.0000
  H   H5602     1.0  0.56307  0.13979  0.85821  1.0000
  H   H5603     1.0  0.56668  0.13411  0.87929  1.0000
  H   H5604     1.0  0.57149  0.11813  0.86772  1.0000
  H   H5605     1.0  0.51321  0.01222  0.81439  1.0000
  H   H5606     1.0  0.67021  0.47057  0.98015  1.0000
  H   H5607     1.0  0.60063  0.40789  0.93927  1.0000
  C   C3281     1.0  0.63684  0.03106  0.84269  1.0000
  C   C3282     1.0  0.61851  0.00156  0.94838  1.0000
  C   C3283     1.0  0.72958  0.05525  0.91779  1.0000
  H   H5608     1.0  0.68420  0.41940  0.90173  1.0000
  H   H5609     1.0  0.73671  0.01796  0.87948  1.0000
  H   H5610     1.0  0.52415  0.12061  0.74959  1.0000
  S   S957      1.0  0.62487  0.01012  0.90134  1.0000
  H   H5611     1.0  0.61968  0.00818  0.84189  1.0000
  C   C3284     1.0  0.62121  0.02404  0.81703  1.0000
  H   H5612     1.0  0.60625  0.39903  0.96656  1.0000
  H   H5613     1.0  0.71853  0.46318  0.83955  1.0000
  H   H5614     1.0  0.56678  0.42446  0.97997  1.0000
  H   H5615     1.0  0.51973  0.08793  0.78068  1.0000
  H   H5616     1.0  0.50908  0.46836  0.77935  1.0000
  N   N228      1.0  0.68717  0.15814  0.89500  1.0000
  C   C3285     1.0  0.72300  0.04997  0.90499  1.0000
  C   C3286     1.0  0.69587  0.16214  0.90652  1.0000
  C   C3287     1.0  0.67060  0.17099  0.89376  1.0000
  C   C3288     1.0  0.68403  0.14037  0.90045  1.0000
  H   H5617     1.0  0.50441  0.34042  0.88704  1.0000
  C   C3289     1.0  0.71399  0.15126  0.90750  1.0000
  C   C3290     1.0  0.65701  0.17181  0.91025  1.0000
  C   C3291     1.0  0.67974  0.13287  0.91964  1.0000
  C   C3292     1.0  0.62294  0.47140  0.96437  1.0000
  H   H5618     1.0  0.71793  0.15291  0.91842  1.0000
  H   H5619     1.0  0.68825  0.16101  0.91961  1.0000
  H   H5620     1.0  0.69702  0.17563  0.90247  1.0000
  H   H5621     1.0  0.60420  0.99262  0.93578  1.0000
  H   H5622     1.0  0.66404  0.16850  0.88510  1.0000
  H   H5623     1.0  0.67357  0.13951  0.89506  1.0000
  H   H5624     1.0  0.69557  0.13140  0.89530  1.0000
  C   C3293     1.0  0.53093  0.21497  0.97874  1.0000
  N   N229      1.0  0.59427  0.42185  0.97646  1.0000
  H   H5625     1.0  0.70593  0.40964  0.88084  1.0000
  H   H5626     1.0  0.74703  0.08643  0.85890  1.0000
  H   H5627     1.0  0.73787  0.47052  0.85290  1.0000
  H   H5628     1.0  0.71531  0.47985  0.93734  1.0000
  H   H5629     1.0  0.52313  0.24904  0.86798  1.0000
  H   H5630     1.0  0.64576  0.18204  0.90749  1.0000
  H   H5631     1.0  0.67130  0.12390  0.92200  1.0000
  H   H5632     1.0  0.67285  0.14212  0.92762  1.0000
  H   H5633     1.0  0.69141  0.12500  0.92411  1.0000
  H   H5634     1.0  0.72128  0.05219  0.93050  1.0000
  H   H5635     1.0  0.62752  0.05446  0.81368  1.0000
  H   H5636     1.0  0.50641  0.23013  0.90102  1.0000
  H   H5637     1.0  0.71326  0.05365  0.87608  1.0000
  H   H5638     1.0  0.66221  0.46163  0.96843  1.0000
  C   C3294     1.0  0.51497  0.00932  0.84787  1.0000
  Fe  Fe478     1.0  0.51496  0.37029  0.87946  1.0000
  H   H5639     1.0  0.65214  0.15999  0.91526  1.0000
  H   H5640     1.0  0.63523  0.02300  0.81332  1.0000
  C   C3295     1.0  0.65843  0.01185  0.89726  1.0000
  H   H5641     1.0  0.58746  0.35831  0.91481  1.0000
  H   H5642     1.0  0.50532  0.18773  0.93556  1.0000
  H   H5643     1.0  0.51990  0.28874  0.84902  1.0000
  N   N230      1.0  0.49943  0.17300  0.96091  1.0000
  N   N231      1.0  0.58663  0.32691  0.90548  1.0000
  C   C3296     1.0  0.57655  0.33576  0.91967  1.0000
  C   C3297     1.0  0.57518  0.31756  0.90221  1.0000
  C   C3298     1.0  0.59077  0.34053  0.89008  1.0000
  C   C3299     1.0  0.60276  0.31533  0.91038  1.0000
  C   C3300     1.0  0.58581  0.34670  0.92461  1.0000
  C   C3301     1.0  0.56714  0.30528  0.91768  1.0000
  C   C3302     1.0  0.60028  0.33474  0.87355  1.0000
  C   C3303     1.0  0.61041  0.29959  0.90249  1.0000
  H   H5644     1.0  0.56431  0.34406  0.91656  1.0000
  H   H5645     1.0  0.57282  0.32647  0.93146  1.0000
  H   H5646     1.0  0.58196  0.31015  0.89237  1.0000
  H   H5647     1.0  0.56444  0.32665  0.89696  1.0000
  C   C3304     1.0  0.57792  0.99524  0.84108  1.0000
  H   H5648     1.0  0.59895  0.34796  0.89210  1.0000
  H   H5649     1.0  0.61305  0.32250  0.90738  1.0000
  H   H5650     1.0  0.60064  0.31032  0.92429  1.0000
  H   H5651     1.0  0.59838  0.33955  0.92752  1.0000
  H   H5652     1.0  0.50213  0.13881  0.79170  1.0000
  H   H5653     1.0  0.57777  0.35108  0.93613  1.0000
  H   H5654     1.0  0.56273  0.29617  0.91335  1.0000
  H   H5655     1.0  0.57627  0.29791  0.92582  1.0000
  H   H5656     1.0  0.55565  0.31227  0.92529  1.0000
  C   C3305     1.0  0.69654  0.42179  0.90219  1.0000
  H   H5657     1.0  0.60082  0.34613  0.86312  1.0000
  H   H5658     1.0  0.59370  0.32683  0.87002  1.0000
  H   H5659     1.0  0.60235  0.29004  0.90768  1.0000
  H   H5660     1.0  0.62311  0.29341  0.90567  1.0000
  H   H5661     1.0  0.61242  0.30260  0.88859  1.0000
  C   C3306     1.0  0.73145  0.42956  0.90783  1.0000
  C   C3307     1.0  0.73875  0.40870  0.87046  1.0000
  H   H5662     1.0  0.68650  0.14730  0.86630  1.0000
  H   H5663     1.0  0.51329  0.40482  0.80038  1.0000
  H   H5664     1.0  0.50292  0.06320  0.83264  1.0000
  C   C3308     1.0  0.50544  0.16056  0.74967  1.0000
  H   H5665     1.0  0.64229  0.02995  0.94500  1.0000
  H   H5666     1.0  0.74875  0.42548  0.88494  1.0000
  H   H5667     1.0  0.51343  0.00254  0.86130  1.0000
  H   H5668     1.0  0.62573  0.06948  0.82620  1.0000
  H   H5669     1.0  0.59327  0.45421  0.85512  1.0000
  C   C3309     1.0  0.73196  0.39743  0.90068  1.0000
  H   H5670     1.0  0.63522  0.05424  0.85135  1.0000
  H   H5671     1.0  0.61431  0.03610  0.81023  1.0000
  H   H5672     1.0  0.56179  0.09047  0.74814  1.0000
  C   C3310     1.0  0.69162  0.15883  0.86318  1.0000
  H   H5673     1.0  0.69984  0.41324  0.91388  1.0000
  H   H5674     1.0  0.52509  0.03204  0.81828  1.0000
  H   H5675     1.0  0.52005  0.16434  0.97458  1.0000
  C   C3311     1.0  0.52183  0.04640  0.75145  1.0000
  C   C3312     1.0  0.72614  0.38186  0.89977  1.0000
  S   S958      1.0  0.73294  0.47734  0.88596  1.0000
  H   H5676     1.0  0.52441  0.17890  0.95503  1.0000
  N   N232      1.0  0.72842  0.41302  0.88708  1.0000
  C   C3313     1.0  0.50086  0.10398  0.81590  1.0000
  H   H5677     1.0  0.53280  0.27358  0.86318  1.0000
  H   H5678     1.0  0.50762  0.26877  0.84853  1.0000
  H   H5679     1.0  0.57344  0.07271  0.73932  1.0000
  H   H5680     1.0  0.72015  0.03732  0.91091  1.0000
  H   H5681     1.0  0.69760  0.46320  0.93704  1.0000
  C   C3314     1.0  0.72414  0.02690  0.88144  1.0000
  H   H5682     1.0  0.72871  0.06909  0.91482  1.0000
  C   C3315     1.0  0.67321  0.46338  0.93327  1.0000
  H   H5683     1.0  0.72587  0.39983  0.91347  1.0000
  C   C3316     1.0  0.51821  0.16797  0.96137  1.0000
  H   H5684     1.0  0.54359  0.05055  0.75784  1.0000
  H   H5685     1.0  0.71792  0.43066  0.91451  1.0000
  S   S959      1.0  0.55546  0.00266  0.82011  1.0000
  H   H5686     1.0  0.57789  0.46534  0.97488  1.0000
  H   H5687     1.0  0.73365  0.04698  0.86338  1.0000
  H   H5688     1.0  0.71230  0.38471  0.89979  1.0000
  H   H5689     1.0  0.74189  0.07351  0.88762  1.0000
  H   H5690     1.0  0.74267  0.43416  0.85590  1.0000
  H   H5691     1.0  0.51835  0.99958  0.84023  1.0000
  H   H5692     1.0  0.71016  0.05836  0.90416  1.0000
  H   H5693     1.0  0.64216  0.00871  0.97227  1.0000
  H   H5694     1.0  0.52014  0.45596  0.75403  1.0000
  H   H5695     1.0  0.73379  0.37649  0.88871  1.0000
  H   H5696     1.0  0.74596  0.39357  0.90055  1.0000
  C   C3317     1.0  0.74484  0.07339  0.86174  1.0000
  H   H5697     1.0  0.50639  0.35334  0.83092  1.0000
  H   H5698     1.0  0.74689  0.41877  0.84362  1.0000
  H   H5699     1.0  0.50137  0.47845  0.74410  1.0000
  C   C3318     1.0  0.59756  0.19501  0.98230  1.0000
  C   C3319     1.0  0.61918  0.47833  0.94832  1.0000
  H   H5700     1.0  0.57311  0.21306  0.97818  1.0000
  H   H5701     1.0  0.51952  0.25224  0.88866  1.0000
  H   H5702     1.0  0.74801  0.12506  0.86291  1.0000
  H   H5703     1.0  0.73693  0.07356  0.85299  1.0000
  H   H5704     1.0  0.50674  0.01884  0.74861  1.0000
  H   H5705     1.0  0.50463  0.16654  0.93649  1.0000
  C   C3320     1.0  0.50661  0.00521  0.75293  1.0000
  H   H5706     1.0  0.55142  0.03050  0.73432  1.0000
  C   C3321     1.0  0.49993  0.01999  0.81637  1.0000
  H   H5707     1.0  0.68884  0.48851  0.96902  1.0000
  H   H5708     1.0  0.74809  0.13045  0.98095  1.0000
  H   H5709     1.0  0.50119  0.44666  0.83924  1.0000
  C   C3322     1.0  0.53769  0.19767  0.98363  1.0000
  C   C3323     1.0  0.50014  0.38820  0.82159  1.0000
  C   C3324     1.0  0.50046  0.40540  0.80899  1.0000
  H   H5710     1.0  0.60412  0.20425  0.98376  1.0000
  Fe  Fe479     1.0  0.53367  0.86060  0.06104  1.0000
  S   S960      1.0  0.51559  0.88495  0.05258  1.0000
  S   S961      1.0  0.51841  0.83997  0.07095  1.0000
  Fe  Fe480     1.0  0.56334  0.87882  0.05201  1.0000
  S   S962      1.0  0.54709  0.90397  0.04306  1.0000
  S   S963      1.0  0.59089  0.87844  0.05132  1.0000
  Fe  Fe481     1.0  0.52757  0.89651  0.06615  1.0000
  S   S964      1.0  0.51147  0.91607  0.08097  1.0000
  Fe  Fe482     1.0  0.53706  0.88968  0.03052  1.0000
  S   S965      1.0  0.53388  0.90089  0.00385  1.0000
  S   S966      1.0  0.54422  0.87204  0.07624  1.0000
  S   S967      1.0  0.55460  0.86473  0.03779  1.0000
  Fe  Fe483     1.0  0.52184  0.94978  0.15158  1.0000
  S   S968      1.0  0.51621  0.97232  0.13080  1.0000
  S   S969      1.0  0.53059  0.92340  0.14619  1.0000
  Fe  Fe484     1.0  0.51309  0.97185  0.17770  1.0000
  S   S970      1.0  0.53781  0.96118  0.16134  1.0000
  S   S971      1.0  0.64357  0.93799  0.05551  1.0000
  S   S972      1.0  0.61559  0.94799  0.02097  1.0000
  Fe  Fe485     1.0  0.66476  0.95212  0.04395  1.0000
  S   S973      1.0  0.69223  0.93799  0.03880  1.0000
  H   H5711     1.0  0.60410  0.86535  0.01108  1.0000
  Fe  Fe486     1.0  0.53451  0.74208  0.08771  1.0000
  S   S974      1.0  0.53541  0.73220  0.06515  1.0000
  S   S975      1.0  0.55068  0.76088  0.08459  1.0000
  H   H5712     1.0  0.50250  0.70972  0.05912  1.0000
  S   S976      1.0  0.50596  0.74613  0.09679  1.0000
  H   H5713     1.0  0.71490  0.93366  0.09778  1.0000
  Fe  Fe487     1.0  0.53817  0.70672  0.08283  1.0000
  S   S977      1.0  0.55362  0.68157  0.07728  1.0000
  C   C3325     1.0  0.55341  0.94278  0.08895  1.0000
  C   C3326     1.0  0.57817  0.91001  0.98896  1.0000
  S   S978      1.0  0.53963  0.71617  0.10467  1.0000
  H   H5714     1.0  0.51343  0.78634  0.03621  1.0000
  Fe  Fe488     1.0  0.65966  0.61566  0.03562  1.0000
  S   S979      1.0  0.67076  0.63790  0.03261  1.0000
  S   S980      1.0  0.65823  0.60652  0.01351  1.0000
  Fe  Fe489     1.0  0.65359  0.60815  0.07399  1.0000
  S   S981      1.0  0.66492  0.62960  0.07391  1.0000
  S   S982      1.0  0.64212  0.59058  0.09725  1.0000
  Fe  Fe490     1.0  0.64936  0.64418  0.05437  1.0000
  S   S983      1.0  0.63424  0.67109  0.05410  1.0000
  Fe  Fe491     1.0  0.68522  0.62109  0.05215  1.0000
  S   S984      1.0  0.63707  0.62310  0.05565  1.0000
  S   S985      1.0  0.67517  0.59835  0.05396  1.0000
  Fe  Fe492     1.0  0.52464  0.61568  0.17025  1.0000
  S   S986      1.0  0.54057  0.62168  0.18453  1.0000
  C   C3327     1.0  0.65298  0.51799  0.07661  1.0000
  Fe  Fe493     1.0  0.54931  0.58234  0.16518  1.0000
  S   S987      1.0  0.56736  0.58551  0.17900  1.0000
  S   S988      1.0  0.55718  0.56051  0.15213  1.0000
  Fe  Fe494     1.0  0.54359  0.59420  0.19774  1.0000
  Fe  Fe495     1.0  0.56287  0.61244  0.16453  1.0000
  S   S989      1.0  0.58338  0.62698  0.14970  1.0000
  S   S990      1.0  0.52588  0.58885  0.18485  1.0000
  S   S991      1.0  0.54644  0.60863  0.14940  1.0000
  H   H5715     1.0  0.66359  0.90946  0.08676  1.0000
  H   H5716     1.0  0.59568  0.68016  0.98847  1.0000
  S   S992      1.0  0.50934  0.50857  0.17018  1.0000
  H   H5717     1.0  0.57167  0.64780  0.99054  1.0000
  H   H5718     1.0  0.55255  0.67031  0.99942  1.0000
  H   H5719     1.0  0.56664  0.50798  0.22878  1.0000
  H   H5720     1.0  0.65066  0.64346  0.00679  1.0000
  C   C3328     1.0  0.70955  0.94041  0.98957  1.0000
  H   H5721     1.0  0.56508  0.95272  0.21430  1.0000
  H   H5722     1.0  0.65439  0.51198  0.08980  1.0000
  H   H5723     1.0  0.73704  0.96379  0.98824  1.0000
  S   S993      1.0  0.50996  0.70805  0.09114  1.0000
  H   H5724     1.0  0.50116  0.66992  0.09102  1.0000
  H   H5725     1.0  0.73276  0.57408  0.10293  1.0000
  C   C3329     1.0  0.59314  0.97976  0.09421  1.0000
  H   H5726     1.0  0.58632  0.90842  0.08235  1.0000
  H   H5727     1.0  0.71470  0.59103  0.01468  1.0000
  C   C3330     1.0  0.54324  0.54680  0.15641  1.0000
  C   C3331     1.0  0.54912  0.53188  0.15028  1.0000
  C   C3332     1.0  0.53860  0.52026  0.15413  1.0000
  C   C3333     1.0  0.52209  0.52361  0.16404  1.0000
  C   C3334     1.0  0.51602  0.53873  0.16985  1.0000
  C   C3335     1.0  0.52663  0.55029  0.16611  1.0000
  H   H5728     1.0  0.56196  0.52916  0.14274  1.0000
  H   H5729     1.0  0.54335  0.50862  0.14961  1.0000
  C   C3336     1.0  0.74270  0.92060  0.99787  1.0000
  H   H5730     1.0  0.52201  0.56181  0.17078  1.0000
  H   H5731     1.0  0.70629  0.61652  0.08012  1.0000
  C   C3337     1.0  0.62689  0.60068  0.11255  1.0000
  C   C3338     1.0  0.61796  0.59098  0.12679  1.0000
  C   C3339     1.0  0.60476  0.59887  0.13845  1.0000
  C   C3340     1.0  0.60065  0.61653  0.13608  1.0000
  C   C3341     1.0  0.60997  0.62615  0.12215  1.0000
  C   C3342     1.0  0.62292  0.61831  0.11031  1.0000
  H   H5732     1.0  0.62106  0.57733  0.12866  1.0000
  H   H5733     1.0  0.59775  0.59131  0.14921  1.0000
  H   H5734     1.0  0.60681  0.63972  0.12028  1.0000
  H   H5735     1.0  0.62967  0.62592  0.09936  1.0000
  H   H5736     1.0  0.69119  0.59614  0.99241  1.0000
  C   C3343     1.0  0.55890  0.53030  0.19998  1.0000
  Fe  Fe496     1.0  0.53053  0.98421  0.14165  1.0000
  C   C3344     1.0  0.55108  0.49566  0.04203  1.0000
  H   H5737     1.0  0.51823  0.79968  0.04664  1.0000
  C   C3345     1.0  0.57585  0.67934  0.07008  1.0000
  C   C3346     1.0  0.58368  0.69320  0.06500  1.0000
  C   C3347     1.0  0.60162  0.69066  0.05971  1.0000
  C   C3348     1.0  0.61174  0.67426  0.05982  1.0000
  C   C3349     1.0  0.60378  0.66053  0.06499  1.0000
  C   C3350     1.0  0.58593  0.66309  0.06976  1.0000
  H   H5738     1.0  0.57593  0.70584  0.06508  1.0000
  H   H5739     1.0  0.60768  0.70138  0.05574  1.0000
  H   H5740     1.0  0.61133  0.64792  0.06553  1.0000
  H   H5741     1.0  0.57989  0.65241  0.07342  1.0000
  C   C3351     1.0  0.74020  0.95073  0.99587  1.0000
  H   H5742     1.0  0.54851  0.49074  0.08229  1.0000
  C   C3352     1.0  0.51327  0.65966  0.14676  1.0000
  H   H5743     1.0  0.56444  0.67182  0.01324  1.0000
  H   H5744     1.0  0.69302  0.89773  0.11675  1.0000
  C   C3353     1.0  0.73646  0.94333  0.04556  1.0000
  H   H5745     1.0  0.52296  0.68165  0.13131  1.0000
  H   H5746     1.0  0.52500  0.65072  0.14314  1.0000
  H   H5747     1.0  0.69204  0.90538  0.09061  1.0000
  C   C3354     1.0  0.74634  0.56720  0.05267  1.0000
  C   C3355     1.0  0.71547  0.96897  0.04989  1.0000
  H   H5748     1.0  0.72716  0.54001  0.06611  1.0000
  C   C3356     1.0  0.72003  0.61314  0.07574  1.0000
  C   C3357     1.0  0.70325  0.96290  0.04584  1.0000
  H   H5749     1.0  0.67141  0.53393  0.07306  1.0000
  C   C3358     1.0  0.65579  0.51296  0.04870  1.0000
  H   H5750     1.0  0.59764  0.95048  0.13040  1.0000
  H   H5751     1.0  0.70627  0.90595  0.12501  1.0000
  H   H5752     1.0  0.73576  0.51796  0.07168  1.0000
  C   C3359     1.0  0.52779  0.81809  0.07441  1.0000
  C   C3360     1.0  0.51703  0.80650  0.07993  1.0000
  C   C3361     1.0  0.52391  0.78896  0.08289  1.0000
  C   C3362     1.0  0.54163  0.78286  0.08050  1.0000
  C   C3363     1.0  0.55240  0.79446  0.07505  1.0000
  C   C3364     1.0  0.54552  0.81203  0.07191  1.0000
  H   H5753     1.0  0.50332  0.81113  0.08206  1.0000
  H   H5754     1.0  0.51551  0.78016  0.08730  1.0000
  H   H5755     1.0  0.56612  0.78984  0.07323  1.0000
  H   H5756     1.0  0.55393  0.82084  0.06770  1.0000
  C   C3365     1.0  0.65275  0.63947  0.99512  1.0000
  H   H5757     1.0  0.66750  0.94964  0.09508  1.0000
  Fe  Fe497     1.0  0.63070  0.95565  0.03524  1.0000
  H   H5758     1.0  0.50531  0.78477  0.05862  1.0000
  H   H5759     1.0  0.60713  0.67492  0.01233  1.0000
  H   H5760     1.0  0.56874  0.68215  0.99120  1.0000
  N   N233      1.0  0.59592  0.65456  0.98703  1.0000
  H   H5761     1.0  0.55993  0.50103  0.03057  1.0000
  H   H5762     1.0  0.53117  0.86575  0.01486  1.0000
  C   C3366     1.0  0.51718  0.91747  0.09911  1.0000
  C   C3367     1.0  0.50994  0.93218  0.10542  1.0000
  C   C3368     1.0  0.51402  0.93388  0.11984  1.0000
  C   C3369     1.0  0.52516  0.92088  0.12830  1.0000
  C   C3370     1.0  0.53232  0.90599  0.12215  1.0000
  C   C3371     1.0  0.52843  0.90432  0.10750  1.0000
  C   C3372     1.0  0.69312  0.90741  0.12328  1.0000
  H   H5763     1.0  0.66151  0.91444  0.10658  1.0000
  H   H5764     1.0  0.54101  0.89582  0.12860  1.0000
  H   H5765     1.0  0.53399  0.89283  0.10282  1.0000
  C   C3373     1.0  0.59824  0.89747  0.04220  1.0000
  C   C3374     1.0  0.59057  0.91010  0.03017  1.0000
  C   C3375     1.0  0.59617  0.92540  0.02357  1.0000
  C   C3376     1.0  0.60944  0.92827  0.02900  1.0000
  C   C3377     1.0  0.61733  0.91552  0.04081  1.0000
  C   C3378     1.0  0.61179  0.90017  0.04732  1.0000
  H   H5766     1.0  0.58031  0.90810  0.02597  1.0000
  H   H5767     1.0  0.59003  0.93515  0.01439  1.0000
  H   H5768     1.0  0.62777  0.91740  0.04487  1.0000
  H   H5769     1.0  0.61792  0.89041  0.05650  1.0000
  H   H5770     1.0  0.51166  0.53600  0.22307  1.0000
  C   C3379     1.0  0.72419  0.93714  0.04187  1.0000
  C   C3380     1.0  0.70752  0.94679  0.04223  1.0000
  Fe  Fe498     1.0  0.51115  0.71931  0.11164  1.0000
  H   H5771     1.0  0.69052  0.97061  0.04574  1.0000
  H   H5772     1.0  0.65640  0.54244  0.05920  1.0000
  H   H5773     1.0  0.72761  0.92471  0.03900  1.0000
  H   H5774     1.0  0.56428  0.92729  0.11906  1.0000
  C   C3381     1.0  0.65807  0.53528  0.07199  1.0000
  C   C3382     1.0  0.57965  0.94112  0.06604  1.0000
  C   C3383     1.0  0.65680  0.62220  0.99500  1.0000
  C   C3384     1.0  0.51209  0.67715  0.13999  1.0000
  H   H5775     1.0  0.71980  0.90159  0.09791  1.0000
  H   H5776     1.0  0.50989  0.80774  0.98873  1.0000
  C   C3385     1.0  0.58277  0.93485  0.09533  1.0000
  C   C3386     1.0  0.69022  0.49908  0.07579  1.0000
  H   H5777     1.0  0.59311  0.66047  0.01898  1.0000
  H   H5778     1.0  0.50205  0.91129  0.99053  1.0000
  H   H5779     1.0  0.67974  0.97446  0.08829  1.0000
  H   H5780     1.0  0.58391  0.91168  0.11530  1.0000
  H   H5781     1.0  0.68283  0.95080  0.07569  1.0000
  H   H5782     1.0  0.72548  0.60917  0.10028  1.0000
  H   H5783     1.0  0.56263  0.89793  0.07816  1.0000
  H   H5784     1.0  0.65655  0.50797  0.02455  1.0000
  C   C3387     1.0  0.68612  0.92568  0.11447  1.0000
  S   S994      1.0  0.60234  0.49437  0.05817  1.0000
  C   C3388     1.0  0.70514  0.59273  0.99220  1.0000
  H   H5785     1.0  0.54942  0.91879  0.07589  1.0000
  C   C3389     1.0  0.53416  0.88588  0.99283  1.0000
  C   C3390     1.0  0.68517  0.91876  0.08772  1.0000
  H   H5786     1.0  0.60805  0.63360  0.00461  1.0000
  S   S995      1.0  0.65411  0.97085  0.06065  1.0000
  N   N234      1.0  0.74200  0.93766  0.98594  1.0000
  S   S996      1.0  0.74694  0.96602  0.05631  1.0000
  H   H5787     1.0  0.56992  0.96857  0.14100  1.0000
  S   S997      1.0  0.61731  0.97544  0.05047  1.0000
  C   C3391     1.0  0.53994  0.96386  0.20899  1.0000
  C   C3392     1.0  0.57624  0.97168  0.12791  1.0000
  C   C3393     1.0  0.60482  0.66351  0.00986  1.0000
  H   H5788     1.0  0.63893  0.52081  0.07737  1.0000
  H   H5789     1.0  0.71471  0.61130  0.00042  1.0000
  C   C3394     1.0  0.73948  0.56433  0.07196  1.0000
  S   S998      1.0  0.49933  0.63201  0.16519  1.0000
  H   H5790     1.0  0.54600  0.93401  0.09852  1.0000
  H   H5791     1.0  0.64967  0.54313  0.08102  1.0000
  N   N235      1.0  0.69080  0.92995  0.09548  1.0000
  H   H5792     1.0  0.53073  0.84512  0.99891  1.0000
  H   H5793     1.0  0.54401  0.54818  0.21633  1.0000
  C   C3395     1.0  0.54975  0.95856  0.09647  1.0000
  H   H5794     1.0  0.73954  0.57607  0.07549  1.0000
  C   C3396     1.0  0.68730  0.96200  0.09370  1.0000
  H   H5795     1.0  0.63620  0.48906  0.06484  1.0000
  C   C3397     1.0  0.56597  0.50252  0.21842  1.0000
  H   H5796     1.0  0.68490  0.96111  0.10746  1.0000
  C   C3398     1.0  0.74480  0.60875  0.05309  1.0000
  S   S999      1.0  0.65285  0.96837  0.02246  1.0000
  C   C3399     1.0  0.53215  0.85780  0.99230  1.0000
  H   H5797     1.0  0.50494  0.64226  0.11225  1.0000
  H   H5798     1.0  0.56382  0.55290  0.20387  1.0000
  H   H5799     1.0  0.68811  0.49599  0.05237  1.0000
  H   H5800     1.0  0.57257  0.52753  0.19332  1.0000
  H   H5801     1.0  0.59657  0.92963  0.09039  1.0000
  H   H5802     1.0  0.51178  0.85984  0.10456  1.0000
  H   H5803     1.0  0.53106  0.49289  0.07290  1.0000
  H   H5804     1.0  0.69090  0.93383  0.11972  1.0000
  H   H5805     1.0  0.74559  0.53512  0.10833  1.0000
  H   H5806     1.0  0.54258  0.95860  0.19797  1.0000
  H   H5807     1.0  0.73188  0.92085  0.00908  1.0000
  H   H5808     1.0  0.51425  0.52240  0.20876  1.0000
  H   H5809     1.0  0.70094  0.96225  0.08790  1.0000
  H   H5810     1.0  0.56405  0.53602  0.22203  1.0000
  H   H5811     1.0  0.56900  0.90349  0.99917  1.0000
  H   H5812     1.0  0.68464  0.90436  0.13589  1.0000
  H   H5813     1.0  0.57836  0.64529  0.00957  1.0000
  H   H5814     1.0  0.58941  0.62107  0.99417  1.0000
  H   H5815     1.0  0.73686  0.65946  0.04630  1.0000
  H   H5816     1.0  0.71241  0.93785  0.07678  1.0000
  H   H5817     1.0  0.61143  0.61049  0.99206  1.0000
  C   C3400     1.0  0.73091  0.60899  0.08710  1.0000
  H   H5818     1.0  0.58388  0.93014  0.12181  1.0000
  H   H5819     1.0  0.64628  0.98328  0.98831  1.0000
  H   H5820     1.0  0.58520  0.91447  0.99576  1.0000
  H   H5821     1.0  0.73773  0.57655  0.99532  1.0000
  C   C3401     1.0  0.60259  0.62242  0.98749  1.0000
  H   H5822     1.0  0.50324  0.54133  0.17749  1.0000
  C   C3402     1.0  0.60227  0.88548  0.98866  1.0000
  C   C3403     1.0  0.56286  0.91159  0.07442  1.0000
  C   C3404     1.0  0.59203  0.96150  0.12192  1.0000
  H   H5823     1.0  0.72920  0.94998  0.00684  1.0000
  C   C3405     1.0  0.60048  0.96545  0.10503  1.0000
  H   H5824     1.0  0.53150  0.50543  0.22715  1.0000
  H   H5825     1.0  0.72409  0.52892  0.08806  1.0000
  H   H5826     1.0  0.58221  0.94812  0.09542  1.0000
  H   H5827     1.0  0.58697  0.96329  0.04841  1.0000
  H   H5828     1.0  0.71204  0.98125  0.05307  1.0000
  C   C3406     1.0  0.56703  0.50064  0.18293  1.0000
  C   C3407     1.0  0.72698  0.61308  0.05869  1.0000
  N   N236      1.0  0.57734  0.60003  0.09855  1.0000
  C   C3408     1.0  0.59170  0.58439  0.09890  1.0000
  C   C3409     1.0  0.57850  0.60920  0.08034  1.0000
  C   C3410     1.0  0.56064  0.59426  0.10541  1.0000
  C   C3411     1.0  0.57961  0.61050  0.10936  1.0000
  C   C3412     1.0  0.59117  0.57129  0.11581  1.0000
  C   C3413     1.0  0.59556  0.61473  0.07145  1.0000
  C   C3414     1.0  0.54404  0.60795  0.10462  1.0000
  C   C3415     1.0  0.57011  0.62932  0.10700  1.0000
  H   H5829     1.0  0.59209  0.57749  0.08919  1.0000
  H   H5830     1.0  0.60442  0.58783  0.09564  1.0000
  H   H5831     1.0  0.56828  0.62074  0.07872  1.0000
  H   H5832     1.0  0.57651  0.60111  0.07287  1.0000
  H   H5833     1.0  0.56027  0.58465  0.09873  1.0000
  H   H5834     1.0  0.55946  0.58783  0.11897  1.0000
  H   H5835     1.0  0.57615  0.60451  0.12293  1.0000
  H   H5836     1.0  0.59334  0.61062  0.10710  1.0000
  H   H5837     1.0  0.58128  0.56390  0.11799  1.0000
  H   H5838     1.0  0.60368  0.56210  0.11538  1.0000
  H   H5839     1.0  0.58893  0.57712  0.12672  1.0000
  H   H5840     1.0  0.59920  0.62184  0.07873  1.0000
  H   H5841     1.0  0.60615  0.60374  0.06897  1.0000
  H   H5842     1.0  0.59428  0.62323  0.05900  1.0000
  H   H5843     1.0  0.53302  0.60162  0.10938  1.0000
  H   H5844     1.0  0.54323  0.61511  0.09163  1.0000
  H   H5845     1.0  0.54213  0.61661  0.11309  1.0000
  H   H5846     1.0  0.56326  0.63224  0.11950  1.0000
  H   H5847     1.0  0.56066  0.63345  0.09894  1.0000
  H   H5848     1.0  0.57958  0.63751  0.10187  1.0000
  C   C3416     1.0  0.74568  0.65135  0.05458  1.0000
  H   H5849     1.0  0.64552  0.98211  0.09839  1.0000
  H   H5850     1.0  0.58692  0.86603  0.00187  1.0000
  H   H5851     1.0  0.70608  0.94766  0.99963  1.0000
  H   H5852     1.0  0.73223  0.55892  0.12238  1.0000
  H   H5853     1.0  0.57906  0.50129  0.21022  1.0000
  C   C3417     1.0  0.68150  0.94790  0.08960  1.0000
  H   H5854     1.0  0.50855  0.94530  0.12436  1.0000
  H   H5855     1.0  0.52423  0.79244  0.00046  1.0000
  H   H5856     1.0  0.57296  0.93937  0.05712  1.0000
  H   H5857     1.0  0.73748  0.57811  0.04647  1.0000
  H   H5858     1.0  0.54450  0.49512  0.20173  1.0000
  H   H5859     1.0  0.73789  0.89582  0.99994  1.0000
  C   C3418     1.0  0.55263  0.96052  0.21827  1.0000
  C   C3419     1.0  0.70982  0.92914  0.08927  1.0000
  Fe  Fe499     1.0  0.50724  0.73437  0.07553  1.0000
  C   C3420     1.0  0.59392  0.87403  0.00469  1.0000
  H   H5860     1.0  0.70806  0.57878  0.99717  1.0000
  H   H5861     1.0  0.60952  0.89225  0.99297  1.0000
  H   H5862     1.0  0.50791  0.98793  0.23274  1.0000
  H   H5863     1.0  0.59958  0.98301  0.08123  1.0000
  H   H5864     1.0  0.52494  0.53972  0.20280  1.0000
  H   H5865     1.0  0.64155  0.51544  0.05138  1.0000
  H   H5866     1.0  0.59320  0.93433  0.06261  1.0000
  H   H5867     1.0  0.71958  0.90839  0.07562  1.0000
  C   C3421     1.0  0.52090  0.52949  0.21335  1.0000
  H   H5868     1.0  0.56016  0.98809  0.16319  1.0000
  C   C3422     1.0  0.60752  0.63734  0.99104  1.0000
  H   H5869     1.0  0.55204  0.95513  0.10945  1.0000
  C   C3423     1.0  0.66592  0.91861  0.09278  1.0000
  C   C3424     1.0  0.52375  0.97361  0.21429  1.0000
  C   C3425     1.0  0.57940  0.96014  0.06147  1.0000
  H   H5870     1.0  0.57292  0.51147  0.17544  1.0000
  S   S1000     1.0  0.53905  0.58267  0.22585  1.0000
  C   C3426     1.0  0.53590  0.51741  0.22100  1.0000
  H   H5871     1.0  0.62093  0.63755  0.98398  1.0000
  C   C3427     1.0  0.53246  0.86944  0.00133  1.0000
  C   C3428     1.0  0.55753  0.54234  0.21141  1.0000
  C   C3429     1.0  0.52286  0.79949  0.98751  1.0000
  H   H5872     1.0  0.50673  0.93653  0.22768  1.0000
  Fe  Fe500     1.0  0.63159  0.95857  0.07000  1.0000
  S   S1001     1.0  0.71399  0.61836  0.04392  1.0000
  H   H5873     1.0  0.55204  0.53770  0.18974  1.0000
  Fe  Fe501     1.0  0.64074  0.98635  0.03989  1.0000
  C   C3430     1.0  0.50803  0.79364  0.04631  1.0000
  H   H5874     1.0  0.61602  0.65315  0.01237  1.0000
  H   H5875     1.0  0.68483  0.51723  0.05284  1.0000
  N   N237      1.0  0.59418  0.68862  0.11589  1.0000
  C   C3431     1.0  0.58286  0.67656  0.12658  1.0000
  C   C3432     1.0  0.60196  0.69339  0.12765  1.0000
  C   C3433     1.0  0.60805  0.67928  0.10382  1.0000
  C   C3434     1.0  0.58319  0.70364  0.10653  1.0000
  C   C3435     1.0  0.57453  0.66895  0.11693  1.0000
  C   C3436     1.0  0.58927  0.70321  0.14063  1.0000
  C   C3437     1.0  0.62445  0.68625  0.09580  1.0000
  C   C3438     1.0  0.59139  0.71870  0.09616  1.0000
  H   H5876     1.0  0.59014  0.66572  0.13468  1.0000
  H   H5877     1.0  0.57199  0.68286  0.13539  1.0000
  H   H5878     1.0  0.61142  0.70129  0.12072  1.0000
  H   H5879     1.0  0.60941  0.68181  0.13476  1.0000
  H   H5880     1.0  0.61262  0.66599  0.11026  1.0000
  H   H5881     1.0  0.60295  0.67843  0.09329  1.0000
  H   H5882     1.0  0.57843  0.69973  0.09740  1.0000
  H   H5883     1.0  0.57128  0.70864  0.11519  1.0000
  H   H5884     1.0  0.58409  0.66202  0.10778  1.0000
  H   H5885     1.0  0.56743  0.65966  0.12614  1.0000
  H   H5886     1.0  0.56503  0.67868  0.11044  1.0000
  H   H5887     1.0  0.58151  0.71510  0.13451  1.0000
  H   H5888     1.0  0.58080  0.69537  0.15010  1.0000
  H   H5889     1.0  0.59664  0.70685  0.14775  1.0000
  H   H5890     1.0  0.62197  0.69950  0.08877  1.0000
  H   H5891     1.0  0.63276  0.67866  0.08652  1.0000
  H   H5892     1.0  0.63207  0.68474  0.10526  1.0000
  H   H5893     1.0  0.59688  0.71736  0.08290  1.0000
  H   H5894     1.0  0.60121  0.72076  0.10146  1.0000
  H   H5895     1.0  0.58134  0.73058  0.09597  1.0000
  H   H5896     1.0  0.56922  0.91400  0.06096  1.0000
  S   S1002     1.0  0.50713  0.97704  0.20382  1.0000
  C   C3439     1.0  0.73205  0.95908  0.04997  1.0000
  H   H5897     1.0  0.57654  0.49051  0.18901  1.0000
  C   C3440     1.0  0.55078  0.60674  0.23352  1.0000
  H   H5898     1.0  0.57514  0.50311  0.08601  1.0000
  H   H5899     1.0  0.55711  0.96817  0.08876  1.0000
  C   C3441     1.0  0.73322  0.53009  0.07569  1.0000
  H   H5900     1.0  0.54716  0.94656  0.07797  1.0000
  C   C3442     1.0  0.57828  0.92545  0.11391  1.0000
  C   C3443     1.0  0.72150  0.91190  0.08665  1.0000
  H   H5901     1.0  0.68858  0.92255  0.07371  1.0000
  H   H5902     1.0  0.58526  0.96391  0.06979  1.0000
  H   H5903     1.0  0.55282  0.61248  0.22020  1.0000
  H   H5904     1.0  0.73508  0.91300  0.08366  1.0000
  H   H5905     1.0  0.58525  0.88146  0.01392  1.0000
  H   H5906     1.0  0.53599  0.96475  0.09739  1.0000
  H   H5907     1.0  0.56623  0.96778  0.06134  1.0000
  H   H5908     1.0  0.69528  0.60602  0.01299  1.0000
  H   H5909     1.0  0.56370  0.49538  0.17381  1.0000
  H   H5910     1.0  0.54148  0.51522  0.18825  1.0000
  C   C3444     1.0  0.70793  0.60080  0.00546  1.0000
  C   C3445     1.0  0.54914  0.96674  0.23295  1.0000
  H   H5911     1.0  0.56736  0.90928  0.09858  1.0000
  H   H5912     1.0  0.65789  0.93105  0.08814  1.0000
  N   N238      1.0  0.55281  0.51412  0.20878  1.0000
  H   H5913     1.0  0.67201  0.92886  0.11932  1.0000
  S   S1003     1.0  0.62015  0.95229  0.09782  1.0000
  H   H5914     1.0  0.50988  0.67034  0.10794  1.0000
  N   N239      1.0  0.57189  0.93391  0.08408  1.0000
  C   C3446     1.0  0.57276  0.91542  0.08545  1.0000
  H   H5915     1.0  0.70935  0.92691  0.99536  1.0000
  H   H5916     1.0  0.72636  0.54694  0.10197  1.0000
  H   H5917     1.0  0.63159  0.49535  0.08479  1.0000
  H   H5918     1.0  0.65905  0.52542  0.04215  1.0000
  C   C3447     1.0  0.56561  0.67058  0.00017  1.0000
  N   N240      1.0  0.66236  0.50621  0.06479  1.0000
  H   H5919     1.0  0.74562  0.67275  0.06363  1.0000
  H   H5920     1.0  0.74623  0.65822  0.09135  1.0000
  C   C3448     1.0  0.74374  0.90562  0.99008  1.0000
  C   C3449     1.0  0.58245  0.49059  0.09029  1.0000
  C   C3450     1.0  0.73994  0.54734  0.10058  1.0000
  H   H5921     1.0  0.68247  0.50399  0.08704  1.0000
  C   C3451     1.0  0.73945  0.56158  0.10912  1.0000
  C   C3452     1.0  0.66263  0.50176  0.03554  1.0000
  C   C3453     1.0  0.60318  0.66706  0.99134  1.0000
  H   H5922     1.0  0.73767  0.64505  0.06610  1.0000
  H   H5923     1.0  0.64400  0.96241  0.99007  1.0000
  H   H5924     1.0  0.50115  0.94237  0.09910  1.0000
  H   H5925     1.0  0.62386  0.98342  0.10958  1.0000
  C   C3454     1.0  0.57793  0.65372  0.99688  1.0000
  C   C3455     1.0  0.68139  0.50514  0.06063  1.0000
  H   H5926     1.0  0.54407  0.50629  0.04837  1.0000
  H   H5927     1.0  0.53703  0.52191  0.23182  1.0000
  H   H5928     1.0  0.54215  0.49100  0.03769  1.0000
  C   C3456     1.0  0.55057  0.50620  0.19575  1.0000
  H   H5929     1.0  0.50055  0.89186  0.01754  1.0000
  C   C3457     1.0  0.52041  0.98029  0.22866  1.0000
  C   C3458     1.0  0.56895  0.98604  0.11711  1.0000
  H   H5930     1.0  0.67662  0.50032  0.03056  1.0000
  C   C3459     1.0  0.49911  0.65380  0.15785  1.0000
  H   H5931     1.0  0.70222  0.50383  0.07235  1.0000
  H   H5932     1.0  0.65939  0.48914  0.04041  1.0000
  H   H5933     1.0  0.55831  0.93299  0.98878  1.0000
  H   H5934     1.0  0.72569  0.56402  0.07463  1.0000
  H   H5935     1.0  0.57001  0.88400  0.98427  1.0000
  C   C3460     1.0  0.74873  0.60444  0.08153  1.0000
  H   H5936     1.0  0.74707  0.55622  0.04747  1.0000
  H   H5937     1.0  0.69361  0.62827  0.98458  1.0000
  H   H5938     1.0  0.73482  0.95587  0.45186  1.0000
  H   H5939     1.0  0.51451  0.81889  0.46182  1.0000
  S   S1004     1.0  0.72655  0.91923  0.43531  1.0000
  Fe  Fe502     1.0  0.52456  0.71697  0.41825  1.0000
  H   H5940     1.0  0.50045  0.95730  0.29381  1.0000
  S   S1005     1.0  0.51617  0.74438  0.40595  1.0000
  Fe  Fe503     1.0  0.55223  0.68476  0.42396  1.0000
  S   S1006     1.0  0.53343  0.66950  0.44080  1.0000
  S   S1007     1.0  0.58067  0.67455  0.41707  1.0000
  Fe  Fe504     1.0  0.51741  0.68248  0.42148  1.0000
  C   C3461     1.0  0.70333  0.96952  0.43090  1.0000
  Fe  Fe505     1.0  0.52153  0.69248  0.45188  1.0000
  S   S1008     1.0  0.53701  0.69634  0.40374  1.0000
  S   S1009     1.0  0.54177  0.70680  0.43666  1.0000
  Fe  Fe506     1.0  0.65435  0.55394  0.41573  1.0000
  S   S1010     1.0  0.66992  0.56647  0.39175  1.0000
  S   S1011     1.0  0.65850  0.52546  0.42304  1.0000
  Fe  Fe507     1.0  0.63609  0.58727  0.42647  1.0000
  S   S1012     1.0  0.65007  0.60230  0.40328  1.0000
  S   S1013     1.0  0.61559  0.59886  0.44637  1.0000
  Fe  Fe508     1.0  0.64513  0.58533  0.38957  1.0000
  S   S1014     1.0  0.63622  0.59675  0.36513  1.0000
  Fe  Fe509     1.0  0.67339  0.58207  0.40789  1.0000
  S   S1015     1.0  0.69743  0.59112  0.40514  1.0000
  S   S1016     1.0  0.62928  0.57177  0.41253  1.0000
  S   S1017     1.0  0.65972  0.56804  0.43213  1.0000
  Fe  Fe510     1.0  0.54837  0.61086  0.30417  1.0000
  S   S1018     1.0  0.54552  0.58546  0.32080  1.0000
  S   S1019     1.0  0.55593  0.61737  0.27568  1.0000
  Fe  Fe511     1.0  0.53761  0.62854  0.33394  1.0000
  S   S1020     1.0  0.53361  0.60476  0.35289  1.0000
  S   S1021     1.0  0.53336  0.65411  0.34004  1.0000
  Fe  Fe512     1.0  0.55813  0.59226  0.33776  1.0000
  S   S1022     1.0  0.57599  0.57231  0.35262  1.0000
  Fe  Fe513     1.0  0.52149  0.60017  0.33440  1.0000
  C   C3462     1.0  0.56022  0.88542  0.47991  1.0000
  S   S1023     1.0  0.56320  0.61648  0.31998  1.0000
  S   S1024     1.0  0.52322  0.62509  0.31665  1.0000
  Fe  Fe514     1.0  0.61988  0.93806  0.39525  1.0000
  S   S1025     1.0  0.63622  0.91499  0.38585  1.0000
  S   S1026     1.0  0.60022  0.95787  0.38254  1.0000
  Fe  Fe515     1.0  0.63085  0.92606  0.42892  1.0000
  S   S1027     1.0  0.64773  0.90201  0.42243  1.0000
  S   S1028     1.0  0.62523  0.92929  0.45545  1.0000
  Fe  Fe516     1.0  0.65603  0.91869  0.39737  1.0000
  S   S1029     1.0  0.68420  0.91478  0.38536  1.0000
  Fe  Fe517     1.0  0.62633  0.90068  0.41178  1.0000
  S   S1030     1.0  0.61781  0.87621  0.41641  1.0000
  S   S1031     1.0  0.64047  0.94312  0.40459  1.0000
  S   S1032     1.0  0.60876  0.92349  0.42040  1.0000
  Fe  Fe518     1.0  0.52725  0.82978  0.41469  1.0000
  H   H5941     1.0  0.55483  0.94477  0.39886  1.0000
  S   S1033     1.0  0.53239  0.80273  0.42969  1.0000
  Fe  Fe519     1.0  0.53168  0.85552  0.38137  1.0000
  S   S1034     1.0  0.54285  0.86121  0.35351  1.0000
  Fe  Fe520     1.0  0.53083  0.86516  0.41367  1.0000
  S   S1035     1.0  0.53878  0.88457  0.42189  1.0000
  S   S1036     1.0  0.54782  0.84450  0.40087  1.0000
  H   H5942     1.0  0.63485  0.50073  0.34181  1.0000
  Fe  Fe521     1.0  0.57175  0.95736  0.30346  1.0000
  S   S1037     1.0  0.59570  0.94522  0.31362  1.0000
  Fe  Fe522     1.0  0.53597  0.95312  0.30685  1.0000
  S   S1038     1.0  0.56154  0.94145  0.29280  1.0000
  H   H5943     1.0  0.61849  0.88034  0.46315  1.0000
  C   C3463     1.0  0.60394  0.67812  0.44675  1.0000
  C   C3464     1.0  0.53469  0.88214  0.34382  1.0000
  C   C3465     1.0  0.52295  0.91650  0.32983  1.0000
  C   C3466     1.0  0.53938  0.90795  0.32328  1.0000
  C   C3467     1.0  0.54519  0.89077  0.33017  1.0000
  H   H5944     1.0  0.54777  0.91456  0.31314  1.0000
  H   H5945     1.0  0.55805  0.88432  0.32527  1.0000
  C   C3468     1.0  0.63184  0.94640  0.45773  1.0000
  C   C3469     1.0  0.62598  0.95144  0.47313  1.0000
  Fe  Fe523     1.0  0.55728  0.96427  0.27192  1.0000
  H   H5946     1.0  0.73723  0.92928  0.38176  1.0000
  N   N241      1.0  0.53423  0.93187  0.37469  1.0000
  C   C3470     1.0  0.64350  0.95442  0.44487  1.0000
  C   C3471     1.0  0.69265  0.59614  0.46211  1.0000
  C   C3472     1.0  0.55832  0.87867  0.46539  1.0000
  S   S1039     1.0  0.56494  0.96130  0.24489  1.0000
  H   H5947     1.0  0.64823  0.95043  0.43301  1.0000
  C   C3473     1.0  0.59581  0.87837  0.41804  1.0000
  C   C3474     1.0  0.58936  0.86418  0.41946  1.0000
  C   C3475     1.0  0.57185  0.86592  0.42036  1.0000
  C   C3476     1.0  0.56077  0.88182  0.42014  1.0000
  C   C3477     1.0  0.56722  0.89592  0.41881  1.0000
  C   C3478     1.0  0.58470  0.89423  0.41747  1.0000
  H   H5948     1.0  0.59792  0.85186  0.41980  1.0000
  H   H5949     1.0  0.56688  0.85494  0.42156  1.0000
  H   H5950     1.0  0.55868  0.90820  0.41882  1.0000
  H   H5951     1.0  0.58950  0.90527  0.41587  1.0000
  C   C3479     1.0  0.59910  0.95465  0.36324  1.0000
  C   C3480     1.0  0.61341  0.94605  0.35336  1.0000
  C   C3481     1.0  0.61227  0.94349  0.33800  1.0000
  C   C3482     1.0  0.59684  0.94953  0.33245  1.0000
  C   C3483     1.0  0.58261  0.95842  0.34221  1.0000
  C   C3484     1.0  0.58374  0.96100  0.35758  1.0000
  H   H5952     1.0  0.62541  0.94152  0.35745  1.0000
  H   H5953     1.0  0.62340  0.93687  0.33036  1.0000
  H   H5954     1.0  0.54061  0.95315  0.35506  1.0000
  H   H5955     1.0  0.62897  0.55366  0.46049  1.0000
  H   H5956     1.0  0.63288  0.98015  0.34415  1.0000
  H   H5957     1.0  0.55077  0.93126  0.33891  1.0000
  H   H5958     1.0  0.53174  0.50036  0.35592  1.0000
  C   C3485     1.0  0.51977  0.72204  0.47351  1.0000
  C   C3486     1.0  0.72318  0.95821  0.46184  1.0000
  H   H5959     1.0  0.66563  0.51063  0.38829  1.0000
  H   H5960     1.0  0.50344  0.61441  0.23627  1.0000
  C   C3487     1.0  0.71243  0.58087  0.41796  1.0000
  C   C3488     1.0  0.71068  0.56592  0.43000  1.0000
  C   C3489     1.0  0.72294  0.55817  0.44001  1.0000
  H   H5961     1.0  0.52125  0.97462  0.36508  1.0000
  H   H5962     1.0  0.55678  0.88885  0.45403  1.0000
  C   C3490     1.0  0.72641  0.58803  0.41609  1.0000
  H   H5963     1.0  0.69999  0.56028  0.43149  1.0000
  H   H5964     1.0  0.72157  0.54657  0.44926  1.0000
  C   C3491     1.0  0.51947  0.92656  0.38833  1.0000
  C   C3492     1.0  0.61993  0.58935  0.36157  1.0000
  C   C3493     1.0  0.61378  0.57553  0.37265  1.0000
  C   C3494     1.0  0.60035  0.57032  0.36977  1.0000
  C   C3495     1.0  0.59288  0.57900  0.35591  1.0000
  C   C3496     1.0  0.59914  0.59269  0.34475  1.0000
  C   C3497     1.0  0.61274  0.59773  0.34749  1.0000
  H   H5965     1.0  0.61941  0.56881  0.38337  1.0000
  H   H5966     1.0  0.59560  0.55968  0.37844  1.0000
  H   H5967     1.0  0.59370  0.59926  0.33386  1.0000
  H   H5968     1.0  0.61755  0.60833  0.33879  1.0000
  C   C3498     1.0  0.52059  0.76039  0.41294  1.0000
  C   C3499     1.0  0.52858  0.75663  0.42654  1.0000
  C   C3500     1.0  0.53203  0.76974  0.43163  1.0000
  C   C3501     1.0  0.52753  0.78665  0.42318  1.0000
  C   C3502     1.0  0.51918  0.79040  0.40986  1.0000
  C   C3503     1.0  0.51571  0.77732  0.40479  1.0000
  H   H5969     1.0  0.53229  0.74367  0.43301  1.0000
  H   H5970     1.0  0.53846  0.76675  0.44197  1.0000
  C   C3504     1.0  0.50549  0.61558  0.26692  1.0000
  C   C3505     1.0  0.60445  0.55385  0.45637  1.0000
  H   H5971     1.0  0.51670  0.72417  0.46135  1.0000
  C   C3506     1.0  0.51202  0.66317  0.39362  1.0000
  C   C3507     1.0  0.51947  0.67515  0.38078  1.0000
  C   C3508     1.0  0.52592  0.67218  0.36442  1.0000
  C   C3509     1.0  0.52524  0.65711  0.36082  1.0000
  C   C3510     1.0  0.51788  0.64505  0.37366  1.0000
  C   C3511     1.0  0.51107  0.64819  0.39000  1.0000
  H   H5972     1.0  0.51995  0.68689  0.38332  1.0000
  H   H5973     1.0  0.53154  0.68158  0.35450  1.0000
  H   H5974     1.0  0.51730  0.63340  0.37098  1.0000
  H   H5975     1.0  0.56110  0.73872  0.46009  1.0000
  C   C3512     1.0  0.59000  0.65362  0.42590  1.0000
  C   C3513     1.0  0.58047  0.64301  0.43843  1.0000
  C   C3514     1.0  0.58843  0.62629  0.44494  1.0000
  C   C3515     1.0  0.60590  0.62009  0.43883  1.0000
  C   C3516     1.0  0.61546  0.63089  0.42667  1.0000
  C   C3517     1.0  0.60754  0.64755  0.42020  1.0000
  H   H5976     1.0  0.56699  0.64760  0.44306  1.0000
  H   H5977     1.0  0.58099  0.61805  0.45449  1.0000
  H   H5978     1.0  0.62901  0.62646  0.42224  1.0000
  H   H5979     1.0  0.61504  0.65573  0.41064  1.0000
  H   H5980     1.0  0.52242  0.54635  0.33950  1.0000
  C   C3518     1.0  0.50085  0.93985  0.24019  1.0000
  C   C3519     1.0  0.64348  0.51715  0.41847  1.0000
  C   C3520     1.0  0.63121  0.52767  0.40954  1.0000
  C   C3521     1.0  0.61964  0.52082  0.40552  1.0000
  H   H5981     1.0  0.57804  0.52412  0.33452  1.0000
  N   N242      1.0  0.58255  0.69600  0.46721  1.0000
  H   H5982     1.0  0.63076  0.54105  0.40545  1.0000
  C   C3522     1.0  0.71521  0.91827  0.42096  1.0000
  C   C3523     1.0  0.72287  0.90864  0.40866  1.0000
  C   C3524     1.0  0.71327  0.90745  0.39781  1.0000
  C   C3525     1.0  0.69602  0.91585  0.39928  1.0000
  C   C3526     1.0  0.68837  0.92533  0.41169  1.0000
  C   C3527     1.0  0.69796  0.92662  0.42242  1.0000
  H   H5983     1.0  0.73609  0.90191  0.40769  1.0000
  H   H5984     1.0  0.71914  0.89983  0.38845  1.0000
  H   H5985     1.0  0.67507  0.93179  0.41296  1.0000
  H   H5986     1.0  0.69191  0.93399  0.43195  1.0000
  H   H5987     1.0  0.53264  0.94478  0.40407  1.0000
  H   H5988     1.0  0.70055  0.58743  0.45368  1.0000
  C   C3528     1.0  0.51616  0.96289  0.37013  1.0000
  C   C3529     1.0  0.55173  0.60702  0.26213  1.0000
  C   C3530     1.0  0.54554  0.59211  0.26819  1.0000
  C   C3531     1.0  0.54201  0.58455  0.25688  1.0000
  H   H5989     1.0  0.67340  0.59264  0.44005  1.0000
  H   H5990     1.0  0.56975  0.93260  0.47221  1.0000
  H   H5991     1.0  0.54343  0.58649  0.28154  1.0000
  H   H5992     1.0  0.53717  0.57308  0.26157  1.0000
  H   H5993     1.0  0.68840  0.97862  0.45323  1.0000
  H   H5994     1.0  0.59811  0.50804  0.46300  1.0000
  C   C3532     1.0  0.56797  0.71129  0.46741  1.0000
  H   H5995     1.0  0.50669  0.91408  0.37692  1.0000
  H   H5996     1.0  0.59713  0.52737  0.47879  1.0000
  H   H5997     1.0  0.60157  0.88571  0.33664  1.0000
  N   N243      1.0  0.60455  0.88449  0.36164  1.0000
  C   C3533     1.0  0.63221  0.96398  0.47602  1.0000
  H   H5998     1.0  0.60761  0.51363  0.32015  1.0000
  S   S1040     1.0  0.57013  0.97914  0.28113  1.0000
  C   C3534     1.0  0.64400  0.97186  0.46329  1.0000
  C   C3535     1.0  0.67598  0.61803  0.43493  1.0000
  H   H5999     1.0  0.67310  0.62920  0.44048  1.0000
  C   C3536     1.0  0.55441  0.61421  0.24478  1.0000
  C   C3537     1.0  0.62078  0.50334  0.40974  1.0000
  H   H6000     1.0  0.60851  0.67847  0.43302  1.0000
  H   H6001     1.0  0.65386  0.49027  0.38207  1.0000
  H   H6002     1.0  0.50940  0.78034  0.39436  1.0000
  H   H6003     1.0  0.51762  0.82283  0.35258  1.0000
  H   H6004     1.0  0.57995  0.69507  0.44254  1.0000
  H   H6005     1.0  0.50984  0.84123  0.33784  1.0000
  H   H6006     1.0  0.68711  0.52271  0.39052  1.0000
  H   H6007     1.0  0.53109  0.94632  0.26823  1.0000
  H   H6008     1.0  0.70442  0.50199  0.41330  1.0000
  H   H6009     1.0  0.59065  0.92351  0.46141  1.0000
  H   H6010     1.0  0.58472  0.51783  0.37912  1.0000
  C   C3538     1.0  0.57686  0.92644  0.46152  1.0000
  C   C3539     1.0  0.64094  0.51681  0.46881  1.0000
  H   H6011     1.0  0.50799  0.77454  0.48104  1.0000
  H   H6012     1.0  0.55813  0.71022  0.46137  1.0000
  C   C3540     1.0  0.56302  0.67549  0.47067  1.0000
  C   C3541     1.0  0.60844  0.89488  0.37157  1.0000
  C   C3542     1.0  0.63596  0.86764  0.36192  1.0000
  S   S1041     1.0  0.53074  0.97479  0.28509  1.0000
  C   C3543     1.0  0.64413  0.49970  0.42336  1.0000
  H   H6013     1.0  0.60789  0.90066  0.45399  1.0000
  C   C3544     1.0  0.53700  0.54764  0.30310  1.0000
  H   H6014     1.0  0.56683  0.92481  0.35142  1.0000
  C   C3545     1.0  0.66892  0.60297  0.44717  1.0000
  H   H6015     1.0  0.60196  0.98766  0.34407  1.0000
  H   H6016     1.0  0.57520  0.90772  0.44934  1.0000
  C   C3546     1.0  0.54016  0.50955  0.35057  1.0000
  H   H6017     1.0  0.54799  0.91762  0.28098  1.0000
  H   H6018     1.0  0.52177  0.93610  0.28837  1.0000
  H   H6019     1.0  0.54248  0.80840  0.46016  1.0000
  C   C3547     1.0  0.51280  0.51284  0.33051  1.0000
  H   H6020     1.0  0.50705  0.60260  0.27492  1.0000
  H   H6021     1.0  0.55926  0.62570  0.24001  1.0000
  C   C3548     1.0  0.62787  0.50034  0.33258  1.0000
  H   H6022     1.0  0.50527  0.63888  0.39988  1.0000
  H   H6023     1.0  0.51019  0.64315  0.24125  1.0000
  C   C3549     1.0  0.62261  0.54429  0.45893  1.0000
  H   H6024     1.0  0.58313  0.90923  0.38213  1.0000
  H   H6025     1.0  0.71560  0.96055  0.43235  1.0000
  H   H6026     1.0  0.73339  0.97633  0.42924  1.0000
  H   H6027     1.0  0.57933  0.87415  0.34999  1.0000
  H   H6028     1.0  0.70247  0.53764  0.36320  1.0000
  H   H6029     1.0  0.59625  0.70506  0.44191  1.0000
  S   S1042     1.0  0.50354  0.70401  0.43434  1.0000
  C   C3550     1.0  0.67132  0.57890  0.47098  1.0000
  H   H6030     1.0  0.67961  0.49419  0.41061  1.0000
  H   H6031     1.0  0.56836  0.86688  0.37086  1.0000
  S   S1043     1.0  0.51602  0.93844  0.32288  1.0000
  H   H6032     1.0  0.67479  0.50774  0.36740  1.0000
  H   H6033     1.0  0.52390  0.91392  0.39628  1.0000
  H   H6034     1.0  0.58977  0.85614  0.36397  1.0000
  H   H6035     1.0  0.51551  0.80333  0.40336  1.0000
  H   H6036     1.0  0.62079  0.98315  0.36439  1.0000
  H   H6037     1.0  0.57076  0.96331  0.33795  1.0000
  H   H6038     1.0  0.64877  0.60875  0.47646  1.0000
  H   H6039     1.0  0.74257  0.90539  0.35924  1.0000
  C   C3551     1.0  0.50080  0.58346  0.31367  1.0000
  C   C3552     1.0  0.54367  0.94621  0.39333  1.0000
  H   H6040     1.0  0.56122  0.90963  0.34402  1.0000
  H   H6041     1.0  0.51232  0.58840  0.30951  1.0000
  H   H6042     1.0  0.50972  0.50654  0.34402  1.0000
  C   C3553     1.0  0.68335  0.93290  0.46965  1.0000
  S   S1044     1.0  0.51276  0.83900  0.39386  1.0000
  H   H6043     1.0  0.54663  0.90578  0.37334  1.0000
  H   H6044     1.0  0.53316  0.55698  0.31124  1.0000
  H   H6045     1.0  0.69574  0.94470  0.35444  1.0000
  H   H6046     1.0  0.57974  0.49804  0.38097  1.0000
  H   H6047     1.0  0.69350  0.96176  0.43468  1.0000
  C   C3554     1.0  0.58697  0.88098  0.37006  1.0000
  N   N244      1.0  0.67387  0.59683  0.46415  1.0000
  C   C3555     1.0  0.64943  0.96733  0.44759  1.0000
  H   H6048     1.0  0.52724  0.74587  0.46799  1.0000
  N   N245      1.0  0.69254  0.49820  0.38432  1.0000
  H   H6049     1.0  0.68601  0.88334  0.46000  1.0000
  S   S1045     1.0  0.51268  0.69075  0.47982  1.0000
  H   H6050     1.0  0.72780  0.59961  0.40680  1.0000
  C   C3556     1.0  0.51500  0.93614  0.25015  1.0000
  C   C3557     1.0  0.52484  0.93545  0.27495  1.0000
  S   S1046     1.0  0.54637  0.96762  0.31895  1.0000
  H   H6051     1.0  0.70279  0.95807  0.36291  1.0000
  C   C3558     1.0  0.53870  0.91916  0.27311  1.0000
  C   C3559     1.0  0.58110  0.86882  0.36311  1.0000
  H   H6052     1.0  0.61005  0.52908  0.39876  1.0000
  H   H6053     1.0  0.70365  0.97536  0.41736  1.0000
  H   H6054     1.0  0.59561  0.55713  0.46796  1.0000
  H   H6055     1.0  0.69510  0.92725  0.46133  1.0000
  C   C3560     1.0  0.67487  0.50158  0.38085  1.0000
  H   H6056     1.0  0.54658  0.87343  0.46945  1.0000
  S   S1047     1.0  0.51161  0.84969  0.42928  1.0000
  H   H6057     1.0  0.55960  0.93538  0.37313  1.0000
  C   C3561     1.0  0.50791  0.62738  0.27690  1.0000
  H   H6058     1.0  0.59272  0.87164  0.47909  1.0000
  N   N246      1.0  0.73873  0.94139  0.35551  1.0000
  H   H6059     1.0  0.51342  0.54098  0.30523  1.0000
  H   H6060     1.0  0.58613  0.87566  0.38383  1.0000
  H   H6061     1.0  0.65859  0.97341  0.43773  1.0000
  C   C3562     1.0  0.65287  0.57651  0.47391  1.0000
  C   C3563     1.0  0.54453  0.59191  0.23954  1.0000
  C   C3564     1.0  0.60426  0.89377  0.34365  1.0000
  H   H6062     1.0  0.62112  0.89817  0.36619  1.0000
  H   H6063     1.0  0.55215  0.92023  0.39105  1.0000
  C   C3565     1.0  0.51798  0.89048  0.34989  1.0000
  C   C3566     1.0  0.61069  0.51107  0.46152  1.0000
  C   C3567     1.0  0.59084  0.88381  0.46963  1.0000
  H   H6064     1.0  0.65675  0.53592  0.45655  1.0000
  C   C3568     1.0  0.69751  0.98324  0.44157  1.0000
  C   C3569     1.0  0.57016  0.91085  0.46204  1.0000
  H   H6065     1.0  0.52276  0.92332  0.24876  1.0000
  H   H6066     1.0  0.56856  0.67254  0.45801  1.0000
  H   H6067     1.0  0.72166  0.96719  0.37312  1.0000
  H   H6068     1.0  0.49962  0.93683  0.37285  1.0000
  Fe  Fe524     1.0  0.54381  0.98816  0.29586  1.0000
  C   C3570     1.0  0.69679  0.51517  0.38176  1.0000
  H   H6069     1.0  0.59866  0.54665  0.45104  1.0000
  C   C3571     1.0  0.57574  0.68063  0.47766  1.0000
  H   H6070     1.0  0.65338  0.49150  0.43055  1.0000
  H   H6071     1.0  0.58637  0.66940  0.47971  1.0000
  H   H6072     1.0  0.61365  0.51946  0.44894  1.0000
  C   C3572     1.0  0.57274  0.72849  0.45829  1.0000
  C   C3573     1.0  0.68975  0.89536  0.47849  1.0000
  H   H6073     1.0  0.71272  0.94986  0.38761  1.0000
  H   H6074     1.0  0.65474  0.60656  0.44867  1.0000
  C   C3574     1.0  0.69940  0.59060  0.47854  1.0000
  H   H6075     1.0  0.57493  0.93600  0.44978  1.0000
  C   C3575     1.0  0.49937  0.92333  0.27781  1.0000
  C   C3576     1.0  0.52576  0.53434  0.30910  1.0000
  H   H6076     1.0  0.72902  0.95750  0.39179  1.0000
  H   H6077     1.0  0.65304  0.56275  0.47736  1.0000
  H   H6078     1.0  0.53169  0.52450  0.30141  1.0000
  H   H6079     1.0  0.61526  0.67727  0.45169  1.0000
  H   H6080     1.0  0.59890  0.66644  0.45240  1.0000
  C   C3577     1.0  0.65707  0.52383  0.46598  1.0000
  C   C3578     1.0  0.52560  0.73438  0.47733  1.0000
  H   H6081     1.0  0.55338  0.50239  0.35152  1.0000
  H   H6082     1.0  0.51326  0.96083  0.38400  1.0000
  H   H6083     1.0  0.55079  0.54162  0.30215  1.0000
  N   N247      1.0  0.62393  0.52877  0.47312  1.0000
  N   N248      1.0  0.52273  0.52627  0.32771  1.0000
  C   C3579     1.0  0.69786  0.52624  0.36377  1.0000
  H   H6084     1.0  0.72528  0.93041  0.34386  1.0000
  H   H6085     1.0  0.68998  0.61433  0.42996  1.0000
  C   C3580     1.0  0.52904  0.94825  0.36258  1.0000
  C   C3581     1.0  0.73696  0.56532  0.43804  1.0000
  C   C3582     1.0  0.50720  0.80936  0.47027  1.0000
  H   H6086     1.0  0.53332  0.90766  0.27731  1.0000
  C   C3583     1.0  0.73873  0.94164  0.37330  1.0000
  H   H6087     1.0  0.56916  0.86819  0.46207  1.0000
  H   H6088     1.0  0.52074  0.50248  0.32402  1.0000
  S   S1048     1.0  0.51629  0.87717  0.39319  1.0000
  H   H6089     1.0  0.62966  0.54105  0.44657  1.0000
  H   H6090     1.0  0.50464  0.96445  0.26154  1.0000
  H   H6091     1.0  0.53173  0.91525  0.36028  1.0000
  N   N249      1.0  0.57408  0.89531  0.47568  1.0000
  H   H6092     1.0  0.53690  0.51919  0.35831  1.0000
  C   C3584     1.0  0.50178  0.53446  0.35501  1.0000
  H   H6093     1.0  0.67805  0.62729  0.46791  1.0000
  H   H6094     1.0  0.61751  0.86183  0.35187  1.0000
  C   C3585     1.0  0.66908  0.92305  0.47355  1.0000
  H   H6095     1.0  0.72803  0.49497  0.37389  1.0000
  H   H6096     1.0  0.57722  0.72945  0.44449  1.0000
  H   H6097     1.0  0.53210  0.78247  0.47740  1.0000
  H   H6098     1.0  0.71906  0.92670  0.36612  1.0000
  C   C3586     1.0  0.66482  0.62565  0.47359  1.0000
  H   H6099     1.0  0.57697  0.89283  0.36904  1.0000
  C   C3587     1.0  0.74057  0.95808  0.34352  1.0000
  H   H6100     1.0  0.70817  0.95912  0.34039  1.0000
  H   H6101     1.0  0.52322  0.94595  0.35317  1.0000
  C   C3588     1.0  0.59542  0.91155  0.37372  1.0000
  H   H6102     1.0  0.59087  0.88043  0.45774  1.0000
  H   H6103     1.0  0.62717  0.90450  0.33945  1.0000
  N   N250      1.0  0.60063  0.52183  0.34383  1.0000
  C   C3589     1.0  0.58474  0.53232  0.33760  1.0000
  C   C3590     1.0  0.59571  0.50655  0.35666  1.0000
  C   C3591     1.0  0.61388  0.51641  0.32892  1.0000
  C   C3592     1.0  0.60682  0.53275  0.35140  1.0000
  C   C3593     1.0  0.58746  0.54671  0.32182  1.0000
  H   H6104     1.0  0.54689  0.50810  0.32440  1.0000
  C   C3594     1.0  0.59011  0.69430  0.44920  1.0000
  C   C3595     1.0  0.62262  0.52459  0.35927  1.0000
  H   H6105     1.0  0.50848  0.90566  0.29979  1.0000
  H   H6106     1.0  0.57540  0.53847  0.34759  1.0000
  H   H6107     1.0  0.60616  0.68573  0.47620  1.0000
  H   H6108     1.0  0.54610  0.92003  0.25989  1.0000
  H   H6109     1.0  0.70912  0.51397  0.38512  1.0000
  H   H6110     1.0  0.62048  0.52684  0.32146  1.0000
  H   H6111     1.0  0.61026  0.54394  0.34171  1.0000
  H   H6112     1.0  0.59645  0.53858  0.36093  1.0000
  H   H6113     1.0  0.59373  0.55592  0.32366  1.0000
  H   H6114     1.0  0.59482  0.54186  0.31037  1.0000
  H   H6115     1.0  0.57478  0.55393  0.31920  1.0000
  H   H6116     1.0  0.56890  0.51653  0.36859  1.0000
  H   H6117     1.0  0.72585  0.98162  0.46565  1.0000
  H   H6118     1.0  0.67000  0.62196  0.42378  1.0000
  H   H6119     1.0  0.60866  0.89525  0.47623  1.0000
  N   N251      1.0  0.50906  0.93714  0.26853  1.0000
  H   H6120     1.0  0.49989  0.58694  0.23925  1.0000
  H   H6121     1.0  0.63464  0.52489  0.34950  1.0000
  H   H6122     1.0  0.62260  0.51158  0.36676  1.0000
  H   H6123     1.0  0.62252  0.53190  0.36846  1.0000
  H   H6124     1.0  0.64212  0.51278  0.45698  1.0000
  C   C3596     1.0  0.51332  0.53982  0.33760  1.0000
  H   H6125     1.0  0.66849  0.51463  0.46099  1.0000
  C   C3597     1.0  0.72280  0.93644  0.35479  1.0000
  C   C3598     1.0  0.55595  0.92133  0.34907  1.0000
  H   H6126     1.0  0.59327  0.91981  0.36147  1.0000
  H   H6127     1.0  0.64728  0.58190  0.46259  1.0000
  C   C3599     1.0  0.54802  0.93271  0.38275  1.0000
  H   H6128     1.0  0.60673  0.49812  0.36179  1.0000
  H   H6129     1.0  0.61333  0.85850  0.37422  1.0000
  C   C3600     1.0  0.61726  0.86768  0.36232  1.0000
  H   H6130     1.0  0.55609  0.91544  0.46299  1.0000
  H   H6131     1.0  0.51344  0.84299  0.35745  1.0000
  H   H6132     1.0  0.50962  0.88380  0.36011  1.0000
  H   H6133     1.0  0.54544  0.81267  0.47900  1.0000
  C   C3601     1.0  0.66247  0.60745  0.47641  1.0000
  C   C3602     1.0  0.63300  0.49275  0.41873  1.0000
  H   H6134     1.0  0.60348  0.70735  0.46599  1.0000
  H   H6135     1.0  0.64405  0.85491  0.36078  1.0000
  H   H6136     1.0  0.60046  0.91860  0.37997  1.0000
  H   H6137     1.0  0.70275  0.49247  0.35933  1.0000
  H   H6138     1.0  0.71323  0.95228  0.46084  1.0000
  S   S1049     1.0  0.60678  0.49509  0.40365  1.0000
  H   H6139     1.0  0.58234  0.73124  0.46344  1.0000
  C   C3603     1.0  0.72458  0.95479  0.38173  1.0000
  H   H6140     1.0  0.56116  0.71213  0.48056  1.0000
  H   H6141     1.0  0.70706  0.51956  0.35420  1.0000
  H   H6142     1.0  0.59348  0.90500  0.34284  1.0000
  C   C3604     1.0  0.71619  0.97712  0.46204  1.0000
  H   H6143     1.0  0.51938  0.64917  0.47837  1.0000
  H   H6144     1.0  0.52369  0.94494  0.24326  1.0000
  H   H6145     1.0  0.57270  0.96784  0.36511  1.0000
  H   H6146     1.0  0.64145  0.87689  0.35117  1.0000
  H   H6147     1.0  0.55934  0.66383  0.47922  1.0000
  H   H6148     1.0  0.53559  0.55482  0.29021  1.0000
  C   C3605     1.0  0.54170  0.91792  0.36496  1.0000
  H   H6149     1.0  0.54174  0.95918  0.38538  1.0000
  H   H6150     1.0  0.61736  0.91004  0.32225  1.0000
  H   H6151     1.0  0.62987  0.88885  0.32729  1.0000
  H   H6152     1.0  0.63709  0.86996  0.37388  1.0000
  H   H6153     1.0  0.70713  0.88682  0.45650  1.0000
  H   H6154     1.0  0.74103  0.95725  0.33043  1.0000
  H   H6155     1.0  0.68513  0.53095  0.36042  1.0000
  C   C3606     1.0  0.60716  0.89070  0.46569  1.0000
  H   H6156     1.0  0.51734  0.63509  0.26902  1.0000
  H   H6157     1.0  0.60936  0.88727  0.38442  1.0000
  C   C3607     1.0  0.61008  0.51922  0.47608  1.0000
  H   H6158     1.0  0.50533  0.91179  0.27249  1.0000
  H   H6159     1.0  0.72932  0.96836  0.34637  1.0000
  H   H6160     1.0  0.49924  0.91404  0.34775  1.0000
  S   S1050     1.0  0.50356  0.66694  0.41412  1.0000
  H   H6161     1.0  0.66673  0.92288  0.46122  1.0000
  C   C3608     1.0  0.62074  0.89935  0.33276  1.0000
  C   C3609     1.0  0.70662  0.95060  0.35307  1.0000
  N   N252      1.0  0.57606  0.63569  0.38196  1.0000
  C   C3610     1.0  0.57426  0.65001  0.36673  1.0000
  C   C3611     1.0  0.57664  0.61970  0.37678  1.0000
  C   C3612     1.0  0.59277  0.63456  0.38651  1.0000
  C   C3613     1.0  0.56103  0.63975  0.39609  1.0000
  C   C3614     1.0  0.57503  0.66752  0.36863  1.0000
  C   C3615     1.0  0.56043  0.61893  0.37177  1.0000
  C   C3616     1.0  0.60053  0.61775  0.39745  1.0000
  C   C3617     1.0  0.55846  0.62576  0.41217  1.0000
  H   H6162     1.0  0.58437  0.64699  0.35552  1.0000
  H   H6163     1.0  0.56185  0.65188  0.36312  1.0000
  H   H6164     1.0  0.57924  0.60822  0.38673  1.0000
  H   H6165     1.0  0.58755  0.61773  0.36593  1.0000
  H   H6166     1.0  0.60294  0.63670  0.37486  1.0000
  H   H6167     1.0  0.59151  0.64471  0.39320  1.0000
  H   H6168     1.0  0.56197  0.65075  0.40046  1.0000
  H   H6169     1.0  0.54880  0.64426  0.39160  1.0000
  H   H6170     1.0  0.56427  0.67234  0.37843  1.0000
  H   H6171     1.0  0.58739  0.66751  0.37126  1.0000
  H   H6172     1.0  0.57381  0.67677  0.35654  1.0000
  H   H6173     1.0  0.55856  0.62789  0.35972  1.0000
  H   H6174     1.0  0.56201  0.60607  0.36965  1.0000
  H   H6175     1.0  0.54883  0.62108  0.38183  1.0000
  H   H6176     1.0  0.59194  0.61420  0.40974  1.0000
  H   H6177     1.0  0.61234  0.61916  0.40012  1.0000
  H   H6178     1.0  0.60470  0.60723  0.39069  1.0000
  H   H6179     1.0  0.56476  0.62702  0.42166  1.0000
  H   H6180     1.0  0.56295  0.61276  0.41002  1.0000
  H   H6181     1.0  0.54454  0.62708  0.41773  1.0000
  H   H6182     1.0  0.50470  0.54989  0.33039  1.0000
  H   H6183     1.0  0.67981  0.57047  0.46246  1.0000
  C   C3618     1.0  0.58140  0.51024  0.37208  1.0000
  C   C3619     1.0  0.51206  0.90757  0.34278  1.0000
  C   C3620     1.0  0.50873  0.83545  0.35147  1.0000
  H   H6184     1.0  0.61677  0.94543  0.48292  1.0000
  C   C3621     1.0  0.73865  0.58030  0.42609  1.0000
  H   H6185     1.0  0.65801  0.89827  0.47042  1.0000
  C   C3622     1.0  0.54461  0.80274  0.47313  1.0000
  H   H6186     1.0  0.59157  0.49858  0.35057  1.0000
  H   H6187     1.0  0.65915  0.52542  0.47783  1.0000
  H   H6188     1.0  0.67886  0.94601  0.46280  1.0000
  H   H6189     1.0  0.62036  0.49893  0.46187  1.0000
  H   H6190     1.0  0.65603  0.63475  0.46579  1.0000
  H   H6191     1.0  0.55732  0.79387  0.47186  1.0000
  H   H6192     1.0  0.60536  0.56597  0.44708  1.0000
  C   C3623     1.0  0.53309  0.97688  0.23797  1.0000
  H   H6193     1.0  0.69608  0.60848  0.45564  1.0000
  H   H6194     1.0  0.50410  0.57515  0.29067  1.0000
  H   H6195     1.0  0.71295  0.59180  0.47545  1.0000
  H   H6196     1.0  0.69022  0.90423  0.45124  1.0000
  H   H6197     1.0  0.50528  0.58619  0.25850  1.0000
  H   H6198     1.0  0.54827  0.52722  0.32867  1.0000
  H   H6199     1.0  0.50839  0.52385  0.36359  1.0000
  H   H6200     1.0  0.63746  0.49888  0.32069  1.0000
  H   H6201     1.0  0.72685  0.95156  0.47407  1.0000
  H   H6202     1.0  0.70494  0.97741  0.47280  1.0000
  C   C3624     1.0  0.54002  0.51792  0.33196  1.0000
  H   H6203     1.0  0.51668  0.61516  0.25610  1.0000
  S   S1051     1.0  0.65244  0.98689  0.46723  1.0000
  H   H6204     1.0  0.51024  0.79912  0.46325  1.0000
  H   H6205     1.0  0.65719  0.93105  0.47956  1.0000
  C   C3625     1.0  0.59637  0.69776  0.47466  1.0000
  H   H6206     1.0  0.55103  0.68527  0.47032  1.0000
  C   C3626     1.0  0.69330  0.89237  0.46052  1.0000
  H   H6207     1.0  0.50393  0.96574  0.36592  1.0000
  H   H6208     1.0  0.53039  0.98200  0.24908  1.0000
  H   H6209     1.0  0.64196  0.50492  0.47875  1.0000
  H   H6210     1.0  0.51380  0.61944  0.28760  1.0000
  H   H6211     1.0  0.69990  0.90128  0.47922  1.0000
  H   H6212     1.0  0.51440  0.93499  0.39738  1.0000
  H   H6213     1.0  0.68657  0.93390  0.48116  1.0000
  C   C3627     1.0  0.50399  0.92544  0.38222  1.0000
  H   H6214     1.0  0.67497  0.57349  0.48340  1.0000
  H   H6215     1.0  0.49916  0.92677  0.30344  1.0000
  C   C3628     1.0  0.72727  0.98894  0.43219  1.0000
  N   N253      1.0  0.71138  0.98856  0.44605  1.0000
  C   C3629     1.0  0.70596  0.48926  0.41090  1.0000
  C   C3630     1.0  0.65897  0.89661  0.48373  1.0000
  H   H6216     1.0  0.51600  0.52199  0.62088  1.0000
  Fe  Fe525     1.0  0.64995  0.51639  0.52530  1.0000
  S   S1052     1.0  0.64449  0.54468  0.51634  1.0000
  C   C3631     1.0  0.60352  0.98830  0.59837  1.0000
  H   H6217     1.0  0.60681  0.75431  0.57849  1.0000
  H   H6218     1.0  0.58377  0.69312  0.50180  1.0000
  Fe  Fe526     1.0  0.69379  0.62682  0.55326  1.0000
  S   S1053     1.0  0.68926  0.62827  0.52773  1.0000
  S   S1054     1.0  0.71452  0.63835  0.55547  1.0000
  Fe  Fe527     1.0  0.66498  0.60871  0.57195  1.0000
  S   S1055     1.0  0.65820  0.60855  0.54819  1.0000
  S   S1056     1.0  0.65038  0.59443  0.59548  1.0000
  Fe  Fe528     1.0  0.68637  0.60145  0.53828  1.0000
  S   S1057     1.0  0.69862  0.57990  0.52498  1.0000
  Fe  Fe529     1.0  0.66133  0.63539  0.53980  1.0000
  S   S1058     1.0  0.64096  0.65263  0.52618  1.0000
  S   S1059     1.0  0.69309  0.59936  0.56283  1.0000
  S   S1060     1.0  0.66588  0.63624  0.56456  1.0000
  Fe  Fe530     1.0  0.54521  0.74030  0.52208  1.0000
  S   S1061     1.0  0.56157  0.75465  0.52722  1.0000
  S   S1062     1.0  0.53973  0.74605  0.49624  1.0000
  Fe  Fe531     1.0  0.53607  0.72272  0.55879  1.0000
  S   S1063     1.0  0.55097  0.73626  0.56732  1.0000
  C   C3632     1.0  0.58102  0.49980  0.60904  1.0000
  Fe  Fe532     1.0  0.54013  0.75944  0.54929  1.0000
  S   S1064     1.0  0.52892  0.78687  0.55082  1.0000
  Fe  Fe533     1.0  0.57117  0.73037  0.54450  1.0000
  S   S1065     1.0  0.59884  0.72174  0.54701  1.0000
  S   S1066     1.0  0.52317  0.74636  0.54305  1.0000
  S   S1067     1.0  0.55688  0.71549  0.53706  1.0000
  Fe  Fe534     1.0  0.55061  0.62182  0.69138  1.0000
  S   S1068     1.0  0.57277  0.60561  0.67694  1.0000
  Fe  Fe535     1.0  0.54109  0.64572  0.65924  1.0000
  S   S1069     1.0  0.56216  0.63138  0.64218  1.0000
  H   H6219     1.0  0.54575  0.55482  0.68618  1.0000
  Fe  Fe536     1.0  0.55474  0.60823  0.66038  1.0000
  H   H6220     1.0  0.61017  0.51035  0.57294  1.0000
  Fe  Fe537     1.0  0.57826  0.63012  0.66008  1.0000
  S   S1070     1.0  0.60410  0.63675  0.64922  1.0000
  S   S1071     1.0  0.53205  0.62260  0.67596  1.0000
  S   S1072     1.0  0.55768  0.64622  0.67600  1.0000
  Fe  Fe538     1.0  0.56501  0.85611  0.56414  1.0000
  S   S1073     1.0  0.56135  0.87233  0.53883  1.0000
  S   S1074     1.0  0.57193  0.82747  0.57020  1.0000
  Fe  Fe539     1.0  0.55690  0.88648  0.58036  1.0000
  S   S1075     1.0  0.55215  0.90507  0.55661  1.0000
  S   S1076     1.0  0.55486  0.89349  0.60491  1.0000
  Fe  Fe540     1.0  0.53825  0.88705  0.55374  1.0000
  H   H6221     1.0  0.64427  0.58193  0.48463  1.0000
  Fe  Fe541     1.0  0.57566  0.88888  0.54399  1.0000
  S   S1077     1.0  0.59366  0.90262  0.52325  1.0000
  S   S1078     1.0  0.54082  0.86971  0.57875  1.0000
  S   S1079     1.0  0.58155  0.87136  0.56796  1.0000
  C   C3633     1.0  0.59384  0.79216  0.53516  1.0000
  H   H6222     1.0  0.51891  0.71713  0.60121  1.0000
  S   S1080     1.0  0.66275  0.97075  0.53928  1.0000
  Fe  Fe542     1.0  0.68011  0.97817  0.51416  1.0000
  H   H6223     1.0  0.69943  0.57715  0.48462  1.0000
  Fe  Fe543     1.0  0.65513  0.95432  0.52666  1.0000
  S   S1081     1.0  0.65042  0.92833  0.54042  1.0000
  S   S1082     1.0  0.63361  0.97426  0.51745  1.0000
  H   H6224     1.0  0.62805  0.78155  0.52832  1.0000
  H   H6225     1.0  0.68622  0.88554  0.51688  1.0000
  H   H6226     1.0  0.61706  0.80718  0.56164  1.0000
  H   H6227     1.0  0.51779  0.82751  0.48473  1.0000
  H   H6228     1.0  0.57940  0.88782  0.50077  1.0000
  S   S1083     1.0  0.52268  0.96886  0.61304  1.0000
  S   S1084     1.0  0.62773  0.50497  0.54047  1.0000
  S   S1085     1.0  0.55384  0.96343  0.64312  1.0000
  H   H6229     1.0  0.61985  0.76914  0.51123  1.0000
  C   C3634     1.0  0.57565  0.52102  0.64785  1.0000
  H   H6230     1.0  0.58465  0.80133  0.54247  1.0000
  H   H6231     1.0  0.51056  0.80605  0.52115  1.0000
  H   H6232     1.0  0.62842  0.97158  0.59684  1.0000
  C   C3635     1.0  0.52624  0.49103  0.70102  1.0000
  H   H6233     1.0  0.51851  0.59126  0.66366  1.0000
  C   C3636     1.0  0.51802  0.87468  0.52780  1.0000
  H   H6234     1.0  0.52211  0.85708  0.51196  1.0000
  H   H6235     1.0  0.53129  0.87192  0.52849  1.0000
  C   C3637     1.0  0.60785  0.91058  0.52960  1.0000
  C   C3638     1.0  0.61248  0.92570  0.52003  1.0000
  C   C3639     1.0  0.62533  0.93138  0.52339  1.0000
  C   C3640     1.0  0.63355  0.92201  0.53651  1.0000
  C   C3641     1.0  0.62863  0.90705  0.54639  1.0000
  C   C3642     1.0  0.61571  0.90139  0.54303  1.0000
  H   H6236     1.0  0.60631  0.93283  0.50975  1.0000
  H   H6237     1.0  0.62920  0.94271  0.51545  1.0000
  H   H6238     1.0  0.63500  0.89966  0.55650  1.0000
  H   H6239     1.0  0.61233  0.88961  0.55040  1.0000
  C   C3643     1.0  0.54735  0.91478  0.60657  1.0000
  C   C3644     1.0  0.54459  0.91889  0.62225  1.0000
  C   C3645     1.0  0.53774  0.93566  0.62414  1.0000
  C   C3646     1.0  0.53332  0.94831  0.61042  1.0000
  C   C3647     1.0  0.53659  0.94432  0.59461  1.0000
  C   C3648     1.0  0.54386  0.92762  0.59264  1.0000
  H   H6240     1.0  0.54754  0.90904  0.63302  1.0000
  H   H6241     1.0  0.53540  0.93867  0.63634  1.0000
  H   H6242     1.0  0.53351  0.95415  0.58389  1.0000
  H   H6243     1.0  0.54656  0.92467  0.58042  1.0000
  H   H6244     1.0  0.59141  0.95449  0.53955  1.0000
  C   C3649     1.0  0.54280  0.58076  0.62695  1.0000
  C   C3650     1.0  0.53871  0.58539  0.64251  1.0000
  H   H6245     1.0  0.55598  0.57848  0.62012  1.0000
  H   H6246     1.0  0.53331  0.57504  0.60830  1.0000
  C   C3651     1.0  0.54105  0.79803  0.55611  1.0000
  C   C3652     1.0  0.54983  0.79060  0.56918  1.0000
  C   C3653     1.0  0.55883  0.79995  0.57374  1.0000
  C   C3654     1.0  0.55918  0.81673  0.56522  1.0000
  C   C3655     1.0  0.55030  0.82422  0.55222  1.0000
  C   C3656     1.0  0.54125  0.81489  0.54769  1.0000
  H   H6247     1.0  0.54944  0.77773  0.57594  1.0000
  H   H6248     1.0  0.56551  0.79417  0.58395  1.0000
  H   H6249     1.0  0.55058  0.83713  0.54552  1.0000
  H   H6250     1.0  0.53449  0.82073  0.53755  1.0000
  C   C3657     1.0  0.52533  0.69300  0.59428  1.0000
  C   C3658     1.0  0.61600  0.49054  0.59421  1.0000
  C   C3659     1.0  0.50625  0.64744  0.48502  1.0000
  C   C3660     1.0  0.50541  0.95091  0.66681  1.0000
  C   C3661     1.0  0.53001  0.66829  0.61701  1.0000
  C   C3662     1.0  0.52932  0.67538  0.60001  1.0000
  H   H6251     1.0  0.63394  0.53978  0.48784  1.0000
  C   C3663     1.0  0.74699  0.95733  0.53633  1.0000
  H   H6252     1.0  0.53293  0.65470  0.62141  1.0000
  H   H6253     1.0  0.53176  0.66721  0.59131  1.0000
  C   C3664     1.0  0.61062  0.70259  0.54106  1.0000
  C   C3665     1.0  0.62695  0.69545  0.54463  1.0000
  C   C3666     1.0  0.63632  0.67993  0.54043  1.0000
  C   C3667     1.0  0.62949  0.67168  0.53234  1.0000
  C   C3668     1.0  0.61329  0.67894  0.52859  1.0000
  C   C3669     1.0  0.60384  0.69425  0.53306  1.0000
  H   H6254     1.0  0.63234  0.70187  0.55074  1.0000
  H   H6255     1.0  0.64891  0.67450  0.54318  1.0000
  H   H6256     1.0  0.60800  0.67263  0.52226  1.0000
  H   H6257     1.0  0.59142  0.69968  0.53008  1.0000
  C   C3670     1.0  0.63736  0.60654  0.61004  1.0000
  C   C3671     1.0  0.64078  0.62180  0.61036  1.0000
  C   C3672     1.0  0.63075  0.63085  0.62269  1.0000
  C   C3673     1.0  0.61688  0.62498  0.63429  1.0000
  C   C3674     1.0  0.61316  0.60997  0.63365  1.0000
  C   C3675     1.0  0.62359  0.60062  0.62172  1.0000
  H   H6258     1.0  0.65130  0.62648  0.60131  1.0000
  H   H6259     1.0  0.63354  0.64252  0.62314  1.0000
  H   H6260     1.0  0.60243  0.60543  0.64254  1.0000
  H   H6261     1.0  0.62087  0.58883  0.62149  1.0000
  C   C3676     1.0  0.50074  0.51504  0.59950  1.0000
  C   C3677     1.0  0.51820  0.70691  0.48528  1.0000
  H   H6262     1.0  0.50395  0.55429  0.72365  1.0000
  C   C3678     1.0  0.51007  0.83151  0.58152  1.0000
  C   C3679     1.0  0.52781  0.71675  0.50495  1.0000
  C   C3680     1.0  0.52185  0.70442  0.50116  1.0000
  C   C3681     1.0  0.61528  0.80262  0.55118  1.0000
  H   H6263     1.0  0.53117  0.71454  0.51700  1.0000
  H   H6264     1.0  0.52061  0.69273  0.51031  1.0000
  C   C3682     1.0  0.65963  0.55430  0.51875  1.0000
  C   C3683     1.0  0.65534  0.57165  0.51852  1.0000
  C   C3684     1.0  0.66720  0.57954  0.52066  1.0000
  C   C3685     1.0  0.68345  0.57015  0.52281  1.0000
  C   C3686     1.0  0.68776  0.55285  0.52293  1.0000
  C   C3687     1.0  0.67588  0.54490  0.52094  1.0000
  H   H6265     1.0  0.64278  0.57898  0.51683  1.0000
  H   H6266     1.0  0.66388  0.59296  0.52029  1.0000
  H   H6267     1.0  0.70022  0.54557  0.52487  1.0000
  H   H6268     1.0  0.67937  0.53156  0.52089  1.0000
  H   H6269     1.0  0.58245  0.77077  0.56437  1.0000
  C   C3688     1.0  0.53004  0.73157  0.49287  1.0000
  H   H6270     1.0  0.51829  0.51702  0.70360  1.0000
  H   H6271     1.0  0.73157  0.52853  0.52870  1.0000
  N   N254      1.0  0.60441  0.77852  0.54636  1.0000
  S   S1086     1.0  0.53207  0.96870  0.69016  1.0000
  H   H6272     1.0  0.58832  0.90249  0.60552  1.0000
  C   C3689     1.0  0.62131  0.76085  0.52373  1.0000
  H   H6273     1.0  0.69198  0.88259  0.48691  1.0000
  H   H6274     1.0  0.54679  0.51159  0.65330  1.0000
  H   H6275     1.0  0.53108  0.95613  0.72552  1.0000
  C   C3690     1.0  0.56881  0.48995  0.67403  1.0000
  C   C3691     1.0  0.73672  0.98028  0.51441  1.0000
  H   H6276     1.0  0.53033  0.82507  0.59539  1.0000
  H   H6277     1.0  0.66821  0.88036  0.51303  1.0000
  H   H6278     1.0  0.59040  0.75927  0.54839  1.0000
  H   H6279     1.0  0.72973  0.94072  0.54977  1.0000
  H   H6280     1.0  0.72642  0.60182  0.56564  1.0000
  H   H6281     1.0  0.68077  0.91336  0.50261  1.0000
  S   S1087     1.0  0.67475  0.95960  0.50264  1.0000
  H   H6282     1.0  0.61141  0.75323  0.52827  1.0000
  C   C3692     1.0  0.67077  0.90711  0.50221  1.0000
  H   H6283     1.0  0.62425  0.63318  0.57736  1.0000
  H   H6284     1.0  0.50457  0.52483  0.64922  1.0000
  C   C3693     1.0  0.70229  0.63137  0.60607  1.0000
  C   C3694     1.0  0.57457  0.53568  0.63225  1.0000
  H   H6285     1.0  0.53189  0.80746  0.50878  1.0000
  H   H6286     1.0  0.67916  0.65187  0.60443  1.0000
  H   H6287     1.0  0.62029  0.94395  0.59992  1.0000
  H   H6288     1.0  0.56887  0.68262  0.49051  1.0000
  N   N255      1.0  0.50183  0.57680  0.73272  1.0000
  H   H6289     1.0  0.54368  0.57791  0.70924  1.0000
  H   H6290     1.0  0.51861  0.90155  0.59527  1.0000
  H   H6291     1.0  0.55638  0.50821  0.68912  1.0000
  H   H6292     1.0  0.50324  0.50671  0.63089  1.0000
  H   H6293     1.0  0.69222  0.59870  0.48769  1.0000
  H   H6294     1.0  0.51162  0.63988  0.64492  1.0000
  H   H6295     1.0  0.51592  0.93828  0.54534  1.0000
  H   H6296     1.0  0.63979  0.89857  0.50735  1.0000
  C   C3695     1.0  0.62342  0.53336  0.48935  1.0000
  H   H6297     1.0  0.63359  0.75137  0.52204  1.0000
  H   H6298     1.0  0.60178  0.70266  0.49646  1.0000
  C   C3696     1.0  0.51674  0.83206  0.59671  1.0000
  H   H6299     1.0  0.53585  0.51794  0.67236  1.0000
  C   C3697     1.0  0.52214  0.70353  0.60553  1.0000
  H   H6300     1.0  0.73313  0.61541  0.51196  1.0000
  H   H6301     1.0  0.59758  0.96826  0.57643  1.0000
  H   H6302     1.0  0.65865  0.91584  0.50674  1.0000
  H   H6303     1.0  0.50638  0.54701  0.60351  1.0000
  C   C3698     1.0  0.52597  0.67884  0.62844  1.0000
  H   H6304     1.0  0.57699  0.79770  0.51776  1.0000
  C   C3699     1.0  0.50606  0.88678  0.53598  1.0000
  C   C3700     1.0  0.72323  0.51584  0.51432  1.0000
  H   H6305     1.0  0.51891  0.70462  0.63148  1.0000
  H   H6306     1.0  0.50528  0.65106  0.60997  1.0000
  H   H6307     1.0  0.57831  0.50826  0.68044  1.0000
  H   H6308     1.0  0.55989  0.91432  0.51060  1.0000
  C   C3701     1.0  0.59483  0.95644  0.55062  1.0000
  C   C3702     1.0  0.62146  0.77126  0.53614  1.0000
  H   H6309     1.0  0.69723  0.65493  0.58768  1.0000
  C   C3703     1.0  0.53951  0.97539  0.70447  1.0000
  C   C3704     1.0  0.56057  0.53838  0.66899  1.0000
  H   H6310     1.0  0.62799  0.80007  0.54265  1.0000
  H   H6311     1.0  0.63827  0.93086  0.58917  1.0000
  C   C3705     1.0  0.50247  0.62529  0.61927  1.0000
  H   H6312     1.0  0.54920  0.89951  0.50857  1.0000
  N   N256      1.0  0.59675  0.94162  0.58139  1.0000
  N   N257      1.0  0.59695  0.66924  0.59110  1.0000
  C   C3706     1.0  0.61328  0.65754  0.58438  1.0000
  C   C3707     1.0  0.60142  0.68579  0.58996  1.0000
  C   C3708     1.0  0.58450  0.67180  0.58002  1.0000
  C   C3709     1.0  0.59006  0.66093  0.60900  1.0000
  C   C3710     1.0  0.61141  0.64036  0.58263  1.0000
  C   C3711     1.0  0.61402  0.68501  0.60075  1.0000
  C   C3712     1.0  0.57023  0.68800  0.57952  1.0000
  C   C3713     1.0  0.57462  0.67145  0.61930  1.0000
  H   H6313     1.0  0.61969  0.66381  0.57171  1.0000
  H   H6314     1.0  0.62264  0.65442  0.59256  1.0000
  H   H6315     1.0  0.58997  0.69560  0.59351  1.0000
  H   H6316     1.0  0.60697  0.69123  0.57666  1.0000
  H   H6317     1.0  0.59140  0.67223  0.56661  1.0000
  H   H6318     1.0  0.57810  0.66091  0.58369  1.0000
  H   H6319     1.0  0.58595  0.64930  0.60938  1.0000
  H   H6320     1.0  0.60024  0.65607  0.61640  1.0000
  H   H6321     1.0  0.60669  0.63241  0.59500  1.0000
  H   H6322     1.0  0.60315  0.64184  0.57377  1.0000
  H   H6323     1.0  0.61535  0.69807  0.59966  1.0000
  H   H6324     1.0  0.60933  0.67983  0.61432  1.0000
  H   H6325     1.0  0.62702  0.67772  0.59623  1.0000
  H   H6326     1.0  0.57549  0.69937  0.57259  1.0000
  H   H6327     1.0  0.56278  0.68978  0.59216  1.0000
  H   H6328     1.0  0.56112  0.68721  0.57242  1.0000
  S   S1088     1.0  0.59660  0.97961  0.61990  1.0000
  H   H6329     1.0  0.57468  0.68501  0.61669  1.0000
  H   H6330     1.0  0.56218  0.87442  0.49066  1.0000
  C   C3714     1.0  0.53461  0.53798  0.65028  1.0000
  H   H6331     1.0  0.56247  0.67000  0.61744  1.0000
  S   S1089     1.0  0.52909  0.51807  0.73260  1.0000
  H   H6332     1.0  0.52156  0.54181  0.65790  1.0000
  C   C3715     1.0  0.54633  0.54199  0.68453  1.0000
  H   H6333     1.0  0.53301  0.53552  0.63857  1.0000
  H   H6334     1.0  0.52145  0.49348  0.68972  1.0000
  S   S1090     1.0  0.55913  0.50570  0.61812  1.0000
  C   C3716     1.0  0.60774  0.78660  0.55877  1.0000
  C   C3717     1.0  0.67268  0.89041  0.51564  1.0000
  H   H6335     1.0  0.59007  0.77683  0.51933  1.0000
  S   S1091     1.0  0.54147  0.61511  0.71977  1.0000
  H   H6336     1.0  0.59561  0.74105  0.57456  1.0000
  H   H6337     1.0  0.51583  0.57650  0.70697  1.0000
  H   H6338     1.0  0.63174  0.89666  0.49056  1.0000
  H   H6339     1.0  0.59529  0.54092  0.49824  1.0000
  H   H6340     1.0  0.59571  0.79028  0.56803  1.0000
  H   H6341     1.0  0.61678  0.77755  0.56637  1.0000
  H   H6342     1.0  0.55883  0.54985  0.65895  1.0000
  H   H6343     1.0  0.53483  0.78593  0.49606  1.0000
  C   C3718     1.0  0.73170  0.95177  0.53988  1.0000
  C   C3719     1.0  0.62003  0.98171  0.58999  1.0000
  C   C3720     1.0  0.55744  0.90861  0.50129  1.0000
  S   S1092     1.0  0.66756  0.50168  0.54270  1.0000
  C   C3721     1.0  0.52213  0.69644  0.62264  1.0000
  C   C3722     1.0  0.74719  0.61035  0.50885  1.0000
  Fe  Fe544     1.0  0.65373  0.98084  0.49447  1.0000
  C   C3723     1.0  0.56891  0.62338  0.72568  1.0000
  H   H6344     1.0  0.51666  0.84516  0.59701  1.0000
  H   H6345     1.0  0.57513  0.54786  0.63453  1.0000
  C   C3724     1.0  0.55117  0.98541  0.72794  1.0000
  C   C3725     1.0  0.60515  0.50368  0.58540  1.0000
  C   C3726     1.0  0.59457  0.76506  0.55648  1.0000
  C   C3727     1.0  0.51815  0.81377  0.51045  1.0000
  H   H6346     1.0  0.60809  0.90566  0.59141  1.0000
  H   H6347     1.0  0.50683  0.78565  0.51092  1.0000
  C   C3728     1.0  0.50718  0.93084  0.57236  1.0000
  H   H6348     1.0  0.70503  0.59297  0.63377  1.0000
  H   H6349     1.0  0.70975  0.61159  0.63503  1.0000
  H   H6350     1.0  0.66466  0.89274  0.52803  1.0000
  H   H6351     1.0  0.65817  0.61159  0.64628  1.0000
  H   H6352     1.0  0.58582  0.53259  0.62204  1.0000
  H   H6353     1.0  0.58693  0.96879  0.55320  1.0000
  H   H6354     1.0  0.62777  0.96760  0.48805  1.0000
  H   H6355     1.0  0.71446  0.62851  0.59671  1.0000
  H   H6356     1.0  0.72780  0.50531  0.50759  1.0000
  H   H6357     1.0  0.63051  0.76346  0.54435  1.0000
  H   H6358     1.0  0.60792  0.54613  0.50924  1.0000
  C   C3729     1.0  0.73749  0.51871  0.52104  1.0000
  C   C3730     1.0  0.50382  0.94062  0.55488  1.0000
  H   H6359     1.0  0.50118  0.76500  0.50256  1.0000
  C   C3731     1.0  0.61605  0.93697  0.57808  1.0000
  H   H6360     1.0  0.72855  0.55235  0.51004  1.0000
  C   C3732     1.0  0.56630  0.50776  0.67729  1.0000
  C   C3733     1.0  0.52002  0.51400  0.59183  1.0000
  H   H6361     1.0  0.61591  0.74322  0.56123  1.0000
  H   H6362     1.0  0.57300  0.53799  0.67188  1.0000
  C   C3734     1.0  0.60403  0.75022  0.56829  1.0000
  H   H6363     1.0  0.68543  0.64017  0.58772  1.0000
  H   H6364     1.0  0.70714  0.58029  0.60231  1.0000
  S   S1093     1.0  0.52267  0.70158  0.57348  1.0000
  C   C3735     1.0  0.59406  0.91063  0.59372  1.0000
  H   H6365     1.0  0.58198  0.71528  0.49171  1.0000
  C   C3736     1.0  0.50879  0.58569  0.64491  1.0000
  H   H6366     1.0  0.60646  0.81321  0.54461  1.0000
  H   H6367     1.0  0.57486  0.66682  0.63293  1.0000
  C   C3737     1.0  0.53716  0.96684  0.72145  1.0000
  C   C3738     1.0  0.59129  0.94170  0.56571  1.0000
  H   H6368     1.0  0.52791  0.50632  0.60111  1.0000
  H   H6369     1.0  0.51627  0.94013  0.66433  1.0000
  C   C3739     1.0  0.50560  0.90409  0.60338  1.0000
  H   H6370     1.0  0.56521  0.96252  0.60237  1.0000
  H   H6371     1.0  0.57188  0.78196  0.53607  1.0000
  H   H6372     1.0  0.50688  0.89722  0.61640  1.0000
  N   N258      1.0  0.67217  0.90547  0.48451  1.0000
  N   N259      1.0  0.51275  0.80286  0.48691  1.0000
  S   S1094     1.0  0.70541  0.98621  0.50680  1.0000
  H   H6373     1.0  0.70436  0.60845  0.59118  1.0000
  H   H6374     1.0  0.49979  0.95448  0.55384  1.0000
  H   H6375     1.0  0.50338  0.65186  0.49685  1.0000
  H   H6376     1.0  0.59444  0.95821  0.59777  1.0000
  H   H6377     1.0  0.52318  0.52666  0.58700  1.0000
  H   H6378     1.0  0.68042  0.62770  0.63565  1.0000
  H   H6379     1.0  0.72827  0.55939  0.48835  1.0000
  S   S1095     1.0  0.55552  0.58507  0.65153  1.0000
  H   H6380     1.0  0.57637  0.50954  0.64337  1.0000
  C   C3740     1.0  0.51298  0.58100  0.62930  1.0000
  H   H6381     1.0  0.73379  0.61012  0.61048  1.0000
  H   H6382     1.0  0.50602  0.95360  0.67875  1.0000
  H   H6383     1.0  0.59050  0.62904  0.73090  1.0000
  H   H6384     1.0  0.66175  0.62922  0.48601  1.0000
  H   H6385     1.0  0.56905  0.98022  0.58508  1.0000
  H   H6386     1.0  0.50964  0.82613  0.60899  1.0000
  H   H6387     1.0  0.73506  0.58982  0.62427  1.0000
  N   N260      1.0  0.63856  0.54436  0.57705  1.0000
  C   C3741     1.0  0.62951  0.55663  0.56379  1.0000
  C   C3742     1.0  0.64835  0.55410  0.58222  1.0000
  C   C3743     1.0  0.62500  0.53863  0.59194  1.0000
  C   C3744     1.0  0.64992  0.52961  0.56966  1.0000
  C   C3745     1.0  0.61739  0.54990  0.55749  1.0000
  C   C3746     1.0  0.66245  0.56124  0.56812  1.0000
  C   C3747     1.0  0.63126  0.52577  0.60707  1.0000
  C   C3748     1.0  0.66495  0.51891  0.57815  1.0000
  H   H6388     1.0  0.62189  0.56829  0.56836  1.0000
  H   H6389     1.0  0.63892  0.56097  0.55230  1.0000
  H   H6390     1.0  0.65450  0.54657  0.59280  1.0000
  H   H6391     1.0  0.63943  0.56503  0.58729  1.0000
  H   H6392     1.0  0.61618  0.54975  0.59671  1.0000
  H   H6393     1.0  0.61693  0.53230  0.58821  1.0000
  H   H6394     1.0  0.64214  0.52077  0.56960  1.0000
  H   H6395     1.0  0.65577  0.53415  0.55615  1.0000
  H   H6396     1.0  0.61368  0.55914  0.54617  1.0000
  H   H6397     1.0  0.62361  0.53773  0.55357  1.0000
  H   H6398     1.0  0.60535  0.54868  0.56701  1.0000
  H   H6399     1.0  0.65689  0.57207  0.55891  1.0000
  H   H6400     1.0  0.67019  0.56619  0.57376  1.0000
  H   H6401     1.0  0.67132  0.55157  0.56136  1.0000
  H   H6402     1.0  0.63931  0.53046  0.61251  1.0000
  H   H6403     1.0  0.63796  0.51337  0.60377  1.0000
  H   H6404     1.0  0.61993  0.52333  0.61724  1.0000
  H   H6405     1.0  0.66534  0.50525  0.57976  1.0000
  H   H6406     1.0  0.66438  0.52077  0.59074  1.0000
  H   H6407     1.0  0.67739  0.52104  0.56977  1.0000
  H   H6408     1.0  0.57746  0.94156  0.56834  1.0000
  H   H6409     1.0  0.51448  0.59520  0.71322  1.0000
  H   H6410     1.0  0.58894  0.90917  0.58346  1.0000
  H   H6411     1.0  0.66342  0.60099  0.48961  1.0000
  C   C3749     1.0  0.55286  0.61931  0.73247  1.0000
  H   H6412     1.0  0.59185  0.92935  0.60793  1.0000
  H   H6413     1.0  0.68493  0.58466  0.60328  1.0000
  H   H6414     1.0  0.50150  0.97923  0.71835  1.0000
  H   H6415     1.0  0.57943  0.51868  0.58606  1.0000
  H   H6416     1.0  0.57473  0.93271  0.59810  1.0000
  H   H6417     1.0  0.63613  0.91641  0.48999  1.0000
  H   H6418     1.0  0.62116  0.92161  0.60275  1.0000
  H   H6419     1.0  0.51684  0.82583  0.51415  1.0000
  H   H6420     1.0  0.62118  0.92574  0.57225  1.0000
  H   H6421     1.0  0.66948  0.62896  0.61980  1.0000
  C   C3750     1.0  0.58894  0.92910  0.59589  1.0000
  H   H6422     1.0  0.57433  0.62449  0.71232  1.0000
  C   C3751     1.0  0.73694  0.55358  0.49732  1.0000
  S   S1096     1.0  0.52371  0.67047  0.65023  1.0000
  H   H6423     1.0  0.71743  0.52741  0.50598  1.0000
  H   H6424     1.0  0.56322  0.53713  0.62712  1.0000
  C   C3752     1.0  0.54471  0.52176  0.66019  1.0000
  Fe  Fe545     1.0  0.56809  0.98431  0.63036  1.0000
  C   C3753     1.0  0.69011  0.64522  0.59602  1.0000
  H   H6425     1.0  0.51894  0.93376  0.57366  1.0000
  H   H6426     1.0  0.67800  0.59668  0.64662  1.0000
  C   C3754     1.0  0.52998  0.57871  0.62032  1.0000
  H   H6427     1.0  0.60211  0.79979  0.52499  1.0000
  C   C3755     1.0  0.69405  0.60679  0.60271  1.0000
  C   C3756     1.0  0.62412  0.93319  0.59352  1.0000
  H   H6428     1.0  0.60855  0.95696  0.54696  1.0000
  H   H6429     1.0  0.50332  0.55227  0.57647  1.0000
  H   H6430     1.0  0.56475  0.96237  0.58125  1.0000
  H   H6431     1.0  0.50503  0.86666  0.57680  1.0000
  H   H6432     1.0  0.74124  0.50697  0.53043  1.0000
  H   H6433     1.0  0.50769  0.96179  0.65623  1.0000
  S   S1097     1.0  0.65873  0.49824  0.50810  1.0000
  H   H6434     1.0  0.66275  0.88268  0.48824  1.0000
  H   H6435     1.0  0.50738  0.62191  0.63092  1.0000
  C   C3757     1.0  0.71884  0.96055  0.53087  1.0000
  C   C3758     1.0  0.58775  0.50846  0.59290  1.0000
  C   C3759     1.0  0.59084  0.95875  0.58586  1.0000
  H   H6436     1.0  0.50553  0.82204  0.55488  1.0000
  H   H6437     1.0  0.51374  0.81811  0.58015  1.0000
  C   C3760     1.0  0.70890  0.60470  0.62581  1.0000
  C   C3761     1.0  0.57136  0.96619  0.58884  1.0000
  H   H6438     1.0  0.62546  0.52171  0.49943  1.0000
  C   C3762     1.0  0.58275  0.78656  0.52664  1.0000
  C   C3763     1.0  0.52166  0.58802  0.65146  1.0000
  H   H6439     1.0  0.50671  0.63366  0.48785  1.0000
  C   C3764     1.0  0.73295  0.62566  0.56267  1.0000
  H   H6440     1.0  0.72757  0.59342  0.60543  1.0000
  H   H6441     1.0  0.62163  0.94728  0.56868  1.0000
  H   H6442     1.0  0.54050  0.54901  0.64643  1.0000
  C   C3765     1.0  0.72727  0.59933  0.61573  1.0000
  H   H6443     1.0  0.60629  0.55844  0.48877  1.0000
  Fe  Fe546     1.0  0.54001  0.97948  0.66226  1.0000
  C   C3766     1.0  0.67017  0.60603  0.63808  1.0000
  H   H6444     1.0  0.54905  0.53300  0.69631  1.0000
  H   H6445     1.0  0.66617  0.59969  0.63033  1.0000
  H   H6446     1.0  0.69192  0.58236  0.62195  1.0000
  H   H6447     1.0  0.58828  0.51939  0.65097  1.0000
  C   C3767     1.0  0.60711  0.54538  0.49654  1.0000
  H   H6448     1.0  0.70533  0.63733  0.61489  1.0000
  H   H6449     1.0  0.59791  0.92986  0.56111  1.0000
  H   H6450     1.0  0.70701  0.95627  0.53381  1.0000
  H   H6451     1.0  0.51805  0.83837  0.57028  1.0000
  C   C3768     1.0  0.72132  0.97484  0.51816  1.0000
  N   N261      1.0  0.69600  0.61538  0.61543  1.0000
  C   C3769     1.0  0.67903  0.62041  0.62706  1.0000
  S   S1098     1.0  0.51219  0.89768  0.54760  1.0000
  H   H6452     1.0  0.71281  0.51234  0.52516  1.0000
  H   H6453     1.0  0.68187  0.61300  0.59838  1.0000
  C   C3770     1.0  0.52440  0.50428  0.70893  1.0000
  H   H6454     1.0  0.51353  0.62171  0.60908  1.0000
  H   H6455     1.0  0.53353  0.54199  0.68299  1.0000
  Fe  Fe547     1.0  0.53412  0.97925  0.62837  1.0000
  C   C3771     1.0  0.51280  0.86628  0.51846  1.0000
  N   N262      1.0  0.56147  0.52258  0.66331  1.0000
  C   C3772     1.0  0.69466  0.58752  0.60823  1.0000
  H   H6456     1.0  0.61061  0.50884  0.48757  1.0000
  C   C3773     1.0  0.53062  0.50112  0.72360  1.0000
  C   C3774     1.0  0.73553  0.60803  0.56711  1.0000
  H   H6457     1.0  0.52387  0.50752  0.58111  1.0000
  H   H6458     1.0  0.58399  0.90756  0.48953  1.0000
  H   H6459     1.0  0.63845  0.98280  0.56643  1.0000
  C   C3775     1.0  0.50250  0.52049  0.62568  1.0000
  H   H6460     1.0  0.54740  0.89334  0.48416  1.0000
  C   C3776     1.0  0.74801  0.53659  0.49318  1.0000
  C   C3777     1.0  0.54297  0.97181  0.73313  1.0000
  H   H6461     1.0  0.50918  0.92784  0.60530  1.0000
  H   H6462     1.0  0.55031  0.91884  0.49274  1.0000
  H   H6463     1.0  0.74174  0.53205  0.48567  1.0000
  C   C3778     1.0  0.57466  0.89953  0.49176  1.0000
  H   H6464     1.0  0.50175  0.95593  0.58710  1.0000
  H   H6465     1.0  0.74513  0.56247  0.49613  1.0000
  C   C3779     1.0  0.51609  0.58127  0.71796  1.0000
  H   H6466     1.0  0.74321  0.64713  0.56094  1.0000
  H   H6467     1.0  0.53746  0.56027  0.72496  1.0000
  C   C3780     1.0  0.64068  0.90254  0.49354  1.0000
  C   C3781     1.0  0.50158  0.79156  0.49933  1.0000
  C   C3782     1.0  0.51133  0.81782  0.49419  1.0000
  C   C3783     1.0  0.53440  0.57427  0.72113  1.0000
  C   C3784     1.0  0.59038  0.70247  0.49213  1.0000
  H   H6468     1.0  0.50382  0.70272  0.54024  1.0000
  C   C3785     1.0  0.74513  0.63348  0.56433  1.0000
  H   H6469     1.0  0.53657  0.57988  0.73062  1.0000
  H   H6470     1.0  0.51063  0.91731  0.57159  1.0000
  H   H6471     1.0  0.49910  0.50190  0.60585  1.0000
  C   C3786     1.0  0.53091  0.79271  0.48392  1.0000
  C   C3787     1.0  0.62572  0.98801  0.57271  1.0000
  C   C3788     1.0  0.49912  0.77696  0.49296  1.0000
  C   C3789     1.0  0.57806  0.62593  0.73623  1.0000
  S   S1099     1.0  0.73650  0.93997  0.92940  1.0000
  N   N263      1.0  0.58338  0.56172  0.77127  1.0000
  Fe  Fe548     1.0  0.55139  0.95255  0.80198  1.0000
  S   S1100     1.0  0.56090  0.92468  0.81197  1.0000
  H   H6472     1.0  0.61874  0.51888  0.84798  1.0000
  H   H6473     1.0  0.53992  0.62595  0.93033  1.0000
  H   H6474     1.0  0.60681  0.92247  0.97705  1.0000
  H   H6475     1.0  0.51265  0.59904  0.75560  1.0000
  H   H6476     1.0  0.52808  0.88336  0.82987  1.0000
  S   S1101     1.0  0.56893  0.97057  0.78885  1.0000
  S   S1102     1.0  0.53625  0.96091  0.78175  1.0000
  Fe  Fe549     1.0  0.66078  0.95517  0.88520  1.0000
  S   S1103     1.0  0.64301  0.96064  0.90937  1.0000
  S   S1104     1.0  0.68879  0.94216  0.88164  1.0000
  Fe  Fe550     1.0  0.63269  0.96941  0.86499  1.0000
  H   H6477     1.0  0.58625  0.53631  0.88428  1.0000
  H   H6478     1.0  0.56259  0.54842  0.77800  1.0000
  C   C3790     1.0  0.62373  0.72244  0.88350  1.0000
  H   H6479     1.0  0.50934  0.80622  0.90304  1.0000
  Fe  Fe551     1.0  0.62420  0.95108  0.90166  1.0000
  S   S1105     1.0  0.60529  0.93665  0.92039  1.0000
  H   H6480     1.0  0.52176  0.93244  0.81745  1.0000
  S   S1106     1.0  0.64280  0.94330  0.87890  1.0000
  Fe  Fe552     1.0  0.56081  0.83322  0.90835  1.0000
  S   S1107     1.0  0.56797  0.80640  0.90436  1.0000
  Fe  Fe553     1.0  0.57664  0.86172  0.90918  1.0000
  S   S1108     1.0  0.55126  0.87760  0.91896  1.0000
  S   S1109     1.0  0.60209  0.86924  0.90291  1.0000
  Fe  Fe554     1.0  0.54545  0.85324  0.93597  1.0000
  Fe  Fe555     1.0  0.54234  0.87001  0.89984  1.0000
  S   S1110     1.0  0.57169  0.83794  0.92779  1.0000
  S   S1111     1.0  0.56813  0.85568  0.88880  1.0000
  S   S1112     1.0  0.51002  0.51625  0.77847  1.0000
  C   C3791     1.0  0.65958  0.61719  0.97982  1.0000
  Fe  Fe556     1.0  0.52357  0.53116  0.78664  1.0000
  S   S1113     1.0  0.51230  0.55793  0.78939  1.0000
  S   S1114     1.0  0.54665  0.52820  0.76588  1.0000
  Fe  Fe557     1.0  0.55654  0.60214  0.82584  1.0000
  S   S1115     1.0  0.58362  0.60049  0.81152  1.0000
  S   S1116     1.0  0.54720  0.57796  0.83668  1.0000
  Fe  Fe558     1.0  0.55070  0.63968  0.82402  1.0000
  S   S1117     1.0  0.57734  0.64135  0.80919  1.0000
  S   S1118     1.0  0.52990  0.66048  0.83364  1.0000
  Fe  Fe559     1.0  0.57315  0.62455  0.79456  1.0000
  S   S1119     1.0  0.58344  0.62708  0.76647  1.0000
  Fe  Fe560     1.0  0.58531  0.61720  0.82739  1.0000
  S   S1120     1.0  0.60721  0.60921  0.84074  1.0000
  S   S1121     1.0  0.54573  0.62505  0.80785  1.0000
  S   S1122     1.0  0.55904  0.61668  0.84326  1.0000
  Fe  Fe561     1.0  0.52019  0.70789  0.92659  1.0000
  S   S1123     1.0  0.53849  0.72356  0.90926  1.0000
  S   S1124     1.0  0.52436  0.69187  0.95178  1.0000
  Fe  Fe562     1.0  0.51487  0.74387  0.90590  1.0000
  H   H6481     1.0  0.51123  0.68290  0.85579  1.0000
  Fe  Fe563     1.0  0.53308  0.71419  0.88910  1.0000
  S   S1125     1.0  0.55399  0.70503  0.86834  1.0000
  S   S1126     1.0  0.51665  0.69680  0.90675  1.0000
  Fe  Fe564     1.0  0.62913  0.64688  0.89934  1.0000
  S   S1127     1.0  0.62408  0.62077  0.90995  1.0000
  S   S1128     1.0  0.62383  0.66047  0.87368  1.0000
  Fe  Fe565     1.0  0.63819  0.64811  0.93185  1.0000
  S   S1129     1.0  0.63274  0.62250  0.94460  1.0000
  S   S1130     1.0  0.64638  0.66122  0.94739  1.0000
  Fe  Fe566     1.0  0.64776  0.61549  0.92025  1.0000
  S   S1131     1.0  0.66955  0.59246  0.92008  1.0000
  Fe  Fe567     1.0  0.60993  0.63115  0.93286  1.0000
  S   S1132     1.0  0.58406  0.62680  0.94764  1.0000
  S   S1133     1.0  0.65394  0.64094  0.90764  1.0000
  S   S1134     1.0  0.61404  0.65745  0.92201  1.0000
  H   H6482     1.0  0.62315  0.71033  0.89274  1.0000
  C   C3792     1.0  0.68907  0.59697  0.92000  1.0000
  C   C3793     1.0  0.70457  0.58529  0.91653  1.0000
  C   C3794     1.0  0.72021  0.58924  0.91576  1.0000
  C   C3795     1.0  0.72036  0.60495  0.91833  1.0000
  C   C3796     1.0  0.70487  0.61651  0.92191  1.0000
  C   C3797     1.0  0.68931  0.61244  0.92296  1.0000
  H   H6483     1.0  0.70449  0.57322  0.91436  1.0000
  H   H6484     1.0  0.72245  0.57098  0.97141  1.0000
  H   H6485     1.0  0.70482  0.62864  0.92401  1.0000
  H   H6486     1.0  0.67750  0.62126  0.92628  1.0000
  C   C3798     1.0  0.65256  0.64651  0.96518  1.0000
  C   C3799     1.0  0.65793  0.62932  0.96492  1.0000
  H   H6487     1.0  0.66069  0.62530  0.95321  1.0000
  C   C3800     1.0  0.54137  0.67420  0.95053  1.0000
  C   C3801     1.0  0.54093  0.65973  0.96352  1.0000
  C   C3802     1.0  0.55408  0.64524  0.96250  1.0000
  C   C3803     1.0  0.56803  0.64533  0.94877  1.0000
  C   C3804     1.0  0.56880  0.66003  0.93608  1.0000
  C   C3805     1.0  0.55531  0.67436  0.93677  1.0000
  H   H6488     1.0  0.53016  0.65960  0.97417  1.0000
  H   H6489     1.0  0.55341  0.63394  0.97236  1.0000
  H   H6490     1.0  0.69384  0.61332  0.96350  1.0000
  H   H6491     1.0  0.61929  0.54432  0.86999  1.0000
  H   H6492     1.0  0.57947  0.57155  0.84838  1.0000
  C   C3806     1.0  0.58467  0.57932  0.77102  1.0000
  C   C3807     1.0  0.74423  0.58125  0.98219  1.0000
  C   C3808     1.0  0.55512  0.62046  0.76037  1.0000
  H   H6493     1.0  0.73211  0.58015  0.91315  1.0000
  H   H6494     1.0  0.53356  0.61482  0.75517  1.0000
  H   H6495     1.0  0.54975  0.61925  0.77371  1.0000
  C   C3809     1.0  0.53675  0.67322  0.84274  1.0000
  C   C3810     1.0  0.52466  0.68300  0.85344  1.0000
  C   C3811     1.0  0.52989  0.69287  0.86126  1.0000
  C   C3812     1.0  0.54721  0.69320  0.85817  1.0000
  C   C3813     1.0  0.55929  0.68361  0.84727  1.0000
  C   C3814     1.0  0.55409  0.67344  0.83974  1.0000
  H   H6496     1.0  0.65894  0.97121  0.97252  1.0000
  H   H6497     1.0  0.52047  0.70038  0.86951  1.0000
  H   H6498     1.0  0.57269  0.68387  0.84480  1.0000
  H   H6499     1.0  0.56349  0.66596  0.83147  1.0000
  C   C3815     1.0  0.61155  0.62399  0.84938  1.0000
  C   C3816     1.0  0.62344  0.61824  0.85976  1.0000
  C   C3817     1.0  0.62723  0.62951  0.86702  1.0000
  C   C3818     1.0  0.61936  0.64666  0.86385  1.0000
  C   C3819     1.0  0.60761  0.65253  0.85324  1.0000
  C   C3820     1.0  0.60354  0.64117  0.84616  1.0000
  H   H6500     1.0  0.62972  0.60500  0.86224  1.0000
  H   H6501     1.0  0.63650  0.62497  0.87487  1.0000
  H   H6502     1.0  0.60142  0.66577  0.85071  1.0000
  H   H6503     1.0  0.59437  0.64572  0.83810  1.0000
  H   H6504     1.0  0.58883  0.67796  0.94713  1.0000
  C   C3821     1.0  0.52166  0.56363  0.80270  1.0000
  C   C3822     1.0  0.52839  0.55138  0.81555  1.0000
  C   C3823     1.0  0.53592  0.55597  0.82610  1.0000
  C   C3824     1.0  0.53711  0.57277  0.82363  1.0000
  C   C3825     1.0  0.53042  0.58505  0.81075  1.0000
  C   C3826     1.0  0.52248  0.58052  0.80043  1.0000
  H   H6505     1.0  0.52751  0.53842  0.81762  1.0000
  H   H6506     1.0  0.54103  0.54643  0.83606  1.0000
  H   H6507     1.0  0.53113  0.59806  0.80884  1.0000
  H   H6508     1.0  0.51729  0.59006  0.79051  1.0000
  C   C3827     1.0  0.55168  0.79710  0.90377  1.0000
  C   C3828     1.0  0.55523  0.77963  0.90462  1.0000
  C   C3829     1.0  0.54222  0.77171  0.90509  1.0000
  C   C3830     1.0  0.52566  0.78128  0.90452  1.0000
  C   C3831     1.0  0.53512  0.80667  0.90311  1.0000
  H   H6509     1.0  0.56800  0.77219  0.90525  1.0000
  H   H6510     1.0  0.54490  0.75819  0.90623  1.0000
  C   C3832     1.0  0.60458  0.91778  0.91573  1.0000
  C   C3833     1.0  0.61879  0.90891  0.90597  1.0000
  C   C3834     1.0  0.61793  0.89390  0.90230  1.0000
  C   C3835     1.0  0.60284  0.88775  0.90828  1.0000
  C   C3836     1.0  0.58867  0.89654  0.91817  1.0000
  C   C3837     1.0  0.58956  0.91150  0.92194  1.0000
  H   H6511     1.0  0.63052  0.91347  0.90140  1.0000
  H   H6512     1.0  0.62897  0.88707  0.89474  1.0000
  H   H6513     1.0  0.57708  0.89180  0.92301  1.0000
  H   H6514     1.0  0.57851  0.91833  0.92947  1.0000
  C   C3838     1.0  0.58735  0.49839  0.80811  1.0000
  H   H6515     1.0  0.62329  0.52154  0.87357  1.0000
  H   H6516     1.0  0.53638  0.93866  0.83941  1.0000
  C   C3839     1.0  0.50772  0.80421  0.95562  1.0000
  H   H6517     1.0  0.58695  0.66804  0.89149  1.0000
  H   H6518     1.0  0.66364  0.50967  0.96644  1.0000
  C   C3840     1.0  0.50373  0.59888  0.74798  1.0000
  C   C3841     1.0  0.50012  0.78150  0.85894  1.0000
  C   C3842     1.0  0.51980  0.90911  0.80345  1.0000
  H   H6519     1.0  0.57622  0.58403  0.78229  1.0000
  H   H6520     1.0  0.60230  0.59113  0.77648  1.0000
  H   H6521     1.0  0.52851  0.63111  0.91353  1.0000
  S   S1135     1.0  0.62828  0.97262  0.83895  1.0000
  C   C3843     1.0  0.55154  0.91536  0.83261  1.0000
  C   C3844     1.0  0.55589  0.89776  0.83823  1.0000
  C   C3845     1.0  0.54814  0.88996  0.85443  1.0000
  C   C3846     1.0  0.53595  0.89976  0.86502  1.0000
  C   C3847     1.0  0.53965  0.92514  0.84341  1.0000
  H   H6522     1.0  0.56515  0.89011  0.83000  1.0000
  H   H6523     1.0  0.55135  0.87635  0.85859  1.0000
  H   H6524     1.0  0.53233  0.82016  0.90226  1.0000
  C   C3848     1.0  0.50341  0.63149  0.84002  1.0000
  H   H6525     1.0  0.59783  0.87873  0.95205  1.0000
  H   H6526     1.0  0.59225  0.64947  0.96457  1.0000
  C   C3849     1.0  0.53572  0.87886  0.96628  1.0000
  H   H6527     1.0  0.53680  0.88263  0.95281  1.0000
  C   C3850     1.0  0.72221  0.93924  0.91771  1.0000
  C   C3851     1.0  0.72682  0.92773  0.90720  1.0000
  C   C3852     1.0  0.71603  0.92832  0.89674  1.0000
  C   C3853     1.0  0.70057  0.94037  0.89673  1.0000
  C   C3854     1.0  0.69561  0.95151  0.90770  1.0000
  C   C3855     1.0  0.70642  0.95089  0.91822  1.0000
  C   C3856     1.0  0.58930  0.87445  0.96423  1.0000
  H   H6528     1.0  0.71977  0.91953  0.88845  1.0000
  H   H6529     1.0  0.68373  0.96087  0.90769  1.0000
  H   H6530     1.0  0.51162  0.63055  0.84874  1.0000
  C   C3857     1.0  0.56174  0.53751  0.86567  1.0000
  C   C3858     1.0  0.58439  0.55345  0.80280  1.0000
  H   H6531     1.0  0.72347  0.58618  0.95205  1.0000
  C   C3859     1.0  0.54598  0.61792  0.74983  1.0000
  C   C3860     1.0  0.58405  0.73552  0.86402  1.0000
  H   H6532     1.0  0.50230  0.78029  0.87163  1.0000
  H   H6533     1.0  0.58943  0.68692  0.96364  1.0000
  H   H6534     1.0  0.56418  0.67172  0.89809  1.0000
  H   H6535     1.0  0.65127  0.98367  0.92457  1.0000
  H   H6536     1.0  0.58714  0.53644  0.78703  1.0000
  C   C3861     1.0  0.53864  0.80422  0.94971  1.0000
  C   C3862     1.0  0.60288  0.58193  0.76898  1.0000
  H   H6537     1.0  0.50691  0.64076  0.82819  1.0000
  Fe  Fe568     1.0  0.54972  0.98813  0.80421  1.0000
  H   H6538     1.0  0.73427  0.60809  0.97819  1.0000
  N   N264      1.0  0.59617  0.72270  0.87421  1.0000
  H   H6539     1.0  0.61311  0.92839  0.95490  1.0000
  H   H6540     1.0  0.51406  0.76166  0.96797  1.0000
  H   H6541     1.0  0.53072  0.91226  0.77657  1.0000
  H   H6542     1.0  0.53624  0.81548  0.95511  1.0000
  H   H6543     1.0  0.53814  0.80942  0.93617  1.0000
  H   H6544     1.0  0.59667  0.86391  0.97232  1.0000
  H   H6545     1.0  0.71357  0.98479  0.87304  1.0000
  C   C3863     1.0  0.57121  0.62450  0.75359  1.0000
  C   C3864     1.0  0.71592  0.98295  0.86001  1.0000
  H   H6546     1.0  0.66491  0.50184  0.93905  1.0000
  H   H6547     1.0  0.72874  0.95928  0.88436  1.0000
  C   C3865     1.0  0.59412  0.57185  0.86570  1.0000
  S   S1136     1.0  0.61276  0.97640  0.88723  1.0000
  Fe  Fe569     1.0  0.55679  0.50515  0.78419  1.0000
  C   C3866     1.0  0.51603  0.76814  0.95448  1.0000
  C   C3867     1.0  0.74226  0.95999  0.87841  1.0000
  C   C3868     1.0  0.57944  0.88911  0.97320  1.0000
  H   H6548     1.0  0.58390  0.52655  0.84944  1.0000
  H   H6549     1.0  0.59909  0.70232  0.91037  1.0000
  H   H6550     1.0  0.73880  0.91849  0.90698  1.0000
  C   C3869     1.0  0.58611  0.67613  0.96107  1.0000
  H   H6551     1.0  0.57930  0.61264  0.87865  1.0000
  C   C3870     1.0  0.57413  0.50358  0.82121  1.0000
  H   H6552     1.0  0.73956  0.98655  0.87984  1.0000
  C   C3871     1.0  0.61584  0.52924  0.83712  1.0000
  H   H6553     1.0  0.51924  0.89610  0.80342  1.0000
  H   H6554     1.0  0.60221  0.55517  0.83099  1.0000
  H   H6555     1.0  0.50816  0.60616  0.73521  1.0000
  S   S1137     1.0  0.53312  0.96963  0.81826  1.0000
  H   H6556     1.0  0.55341  0.65779  0.87612  1.0000
  H   H6557     1.0  0.60677  0.97936  0.95580  1.0000
  H   H6558     1.0  0.62496  0.90929  0.96617  1.0000
  C   C3872     1.0  0.59951  0.70092  0.85639  1.0000
  N   N265      1.0  0.74542  0.96217  0.85957  1.0000
  H   H6559     1.0  0.70279  0.95978  0.92638  1.0000
  H   H6560     1.0  0.58217  0.59628  0.89686  1.0000
  Fe  Fe570     1.0  0.63309  0.98540  0.89300  1.0000
  C   C3873     1.0  0.60781  0.98091  0.83427  1.0000
  C   C3874     1.0  0.63173  0.98097  0.97102  1.0000
  C   C3875     1.0  0.74651  0.97363  0.88468  1.0000
  C   C3876     1.0  0.70321  0.62931  0.97248  1.0000
  H   H6561     1.0  0.50331  0.76878  0.85602  1.0000
  C   C3877     1.0  0.53176  0.91736  0.85950  1.0000
  H   H6562     1.0  0.59132  0.74173  0.85177  1.0000
  C   C3878     1.0  0.59363  0.49337  0.84063  1.0000
  S   S1138     1.0  0.52506  0.89025  0.88473  1.0000
  H   H6563     1.0  0.55516  0.61412  0.90512  1.0000
  H   H6564     1.0  0.54144  0.96486  0.74605  1.0000
  C   C3879     1.0  0.53573  0.89058  0.97532  1.0000
  N   N266      1.0  0.59311  0.92477  0.85825  1.0000
  C   C3880     1.0  0.59637  0.90569  0.86192  1.0000
  C   C3881     1.0  0.60948  0.92974  0.84758  1.0000
  C   C3882     1.0  0.57899  0.93165  0.84848  1.0000
  C   C3883     1.0  0.58770  0.93017  0.87491  1.0000
  C   C3884     1.0  0.58079  0.89790  0.87172  1.0000
  C   C3885     1.0  0.62506  0.92332  0.85596  1.0000
  C   C3886     1.0  0.57788  0.94976  0.83767  1.0000
  C   C3887     1.0  0.58690  0.94876  0.87464  1.0000
  H   H6565     1.0  0.60141  0.90098  0.84999  1.0000
  H   H6566     1.0  0.60633  0.89981  0.86957  1.0000
  H   H6567     1.0  0.60799  0.94365  0.84337  1.0000
  H   H6568     1.0  0.61312  0.92513  0.83562  1.0000
  H   H6569     1.0  0.58026  0.92356  0.83952  1.0000
  H   H6570     1.0  0.56622  0.93134  0.85709  1.0000
  H   H6571     1.0  0.57473  0.92790  0.88154  1.0000
  H   H6572     1.0  0.59583  0.92207  0.88382  1.0000
  H   H6573     1.0  0.56994  0.90264  0.86529  1.0000
  H   H6574     1.0  0.58466  0.88403  0.87260  1.0000
  H   H6575     1.0  0.57651  0.89986  0.88482  1.0000
  H   H6576     1.0  0.62208  0.92635  0.86855  1.0000
  H   H6577     1.0  0.63013  0.90951  0.85701  1.0000
  H   H6578     1.0  0.63553  0.92968  0.84800  1.0000
  H   H6579     1.0  0.58844  0.95019  0.82628  1.0000
  H   H6580     1.0  0.57791  0.95898  0.84476  1.0000
  H   H6581     1.0  0.56577  0.95391  0.83307  1.0000
  H   H6582     1.0  0.57428  0.95691  0.87279  1.0000
  H   H6583     1.0  0.59728  0.95408  0.86527  1.0000
  H   H6584     1.0  0.58883  0.94947  0.88694  1.0000
  H   H6585     1.0  0.53256  0.90795  0.80612  1.0000
  S   S1139     1.0  0.53306  0.84785  0.96373  1.0000
  H   H6586     1.0  0.52072  0.75809  0.94704  1.0000
  H   H6587     1.0  0.55340  0.54997  0.86735  1.0000
  C   C3888     1.0  0.73341  0.59753  0.97324  1.0000
  S   S1140     1.0  0.65221  0.98080  0.86931  1.0000
  H   H6588     1.0  0.60827  0.58712  0.75554  1.0000
  H   H6589     1.0  0.59372  0.61256  0.89143  1.0000
  H   H6590     1.0  0.72512  0.95606  0.97081  1.0000
  H   H6591     1.0  0.74028  0.60014  0.95978  1.0000
  C   C3889     1.0  0.54222  0.63709  0.87879  1.0000
  C   C3890     1.0  0.55716  0.64380  0.88004  1.0000
  C   C3891     1.0  0.59054  0.54881  0.78538  1.0000
  H   H6592     1.0  0.60076  0.52941  0.76125  1.0000
  H   H6593     1.0  0.64694  0.66495  0.98043  1.0000
  C   C3892     1.0  0.65067  0.65163  0.98018  1.0000
  H   H6594     1.0  0.55570  0.68553  0.92672  1.0000
  H   H6595     1.0  0.53003  0.64245  0.88673  1.0000
  Fe  Fe571     1.0  0.53403  0.51161  0.75884  1.0000
  H   H6596     1.0  0.68989  0.57837  0.97680  1.0000
  H   H6597     1.0  0.55427  0.53119  0.86117  1.0000
  H   H6598     1.0  0.72914  0.93550  0.96754  1.0000
  C   C3893     1.0  0.57726  0.50109  0.83737  1.0000
  H   H6599     1.0  0.58899  0.54232  0.81233  1.0000
  H   H6600     1.0  0.57161  0.89824  0.96445  1.0000
  C   C3894     1.0  0.73983  0.94819  0.85586  1.0000
  C   C3895     1.0  0.60647  0.54625  0.84229  1.0000
  H   H6601     1.0  0.64314  0.51187  0.96226  1.0000
  C   C3896     1.0  0.69846  0.58099  0.96422  1.0000
  H   H6602     1.0  0.73597  0.97963  0.83830  1.0000
  H   H6603     1.0  0.50565  0.80380  0.94322  1.0000
  S   S1141     1.0  0.58384  0.50085  0.78771  1.0000
  H   H6604     1.0  0.61254  0.49141  0.94531  1.0000
  H   H6605     1.0  0.51542  0.90894  0.83985  1.0000
  H   H6606     1.0  0.56270  0.74476  0.88375  1.0000
  H   H6607     1.0  0.55249  0.65009  0.91911  1.0000
  H   H6608     1.0  0.72644  0.94765  0.86272  1.0000
  S   S1142     1.0  0.50892  0.77171  0.90576  1.0000
  N   N267      1.0  0.59011  0.89791  0.97838  1.0000
  H   H6609     1.0  0.52263  0.93183  0.78301  1.0000
  H   H6610     1.0  0.50360  0.77544  0.95130  1.0000
  H   H6611     1.0  0.63141  0.97024  0.96597  1.0000
  H   H6612     1.0  0.60639  0.57306  0.85663  1.0000
  Fe  Fe572     1.0  0.52330  0.49368  0.79504  1.0000
  H   H6613     1.0  0.65214  0.96852  0.94433  1.0000
  H   H6614     1.0  0.50365  0.49079  0.75707  1.0000
  H   H6615     1.0  0.57962  0.58854  0.76035  1.0000
  H   H6616     1.0  0.61229  0.53201  0.89022  1.0000
  N   N268      1.0  0.52521  0.79383  0.95815  1.0000
  S   S1143     1.0  0.59716  0.49074  0.86104  1.0000
  C   C3897     1.0  0.60557  0.98036  0.81858  1.0000
  H   H6617     1.0  0.70934  0.97310  0.86009  1.0000
  H   H6618     1.0  0.59236  0.69265  0.86689  1.0000
  C   C3898     1.0  0.52952  0.77911  0.94962  1.0000
  H   H6619     1.0  0.71423  0.61673  0.95170  1.0000
  H   H6620     1.0  0.57464  0.66943  0.87675  1.0000
  Fe  Fe573     1.0  0.55169  0.98083  0.77016  1.0000
  H   H6621     1.0  0.59220  0.91559  0.95401  1.0000
  H   H6622     1.0  0.57026  0.55664  0.80658  1.0000
  H   H6623     1.0  0.59977  0.53825  0.73965  1.0000
  H   H6624     1.0  0.50754  0.82629  0.96569  1.0000
  C   C3899     1.0  0.72690  0.94256  0.97762  1.0000
  C   C3900     1.0  0.65481  0.50249  0.96529  1.0000
  H   H6625     1.0  0.71502  0.63177  0.97406  1.0000
  C   C3901     1.0  0.59676  0.65887  0.96829  1.0000
  H   H6626     1.0  0.73654  0.90908  0.97994  1.0000
  H   H6627     1.0  0.52347  0.64465  0.92804  1.0000
  C   C3902     1.0  0.56469  0.56156  0.77408  1.0000
  H   H6628     1.0  0.62434  0.97881  0.93760  1.0000
  H   H6629     1.0  0.57585  0.70878  0.88605  1.0000
  C   C3903     1.0  0.73522  0.97893  0.85183  1.0000
  C   C3904     1.0  0.71162  0.58785  0.86017  1.0000
  C   C3905     1.0  0.50377  0.58035  0.74858  1.0000
  C   C3906     1.0  0.58559  0.71322  0.88948  1.0000
  H   H6630     1.0  0.60966  0.69251  0.84894  1.0000
  C   C3907     1.0  0.70659  0.61377  0.96480  1.0000
  C   C3908     1.0  0.54736  0.64690  0.90981  1.0000
  H   H6631     1.0  0.53694  0.90331  0.96871  1.0000
  H   H6632     1.0  0.57936  0.66016  0.92535  1.0000
  C   C3909     1.0  0.56624  0.61987  0.90320  1.0000
  C   C3910     1.0  0.59630  0.53352  0.87299  1.0000
  C   C3911     1.0  0.53387  0.86246  0.97475  1.0000
  H   H6633     1.0  0.57883  0.75747  0.87596  1.0000
  H   H6634     1.0  0.66295  0.60388  0.97957  1.0000
  C   C3912     1.0  0.52007  0.91911  0.78511  1.0000
  H   H6635     1.0  0.53172  0.78373  0.93574  1.0000
  C   C3913     1.0  0.57538  0.66477  0.89020  1.0000
  H   H6636     1.0  0.54476  0.62308  0.88178  1.0000
  H   H6637     1.0  0.61628  0.97476  0.80974  1.0000
  H   H6638     1.0  0.58826  0.64031  0.88581  1.0000
  H   H6639     1.0  0.51422  0.55064  0.74049  1.0000
  H   H6640     1.0  0.59103  0.70897  0.84780  1.0000
  C   C3914     1.0  0.58121  0.61006  0.89169  1.0000
  H   H6641     1.0  0.54203  0.57150  0.76330  1.0000
  C   C3915     1.0  0.60619  0.73222  0.87941  1.0000
  H   H6642     1.0  0.54044  0.64128  0.86562  1.0000
  H   H6643     1.0  0.61801  0.70196  0.86903  1.0000
  C   C3916     1.0  0.57744  0.64538  0.89543  1.0000
  H   H6644     1.0  0.59850  0.73748  0.89063  1.0000
  H   H6645     1.0  0.63333  0.72005  0.87187  1.0000
  N   N269      1.0  0.56176  0.63883  0.89708  1.0000
  H   H6646     1.0  0.69061  0.50030  0.94784  1.0000
  H   H6647     1.0  0.61533  0.71887  0.85160  1.0000
  H   H6648     1.0  0.58035  0.53740  0.75517  1.0000
  H   H6649     1.0  0.67020  0.97688  0.93318  1.0000
  H   H6650     1.0  0.61630  0.55166  0.84427  1.0000
  S   S1144     1.0  0.53414  0.84703  0.91770  1.0000
  H   H6651     1.0  0.58686  0.58496  0.86638  1.0000
  C   C3917     1.0  0.52215  0.79877  0.90349  1.0000
  H   H6652     1.0  0.56416  0.52950  0.87796  1.0000
  H   H6653     1.0  0.57528  0.93439  0.97049  1.0000
  H   H6654     1.0  0.56955  0.61673  0.91583  1.0000
  C   C3918     1.0  0.59341  0.53957  0.75277  1.0000
  H   H6655     1.0  0.74651  0.66250  0.90846  1.0000
  N   N270      1.0  0.71513  0.59704  0.97432  1.0000
  N   N271      1.0  0.69213  0.61768  0.86253  1.0000
  C   C3919     1.0  0.69494  0.63469  0.86253  1.0000
  C   C3920     1.0  0.68986  0.61851  0.84515  1.0000
  C   C3921     1.0  0.70782  0.60440  0.86640  1.0000
  C   C3922     1.0  0.67648  0.61454  0.87595  1.0000
  C   C3923     1.0  0.70029  0.63587  0.87828  1.0000
  C   C3924     1.0  0.67415  0.63150  0.83969  1.0000
  C   C3925     1.0  0.59339  0.55728  0.75470  1.0000
  C   C3926     1.0  0.67027  0.59844  0.87740  1.0000
  H   H6656     1.0  0.70500  0.63863  0.85140  1.0000
  H   H6657     1.0  0.68312  0.64473  0.86140  1.0000
  H   H6658     1.0  0.68874  0.60616  0.84375  1.0000
  H   H6659     1.0  0.70145  0.62140  0.83551  1.0000
  H   H6660     1.0  0.71963  0.60955  0.86068  1.0000
  H   H6661     1.0  0.70725  0.60076  0.88025  1.0000
  H   H6662     1.0  0.67883  0.61346  0.88854  1.0000
  H   H6663     1.0  0.66547  0.62557  0.87503  1.0000
  H   H6664     1.0  0.70199  0.64891  0.87666  1.0000
  H   H6665     1.0  0.69034  0.63359  0.88988  1.0000
  H   H6666     1.0  0.71266  0.62718  0.88018  1.0000
  H   H6667     1.0  0.67352  0.63044  0.82704  1.0000
  H   H6668     1.0  0.66198  0.62904  0.84832  1.0000
  H   H6669     1.0  0.67497  0.64473  0.83847  1.0000
  H   H6670     1.0  0.58199  0.64098  0.90750  1.0000
  H   H6671     1.0  0.61028  0.65831  0.96121  1.0000
  H   H6672     1.0  0.72216  0.57866  0.86569  1.0000
  H   H6673     1.0  0.67760  0.58722  0.88491  1.0000
  H   H6674     1.0  0.67055  0.59599  0.86510  1.0000
  H   H6675     1.0  0.65659  0.60005  0.88400  1.0000
  S   S1145     1.0  0.73949  0.61050  0.91766  1.0000
  H   H6676     1.0  0.50546  0.96841  0.77448  1.0000
  H   H6677     1.0  0.62857  0.73031  0.88902  1.0000
  Fe  Fe574     1.0  0.51925  0.97949  0.79709  1.0000
  H   H6678     1.0  0.50044  0.95405  0.82984  1.0000
  C   C3927     1.0  0.57192  0.74978  0.87254  1.0000
  H   H6679     1.0  0.59667  0.52027  0.87268  1.0000
  H   H6680     1.0  0.69748  0.64068  0.96380  1.0000
  H   H6681     1.0  0.56416  0.75857  0.86357  1.0000
  C   C3928     1.0  0.50837  0.93340  0.81665  1.0000
  H   H6682     1.0  0.58654  0.68930  0.90766  1.0000
  C   C3929     1.0  0.55605  0.57062  0.75901  1.0000
  S   S1146     1.0  0.51132  0.73600  0.88400  1.0000
  H   H6683     1.0  0.57140  0.56319  0.86997  1.0000
  H   H6684     1.0  0.60477  0.54582  0.78241  1.0000
  H   H6685     1.0  0.61224  0.87723  0.98086  1.0000
  C   C3930     1.0  0.53414  0.63638  0.92086  1.0000
  H   H6686     1.0  0.57555  0.72933  0.86073  1.0000
  C   C3931     1.0  0.58334  0.56307  0.86005  1.0000
  H   H6687     1.0  0.57772  0.72187  0.89795  1.0000
  H   H6688     1.0  0.58967  0.56406  0.80319  1.0000
  H   H6689     1.0  0.60639  0.69036  0.89385  1.0000
  C   C3932     1.0  0.56728  0.92578  0.97947  1.0000
  H   H6690     1.0  0.50935  0.78877  0.84982  1.0000
  H   H6691     1.0  0.56152  0.50966  0.81891  1.0000
  C   C3933     1.0  0.58954  0.98697  0.81423  1.0000
  H   H6692     1.0  0.60897  0.74341  0.86924  1.0000
  C   C3934     1.0  0.57844  0.53927  0.85233  1.0000
  H   H6693     1.0  0.71615  0.59005  0.84625  1.0000
  H   H6694     1.0  0.56692  0.50504  0.84743  1.0000
  H   H6695     1.0  0.57218  0.67650  0.96545  1.0000
  H   H6696     1.0  0.70059  0.58172  0.86396  1.0000
  C   C3935     1.0  0.61341  0.98708  0.94426  1.0000
  H   H6697     1.0  0.69174  0.59176  0.95579  1.0000
  C   C3936     1.0  0.59520  0.69812  0.90086  1.0000
  H   H6698     1.0  0.57473  0.54768  0.84059  1.0000
  H   H6699     1.0  0.72420  0.64751  0.92764  1.0000
  H   H6700     1.0  0.56570  0.80413  0.94460  1.0000
  C   C3937     1.0  0.55732  0.79490  0.95031  1.0000
  H   H6701     1.0  0.54016  0.65923  0.90359  1.0000
  H   H6702     1.0  0.55933  0.92239  0.97281  1.0000
  H   H6703     1.0  0.56843  0.63991  0.87013  1.0000
  H   H6704     1.0  0.51540  0.57198  0.75287  1.0000
  H   H6705     1.0  0.74507  0.92113  0.85731  1.0000
  H   H6706     1.0  0.58804  0.98655  0.80205  1.0000
  C   C3938     1.0  0.64620  0.97432  0.98088  1.0000
  C   C3939     1.0  0.73386  0.65076  0.93238  1.0000
  H   H6707     1.0  0.56200  0.78511  0.94262  1.0000
  C   C3940     1.0  0.61379  0.53311  0.87649  1.0000
  C   C3941     1.0  0.71583  0.58359  0.96522  1.0000
  H   H6708     1.0  0.52235  0.92497  0.86768  1.0000
  H   H6709     1.0  0.60708  0.55771  0.75273  1.0000
  H   H6710     1.0  0.72819  0.66339  0.93555  1.0000
  H   H6711     1.0  0.74252  0.97110  0.89867  1.0000
  H   H6712     1.0  0.55799  0.58366  0.75377  1.0000
  H   H6713     1.0  0.55706  0.56760  0.78477  1.0000
  H   H6714     1.0  0.56056  0.56348  0.74878  1.0000
  H   H6715     1.0  0.54166  0.77025  0.95217  1.0000
  H   H6716     1.0  0.60411  0.62332  0.97386  1.0000
  C   C3942     1.0  0.60805  0.71129  0.86286  1.0000
  N   N272      1.0  0.59150  0.54543  0.85719  1.0000
  H   H6717     1.0  0.55918  0.78943  0.96336  1.0000
  H   H6718     1.0  0.62822  0.53073  0.82826  1.0000
  S   S1147     1.0  0.53425  0.50916  0.80551  1.0000
  H   H6719     1.0  0.73579  0.64129  0.94406  1.0000
  H   H6720     1.0  0.61198  0.57034  0.77353  1.0000
  H   H6721     1.0  0.60843  0.52525  0.83035  1.0000
  H   H6722     1.0  0.70084  0.56983  0.95860  1.0000
  C   C3943     1.0  0.60381  0.49109  0.81125  1.0000
  C   C3944     1.0  0.60043  0.90711  0.96272  1.0000
  H   H6723     1.0  0.69934  0.94529  0.98219  1.0000
  H   H6724     1.0  0.57989  0.86917  0.96120  1.0000
  H   H6725     1.0  0.59630  0.56552  0.87853  1.0000
  C   C3945     1.0  0.61197  0.91726  0.96554  1.0000
  H   H6726     1.0  0.60922  0.89808  0.95505  1.0000
  H   H6727     1.0  0.51049  0.83015  0.94324  1.0000
  H   H6728     1.0  0.53731  0.77727  0.97819  1.0000
  C   C3946     1.0  0.65599  0.98024  0.93641  1.0000
  H   H6729     1.0  0.53272  0.80724  0.98278  1.0000
  C   C3947     1.0  0.66256  0.49242  0.95116  1.0000
  C   C3948     1.0  0.50388  0.82330  0.95538  1.0000
  H   H6730     1.0  0.73957  0.95066  0.84228  1.0000
  C   C3949     1.0  0.51411  0.88596  0.83539  1.0000
  H   H6731     1.0  0.51255  0.87945  0.84892  1.0000
  C   C3950     1.0  0.52519  0.78670  0.97662  1.0000
  H   H6732     1.0  0.65062  0.49425  0.97762  1.0000
  H   H6733     1.0  0.58885  0.56686  0.74391  1.0000
  H   H6734     1.0  0.61935  0.98298  0.98037  1.0000
  H   H6735     1.0  0.51482  0.77961  0.98268  1.0000
  H   H6736     1.0  0.50159  0.98477  0.74551  1.0000
  H   H6737     1.0  0.50092  0.65375  0.86063  1.0000
  C   C3951     1.0  0.50258  0.55812  0.73567  1.0000
  N   N273      1.0  0.50571  0.91628  0.81687  1.0000
  H   H6738     1.0  0.50813  0.92015  0.78108  1.0000
  C   C3952     1.0  0.50687  0.90513  0.83417  1.0000
  H   H6739     1.0  0.50660  0.61896  0.83661  1.0000
  H   H6740     1.0  0.50760  0.88018  0.82935  1.0000
  H   H6741     1.0  0.50666  0.94242  0.80461  1.0000
  C   C3953     1.0  0.59392  0.98829  0.84558  1.0000
  H   H6742     1.0  0.59553  0.98875  0.85771  1.0000
  H   H6743     1.0  0.74788  0.57106  0.97504  1.0000
  H   H6744     1.0  0.61613  0.66768  0.98322  1.0000
  H   H6745     1.0  0.93294  0.38267  0.11726  1.0000
  Fe  Fe575     1.0  0.90420  0.04170  0.16535  1.0000
  S   S1148     1.0  0.87810  0.04895  0.18117  1.0000
  S   S1149     1.0  0.91389  0.01379  0.16675  1.0000
  Fe  Fe576     1.0  0.90961  0.07776  0.15567  1.0000
  S   S1150     1.0  0.88403  0.08756  0.17123  1.0000
  S   S1151     1.0  0.92815  0.09411  0.13963  1.0000
  Fe  Fe577     1.0  0.89036  0.06399  0.19074  1.0000
  S   S1152     1.0  0.88468  0.06163  0.21889  1.0000
  Fe  Fe578     1.0  0.87452  0.07150  0.16001  1.0000
  S   S1153     1.0  0.84969  0.08201  0.15120  1.0000
  S   S1154     1.0  0.91682  0.05535  0.17616  1.0000
  S   S1155     1.0  0.89975  0.06308  0.14318  1.0000
  Fe  Fe579     1.0  0.81277  0.09372  0.03713  1.0000
  S   S1156     1.0  0.79222  0.11578  0.04460  1.0000
  S   S1157     1.0  0.81588  0.08341  0.01420  1.0000
  Fe  Fe580     1.0  0.82524  0.08429  0.06989  1.0000
  S   S1158     1.0  0.80545  0.10511  0.08011  1.0000
  S   S1159     1.0  0.84547  0.06651  0.08339  1.0000
  Fe  Fe581     1.0  0.78713  0.09779  0.06959  1.0000
  H   H6746     1.0  0.90272  0.17802  0.99620  1.0000
  Fe  Fe582     1.0  0.81250  0.12110  0.05439  1.0000
  S   S1160     1.0  0.81522  0.14712  0.05456  1.0000
  S   S1161     1.0  0.80638  0.07543  0.06164  1.0000
  S   S1162     1.0  0.83351  0.10063  0.04458  1.0000
  Fe  Fe583     1.0  0.90156  0.18163  0.08848  1.0000
  S   S1163     1.0  0.91784  0.16392  0.07205  1.0000
  S   S1164     1.0  0.89582  0.17191  0.11659  1.0000
  Fe  Fe584     1.0  0.89557  0.21077  0.05859  1.0000
  S   S1165     1.0  0.91136  0.19493  0.03990  1.0000
  S   S1166     1.0  0.88228  0.23734  0.04758  1.0000
  Fe  Fe585     1.0  0.89789  0.17452  0.05651  1.0000
  S   S1167     1.0  0.89064  0.15593  0.04619  1.0000
  Fe  Fe586     1.0  0.92965  0.18589  0.05728  1.0000
  C   C3954     1.0  0.95930  0.21212  0.05092  1.0000
  S   S1168     1.0  0.88058  0.19093  0.07392  1.0000
  S   S1169     1.0  0.91489  0.20302  0.07503  1.0000
  Fe  Fe587     1.0  0.78494  0.46506  0.06875  1.0000
  S   S1170     1.0  0.80026  0.47574  0.04379  1.0000
  S   S1171     1.0  0.79573  0.45363  0.09207  1.0000
  Fe  Fe588     1.0  0.78967  0.45997  0.03345  1.0000
  S   S1172     1.0  0.80955  0.44619  0.01461  1.0000
  S   S1173     1.0  0.77582  0.44787  0.05872  1.0000
  Fe  Fe589     1.0  0.91607  0.44097  0.11749  1.0000
  S   S1174     1.0  0.90914  0.42027  0.13950  1.0000
  S   S1175     1.0  0.94313  0.44389  0.10832  1.0000
  Fe  Fe590     1.0  0.87984  0.45329  0.11124  1.0000
  S   S1176     1.0  0.87003  0.43380  0.13312  1.0000
  S   S1177     1.0  0.86416  0.47197  0.09339  1.0000
  Fe  Fe591     1.0  0.88613  0.44035  0.14697  1.0000
  S   S1178     1.0  0.87521  0.44851  0.17190  1.0000
  Fe  Fe592     1.0  0.89396  0.41603  0.12310  1.0000
  S   S1179     1.0  0.89377  0.39038  0.11938  1.0000
  S   S1180     1.0  0.89410  0.46132  0.12565  1.0000
  S   S1181     1.0  0.90297  0.43530  0.10059  1.0000
  Fe  Fe593     1.0  0.86482  0.35659  0.03681  1.0000
  S   S1182     1.0  0.88313  0.37149  0.01832  1.0000
  S   S1183     1.0  0.83677  0.36826  0.04444  1.0000
  Fe  Fe594     1.0  0.89325  0.32598  0.04543  1.0000
  S   S1184     1.0  0.91364  0.33927  0.02830  1.0000
  S   S1185     1.0  0.90363  0.29953  0.05911  1.0000
  Fe  Fe595     1.0  0.89839  0.36214  0.03848  1.0000
  S   S1186     1.0  0.90784  0.38228  0.04404  1.0000
  C   C3955     1.0  0.90163  0.06293  0.22681  1.0000
  S   S1187     1.0  0.87958  0.34820  0.05742  1.0000
  S   S1188     1.0  0.87648  0.33281  0.02670  1.0000
  C   C3956     1.0  0.98924  0.08268  0.17998  1.0000
  S   S1189     1.0  0.96588  0.46710  0.16224  1.0000
  H   H6747     1.0  0.94077  0.07309  0.21388  1.0000
  C   C3957     1.0  0.98651  0.19337  0.04286  1.0000
  C   C3958     1.0  0.88619  0.44048  0.18862  1.0000
  C   C3959     1.0  0.90076  0.42732  0.18786  1.0000
  C   C3960     1.0  0.90887  0.42093  0.20164  1.0000
  C   C3961     1.0  0.90266  0.42774  0.21615  1.0000
  H   H6748     1.0  0.95531  0.18868  0.08915  1.0000
  C   C3962     1.0  0.87998  0.44731  0.20314  1.0000
  H   H6749     1.0  0.90554  0.42188  0.17682  1.0000
  H   H6750     1.0  0.91987  0.41051  0.20123  1.0000
  S   S1190     1.0  0.76111  0.09480  0.08584  1.0000
  H   H6751     1.0  0.84137  0.21329  0.04309  1.0000
  C   C3963     1.0  0.94894  0.45156  0.12276  1.0000
  C   C3964     1.0  0.96575  0.45334  0.12000  1.0000
  C   C3965     1.0  0.97086  0.45841  0.13199  1.0000
  C   C3966     1.0  0.95916  0.46199  0.14663  1.0000
  C   C3967     1.0  0.94214  0.46090  0.14907  1.0000
  C   C3968     1.0  0.93711  0.45537  0.13729  1.0000
  H   H6752     1.0  0.97489  0.45054  0.10871  1.0000
  H   H6753     1.0  0.98380  0.45979  0.12971  1.0000
  H   H6754     1.0  0.93298  0.46368  0.16033  1.0000
  H   H6755     1.0  0.92413  0.45385  0.13962  1.0000
  C   C3969     1.0  0.89605  0.38828  0.09855  1.0000
  C   C3970     1.0  0.89627  0.40232  0.08509  1.0000
  C   C3971     1.0  0.90006  0.40026  0.06847  1.0000
  C   C3972     1.0  0.90247  0.38428  0.06514  1.0000
  C   C3973     1.0  0.90117  0.37028  0.07859  1.0000
  C   C3974     1.0  0.89819  0.37226  0.09527  1.0000
  H   H6756     1.0  0.89371  0.41478  0.08740  1.0000
  H   H6757     1.0  0.90118  0.41109  0.05815  1.0000
  H   H6758     1.0  0.90309  0.35786  0.07613  1.0000
  H   H6759     1.0  0.89784  0.36132  0.10561  1.0000
  C   C3975     1.0  0.81695  0.42440  0.02262  1.0000
  C   C3976     1.0  0.80759  0.41574  0.03723  1.0000
  C   C3977     1.0  0.81373  0.39852  0.04364  1.0000
  C   C3978     1.0  0.82943  0.38982  0.03567  1.0000
  C   C3979     1.0  0.83877  0.39839  0.02093  1.0000
  C   C3980     1.0  0.83245  0.41559  0.01433  1.0000
  H   H6760     1.0  0.79533  0.42210  0.04334  1.0000
  H   H6761     1.0  0.80619  0.39187  0.05477  1.0000
  H   H6762     1.0  0.85058  0.39169  0.01433  1.0000
  H   H6763     1.0  0.83959  0.42203  0.00277  1.0000
  C   C3981     1.0  0.84467  0.46746  0.09350  1.0000
  C   C3982     1.0  0.83572  0.47664  0.08080  1.0000
  C   C3983     1.0  0.82044  0.47279  0.08040  1.0000
  C   C3984     1.0  0.81403  0.45980  0.09275  1.0000
  C   C3985     1.0  0.82269  0.45103  0.10569  1.0000
  C   C3986     1.0  0.83801  0.45476  0.10599  1.0000
  H   H6764     1.0  0.87169  0.45367  0.99780  1.0000
  H   H6765     1.0  0.81367  0.47983  0.07055  1.0000
  H   H6766     1.0  0.81758  0.44124  0.11549  1.0000
  H   H6767     1.0  0.84452  0.44785  0.11600  1.0000
  C   C3987     1.0  0.94035  0.39306  0.09044  1.0000
  C   C3988     1.0  0.88791  0.25448  0.05145  1.0000
  C   C3989     1.0  0.90214  0.25203  0.05832  1.0000
  C   C3990     1.0  0.90661  0.26591  0.06091  1.0000
  C   C3991     1.0  0.89702  0.28237  0.05649  1.0000
  C   C3992     1.0  0.88269  0.28484  0.04976  1.0000
  C   C3993     1.0  0.87819  0.27093  0.04718  1.0000
  H   H6768     1.0  0.90976  0.23945  0.06159  1.0000
  H   H6769     1.0  0.91755  0.26387  0.06634  1.0000
  H   H6770     1.0  0.87497  0.29743  0.04671  1.0000
  H   H6771     1.0  0.86706  0.27292  0.04201  1.0000
  H   H6772     1.0  0.94548  0.21477  0.05394  1.0000
  H   H6773     1.0  0.88316  0.44621  0.22800  1.0000
  C   C3994     1.0  0.77012  0.12642  0.10884  1.0000
  C   C3995     1.0  0.92202  0.47973  0.19112  1.0000
  C   C3996     1.0  0.91427  0.25627  0.99540  1.0000
  H   H6774     1.0  0.99415  0.15385  0.09987  1.0000
  H   H6775     1.0  0.94465  0.43364  0.17695  1.0000
  C   C3997     1.0  0.94947  0.40385  0.05995  1.0000
  H   H6776     1.0  0.75765  0.08379  0.99312  1.0000
  C   C3998     1.0  0.83622  0.14874  0.05348  1.0000
  C   C3999     1.0  0.83888  0.16084  0.06059  1.0000
  C   C4000     1.0  0.85555  0.16291  0.05894  1.0000
  C   C4001     1.0  0.86959  0.15309  0.04987  1.0000
  C   C4002     1.0  0.86691  0.14087  0.04301  1.0000
  C   C4003     1.0  0.85033  0.13864  0.04489  1.0000
  H   H6777     1.0  0.82802  0.16865  0.06734  1.0000
  H   H6778     1.0  0.85749  0.17220  0.06451  1.0000
  H   H6779     1.0  0.87771  0.13318  0.03605  1.0000
  H   H6780     1.0  0.84847  0.12942  0.03920  1.0000
  C   C4004     1.0  0.99516  0.20548  0.04298  1.0000
  H   H6781     1.0  0.92853  0.27564  0.00609  1.0000
  H   H6782     1.0  0.99359  0.04819  0.13822  1.0000
  C   C4005     1.0  0.91630  0.06771  0.21588  1.0000
  S   S1191     1.0  0.95822  0.18065  0.04797  1.0000
  H   H6783     1.0  0.91730  0.07057  0.20243  1.0000
  C   C4006     1.0  0.91955  0.11593  0.13390  1.0000
  C   C4007     1.0  0.92855  0.12590  0.12000  1.0000
  C   C4008     1.0  0.92141  0.14313  0.11461  1.0000
  C   C4009     1.0  0.90542  0.15054  0.12334  1.0000
  C   C4010     1.0  0.89682  0.14073  0.13765  1.0000
  C   C4011     1.0  0.90379  0.12346  0.14282  1.0000
  H   H6784     1.0  0.94081  0.12019  0.11309  1.0000
  H   H6785     1.0  0.92831  0.15067  0.10376  1.0000
  H   H6786     1.0  0.88455  0.14644  0.14458  1.0000
  H   H6787     1.0  0.89697  0.11606  0.15379  1.0000
  C   C4012     1.0  0.84627  0.07037  0.10259  1.0000
  C   C4013     1.0  0.83254  0.08079  0.11127  1.0000
  C   C4014     1.0  0.83356  0.08393  0.12641  1.0000
  C   C4015     1.0  0.84826  0.07656  0.13305  1.0000
  C   C4016     1.0  0.86168  0.06550  0.12481  1.0000
  C   C4017     1.0  0.86072  0.06249  0.10956  1.0000
  H   H6788     1.0  0.82110  0.08640  0.10639  1.0000
  H   H6789     1.0  0.82303  0.09230  0.13288  1.0000
  H   H6790     1.0  0.87288  0.05940  0.13004  1.0000
  H   H6791     1.0  0.87129  0.05417  0.10307  1.0000
  H   H6792     1.0  0.89972  0.18830  0.01284  1.0000
  C   C4018     1.0  0.90444  0.01658  0.13734  1.0000
  C   C4019     1.0  0.89930  0.01023  0.12623  1.0000
  H   H6793     1.0  0.90820  0.02864  0.13314  1.0000
  H   H6794     1.0  0.89893  0.01748  0.11353  1.0000
  H   H6795     1.0  0.89219  0.26763  0.01214  1.0000
  H   H6796     1.0  0.82069  0.00444  0.12121  1.0000
  C   C4020     1.0  0.81722  0.11447  0.99304  1.0000
  C   C4021     1.0  0.81872  0.09722  0.99444  1.0000
  H   H6797     1.0  0.99286  0.11032  0.12929  1.0000
  H   H6798     1.0  0.87306  0.22136  0.99838  1.0000
  H   H6799     1.0  0.81527  0.11930  0.00422  1.0000
  Fe  Fe596     1.0  0.89629  0.34711  0.01002  1.0000
  C   C4022     1.0  0.94288  0.38937  0.10861  1.0000
  H   H6800     1.0  0.98125  0.28871  0.01040  1.0000
  H   H6801     1.0  0.93828  0.38130  0.08863  1.0000
  H   H6802     1.0  0.84243  0.99163  0.14828  1.0000
  H   H6803     1.0  0.95985  0.43412  0.05571  1.0000
  H   H6804     1.0  0.98655  0.01420  0.21203  1.0000
  C   C4023     1.0  0.85424  0.02274  0.14177  1.0000
  H   H6805     1.0  0.75779  0.12856  0.11793  1.0000
  N   N274      1.0  0.86046  0.44253  0.03399  1.0000
  C   C4024     1.0  0.87724  0.43130  0.02753  1.0000
  C   C4025     1.0  0.86430  0.45585  0.04047  1.0000
  C   C4026     1.0  0.85061  0.45111  0.02027  1.0000
  C   C4027     1.0  0.84981  0.43171  0.04771  1.0000
  C   C4028     1.0  0.87618  0.41775  0.01889  1.0000
  C   C4029     1.0  0.77632  0.10498  0.99038  1.0000
  C   C4030     1.0  0.86019  0.46161  0.00434  1.0000
  C   C4031     1.0  0.83245  0.44118  0.05661  1.0000
  H   H6806     1.0  0.78346  0.18033  0.05735  1.0000
  H   H6807     1.0  0.88384  0.42427  0.03801  1.0000
  H   H6808     1.0  0.85312  0.46667  0.04185  1.0000
  C   C4032     1.0  0.97522  0.16172  0.13471  1.0000
  H   H6809     1.0  0.84623  0.44178  0.01627  1.0000
  H   H6810     1.0  0.83856  0.45982  0.02503  1.0000
  H   H6811     1.0  0.84668  0.42229  0.04263  1.0000
  H   H6812     1.0  0.85717  0.42393  0.05742  1.0000
  H   H6813     1.0  0.86932  0.40815  0.02778  1.0000
  H   H6814     1.0  0.78781  0.16818  0.07712  1.0000
  H   H6815     1.0  0.88938  0.41074  0.01440  1.0000
  H   H6816     1.0  0.95313  0.31248  0.03452  1.0000
  H   H6817     1.0  0.83447  0.20649  0.01988  1.0000
  H   H6818     1.0  0.99680  0.42595  0.10020  1.0000
  H   H6819     1.0  0.96467  0.39128  0.12967  1.0000
  H   H6820     1.0  0.86009  0.01283  0.08659  1.0000
  C   C4033     1.0  0.87326  0.30252  0.99537  1.0000
  H   H6821     1.0  0.82173  0.43926  0.05234  1.0000
  H   H6822     1.0  0.83140  0.45491  0.05450  1.0000
  H   H6823     1.0  0.83055  0.43636  0.07046  1.0000
  N   N275      1.0  0.83147  0.38951  0.09671  1.0000
  C   C4034     1.0  0.81578  0.40320  0.10072  1.0000
  C   C4035     1.0  0.84417  0.38980  0.10641  1.0000
  C   C4036     1.0  0.82605  0.37278  0.10300  1.0000
  C   C4037     1.0  0.83828  0.39271  0.07787  1.0000
  C   C4038     1.0  0.80065  0.40466  0.09271  1.0000
  C   C4039     1.0  0.84918  0.40695  0.10315  1.0000
  C   C4040     1.0  0.84012  0.35689  0.10026  1.0000
  C   C4041     1.0  0.85761  0.38590  0.07155  1.0000
  H   H6824     1.0  0.81082  0.40160  0.11462  1.0000
  H   H6825     1.0  0.81894  0.41594  0.09634  1.0000
  H   H6826     1.0  0.85627  0.38030  0.10402  1.0000
  H   H6827     1.0  0.83903  0.38615  0.12025  1.0000
  H   H6828     1.0  0.82011  0.37092  0.11674  1.0000
  H   H6829     1.0  0.81610  0.37244  0.09663  1.0000
  H   H6830     1.0  0.83116  0.38755  0.07171  1.0000
  H   H6831     1.0  0.83596  0.40650  0.07256  1.0000
  H   H6832     1.0  0.80460  0.40567  0.07889  1.0000
  H   H6833     1.0  0.79400  0.39406  0.09873  1.0000
  H   H6834     1.0  0.79101  0.41644  0.09479  1.0000
  H   H6835     1.0  0.83897  0.41578  0.11000  1.0000
  H   H6836     1.0  0.86070  0.40505  0.10825  1.0000
  H   H6837     1.0  0.85212  0.41295  0.08958  1.0000
  H   H6838     1.0  0.85112  0.35552  0.10590  1.0000
  H   H6839     1.0  0.84448  0.35657  0.08666  1.0000
  H   H6840     1.0  0.83464  0.34551  0.10648  1.0000
  H   H6841     1.0  0.85964  0.38380  0.05864  1.0000
  H   H6842     1.0  0.86318  0.37379  0.07924  1.0000
  H   H6843     1.0  0.86511  0.39543  0.07008  1.0000
  N   N276      1.0  0.96671  0.28809  0.04636  1.0000
  C   C4042     1.0  0.76714  0.11232  0.00616  1.0000
  C   C4043     1.0  0.95204  0.30334  0.04689  1.0000
  C   C4044     1.0  0.75275  0.13861  0.08064  1.0000
  C   C4045     1.0  0.96650  0.27656  0.06356  1.0000
  C   C4046     1.0  0.89442  0.18867  0.00201  1.0000
  H   H6844     1.0  0.89065  0.27296  0.99090  1.0000
  C   C4047     1.0  0.97139  0.09707  0.13913  1.0000
  H   H6845     1.0  0.85870  0.00885  0.14408  1.0000
  H   H6846     1.0  0.98085  0.39222  0.06463  1.0000
  H   H6847     1.0  0.85827  0.00520  0.19641  1.0000
  N   N277      1.0  0.88713  0.99873  0.22252  1.0000
  H   H6848     1.0  0.77578  0.15114  0.10151  1.0000
  H   H6849     1.0  0.85428  0.02679  0.15323  1.0000
  H   H6850     1.0  0.99373  0.18140  0.03972  1.0000
  H   H6851     1.0  0.89696  0.13319  0.23072  1.0000
  Fe  Fe597     1.0  0.75367  0.46968  0.05427  1.0000
  H   H6852     1.0  0.81480  0.00870  0.14170  1.0000
  C   C4048     1.0  0.95225  0.40701  0.17567  1.0000
  C   C4049     1.0  0.98267  0.39501  0.16346  1.0000
  H   H6853     1.0  0.96857  0.00794  0.21043  1.0000
  H   H6854     1.0  0.95185  0.27579  0.03788  1.0000
  H   H6855     1.0  0.91321  0.48191  0.18252  1.0000
  H   H6856     1.0  0.97352  0.21356  0.09161  1.0000
  H   H6857     1.0  0.75905  0.04818  0.02971  1.0000
  C   C4050     1.0  0.98654  0.38657  0.18109  1.0000
  H   H6858     1.0  0.93895  0.41055  0.17359  1.0000
  H   H6859     1.0  0.78192  0.09148  0.99529  1.0000
  C   C4051     1.0  0.95635  0.42338  0.17700  1.0000
  H   H6860     1.0  0.95116  0.26208  0.08476  1.0000
  C   C4052     1.0  0.86745  0.20308  0.02904  1.0000
  H   H6861     1.0  0.86711  0.29170  0.00229  1.0000
  H   H6862     1.0  0.77739  0.15291  0.06081  1.0000
  H   H6863     1.0  0.82816  0.18122  0.01743  1.0000
  H   H6864     1.0  0.91195  0.00893  0.23189  1.0000
  H   H6865     1.0  0.93961  0.29970  0.04900  1.0000
  H   H6866     1.0  0.98122  0.11102  0.11418  1.0000
  C   C4053     1.0  0.77733  0.17431  0.07022  1.0000
  H   H6867     1.0  0.87009  0.19099  0.03839  1.0000
  H   H6868     1.0  0.98040  0.14433  0.08268  1.0000
  H   H6869     1.0  0.91275  0.02746  0.21615  1.0000
  H   H6870     1.0  0.87616  0.17404  0.01759  1.0000
  H   H6871     1.0  0.84328  0.18900  0.03437  1.0000
  C   C4054     1.0  0.88939  0.30138  0.00165  1.0000
  C   C4055     1.0  0.94971  0.27047  0.07230  1.0000
  H   H6872     1.0  0.87457  0.46169  0.03118  1.0000
  H   H6873     1.0  0.97579  0.36243  0.09189  1.0000
  H   H6874     1.0  0.79973  0.48480  0.00208  1.0000
  H   H6875     1.0  0.98453  0.14976  0.13267  1.0000
  H   H6876     1.0  0.99541  0.21111  0.08111  1.0000
  H   H6877     1.0  0.89797  0.01536  0.20014  1.0000
  C   C4056     1.0  0.99277  0.99083  0.20388  1.0000
  H   H6878     1.0  0.76335  0.13045  0.07321  1.0000
  C   C4057     1.0  0.90066  0.99133  0.15890  1.0000
  H   H6879     1.0  0.75736  0.12407  0.00379  1.0000
  C   C4058     1.0  0.85433  0.21607  0.03865  1.0000
  H   H6880     1.0  0.77669  0.11597  0.01072  1.0000
  H   H6881     1.0  0.85154  0.46740  0.99534  1.0000
  H   H6882     1.0  0.78312  0.47276  0.99461  1.0000
  H   H6883     1.0  0.97368  0.26577  0.03567  1.0000
  H   H6884     1.0  0.97672  0.26488  0.06284  1.0000
  C   C4059     1.0  0.96786  0.28726  0.01563  1.0000
  C   C4060     1.0  0.98703  0.18730  0.08955  1.0000
  H   H6885     1.0  0.95918  0.40961  0.04973  1.0000
  H   H6886     1.0  0.90995  0.27793  0.02238  1.0000
  C   C4061     1.0  0.91164  0.01411  0.21844  1.0000
  H   H6887     1.0  0.88629  0.43892  0.01855  1.0000
  H   H6888     1.0  0.96324  0.16247  0.08282  1.0000
  C   C4062     1.0  0.82582  0.00713  0.13086  1.0000
  H   H6889     1.0  0.94026  0.36941  0.16302  1.0000
  H   H6890     1.0  0.96038  0.38027  0.05069  1.0000
  H   H6891     1.0  0.88157  0.43918  0.05707  1.0000
  H   H6892     1.0  0.97018  0.41093  0.11814  1.0000
  H   H6893     1.0  0.87845  0.01112  0.18969  1.0000
  H   H6894     1.0  0.84213  0.00384  0.09819  1.0000
  H   H6895     1.0  0.85930  0.01111  0.11526  1.0000
  H   H6896     1.0  0.98229  0.06746  0.12735  1.0000
  H   H6897     1.0  0.85915  0.48076  0.13338  1.0000
  H   H6898     1.0  0.93191  0.18032  0.10820  1.0000
  H   H6899     1.0  0.86376  0.02851  0.13139  1.0000
  C   C4063     1.0  0.89490  0.01395  0.21400  1.0000
  S   S1192     1.0  0.76673  0.48064  0.02805  1.0000
  H   H6900     1.0  0.96651  0.42803  0.16668  1.0000
  H   H6901     1.0  0.95553  0.38113  0.11004  1.0000
  C   C4064     1.0  0.98350  0.05973  0.14008  1.0000
  H   H6902     1.0  0.75438  0.05997  0.04569  1.0000
  H   H6903     1.0  0.96799  0.43735  0.07180  1.0000
  C   C4065     1.0  0.86122  0.21642  0.00123  1.0000
  N   N278      1.0  0.88177  0.11673  0.10112  1.0000
  C   C4066     1.0  0.89687  0.12510  0.09539  1.0000
  C   C4067     1.0  0.88776  0.09770  0.10592  1.0000
  C   C4068     1.0  0.87103  0.12228  0.11707  1.0000
  C   C4069     1.0  0.87157  0.12225  0.08758  1.0000
  C   C4070     1.0  0.91135  0.11877  0.08126  1.0000
  C   C4071     1.0  0.89149  0.08770  0.09196  1.0000
  C   C4072     1.0  0.86383  0.14149  0.11557  1.0000
  C   C4073     1.0  0.85438  0.11662  0.09250  1.0000
  H   H6904     1.0  0.89276  0.13898  0.09070  1.0000
  H   H6905     1.0  0.90282  0.12355  0.10616  1.0000
  H   H6906     1.0  0.87816  0.09194  0.11632  1.0000
  H   H6907     1.0  0.89934  0.09434  0.11141  1.0000
  H   H6908     1.0  0.85993  0.11603  0.12242  1.0000
  H   H6909     1.0  0.87859  0.11796  0.12714  1.0000
  H   H6910     1.0  0.86875  0.13625  0.08346  1.0000
  H   H6911     1.0  0.87907  0.11816  0.07576  1.0000
  H   H6912     1.0  0.90669  0.11994  0.06979  1.0000
  H   H6913     1.0  0.92100  0.12672  0.07754  1.0000
  H   H6914     1.0  0.91822  0.10565  0.08568  1.0000
  H   H6915     1.0  0.90045  0.09240  0.08038  1.0000
  H   H6916     1.0  0.89731  0.07427  0.09686  1.0000
  H   H6917     1.0  0.87955  0.08769  0.08850  1.0000
  H   H6918     1.0  0.85525  0.14677  0.10652  1.0000
  H   H6919     1.0  0.87409  0.14866  0.11219  1.0000
  H   H6920     1.0  0.85608  0.14372  0.12807  1.0000
  H   H6921     1.0  0.84366  0.12669  0.09700  1.0000
  H   H6922     1.0  0.85448  0.10491  0.10244  1.0000
  H   H6923     1.0  0.85186  0.11371  0.08143  1.0000
  H   H6924     1.0  0.96061  0.37359  0.17716  1.0000
  H   H6925     1.0  0.91944  0.45404  0.19303  1.0000
  C   C4074     1.0  0.80234  0.04222  0.12844  1.0000
  H   H6926     1.0  0.98055  0.07420  0.18755  1.0000
  C   C4075     1.0  0.98589  0.22095  0.04701  1.0000
  C   C4076     1.0  0.96795  0.22435  0.05078  1.0000
  H   H6927     1.0  0.97678  0.16413  0.14646  1.0000
  H   H6928     1.0  0.98001  0.39464  0.19039  1.0000
  H   H6929     1.0  0.79528  0.03188  0.13408  1.0000
  H   H6930     1.0  0.90921  0.30915  0.01702  1.0000
  H   H6931     1.0  0.97732  0.38974  0.08671  1.0000
  H   H6932     1.0  0.94289  0.39378  0.04204  1.0000
  H   H6933     1.0  0.98330  0.30397  0.02864  1.0000
  C   C4077     1.0  0.90548  0.00696  0.15354  1.0000
  H   H6934     1.0  0.75139  0.17170  0.09845  1.0000
  C   C4078     1.0  0.87029  0.00190  0.21734  1.0000
  H   H6935     1.0  0.89558  0.20050  0.99240  1.0000
  H   H6936     1.0  0.97209  0.18853  0.12441  1.0000
  H   H6937     1.0  0.93929  0.17993  0.12653  1.0000
  C   C4079     1.0  0.97916  0.17667  0.11999  1.0000
  H   H6938     1.0  0.96074  0.23632  0.05384  1.0000
  H   H6939     1.0  0.96755  0.42083  0.14284  1.0000
  C   C4080     1.0  0.98331  0.29406  0.04049  1.0000
  N   N279      1.0  0.95428  0.39996  0.07681  1.0000
  C   C4081     1.0  0.94776  0.38883  0.05388  1.0000
  C   C4082     1.0  0.83613  0.02905  0.13789  1.0000
  H   H6940     1.0  0.92856  0.29587  0.02185  1.0000
  C   C4083     1.0  0.98074  0.00299  0.21500  1.0000
  H   H6941     1.0  0.85866  0.21576  0.05009  1.0000
  H   H6942     1.0  0.95162  0.39824  0.18829  1.0000
  H   H6943     1.0  0.97146  0.05540  0.14664  1.0000
  H   H6944     1.0  0.81570  0.03260  0.10634  1.0000
  H   H6945     1.0  0.79394  0.05271  0.12124  1.0000
  H   H6946     1.0  0.80427  0.04717  0.13853  1.0000
  N   N280      1.0  0.97609  0.08480  0.15478  1.0000
  C   C4084     1.0  0.97695  0.15787  0.08339  1.0000
  C   C4085     1.0  0.96003  0.07969  0.16613  1.0000
  H   H6947     1.0  0.97349  0.15059  0.11009  1.0000
  H   H6948     1.0  0.94015  0.45518  0.19419  1.0000
  H   H6949     1.0  0.84967  0.16957  0.01608  1.0000
  C   C4086     1.0  0.94715  0.09337  0.17493  1.0000
  H   H6950     1.0  0.95901  0.29974  0.01321  1.0000
  H   H6951     1.0  0.93710  0.41336  0.05999  1.0000
  H   H6952     1.0  0.83925  0.02595  0.08700  1.0000
  H   H6953     1.0  0.78040  0.12224  0.11612  1.0000
  H   H6954     1.0  0.96298  0.06819  0.17605  1.0000
  H   H6955     1.0  0.95291  0.07582  0.15893  1.0000
  H   H6956     1.0  0.87369  0.46031  0.06019  1.0000
  C   C4087     1.0  0.87015  0.44970  0.05740  1.0000
  H   H6957     1.0  0.98397  0.36390  0.06996  1.0000
  Fe  Fe598     1.0  0.99329  0.45414  0.16264  1.0000
  C   C4088     1.0  0.96225  0.40942  0.14519  1.0000
  H   H6958     1.0  0.85069  0.22648  0.00609  1.0000
  H   H6959     1.0  0.87037  0.42327  0.00770  1.0000
  H   H6960     1.0  0.95228  0.09631  0.18437  1.0000
  H   H6961     1.0  0.94303  0.10512  0.16582  1.0000
  H   H6962     1.0  0.93542  0.08854  0.18179  1.0000
  H   H6963     1.0  0.88558  0.02599  0.21581  1.0000
  C   C4089     1.0  0.98415  0.09325  0.16327  1.0000
  C   C4090     1.0  0.87143  0.00178  0.19877  1.0000
  H   H6964     1.0  0.97903  0.42004  0.06183  1.0000
  H   H6965     1.0  0.96253  0.10886  0.14232  1.0000
  H   H6966     1.0  0.93908  0.39009  0.14989  1.0000
  C   C4091     1.0  0.95731  0.18562  0.10230  1.0000
  C   C4092     1.0  0.97292  0.36916  0.07934  1.0000
  H   H6967     1.0  0.92290  0.00731  0.21043  1.0000
  H   H6968     1.0  0.93899  0.32436  0.05915  1.0000
  H   H6969     1.0  0.95160  0.99398  0.13663  1.0000
  H   H6970     1.0  0.85973  0.44592  0.06805  1.0000
  H   H6971     1.0  0.83420  0.04313  0.13487  1.0000
  C   C4093     1.0  0.95022  0.31359  0.06015  1.0000
  H   H6972     1.0  0.95407  0.19828  0.10544  1.0000
  C   C4094     1.0  0.95975  0.38148  0.16436  1.0000
  C   C4095     1.0  0.92539  0.48675  0.21672  1.0000
  C   C4096     1.0  0.84171  0.18242  0.01251  1.0000
  H   H6973     1.0  0.98495  0.30029  0.04983  1.0000
  H   H6974     1.0  0.89258  0.31410  0.99709  1.0000
  H   H6975     1.0  0.94769  0.30605  0.07323  1.0000
  H   H6976     1.0  0.93153  0.38728  0.17252  1.0000
  S   S1193     1.0  0.91361  0.41961  0.23289  1.0000
  C   C4097     1.0  0.84712  0.01553  0.09477  1.0000
  H   H6977     1.0  0.90868  0.24550  0.99597  1.0000
  N   N281      1.0  0.83276  0.02304  0.12396  1.0000
  C   C4098     1.0  0.85799  0.21571  0.98437  1.0000
  C   C4099     1.0  0.96858  0.19656  0.04707  1.0000
  C   C4100     1.0  0.89959  0.27149  0.99906  1.0000
  H   H6978     1.0  0.82435  0.04819  0.10961  1.0000
  C   C4101     1.0  0.84517  0.19513  0.02073  1.0000
  H   H6979     1.0  0.99131  0.05977  0.16225  1.0000
  C   C4102     1.0  0.95483  0.41650  0.08028  1.0000
  C   C4103     1.0  0.81930  0.03663  0.11617  1.0000
  H   H6980     1.0  0.92277  0.45643  0.21215  1.0000
  H   H6981     1.0  0.84554  0.21243  0.98606  1.0000
  H   H6982     1.0  0.99297  0.17626  0.11870  1.0000
  C   C4104     1.0  0.87593  0.18595  0.00777  1.0000
  C   C4105     1.0  0.89492  0.99440  0.13143  1.0000
  H   H6983     1.0  0.84381  0.18628  0.99862  1.0000
  H   H6984     1.0  0.86378  0.47211  0.00723  1.0000
  C   C4106     1.0  0.92069  0.30004  0.01215  1.0000
  H   H6985     1.0  0.85361  0.22918  0.03101  1.0000
  H   H6986     1.0  0.94173  0.42467  0.08264  1.0000
  H   H6987     1.0  0.96950  0.28266  0.07225  1.0000
  H   H6988     1.0  0.96201  0.16001  0.13698  1.0000
  H   H6989     1.0  0.82682  0.02591  0.14995  1.0000
  H   H6990     1.0  0.87954  0.20775  0.02490  1.0000
  C   C4107     1.0  0.92950  0.06924  0.22238  1.0000
  C   C4108     1.0  0.96615  0.42744  0.06646  1.0000
  C   C4109     1.0  0.96490  0.27845  0.03449  1.0000
  C   C4110     1.0  0.88819  0.44100  0.21684  1.0000
  H   H6991     1.0  0.76844  0.18461  0.07611  1.0000
  H   H6992     1.0  0.88508  0.29968  0.01559  1.0000
  H   H6993     1.0  0.82990  0.48095  0.14672  1.0000
  S   S1194     1.0  0.76153  0.48584  0.06685  1.0000
  H   H6994     1.0  0.94851  0.41454  0.14462  1.0000
  H   H6995     1.0  0.98333  0.37394  0.18591  1.0000
  C   C4111     1.0  0.91611  0.28441  0.00971  1.0000
  H   H6996     1.0  0.96160  0.36561  0.07803  1.0000
  H   H6997     1.0  0.77093  0.11571  0.10316  1.0000
  C   C4112     1.0  0.83836  0.99089  0.13713  1.0000
  H   H6998     1.0  0.95965  0.41425  0.09196  1.0000
  H   H6999     1.0  0.96917  0.37391  0.15554  1.0000
  H   H7000     1.0  0.86864  0.45738  0.20387  1.0000
  H   H7001     1.0  0.93861  0.28104  0.07466  1.0000
  H   H7002     1.0  0.94687  0.16259  0.11569  1.0000
  H   H7003     1.0  0.87301  0.18307  0.99693  1.0000
  H   H7004     1.0  0.86212  0.01438  0.21941  1.0000
  C   C4113     1.0  0.97176  0.38837  0.07665  1.0000
  C   C4114     1.0  0.94328  0.17648  0.11401  1.0000
  N   N282      1.0  0.96424  0.39825  0.16218  1.0000
  H   H7005     1.0  0.78573  0.13818  0.08662  1.0000
  H   H7006     1.0  0.87285  0.34823  0.98773  1.0000
  H   H7007     1.0  0.98160  0.48662  0.10731  1.0000
  C   C4115     1.0  0.77328  0.14235  0.09515  1.0000
  H   H7008     1.0  0.96337  0.03495  0.22939  1.0000
  C   C4116     1.0  0.98033  0.15940  0.09993  1.0000
  N   N283      1.0  0.90494  0.28777  0.99719  1.0000
  C   C4117     1.0  0.94161  0.38240  0.16225  1.0000
  S   S1195     1.0  0.99649  0.23603  0.04774  1.0000
  N   N284      1.0  0.97562  0.17704  0.10321  1.0000
  H   H7009     1.0  0.97608  0.10580  0.16529  1.0000
  C   C4118     1.0  0.97102  0.40111  0.12994  1.0000
  H   H7010     1.0  0.92782  0.40214  0.09001  1.0000
  H   H7011     1.0  0.94109  0.40125  0.11283  1.0000
  H   H7012     1.0  0.93845  0.38167  0.06287  1.0000
  H   H7013     1.0  0.96151  0.31909  0.05796  1.0000
  C   C4119     1.0  0.89697  0.48718  0.21303  1.0000
  H   H7014     1.0  0.95986  0.42164  0.18925  1.0000
  H   H7015     1.0  0.85361  0.03263  0.10563  1.0000
  H   H7016     1.0  0.96412  0.09180  0.13326  1.0000
  H   H7017     1.0  0.92217  0.25181  0.00509  1.0000
  C   C4120     1.0  0.98638  0.10271  0.12520  1.0000
  H   H7018     1.0  0.75826  0.10478  0.05068  1.0000
  H   H7019     1.0  0.92403  0.47468  0.22601  1.0000
  H   H7020     1.0  0.99116  0.38671  0.15488  1.0000
  C   C4121     1.0  0.84876  0.02074  0.11032  1.0000
  H   H7021     1.0  0.98474  0.39542  0.12966  1.0000
  H   H7022     1.0  0.98757  0.40687  0.15908  1.0000
  C   C4122     1.0  0.98633  0.20511  0.09185  1.0000
  H   H7023     1.0  0.86375  0.31417  0.99804  1.0000
  H   H7024     1.0  0.89803  0.47383  0.22020  1.0000
  C   C4123     1.0  0.98879  0.06915  0.15052  1.0000
  H   H7025     1.0  0.94681  0.26292  0.06496  1.0000
  H   H7026     1.0  0.98863  0.09132  0.18811  1.0000
  H   H7027     1.0  0.96542  0.27923  0.00842  1.0000
  N   N285      1.0  0.86240  0.20012  0.01436  1.0000
  C   C4124     1.0  0.92626  0.46039  0.19826  1.0000
  H   H7028     1.0  0.99047  0.20471  0.10341  1.0000
  C   C4125     1.0  0.76792  0.16148  0.06868  1.0000
  H   H7029     1.0  0.99484  0.99777  0.19049  1.0000
  H   H7030     1.0  0.76141  0.10273  0.01644  1.0000
  H   H7031     1.0  0.84070  0.48663  0.07118  1.0000
  H   H7032     1.0  0.99588  0.09193  0.12063  1.0000
  H   H7033     1.0  0.92823  0.30659  0.00042  1.0000
  H   H7034     1.0  0.84069  0.47791  0.16329  1.0000
  H   H7035     1.0  0.98386  0.18929  0.07711  1.0000
  C   C4126     1.0  0.75248  0.09603  0.98504  1.0000
  H   H7036     1.0  0.95080  0.47510  0.20309  1.0000
  H   H7037     1.0  0.87160  0.15310  0.23354  1.0000
  C   C4127     1.0  0.83667  0.48720  0.15212  1.0000
  H   H7038     1.0  0.93388  0.48342  0.18268  1.0000
  N   N286      1.0  0.75960  0.15130  0.08509  1.0000
  H   H7039     1.0  0.99624  0.09645  0.15490  1.0000
  H   H7040     1.0  0.87727  0.98905  0.19597  1.0000
  H   H7041     1.0  0.78771  0.11055  0.98433  1.0000
  H   H7042     1.0  0.96750  0.99203  0.14796  1.0000
  H   H7043     1.0  0.86283  0.99223  0.22525  1.0000
  H   H7044     1.0  0.98495  0.16449  0.07209  1.0000
  H   H7045     1.0  0.75835  0.16896  0.06098  1.0000
  C   C4128     1.0  0.94469  0.48590  0.20940  1.0000
  H   H7046     1.0  0.95114  0.48387  0.21995  1.0000
  S   S1196     1.0  0.99845  0.42787  0.17840  1.0000
  H   H7047     1.0  0.88051  0.11563  0.22905  1.0000
  H   H7048     1.0  0.89845  0.09780  0.23134  1.0000
  H   H7049     1.0  0.88898  0.48838  0.20393  1.0000
  N   N287      1.0  0.97738  0.99568  0.23370  1.0000
  H   H7050     1.0  0.97542  0.44295  0.24575  1.0000
  Fe  Fe599     1.0  0.90332  0.14870  0.38485  1.0000
  S   S1197     1.0  0.88224  0.16661  0.37309  1.0000
  S   S1198     1.0  0.92375  0.12918  0.37268  1.0000
  Fe  Fe600     1.0  0.88973  0.16075  0.41776  1.0000
  S   S1199     1.0  0.86739  0.17946  0.40877  1.0000
  S   S1200     1.0  0.89111  0.15667  0.44483  1.0000
  Fe  Fe601     1.0  0.86503  0.15878  0.39804  1.0000
  S   S1201     1.0  0.83949  0.15395  0.39858  1.0000
  Fe  Fe602     1.0  0.88671  0.18553  0.38487  1.0000
  S   S1202     1.0  0.88618  0.21240  0.37043  1.0000
  S   S1203     1.0  0.88578  0.13947  0.40904  1.0000
  S   S1204     1.0  0.90940  0.16822  0.39464  1.0000
  Fe  Fe603     1.0  0.81164  0.07114  0.41562  1.0000
  S   S1205     1.0  0.79868  0.08484  0.39415  1.0000
  S   S1206     1.0  0.82088  0.08236  0.43194  1.0000
  Fe  Fe604     1.0  0.81334  0.03689  0.40974  1.0000
  S   S1207     1.0  0.80020  0.04748  0.38804  1.0000
  S   S1208     1.0  0.82525  0.00928  0.41577  1.0000
  Fe  Fe605     1.0  0.81728  0.06594  0.37995  1.0000
  S   S1209     1.0  0.82997  0.07271  0.35253  1.0000
  Fe  Fe606     1.0  0.78256  0.06518  0.40413  1.0000
  H   H7051     1.0  0.86335  0.21661  0.40891  1.0000
  S   S1210     1.0  0.83171  0.05404  0.40055  1.0000
  S   S1211     1.0  0.79415  0.05283  0.42690  1.0000
  Fe  Fe607     1.0  0.93834  0.06696  0.27564  1.0000
  S   S1212     1.0  0.94655  0.04271  0.29347  1.0000
  C   C4129     1.0  0.97360  0.35350  0.36806  1.0000
  Fe  Fe608     1.0  0.92657  0.08752  0.30292  1.0000
  S   S1213     1.0  0.93405  0.06507  0.32307  1.0000
  S   S1214     1.0  0.91400  0.11393  0.30686  1.0000
  Fe  Fe609     1.0  0.95756  0.05846  0.30343  1.0000
  S   S1215     1.0  0.98410  0.04908  0.30818  1.0000
  Fe  Fe610     1.0  0.92225  0.05140  0.31145  1.0000
  S   S1216     1.0  0.90627  0.03390  0.32979  1.0000
  S   S1217     1.0  0.95125  0.08219  0.28424  1.0000
  S   S1218     1.0  0.91285  0.07432  0.29265  1.0000
  H   H7052     1.0  0.98607  0.13133  0.37154  1.0000
  H   H7053     1.0  0.92363  0.34183  0.45071  1.0000
  Fe  Fe611     1.0  0.79103  0.40558  0.38824  1.0000
  S   S1219     1.0  0.81049  0.41650  0.39290  1.0000
  S   S1220     1.0  0.80225  0.38147  0.37894  1.0000
  Fe  Fe612     1.0  0.79222  0.41927  0.41726  1.0000
  S   S1221     1.0  0.80164  0.41008  0.44134  1.0000
  Fe  Fe613     1.0  0.79531  0.44152  0.38199  1.0000
  S   S1222     1.0  0.81123  0.46042  0.36618  1.0000
  S   S1223     1.0  0.77372  0.40640  0.41362  1.0000
  S   S1224     1.0  0.77694  0.43054  0.37511  1.0000
  C   C4130     1.0  0.83183  0.99860  0.34447  1.0000
  H   H7054     1.0  0.98199  0.05382  0.27059  1.0000
  Fe  Fe614     1.0  0.90863  0.42381  0.29291  1.0000
  S   S1225     1.0  0.89033  0.41729  0.28170  1.0000
  S   S1226     1.0  0.91968  0.40815  0.31541  1.0000
  Fe  Fe615     1.0  0.90429  0.43008  0.25664  1.0000
  Fe  Fe616     1.0  0.87499  0.44346  0.28367  1.0000
  S   S1227     1.0  0.84641  0.44731  0.29289  1.0000
  S   S1228     1.0  0.92422  0.43413  0.26776  1.0000
  S   S1229     1.0  0.89229  0.44921  0.29650  1.0000
  Fe  Fe617     1.0  0.90131  0.28807  0.39653  1.0000
  S   S1230     1.0  0.89978  0.30052  0.41740  1.0000
  S   S1231     1.0  0.90482  0.25974  0.40635  1.0000
  Fe  Fe618     1.0  0.90463  0.32112  0.37017  1.0000
  S   S1232     1.0  0.90439  0.33531  0.38922  1.0000
  S   S1233     1.0  0.90675  0.33369  0.34262  1.0000
  Fe  Fe619     1.0  0.92144  0.31143  0.40007  1.0000
  S   S1234     1.0  0.94541  0.30588  0.40971  1.0000
  Fe  Fe620     1.0  0.88272  0.32285  0.40436  1.0000
  S   S1235     1.0  0.85996  0.33841  0.41897  1.0000
  S   S1236     1.0  0.92374  0.29828  0.37962  1.0000
  S   S1237     1.0  0.88205  0.30954  0.38493  1.0000
  H   H7055     1.0  0.86017  0.14445  0.36561  1.0000
  H   H7056     1.0  0.98733  0.06650  0.24992  1.0000
  C   C4131     1.0  0.96374  0.00836  0.24238  1.0000
  C   C4132     1.0  0.88766  0.09987  0.39290  1.0000
  H   H7057     1.0  0.96840  0.38618  0.33904  1.0000
  H   H7058     1.0  0.84390  0.46481  0.34479  1.0000
  C   C4133     1.0  0.84542  0.99607  0.36766  1.0000
  C   C4134     1.0  0.82447  0.40308  0.33808  1.0000
  H   H7059     1.0  0.82568  0.99966  0.45151  1.0000
  H   H7060     1.0  0.84955  0.41123  0.35837  1.0000
  C   C4135     1.0  0.95223  0.32283  0.41195  1.0000
  C   C4136     1.0  0.94196  0.33919  0.41015  1.0000
  C   C4137     1.0  0.94744  0.35230  0.41307  1.0000
  C   C4138     1.0  0.96338  0.34908  0.41729  1.0000
  H   H7061     1.0  0.89971  0.10878  0.28143  1.0000
  C   C4139     1.0  0.96804  0.31965  0.41632  1.0000
  H   H7062     1.0  0.92986  0.34171  0.40651  1.0000
  H   H7063     1.0  0.93959  0.36499  0.41167  1.0000
  H   H7064     1.0  0.87113  0.39019  0.37000  1.0000
  H   H7065     1.0  0.98597  0.33022  0.42215  1.0000
  C   C4140     1.0  0.91610  0.38748  0.32282  1.0000
  C   C4141     1.0  0.91168  0.37949  0.31262  1.0000
  C   C4142     1.0  0.90898  0.36294  0.31881  1.0000
  C   C4143     1.0  0.91056  0.35432  0.33526  1.0000
  C   C4144     1.0  0.91502  0.36232  0.34546  1.0000
  C   C4145     1.0  0.91778  0.37886  0.33924  1.0000
  H   H7066     1.0  0.91059  0.38594  0.29986  1.0000
  H   H7067     1.0  0.90564  0.35679  0.31082  1.0000
  H   H7068     1.0  0.91638  0.35580  0.35807  1.0000
  H   H7069     1.0  0.92107  0.38506  0.34721  1.0000
  C   C4146     1.0  0.81767  0.36858  0.39044  1.0000
  C   C4147     1.0  0.81707  0.37067  0.40650  1.0000
  C   C4148     1.0  0.82973  0.36085  0.41538  1.0000
  C   C4149     1.0  0.84349  0.34938  0.40802  1.0000
  C   C4150     1.0  0.84411  0.34726  0.39196  1.0000
  C   C4151     1.0  0.83105  0.35662  0.38332  1.0000
  H   H7070     1.0  0.80668  0.37969  0.41222  1.0000
  H   H7071     1.0  0.82893  0.36229  0.42791  1.0000
  H   H7072     1.0  0.85460  0.33845  0.38614  1.0000
  H   H7073     1.0  0.83154  0.35484  0.37096  1.0000
  C   C4152     1.0  0.82110  0.45677  0.34584  1.0000
  C   C4153     1.0  0.81275  0.45068  0.33720  1.0000
  C   C4154     1.0  0.82056  0.44814  0.32084  1.0000
  C   C4155     1.0  0.83696  0.45118  0.31321  1.0000
  C   C4156     1.0  0.84541  0.45716  0.32189  1.0000
  C   C4157     1.0  0.83739  0.46015  0.33811  1.0000
  H   H7074     1.0  0.80013  0.44819  0.34301  1.0000
  H   H7075     1.0  0.81394  0.44358  0.31415  1.0000
  H   H7076     1.0  0.80443  0.00594  0.35654  1.0000
  H   H7077     1.0  0.96358  0.41970  0.31474  1.0000
  H   H7078     1.0  0.97600  0.30699  0.41772  1.0000
  H   H7079     1.0  0.80935  0.40970  0.47244  1.0000
  C   C4158     1.0  0.76795  0.10860  0.43429  1.0000
  H   H7080     1.0  0.97451  0.00949  0.35631  1.0000
  C   C4159     1.0  0.80646  0.45528  0.44519  1.0000
  C   C4160     1.0  0.80412  0.44251  0.43887  1.0000
  C   C4161     1.0  0.80493  0.42613  0.44877  1.0000
  H   H7081     1.0  0.86829  0.36882  0.34693  1.0000
  H   H7082     1.0  0.97417  0.37776  0.32022  1.0000
  H   H7083     1.0  0.99282  0.46278  0.26974  1.0000
  H   H7084     1.0  0.80187  0.44531  0.42629  1.0000
  H   H7085     1.0  0.95013  0.33233  0.37505  1.0000
  N   N288      1.0  0.95766  0.24859  0.41827  1.0000
  C   C4162     1.0  0.97682  0.07974  0.31646  1.0000
  H   H7086     1.0  0.97096  0.10393  0.32306  1.0000
  H   H7087     1.0  0.96390  0.08076  0.31550  1.0000
  C   C4163     1.0  0.81472  0.00735  0.45910  1.0000
  C   C4164     1.0  0.79217  0.00570  0.42573  1.0000
  H   H7088     1.0  0.87923  0.32408  0.47441  1.0000
  H   H7089     1.0  0.84985  0.25189  0.43119  1.0000
  H   H7090     1.0  0.78864  0.01920  0.42500  1.0000
  H   H7091     1.0  0.95145  0.45741  0.30003  1.0000
  C   C4165     1.0  0.85119  0.06184  0.34652  1.0000
  C   C4166     1.0  0.85943  0.04911  0.35808  1.0000
  C   C4167     1.0  0.87639  0.04061  0.35293  1.0000
  C   C4168     1.0  0.88519  0.04485  0.33620  1.0000
  C   C4169     1.0  0.87698  0.05759  0.32465  1.0000
  C   C4170     1.0  0.86001  0.06603  0.32979  1.0000
  H   H7092     1.0  0.85273  0.04564  0.37093  1.0000
  H   H7093     1.0  0.88269  0.03075  0.36190  1.0000
  H   H7094     1.0  0.88353  0.06066  0.31164  1.0000
  H   H7095     1.0  0.85368  0.07580  0.32077  1.0000
  C   C4171     1.0  0.89241  0.22549  0.37968  1.0000
  C   C4172     1.0  0.88822  0.24312  0.37406  1.0000
  C   C4173     1.0  0.89233  0.25383  0.38185  1.0000
  C   C4174     1.0  0.90082  0.24689  0.39518  1.0000
  C   C4175     1.0  0.90552  0.22924  0.40043  1.0000
  C   C4176     1.0  0.90118  0.21856  0.39282  1.0000
  H   H7096     1.0  0.88148  0.24852  0.36385  1.0000
  H   H7097     1.0  0.88871  0.26743  0.37771  1.0000
  H   H7098     1.0  0.91243  0.22379  0.41048  1.0000
  H   H7099     1.0  0.90459  0.20499  0.39712  1.0000
  C   C4177     1.0  0.92152  0.12555  0.35388  1.0000
  C   C4178     1.0  0.91068  0.13733  0.34400  1.0000
  C   C4179     1.0  0.90894  0.13395  0.32922  1.0000
  C   C4180     1.0  0.91784  0.11869  0.32437  1.0000
  C   C4181     1.0  0.92916  0.10723  0.33390  1.0000
  C   C4182     1.0  0.93104  0.11068  0.34858  1.0000
  H   H7100     1.0  0.90366  0.14905  0.34769  1.0000
  H   H7101     1.0  0.90037  0.14301  0.32175  1.0000
  H   H7102     1.0  0.93642  0.09565  0.33006  1.0000
  H   H7103     1.0  0.93976  0.10169  0.35594  1.0000
  C   C4183     1.0  0.83487  0.13381  0.40771  1.0000
  C   C4184     1.0  0.84452  0.12170  0.41852  1.0000
  C   C4185     1.0  0.84013  0.10592  0.42597  1.0000
  C   C4186     1.0  0.82643  0.10200  0.42221  1.0000
  C   C4187     1.0  0.81708  0.11394  0.41106  1.0000
  C   C4188     1.0  0.82111  0.12990  0.40406  1.0000
  H   H7104     1.0  0.85521  0.12456  0.42129  1.0000
  H   H7105     1.0  0.84746  0.09664  0.43450  1.0000
  H   H7106     1.0  0.80649  0.11103  0.40811  1.0000
  H   H7107     1.0  0.81362  0.13922  0.39568  1.0000
  H   H7108     1.0  0.86845  0.00468  0.36749  1.0000
  H   H7109     1.0  0.83443  0.39017  0.35998  1.0000
  H   H7110     1.0  0.99881  0.16313  0.33903  1.0000
  C   C4189     1.0  0.90348  0.16803  0.44942  1.0000
  C   C4190     1.0  0.91242  0.17907  0.43675  1.0000
  C   C4191     1.0  0.92164  0.18845  0.44102  1.0000
  H   H7111     1.0  0.87570  0.48751  0.29316  1.0000
  H   H7112     1.0  0.76371  0.39985  0.45205  1.0000
  H   H7113     1.0  0.91215  0.18047  0.42370  1.0000
  H   H7114     1.0  0.92844  0.19706  0.43122  1.0000
  H   H7115     1.0  0.87039  0.15261  0.25535  1.0000
  H   H7116     1.0  0.88743  0.48025  0.31514  1.0000
  H   H7117     1.0  0.91224  0.05865  0.26429  1.0000
  C   C4192     1.0  0.98086  0.09290  0.32070  1.0000
  C   C4193     1.0  0.97691  0.37058  0.36827  1.0000
  H   H7118     1.0  0.77588  0.40869  0.47049  1.0000
  H   H7119     1.0  0.96927  0.46415  0.24820  1.0000
  C   C4194     1.0  0.83900  0.39079  0.34623  1.0000
  H   H7120     1.0  0.87668  0.42107  0.32605  1.0000
  H   H7121     1.0  0.88086  0.20574  0.42965  1.0000
  H   H7122     1.0  0.96927  0.15472  0.44912  1.0000
  H   H7123     1.0  0.87053  0.11024  0.26044  1.0000
  H   H7124     1.0  0.87611  0.99082  0.34485  1.0000
  S   S1238     1.0  0.99852  0.45253  0.32377  1.0000
  C   C4195     1.0  0.92109  0.47840  0.29323  1.0000
  H   H7125     1.0  0.99310  0.18892  0.45349  1.0000
  N   N289      1.0  0.87225  0.10713  0.36812  1.0000
  C   C4196     1.0  0.87933  0.11352  0.37934  1.0000
  C   C4197     1.0  0.86689  0.12206  0.35452  1.0000
  C   C4198     1.0  0.88659  0.09440  0.36016  1.0000
  C   C4199     1.0  0.85761  0.09905  0.37888  1.0000
  C   C4200     1.0  0.85391  0.13724  0.36077  1.0000
  C   C4201     1.0  0.88287  0.08722  0.34693  1.0000
  C   C4202     1.0  0.84386  0.09849  0.37000  1.0000
  H   H7126     1.0  0.88904  0.12100  0.37171  1.0000
  H   H7127     1.0  0.86914  0.12240  0.38625  1.0000
  H   H7128     1.0  0.86134  0.11857  0.34577  1.0000
  H   H7129     1.0  0.87826  0.12687  0.34635  1.0000
  H   H7130     1.0  0.89805  0.09997  0.35403  1.0000
  H   H7131     1.0  0.89072  0.08313  0.36986  1.0000
  H   H7132     1.0  0.86249  0.08588  0.38548  1.0000
  H   H7133     1.0  0.85050  0.10603  0.38902  1.0000
  H   H7134     1.0  0.84301  0.13335  0.37064  1.0000
  H   H7135     1.0  0.84866  0.14612  0.35006  1.0000
  H   H7136     1.0  0.89475  0.07866  0.34170  1.0000
  H   H7137     1.0  0.87915  0.09710  0.33605  1.0000
  H   H7138     1.0  0.87323  0.07934  0.35278  1.0000
  H   H7139     1.0  0.83867  0.08702  0.37656  1.0000
  H   H7140     1.0  0.84838  0.09779  0.35659  1.0000
  H   H7141     1.0  0.83270  0.10924  0.37152  1.0000
  H   H7142     1.0  0.80579  0.46790  0.43754  1.0000
  H   H7143     1.0  0.81272  0.03080  0.33701  1.0000
  C   C4203     1.0  0.76194  0.40892  0.47469  1.0000
  H   H7144     1.0  0.87588  0.36777  0.37241  1.0000
  C   C4204     1.0  0.81456  0.99442  0.35497  1.0000
  H   H7145     1.0  0.98453  0.24172  0.44037  1.0000
  H   H7146     1.0  0.89944  0.14270  0.24561  1.0000
  H   H7147     1.0  0.84890  0.01417  0.38053  1.0000
  H   H7148     1.0  0.84325  0.02302  0.47013  1.0000
  C   C4205     1.0  0.92368  0.48403  0.30635  1.0000
  C   C4206     1.0  0.84922  0.23060  0.45433  1.0000
  H   H7149     1.0  0.94151  0.27190  0.40740  1.0000
  C   C4207     1.0  0.94263  0.24216  0.43050  1.0000
  C   C4208     1.0  0.87332  0.14467  0.24592  1.0000
  C   C4209     1.0  0.75801  0.39713  0.46576  1.0000
  C   C4210     1.0  0.83703  0.03356  0.44571  1.0000
  H   H7150     1.0  0.83079  0.03135  0.43672  1.0000
  C   C4211     1.0  0.84324  0.24887  0.44454  1.0000
  C   C4212     1.0  0.86110  0.22427  0.41845  1.0000
  H   H7151     1.0  0.89635  0.13094  0.27415  1.0000
  H   H7152     1.0  0.83079  0.04603  0.44901  1.0000
  H   H7153     1.0  0.97907  0.33959  0.47590  1.0000
  H   H7154     1.0  0.99688  0.13436  0.34991  1.0000
  H   H7155     1.0  0.89477  0.34309  0.44939  1.0000
  H   H7156     1.0  0.85411  0.37901  0.37488  1.0000
  C   C4213     1.0  0.85611  0.00252  0.37595  1.0000
  H   H7157     1.0  0.98503  0.41898  0.29189  1.0000
  H   H7158     1.0  0.82957  0.04225  0.33286  1.0000
  N   N290      1.0  0.86715  0.22135  0.44781  1.0000
  S   S1239     1.0  0.94430  0.06900  0.24759  1.0000
  H   H7159     1.0  0.77594  0.11708  0.42501  1.0000
  C   C4214     1.0  0.85492  0.41190  0.34465  1.0000
  H   H7160     1.0  0.98779  0.37438  0.35835  1.0000
  H   H7161     1.0  0.86368  0.13686  0.24921  1.0000
  H   H7162     1.0  0.97024  0.12980  0.33409  1.0000
  H   H7163     1.0  0.85032  0.03450  0.43887  1.0000
  Fe  Fe621     1.0  0.90627  0.45891  0.27037  1.0000
  H   H7164     1.0  0.86926  0.43018  0.34420  1.0000
  H   H7165     1.0  0.97807  0.21890  0.43553  1.0000
  C   C4215     1.0  0.99282  0.05763  0.26046  1.0000
  H   H7166     1.0  0.94668  0.01794  0.36446  1.0000
  H   H7167     1.0  0.99367  0.37592  0.43636  1.0000
  H   H7168     1.0  0.84843  0.38115  0.31577  1.0000
  H   H7169     1.0  0.80696  0.03988  0.46522  1.0000
  H   H7170     1.0  0.88566  0.48791  0.33331  1.0000
  N   N291      1.0  0.99338  0.37790  0.46142  1.0000
  H   H7171     1.0  0.84572  0.42215  0.33823  1.0000
  H   H7172     1.0  0.78934  0.00254  0.46197  1.0000
  H   H7173     1.0  0.93994  0.10934  0.24933  1.0000
  H   H7174     1.0  0.98914  0.46187  0.29138  1.0000
  C   C4216     1.0  0.96115  0.36165  0.34254  1.0000
  H   H7175     1.0  0.98173  0.34323  0.37579  1.0000
  C   C4217     1.0  0.87760  0.11700  0.46202  1.0000
  N   N292      1.0  0.84008  0.00778  0.35203  1.0000
  H   H7176     1.0  0.99304  0.34820  0.32728  1.0000
  H   H7177     1.0  0.94391  0.25462  0.39813  1.0000
  H   H7178     1.0  0.88946  0.11412  0.46688  1.0000
  C   C4218     1.0  0.85527  0.01303  0.33907  1.0000
  C   C4219     1.0  0.88433  0.10588  0.25521  1.0000
  H   H7179     1.0  0.97659  0.32775  0.34180  1.0000
  C   C4220     1.0  0.97808  0.35277  0.46834  1.0000
  H   H7180     1.0  0.92692  0.02027  0.35881  1.0000
  C   C4221     1.0  0.98428  0.13348  0.35849  1.0000
  H   H7181     1.0  0.93627  0.16819  0.36069  1.0000
  H   H7182     1.0  0.88678  0.20149  0.45796  1.0000
  S   S1240     1.0  0.88733  0.45572  0.25765  1.0000
  H   H7183     1.0  0.98332  0.23801  0.40561  1.0000
  H   H7184     1.0  0.85139  0.02060  0.32713  1.0000
  H   H7185     1.0  0.92804  0.18455  0.34465  1.0000
  C   C4222     1.0  0.75931  0.43686  0.47951  1.0000
  S   S1241     1.0  0.93223  0.19948  0.46343  1.0000
  H   H7186     1.0  0.91698  0.10792  0.23754  1.0000
  C   C4223     1.0  0.89192  0.13433  0.24412  1.0000
  C   C4224     1.0  0.87883  0.48877  0.32337  1.0000
  H   H7187     1.0  0.97743  0.26146  0.41684  1.0000
  H   H7188     1.0  0.94748  0.02497  0.33274  1.0000
  N   N293      1.0  0.75158  0.42690  0.47226  1.0000
  H   H7189     1.0  0.97037  0.25871  0.44964  1.0000
  H   H7190     1.0  0.81314  0.39723  0.34197  1.0000
  H   H7191     1.0  0.82780  0.40595  0.32413  1.0000
  N   N294      1.0  0.96715  0.15514  0.33745  1.0000
  C   C4225     1.0  0.97033  0.14967  0.35510  1.0000
  C   C4226     1.0  0.95440  0.17186  0.33599  1.0000
  N   N295      1.0  0.98352  0.17099  0.47573  1.0000
  C   C4227     1.0  0.96039  0.14171  0.33421  1.0000
  H   H7192     1.0  0.99408  0.43069  0.30055  1.0000
  C   C4228     1.0  0.93624  0.17163  0.34705  1.0000
  C   C4229     1.0  0.87353  0.12098  0.28468  1.0000
  C   C4230     1.0  0.95421  0.14601  0.31757  1.0000
  H   H7193     1.0  0.97362  0.15999  0.35869  1.0000
  H   H7194     1.0  0.95849  0.14704  0.36444  1.0000
  H   H7195     1.0  0.95309  0.17727  0.32269  1.0000
  H   H7196     1.0  0.95897  0.18138  0.33955  1.0000
  H   H7197     1.0  0.93879  0.28956  0.44972  1.0000
  H   H7198     1.0  0.81393  0.43216  0.48339  1.0000
  C   C4231     1.0  0.92801  0.06612  0.23983  1.0000
  H   H7199     1.0  0.94976  0.13825  0.34469  1.0000
  C   C4232     1.0  0.87205  0.01138  0.24887  1.0000
  C   C4233     1.0  0.96457  0.26792  0.38868  1.0000
  C   C4234     1.0  0.91356  0.10879  0.25101  1.0000
  H   H7200     1.0  0.91266  0.17474  0.48364  1.0000
  H   H7201     1.0  0.92994  0.16309  0.34413  1.0000
  Fe  Fe622     1.0  0.76112  0.43232  0.40128  1.0000
  H   H7202     1.0  0.86972  0.10859  0.28827  1.0000
  H   H7203     1.0  0.87315  0.12432  0.29667  1.0000
  C   C4235     1.0  0.86221  0.39740  0.32127  1.0000
  H   H7204     1.0  0.94292  0.15668  0.31721  1.0000
  H   H7205     1.0  0.83471  0.09487  0.47687  1.0000
  H   H7206     1.0  0.98605  0.20880  0.41812  1.0000
  S   S1242     1.0  0.97090  0.36544  0.41990  1.0000
  H   H7207     1.0  0.87694  0.24267  0.43017  1.0000
  H   H7208     1.0  0.83510  0.16901  0.47212  1.0000
  H   H7209     1.0  0.96636  0.43192  0.27350  1.0000
  C   C4236     1.0  0.82778  0.02339  0.35695  1.0000
  C   C4237     1.0  0.87175  0.41821  0.33989  1.0000
  H   H7210     1.0  0.94337  0.43351  0.31983  1.0000
  H   H7211     1.0  0.85801  0.45961  0.31608  1.0000
  H   H7212     1.0  0.88226  0.38270  0.34220  1.0000
  H   H7213     1.0  0.81046  0.04675  0.34817  1.0000
  H   H7214     1.0  0.88889  0.05589  0.25278  1.0000
  C   C4238     1.0  0.83232  0.15577  0.44394  1.0000
  H   H7215     1.0  0.98624  0.18167  0.32757  1.0000
  H   H7216     1.0  0.95414  0.45281  0.27363  1.0000
  C   C4239     1.0  0.86314  0.12789  0.47292  1.0000
  N   N296      1.0  0.97574  0.44620  0.28559  1.0000
  C   C4240     1.0  0.95097  0.26073  0.40346  1.0000
  H   H7217     1.0  0.86796  0.23465  0.41222  1.0000
  H   H7218     1.0  0.97024  0.99777  0.29569  1.0000
  H   H7219     1.0  0.83976  0.22318  0.45493  1.0000
  N   N297      1.0  0.85859  0.38858  0.43187  1.0000
  C   C4241     1.0  0.84961  0.39146  0.41769  1.0000
  C   C4242     1.0  0.85496  0.37260  0.44435  1.0000
  C   C4243     1.0  0.87767  0.38647  0.42546  1.0000
  C   C4244     1.0  0.85208  0.40369  0.43993  1.0000
  C   C4245     1.0  0.85240  0.40692  0.40321  1.0000
  C   C4246     1.0  0.83686  0.37398  0.45574  1.0000
  C   C4247     1.0  0.88607  0.37360  0.41401  1.0000
  C   C4248     1.0  0.85945  0.40267  0.45523  1.0000
  H   H7220     1.0  0.85338  0.38014  0.41202  1.0000
  H   H7221     1.0  0.83552  0.39316  0.42249  1.0000
  H   H7222     1.0  0.86426  0.36746  0.45276  1.0000
  H   H7223     1.0  0.85675  0.36232  0.43771  1.0000
  H   H7224     1.0  0.88114  0.39876  0.41844  1.0000
  H   H7225     1.0  0.88430  0.38241  0.43621  1.0000
  H   H7226     1.0  0.85505  0.41532  0.43067  1.0000
  H   H7227     1.0  0.83789  0.40672  0.44354  1.0000
  H   H7228     1.0  0.84521  0.41893  0.40716  1.0000
  H   H7229     1.0  0.86606  0.40735  0.39809  1.0000
  H   H7230     1.0  0.84727  0.40624  0.39262  1.0000
  H   H7231     1.0  0.83536  0.36120  0.46329  1.0000
  H   H7232     1.0  0.83468  0.38213  0.46480  1.0000
  H   H7233     1.0  0.82672  0.37872  0.44835  1.0000
  H   H7234     1.0  0.88245  0.36123  0.41971  1.0000
  H   H7235     1.0  0.90023  0.37138  0.41189  1.0000
  H   H7236     1.0  0.88273  0.37839  0.40144  1.0000
  H   H7237     1.0  0.87094  0.40829  0.45114  1.0000
  H   H7238     1.0  0.86295  0.38965  0.46259  1.0000
  H   H7239     1.0  0.84956  0.40971  0.46420  1.0000
  C   C4249     1.0  0.80851  0.42242  0.46482  1.0000
  H   H7240     1.0  0.95954  0.00302  0.25609  1.0000
  H   H7241     1.0  0.80931  0.01812  0.44964  1.0000
  C   C4250     1.0  0.91340  0.06122  0.25080  1.0000
  C   C4251     1.0  0.96753  0.44514  0.27207  1.0000
  H   H7242     1.0  0.98742  0.09997  0.26309  1.0000
  C   C4252     1.0  0.97085  0.23420  0.41164  1.0000
  C   C4253     1.0  0.86759  0.21279  0.43409  1.0000
  C   C4254     1.0  0.92697  0.11710  0.25329  1.0000
  S   S1243     1.0  0.75493  0.07554  0.40204  1.0000
  H   H7243     1.0  0.87308  0.21336  0.47273  1.0000
  C   C4255     1.0  0.75347  0.43405  0.45353  1.0000
  H   H7244     1.0  0.86046  0.02156  0.34337  1.0000
  H   H7245     1.0  0.97813  0.35230  0.45530  1.0000
  H   H7246     1.0  0.76615  0.00252  0.43424  1.0000
  C   C4256     1.0  0.97368  0.33278  0.41883  1.0000
  H   H7247     1.0  0.97296  0.01779  0.31155  1.0000
  H   H7248     1.0  0.87573  0.39882  0.31720  1.0000
  C   C4257     1.0  0.84032  0.11972  0.46499  1.0000
  N   N298      1.0  0.89500  0.11741  0.25610  1.0000
  H   H7249     1.0  0.83974  0.37788  0.34465  1.0000
  H   H7250     1.0  0.75173  0.44998  0.47919  1.0000
  C   C4258     1.0  0.80106  0.99641  0.46708  1.0000
  C   C4259     1.0  0.96445  0.37907  0.33205  1.0000
  H   H7251     1.0  0.96265  0.24077  0.45113  1.0000
  H   H7252     1.0  0.88193  0.40908  0.34589  1.0000
  H   H7253     1.0  0.82990  0.00576  0.33167  1.0000
  H   H7254     1.0  0.95839  0.35569  0.33354  1.0000
  H   H7255     1.0  0.95547  0.31494  0.36508  1.0000
  H   H7256     1.0  0.76406  0.38383  0.47080  1.0000
  C   C4260     1.0  0.98268  0.46201  0.28138  1.0000
  C   C4261     1.0  0.96846  0.16470  0.45579  1.0000
  H   H7257     1.0  0.89022  0.10611  0.40167  1.0000
  H   H7258     1.0  0.85764  0.14055  0.44074  1.0000
  H   H7259     1.0  0.97295  0.38180  0.44818  1.0000
  H   H7260     1.0  0.85485  0.40927  0.31449  1.0000
  H   H7261     1.0  0.99489  0.36393  0.33640  1.0000
  S   S1244     1.0  0.81184  0.46784  0.46947  1.0000
  C   C4262     1.0  0.92600  0.30019  0.47248  1.0000
  N   N299      1.0  0.82100  0.01382  0.47081  1.0000
  H   H7262     1.0  0.96567  0.36023  0.47386  1.0000
  N   N300      1.0  0.97515  0.34990  0.35107  1.0000
  H   H7263     1.0  0.90027  0.09269  0.38720  1.0000
  H   H7264     1.0  0.97460  0.25789  0.38332  1.0000
  H   H7265     1.0  0.82000  0.14483  0.47834  1.0000
  C   C4263     1.0  0.98552  0.40240  0.43660  1.0000
  C   C4264     1.0  0.81096  0.43516  0.47108  1.0000
  H   H7266     1.0  0.86974  0.24677  0.46187  1.0000
  H   H7267     1.0  0.84783  0.23164  0.46756  1.0000
  H   H7268     1.0  0.81719  0.01997  0.36767  1.0000
  H   H7269     1.0  0.84710  0.22940  0.42152  1.0000
  H   H7270     1.0  0.96824  0.17671  0.44616  1.0000
  H   H7271     1.0  0.98542  0.99968  0.26406  1.0000
  H   H7272     1.0  0.97850  0.41122  0.44507  1.0000
  N   N301      1.0  0.85627  0.39539  0.34014  1.0000
  H   H7273     1.0  0.92565  0.11745  0.26664  1.0000
  C   C4265     1.0  0.75180  0.11004  0.42785  1.0000
  H   H7274     1.0  0.96520  0.38077  0.36759  1.0000
  H   H7275     1.0  0.94893  0.36399  0.35198  1.0000
  H   H7276     1.0  0.98960  0.11357  0.24283  1.0000
  C   C4266     1.0  0.80937  0.99762  0.42165  1.0000
  C   C4267     1.0  0.94878  0.01162  0.34003  1.0000
  H   H7277     1.0  0.87810  0.02249  0.24435  1.0000
  C   C4268     1.0  0.96238  0.44654  0.30181  1.0000
  H   H7278     1.0  0.88795  0.09306  0.26324  1.0000
  H   H7279     1.0  0.78321  0.02613  0.47549  1.0000
  C   C4269     1.0  0.86168  0.38259  0.31409  1.0000
  C   C4270     1.0  0.86899  0.38134  0.34846  1.0000
  H   H7280     1.0  0.85919  0.99279  0.38723  1.0000
  C   C4271     1.0  0.86721  0.37969  0.36751  1.0000
  H   H7281     1.0  0.98686  0.99759  0.31446  1.0000
  S   S1245     1.0  0.77845  0.44537  0.40704  1.0000
  H   H7282     1.0  0.87920  0.09112  0.40054  1.0000
  C   C4272     1.0  0.95441  0.43080  0.30929  1.0000
  C   C4273     1.0  0.99022  0.10012  0.24949  1.0000
  C   C4274     1.0  0.88536  0.10357  0.23740  1.0000
  C   C4275     1.0  0.88207  0.24144  0.45411  1.0000
  H   H7283     1.0  0.89282  0.22524  0.43644  1.0000
  H   H7284     1.0  0.99382  0.07382  0.27572  1.0000
  H   H7285     1.0  0.95247  0.38696  0.32820  1.0000
  C   C4276     1.0  0.80969  0.45166  0.46136  1.0000
  H   H7286     1.0  0.85955  0.20319  0.43885  1.0000
  H   H7287     1.0  0.95017  0.13486  0.31653  1.0000
  H   H7288     1.0  0.94902  0.33954  0.46107  1.0000
  H   H7289     1.0  0.82752  0.12423  0.46168  1.0000
  H   H7290     1.0  0.86710  0.38525  0.30029  1.0000
  H   H7291     1.0  0.96176  0.48146  0.29167  1.0000
  C   C4277     1.0  0.90023  0.05960  0.24428  1.0000
  H   H7292     1.0  0.95728  0.27066  0.42724  1.0000
  H   H7293     1.0  0.79706  0.99398  0.48094  1.0000
  C   C4278     1.0  0.90954  0.31630  0.45099  1.0000
  C   C4279     1.0  0.84867  0.14674  0.45080  1.0000
  C   C4280     1.0  0.92165  0.18700  0.45797  1.0000
  H   H7294     1.0  0.83420  0.03054  0.36170  1.0000
  C   C4281     1.0  0.90383  0.16637  0.46629  1.0000
  H   H7295     1.0  0.96049  0.47919  0.27135  1.0000
  H   H7296     1.0  0.76489  0.11233  0.44656  1.0000
  H   H7297     1.0  0.85902  0.01493  0.24627  1.0000
  H   H7298     1.0  0.84738  0.00826  0.45712  1.0000
  H   H7299     1.0  0.95617  0.16558  0.46518  1.0000
  H   H7300     1.0  0.82032  0.41497  0.34275  1.0000
  H   H7301     1.0  0.98841  0.42876  0.35416  1.0000
  H   H7302     1.0  0.95183  0.01138  0.23755  1.0000
  H   H7303     1.0  0.95256  0.29783  0.45729  1.0000
  H   H7304     1.0  0.84409  0.25828  0.45113  1.0000
  H   H7305     1.0  0.94554  0.33514  0.35453  1.0000
  C   C4282     1.0  0.81981  0.03631  0.34275  1.0000
  N   N302      1.0  0.84630  0.13411  0.46737  1.0000
  H   H7306     1.0  0.85482  0.15664  0.45154  1.0000
  H   H7307     1.0  0.97056  0.27623  0.39238  1.0000
  C   C4283     1.0  0.97111  0.24906  0.44260  1.0000
  H   H7308     1.0  0.98536  0.14648  0.47037  1.0000
  H   H7309     1.0  0.92212  0.26540  0.43016  1.0000
  C   C4284     1.0  0.97789  0.01061  0.34249  1.0000
  C   C4285     1.0  0.83599  0.15852  0.48335  1.0000
  H   H7310     1.0  0.94937  0.42753  0.29999  1.0000
  H   H7311     1.0  0.75536  0.08275  0.45338  1.0000
  H   H7312     1.0  0.87469  0.10470  0.46273  1.0000
  C   C4286     1.0  0.96566  0.25809  0.42575  1.0000
  H   H7313     1.0  0.96397  0.21074  0.42825  1.0000
  H   H7314     1.0  0.96048  0.35334  0.37581  1.0000
  C   C4287     1.0  0.83852  0.10486  0.48043  1.0000
  H   H7315     1.0  0.98640  0.40136  0.47042  1.0000
  C   C4288     1.0  0.91277  0.17592  0.47057  1.0000
  C   C4289     1.0  0.97478  0.21731  0.42434  1.0000
  C   C4290     1.0  0.92880  0.25536  0.43920  1.0000
  C   C4291     1.0  0.83309  0.14212  0.48078  1.0000
  H   H7316     1.0  0.96687  0.23095  0.40152  1.0000
  H   H7317     1.0  0.87045  0.00788  0.26281  1.0000
  H   H7318     1.0  0.91985  0.46551  0.29522  1.0000
  C   C4292     1.0  0.97630  0.45134  0.25348  1.0000
  C   C4293     1.0  0.88327  0.99606  0.24149  1.0000
  H   H7319     1.0  0.86723  0.18608  0.48181  1.0000
  H   H7320     1.0  0.86639  0.99011  0.32841  1.0000
  H   H7321     1.0  0.91595  0.09550  0.25831  1.0000
  H   H7322     1.0  0.86960  0.37048  0.31962  1.0000
  H   H7323     1.0  0.99807  0.20024  0.47499  1.0000
  C   C4294     1.0  0.87027  0.99851  0.33408  1.0000
  H   H7324     1.0  0.93965  0.32419  0.44587  1.0000
  C   C4295     1.0  0.90403  0.32529  0.47820  1.0000
  H   H7325     1.0  0.84895  0.11447  0.45414  1.0000
  H   H7326     1.0  0.94660  0.23169  0.44087  1.0000
  H   H7327     1.0  0.92428  0.47550  0.31848  1.0000
  H   H7328     1.0  0.88855  0.25205  0.44719  1.0000
  H   H7329     1.0  0.89694  0.15786  0.47611  1.0000
  H   H7330     1.0  0.82943  0.25103  0.44457  1.0000
  H   H7331     1.0  0.91963  0.31138  0.44072  1.0000
  C   C4296     1.0  0.96931  0.47887  0.27924  1.0000
  H   H7332     1.0  0.87711  0.09478  0.23842  1.0000
  C   C4297     1.0  0.98941  0.06532  0.31366  1.0000
  C   C4298     1.0  0.94001  0.01218  0.35850  1.0000
  H   H7333     1.0  0.93405  0.26112  0.44647  1.0000
  H   H7334     1.0  0.88063  0.12368  0.44867  1.0000
  H   H7335     1.0  0.98066  0.36945  0.38027  1.0000
  H   H7336     1.0  0.93621  0.23653  0.42403  1.0000
  H   H7337     1.0  0.95031  0.00519  0.30878  1.0000
  C   C4299     1.0  0.93989  0.33134  0.46849  1.0000
  C   C4300     1.0  0.99370  0.16858  0.32739  1.0000
  H   H7338     1.0  0.77602  0.09557  0.43530  1.0000
  H   H7339     1.0  0.83574  0.16501  0.43202  1.0000
  H   H7340     1.0  0.88051  0.00404  0.32444  1.0000
  H   H7341     1.0  0.89043  0.23257  0.46248  1.0000
  H   H7342     1.0  0.88721  0.33049  0.44038  1.0000
  H   H7343     1.0  0.94061  0.00593  0.33566  1.0000
  H   H7344     1.0  0.98122  0.21482  0.46613  1.0000
  H   H7345     1.0  0.91894  0.24890  0.44834  1.0000
  H   H7346     1.0  0.82249  0.16302  0.45267  1.0000
  C   C4301     1.0  0.99247  0.35098  0.33963  1.0000
  H   H7347     1.0  0.97519  0.02450  0.33728  1.0000
  H   H7348     1.0  0.75605  0.10356  0.41703  1.0000
  H   H7349     1.0  0.93834  0.99946  0.36600  1.0000
  H   H7350     1.0  0.86829  0.13869  0.47314  1.0000
  H   H7351     1.0  0.94753  0.31923  0.47435  1.0000
  H   H7352     1.0  0.90147  0.30667  0.45579  1.0000
  N   N303      1.0  0.91739  0.31773  0.46453  1.0000
  H   H7353     1.0  0.98062  0.16297  0.31173  1.0000
  H   H7354     1.0  0.99221  0.14486  0.32334  1.0000
  H   H7355     1.0  0.98040  0.12215  0.35773  1.0000
  C   C4302     1.0  0.89899  0.33294  0.44222  1.0000
  H   H7356     1.0  0.82671  0.14686  0.44069  1.0000
  C   C4303     1.0  0.87989  0.23266  0.44124  1.0000
  C   C4304     1.0  0.77946  0.99627  0.43096  1.0000
  C   C4305     1.0  0.89194  0.11963  0.27396  1.0000
  N   N304      1.0  0.96724  0.00226  0.33671  1.0000
  H   H7357     1.0  0.95823  0.27588  0.37830  1.0000
  H   H7358     1.0  0.95796  0.39080  0.47025  1.0000
  H   H7359     1.0  0.86400  0.13083  0.27848  1.0000
  H   H7360     1.0  0.97051  0.19397  0.46105  1.0000
  H   H7361     1.0  0.90050  0.33934  0.47443  1.0000
  H   H7362     1.0  0.76726  0.43301  0.44726  1.0000
  C   C4306     1.0  0.98464  0.20197  0.47397  1.0000
  H   H7363     1.0  0.96453  0.14871  0.30639  1.0000
  C   C4307     1.0  0.94181  0.29122  0.46108  1.0000
  H   H7364     1.0  0.94648  0.27834  0.46832  1.0000
  C   C4308     1.0  0.98978  0.43080  0.28910  1.0000
  C   C4309     1.0  0.99760  0.09187  0.32181  1.0000
  C   C4310     1.0  0.96339  0.99736  0.30903  1.0000
  C   C4311     1.0  0.97327  0.00425  0.31782  1.0000
  C   C4312     1.0  0.93008  0.32893  0.45652  1.0000
  H   H7365     1.0  0.99000  0.45136  0.25118  1.0000
  H   H7366     1.0  0.90654  0.33785  0.42965  1.0000
  H   H7367     1.0  0.99504  0.35587  0.48196  1.0000
  C   C4313     1.0  0.97304  0.33196  0.35398  1.0000
  H   H7368     1.0  0.77216  0.43839  0.47162  1.0000
  C   C4314     1.0  0.87323  0.20778  0.46214  1.0000
  C   C4315     1.0  0.99745  0.00405  0.33776  1.0000
  C   C4316     1.0  0.98395  0.38834  0.47444  1.0000
  S   S1246     1.0  0.91585  0.48300  0.26148  1.0000
  H   H7369     1.0  0.96769  0.44844  0.31180  1.0000
  H   H7370     1.0  0.97859  0.40534  0.42623  1.0000
  H   H7371     1.0  0.89504  0.99234  0.24656  1.0000
  C   C4317     1.0  0.99389  0.99173  0.23966  1.0000
  C   C4318     1.0  0.98404  0.15999  0.46406  1.0000
  C   C4319     1.0  0.83769  0.01908  0.46155  1.0000
  H   H7372     1.0  0.98179  0.32296  0.36195  1.0000
  H   H7373     1.0  0.98396  0.48890  0.32934  1.0000
  C   C4320     1.0  0.80845  0.02913  0.47619  1.0000
  H   H7374     1.0  0.92669  0.12998  0.24526  1.0000
  C   C4321     1.0  0.99357  0.35933  0.46870  1.0000
  C   C4322     1.0  0.98286  0.18879  0.46525  1.0000
  C   C4323     1.0  0.98614  0.38373  0.44571  1.0000
  C   C4324     1.0  0.98340  0.15731  0.32450  1.0000
  C   C4325     1.0  0.95493  0.32872  0.36266  1.0000
  C   C4326     1.0  0.96449  0.38960  0.48043  1.0000
  H   H7375     1.0  0.99851  0.40480  0.43054  1.0000
  H   H7376     1.0  0.86555  0.18476  0.46172  1.0000
  H   H7377     1.0  0.99567  0.16030  0.45365  1.0000
  H   H7378     1.0  0.97973  0.09639  0.24654  1.0000
  C   C4327     1.0  0.86296  0.19372  0.47009  1.0000
  H   H7379     1.0  0.84902  0.19883  0.47367  1.0000
  H   H7380     1.0  0.93114  0.33784  0.47843  1.0000
  H   H7381     1.0  0.96201  0.03063  0.25182  1.0000
  C   C4328     1.0  0.96815  0.02565  0.24018  1.0000
  H   H7382     1.0  0.84723  0.48502  0.47544  1.0000
  H   H7383     1.0  0.75028  0.07785  0.43642  1.0000
  H   H7384     1.0  0.86702  0.48398  0.32968  1.0000
  H   H7385     1.0  0.98199  0.02502  0.23821  1.0000
  H   H7386     1.0  0.83399  0.99346  0.37767  1.0000
  H   H7387     1.0  0.91682  0.29163  0.47702  1.0000
  Fe  Fe623     1.0  0.81022  0.09084  0.56022  1.0000
  S   S1247     1.0  0.82624  0.09043  0.53403  1.0000
  S   S1248     1.0  0.78318  0.08611  0.56785  1.0000
  Fe  Fe624     1.0  0.84184  0.08661  0.57462  1.0000
  S   S1249     1.0  0.85995  0.08534  0.54975  1.0000
  S   S1250     1.0  0.85041  0.08408  0.59860  1.0000
  Fe  Fe625     1.0  0.84029  0.10708  0.53950  1.0000
  S   S1251     1.0  0.85106  0.12739  0.51880  1.0000
  Fe  Fe626     1.0  0.84437  0.06891  0.54669  1.0000
  S   S1252     1.0  0.85665  0.04407  0.53877  1.0000
  S   S1253     1.0  0.82275  0.10945  0.56473  1.0000
  S   S1254     1.0  0.82788  0.06828  0.57252  1.0000
  Fe  Fe627     1.0  0.93740  0.08356  0.65203  1.0000
  S   S1255     1.0  0.95345  0.06598  0.63510  1.0000
  S   S1256     1.0  0.93185  0.07047  0.67957  1.0000
  Fe  Fe628     1.0  0.93640  0.11419  0.62271  1.0000
  S   S1257     1.0  0.95242  0.09897  0.60377  1.0000
  S   S1258     1.0  0.92626  0.14225  0.61442  1.0000
  Fe  Fe629     1.0  0.93606  0.08014  0.61730  1.0000
  S   S1259     1.0  0.92907  0.06737  0.60054  1.0000
  Fe  Fe630     1.0  0.96823  0.08635  0.62320  1.0000
  H   H7388     1.0  0.81537  0.99263  0.59544  1.0000
  S   S1260     1.0  0.91860  0.09622  0.63514  1.0000
  S   S1261     1.0  0.95357  0.10303  0.64130  1.0000
  Fe  Fe631     1.0  0.89520  0.19584  0.52284  1.0000
  S   S1262     1.0  0.92000  0.17905  0.51312  1.0000
  S   S1263     1.0  0.87110  0.18662  0.53722  1.0000
  Fe  Fe632     1.0  0.91057  0.22715  0.51213  1.0000
  S   S1264     1.0  0.93666  0.21282  0.50183  1.0000
  S   S1265     1.0  0.90487  0.25561  0.50816  1.0000
  H   H7389     1.0  0.99366  0.99650  0.60085  1.0000
  Fe  Fe633     1.0  0.93177  0.19251  0.52509  1.0000
  S   S1266     1.0  0.95316  0.17692  0.53820  1.0000
  S   S1267     1.0  0.89674  0.21646  0.49945  1.0000
  S   S1268     1.0  0.90676  0.20795  0.53648  1.0000
  H   H7390     1.0  0.79912  0.04919  0.58605  1.0000
  N   N305      1.0  0.89410  0.01587  0.59756  1.0000
  S   S1269     1.0  0.80328  0.01129  0.52499  1.0000
  C   C4329     1.0  0.80603  0.99781  0.58709  1.0000
  C   C4330     1.0  0.92411  0.10919  0.70276  1.0000
  H   H7391     1.0  0.97219  0.14263  0.49638  1.0000
  H   H7392     1.0  0.96512  0.03958  0.61401  1.0000
  H   H7393     1.0  0.90281  0.42237  0.54415  1.0000
  S   S1270     1.0  0.92389  0.46446  0.71426  1.0000
  Fe  Fe634     1.0  0.90191  0.44669  0.63633  1.0000
  S   S1271     1.0  0.92729  0.44882  0.61878  1.0000
  S   S1272     1.0  0.89834  0.43685  0.66459  1.0000
  Fe  Fe635     1.0  0.88253  0.45953  0.60751  1.0000
  S   S1273     1.0  0.90633  0.46311  0.58798  1.0000
  S   S1274     1.0  0.85646  0.46571  0.60119  1.0000
  Fe  Fe636     1.0  0.91837  0.43783  0.60201  1.0000
  S   S1275     1.0  0.93633  0.41959  0.58639  1.0000
  H   H7394     1.0  0.80158  0.01532  0.60912  1.0000
  H   H7395     1.0  0.87885  0.46797  0.54051  1.0000
  S   S1276     1.0  0.89412  0.43350  0.62057  1.0000
  S   S1277     1.0  0.88780  0.47238  0.62512  1.0000
  Fe  Fe637     1.0  0.79086  0.45940  0.53162  1.0000
  H   H7396     1.0  0.89313  0.02365  0.62920  1.0000
  H   H7397     1.0  0.82495  0.46991  0.55834  1.0000
  Fe  Fe638     1.0  0.81864  0.42806  0.52574  1.0000
  S   S1278     1.0  0.83632  0.44298  0.50622  1.0000
  S   S1279     1.0  0.82597  0.39982  0.53502  1.0000
  Fe  Fe639     1.0  0.82872  0.46042  0.52415  1.0000
  C   C4331     1.0  0.99282  0.42095  0.56214  1.0000
  Fe  Fe640     1.0  0.81271  0.45796  0.49685  1.0000
  S   S1280     1.0  0.81256  0.44452  0.54450  1.0000
  S   S1281     1.0  0.79546  0.44144  0.51476  1.0000
  Fe  Fe641     1.0  0.92860  0.31613  0.54342  1.0000
  S   S1282     1.0  0.93709  0.32752  0.51611  1.0000
  S   S1283     1.0  0.93171  0.28792  0.55251  1.0000
  Fe  Fe642     1.0  0.91898  0.35021  0.55358  1.0000
  S   S1284     1.0  0.92695  0.36440  0.52705  1.0000
  S   S1285     1.0  0.90634  0.36246  0.57583  1.0000
  Fe  Fe643     1.0  0.91366  0.34815  0.52016  1.0000
  S   S1286     1.0  0.89733  0.35948  0.50071  1.0000
  Fe  Fe644     1.0  0.94954  0.34241  0.52562  1.0000
  S   S1287     1.0  0.90395  0.33542  0.54685  1.0000
  S   S1288     1.0  0.94275  0.32959  0.55276  1.0000
  C   C4332     1.0  0.97277  0.37238  0.52225  1.0000
  H   H7398     1.0  0.95918  0.37320  0.52464  1.0000
  H   H7399     1.0  0.79392  0.04882  0.55895  1.0000
  H   H7400     1.0  0.78379  0.99315  0.60798  1.0000
  C   C4333     1.0  0.99465  0.04116  0.61540  1.0000
  C   C4334     1.0  0.84536  0.38862  0.52470  1.0000
  C   C4335     1.0  0.85284  0.37274  0.53334  1.0000
  C   C4336     1.0  0.86873  0.36380  0.52594  1.0000
  C   C4337     1.0  0.87707  0.37045  0.50967  1.0000
  C   C4338     1.0  0.86931  0.38604  0.50071  1.0000
  C   C4339     1.0  0.85355  0.39523  0.50830  1.0000
  H   H7401     1.0  0.84647  0.36750  0.54595  1.0000
  H   H7402     1.0  0.87446  0.35168  0.53278  1.0000
  H   H7403     1.0  0.84773  0.40736  0.50147  1.0000
  H   H7404     1.0  0.88210  0.43501  0.55189  1.0000
  H   H7405     1.0  0.93009  0.30028  0.48397  1.0000
  C   C4340     1.0  0.98992  0.47843  0.68538  1.0000
  C   C4341     1.0  0.99602  0.20383  0.57939  1.0000
  H   H7406     1.0  0.88065  0.04517  0.57346  1.0000
  H   H7407     1.0  0.90638  0.01288  0.57192  1.0000
  C   C4342     1.0  0.83890  0.46816  0.57715  1.0000
  C   C4343     1.0  0.83733  0.46906  0.56073  1.0000
  C   C4344     1.0  0.96658  0.02379  0.59746  1.0000
  N   N306      1.0  0.80201  0.01698  0.58300  1.0000
  H   H7408     1.0  0.97049  0.20806  0.53974  1.0000
  C   C4345     1.0  0.98425  0.18820  0.55754  1.0000
  C   C4346     1.0  0.99597  0.04043  0.58655  1.0000
  H   H7409     1.0  0.97016  0.11700  0.72200  1.0000
  C   C4347     1.0  0.97880  0.38574  0.52387  1.0000
  C   C4348     1.0  0.92812  0.40352  0.58363  1.0000
  C   C4349     1.0  0.93593  0.39589  0.56976  1.0000
  C   C4350     1.0  0.92962  0.38301  0.56737  1.0000
  C   C4351     1.0  0.91556  0.37758  0.57899  1.0000
  C   C4352     1.0  0.90800  0.38499  0.59301  1.0000
  C   C4353     1.0  0.91415  0.39800  0.59525  1.0000
  H   H7410     1.0  0.94667  0.40018  0.56065  1.0000
  H   H7411     1.0  0.93551  0.37741  0.55648  1.0000
  H   H7412     1.0  0.89714  0.38083  0.60205  1.0000
  H   H7413     1.0  0.90820  0.40359  0.60611  1.0000
  C   C4354     1.0  0.91765  0.45573  0.70066  1.0000
  C   C4355     1.0  0.92398  0.46012  0.68318  1.0000
  C   C4356     1.0  0.91832  0.45435  0.67188  1.0000
  C   C4357     1.0  0.90647  0.44391  0.67810  1.0000
  C   C4358     1.0  0.90055  0.43915  0.69561  1.0000
  C   C4359     1.0  0.90604  0.44509  0.70685  1.0000
  H   H7414     1.0  0.87577  0.48825  0.69671  1.0000
  H   H7415     1.0  0.92286  0.45816  0.65844  1.0000
  H   H7416     1.0  0.89144  0.43102  0.70050  1.0000
  H   H7417     1.0  0.97305  0.37256  0.57451  1.0000
  C   C4360     1.0  0.76168  0.42914  0.49776  1.0000
  C   C4361     1.0  0.91345  0.26400  0.52008  1.0000
  C   C4362     1.0  0.91151  0.28156  0.51690  1.0000
  C   C4363     1.0  0.91763  0.28888  0.52646  1.0000
  C   C4364     1.0  0.92562  0.27864  0.53943  1.0000
  C   C4365     1.0  0.92764  0.26102  0.54267  1.0000
  C   C4366     1.0  0.92164  0.25367  0.53293  1.0000
  H   H7418     1.0  0.90494  0.28954  0.50723  1.0000
  H   H7419     1.0  0.91573  0.30248  0.52410  1.0000
  H   H7420     1.0  0.93368  0.25307  0.55282  1.0000
  H   H7421     1.0  0.92311  0.24009  0.53551  1.0000
  C   C4367     1.0  0.89183  0.42345  0.55508  1.0000
  H   H7422     1.0  0.97004  0.17613  0.50032  1.0000
  C   C4368     1.0  0.96554  0.12034  0.67292  1.0000
  C   C4369     1.0  0.93429  0.15193  0.59340  1.0000
  C   C4370     1.0  0.92474  0.16727  0.58588  1.0000
  C   C4371     1.0  0.93052  0.17501  0.56900  1.0000
  C   C4372     1.0  0.94596  0.16754  0.55953  1.0000
  C   C4373     1.0  0.95582  0.15248  0.56718  1.0000
  C   C4374     1.0  0.94995  0.14462  0.58404  1.0000
  H   H7423     1.0  0.91271  0.17308  0.59308  1.0000
  H   H7424     1.0  0.92300  0.18680  0.56339  1.0000
  H   H7425     1.0  0.96788  0.14670  0.56002  1.0000
  H   H7426     1.0  0.95764  0.13303  0.58983  1.0000
  C   C4375     1.0  0.76334  0.11793  0.55738  1.0000
  C   C4376     1.0  0.78955  0.02281  0.57143  1.0000
  H   H7427     1.0  0.99076  0.46765  0.65377  1.0000
  H   H7428     1.0  0.99801  0.20970  0.52972  1.0000
  H   H7429     1.0  0.78040  0.04872  0.60238  1.0000
  H   H7430     1.0  0.96782  0.46962  0.65798  1.0000
  C   C4377     1.0  0.99794  0.07819  0.64816  1.0000
  H   H7431     1.0  0.77409  0.12311  0.55685  1.0000
  C   C4378     1.0  0.84244  0.03539  0.53335  1.0000
  C   C4379     1.0  0.82624  0.04499  0.53120  1.0000
  C   C4380     1.0  0.81458  0.03760  0.52799  1.0000
  C   C4381     1.0  0.81885  0.02045  0.52740  1.0000
  C   C4382     1.0  0.83517  0.01091  0.52919  1.0000
  C   C4383     1.0  0.84702  0.01842  0.53199  1.0000
  H   H7432     1.0  0.82257  0.05806  0.53223  1.0000
  H   H7433     1.0  0.80202  0.04509  0.52649  1.0000
  H   H7434     1.0  0.83871  0.99777  0.52845  1.0000
  H   H7435     1.0  0.85955  0.01094  0.53361  1.0000
  C   C4384     1.0  0.87236  0.07918  0.59889  1.0000
  C   C4385     1.0  0.87722  0.08004  0.61324  1.0000
  C   C4386     1.0  0.89459  0.07666  0.61376  1.0000
  C   C4387     1.0  0.90723  0.07208  0.60004  1.0000
  C   C4388     1.0  0.90240  0.07106  0.58572  1.0000
  C   C4389     1.0  0.88501  0.07473  0.58509  1.0000
  H   H7436     1.0  0.86749  0.08351  0.62394  1.0000
  H   H7437     1.0  0.89817  0.07737  0.62490  1.0000
  H   H7438     1.0  0.91214  0.06762  0.57502  1.0000
  H   H7439     1.0  0.88143  0.07413  0.57395  1.0000
  C   C4390     1.0  0.85663  0.14372  0.52413  1.0000
  C   C4391     1.0  0.84840  0.14903  0.53921  1.0000
  C   C4392     1.0  0.85262  0.16254  0.54282  1.0000
  C   C4393     1.0  0.86546  0.17048  0.53164  1.0000
  C   C4394     1.0  0.87382  0.16507  0.51663  1.0000
  C   C4395     1.0  0.86923  0.15187  0.51280  1.0000
  H   H7440     1.0  0.83854  0.14294  0.54792  1.0000
  H   H7441     1.0  0.84608  0.16671  0.55443  1.0000
  H   H7442     1.0  0.88374  0.17110  0.50796  1.0000
  H   H7443     1.0  0.87561  0.14780  0.50112  1.0000
  H   H7444     1.0  0.97293  0.01784  0.62190  1.0000
  H   H7445     1.0  0.91197  0.03672  0.70452  1.0000
  H   H7446     1.0  0.92096  0.12287  0.69964  1.0000
  H   H7447     1.0  0.99437  0.46558  0.62457  1.0000
  C   C4396     1.0  0.92981  0.08236  0.69450  1.0000
  C   C4397     1.0  0.92596  0.10005  0.69045  1.0000
  H   H7448     1.0  0.86748  0.01545  0.60037  1.0000
  H   H7449     1.0  0.92418  0.10669  0.67790  1.0000
  H   H7450     1.0  0.98288  0.45790  0.59863  1.0000
  H   H7451     1.0  0.75151  0.08036  0.56623  1.0000
  H   H7452     1.0  0.92897  0.99408  0.73060  1.0000
  C   C4398     1.0  0.76469  0.10040  0.56194  1.0000
  H   H7453     1.0  0.99350  0.13040  0.65051  1.0000
  H   H7454     1.0  0.87969  0.32316  0.49567  1.0000
  H   H7455     1.0  0.96916  0.38835  0.62600  1.0000
  Fe  Fe645     1.0  0.91268  0.47374  0.60654  1.0000
  H   H7456     1.0  0.96887  0.29304  0.54202  1.0000
  H   H7457     1.0  0.90924  0.32297  0.48969  1.0000
  H   H7458     1.0  0.96342  0.14541  0.65533  1.0000
  C   C4399     1.0  0.99083  0.30155  0.54326  1.0000
  C   C4400     1.0  0.81864  0.02222  0.57369  1.0000
  H   H7459     1.0  0.86146  0.12039  0.48610  1.0000
  H   H7460     1.0  0.92944  0.47791  0.62951  1.0000
  H   H7461     1.0  0.92796  0.03433  0.59523  1.0000
  H   H7462     1.0  0.95617  0.13708  0.72305  1.0000
  C   C4401     1.0  0.78343  0.04206  0.56533  1.0000
  H   H7463     1.0  0.78195  0.99094  0.58772  1.0000
  H   H7464     1.0  0.95877  0.15303  0.51253  1.0000
  H   H7465     1.0  0.81293  0.99750  0.49510  1.0000
  H   H7466     1.0  0.93091  0.01577  0.58769  1.0000
  H   H7467     1.0  0.97264  0.28834  0.56299  1.0000
  H   H7468     1.0  0.80094  0.04273  0.60757  1.0000
  H   H7469     1.0  0.83044  0.00565  0.49391  1.0000
  C   C4402     1.0  0.98651  0.43873  0.62174  1.0000
  H   H7470     1.0  0.81221  0.99283  0.57539  1.0000
  C   C4403     1.0  0.79000  0.02710  0.48470  1.0000
  H   H7471     1.0  0.96348  0.38771  0.59414  1.0000
  H   H7472     1.0  0.96981  0.39679  0.52759  1.0000
  H   H7473     1.0  0.94954  0.01741  0.72456  1.0000
  H   H7474     1.0  0.98038  0.18265  0.57110  1.0000
  H   H7475     1.0  0.85969  0.04140  0.57932  1.0000
  C   C4404     1.0  0.92624  0.10066  0.71911  1.0000
  H   H7476     1.0  0.97599  0.01816  0.58737  1.0000
  H   H7477     1.0  0.98551  0.07501  0.65149  1.0000
  H   H7478     1.0  0.98949  0.19333  0.58595  1.0000
  C   C4405     1.0  0.85492  0.46685  0.58046  1.0000
  H   H7479     1.0  0.97805  0.38946  0.55653  1.0000
  H   H7480     1.0  0.90642  0.99746  0.61680  1.0000
  H   H7481     1.0  0.87657  0.02684  0.56921  1.0000
  C   C4406     1.0  0.96808  0.17115  0.49020  1.0000
  H   H7482     1.0  0.88999  0.02533  0.72275  1.0000
  H   H7483     1.0  0.86539  0.13824  0.59932  1.0000
  C   C4407     1.0  0.86931  0.46664  0.56720  1.0000
  H   H7484     1.0  0.98700  0.42493  0.62439  1.0000
  H   H7485     1.0  0.94206  0.00572  0.70287  1.0000
  H   H7486     1.0  0.95314  0.45454  0.63967  1.0000
  C   C4408     1.0  0.95764  0.42742  0.64746  1.0000
  H   H7487     1.0  0.94930  0.13310  0.65483  1.0000
  H   H7488     1.0  0.96191  0.09737  0.71005  1.0000
  H   H7489     1.0  0.98630  0.06311  0.56890  1.0000
  H   H7490     1.0  0.95639  0.11196  0.67956  1.0000
  N   N307      1.0  0.98837  0.39411  0.58525  1.0000
  H   H7491     1.0  0.78109  0.02129  0.60418  1.0000
  C   C4409     1.0  0.98468  0.05840  0.58276  1.0000
  H   H7492     1.0  0.99597  0.26918  0.57247  1.0000
  H   H7493     1.0  0.99070  0.36860  0.55752  1.0000
  H   H7494     1.0  0.78284  0.03864  0.48957  1.0000
  H   H7495     1.0  0.98729  0.43889  0.66219  1.0000
  H   H7496     1.0  0.90222  0.05661  0.72047  1.0000
  C   C4410     1.0  0.92210  0.02733  0.71054  1.0000
  H   H7497     1.0  0.94974  0.12444  0.70298  1.0000
  C   C4411     1.0  0.87338  0.03500  0.57846  1.0000
  C   C4412     1.0  0.89865  0.01507  0.72991  1.0000
  H   H7498     1.0  0.97548  0.43897  0.60090  1.0000
  H   H7499     1.0  0.97053  0.21465  0.55852  1.0000
  H   H7500     1.0  0.97596  0.20179  0.48655  1.0000
  H   H7501     1.0  0.87573  0.39124  0.48813  1.0000
  C   C4413     1.0  0.79384  0.04192  0.59851  1.0000
  H   H7502     1.0  0.92330  0.01577  0.61009  1.0000
  H   H7503     1.0  0.88588  0.99522  0.61704  1.0000
  C   C4414     1.0  0.96246  0.15414  0.49863  1.0000
  H   H7504     1.0  0.99364  0.13564  0.68537  1.0000
  C   C4415     1.0  0.90123  0.00518  0.58436  1.0000
  C   C4416     1.0  0.98621  0.13493  0.67653  1.0000
  H   H7505     1.0  0.97891  0.14810  0.67281  1.0000
  C   C4417     1.0  0.95523  0.13657  0.66336  1.0000
  H   H7506     1.0  0.77491  0.04803  0.57570  1.0000
  H   H7507     1.0  0.94001  0.48420  0.65135  1.0000
  C   C4418     1.0  0.96475  0.46643  0.71746  1.0000
  H   H7508     1.0  0.98292  0.46926  0.68468  1.0000
  H   H7509     1.0  0.81683  0.03581  0.56761  1.0000
  H   H7510     1.0  0.98532  0.43211  0.55471  1.0000
  C   C4419     1.0  0.97437  0.09235  0.70233  1.0000
  H   H7511     1.0  0.99486  0.03360  0.57755  1.0000
  H   H7512     1.0  0.75029  0.42463  0.50617  1.0000
  H   H7513     1.0  0.86645  0.47629  0.66986  1.0000
  C   C4420     1.0  0.82470  0.00061  0.48631  1.0000
  C   C4421     1.0  0.97637  0.44810  0.60777  1.0000
  H   H7514     1.0  0.95843  0.01451  0.60432  1.0000
  N   N308      1.0  0.91493  0.02034  0.72885  1.0000
  H   H7515     1.0  0.95770  0.42560  0.63492  1.0000
  H   H7516     1.0  0.87219  0.01990  0.63070  1.0000
  C   C4422     1.0  0.93190  0.07387  0.71083  1.0000
  H   H7517     1.0  0.88957  0.30482  0.48677  1.0000
  H   H7518     1.0  0.99139  0.42151  0.65267  1.0000
  H   H7519     1.0  0.79509  0.01731  0.55999  1.0000
  N   N309      1.0  0.97573  0.47829  0.71678  1.0000
  C   C4423     1.0  0.99301  0.03311  0.63438  1.0000
  C   C4424     1.0  0.86765  0.46807  0.55072  1.0000
  H   H7520     1.0  0.97785  0.13630  0.71159  1.0000
  H   H7521     1.0  0.97058  0.40999  0.56966  1.0000
  H   H7522     1.0  0.94455  0.14313  0.67206  1.0000
  H   H7523     1.0  0.99224  0.04298  0.64119  1.0000
  H   H7524     1.0  0.82834  0.10877  0.49111  1.0000
  N   N310      1.0  0.86914  0.29069  0.56549  1.0000
  C   C4425     1.0  0.86666  0.27490  0.57890  1.0000
  C   C4426     1.0  0.88626  0.29364  0.56542  1.0000
  C   C4427     1.0  0.86988  0.28702  0.54874  1.0000
  C   C4428     1.0  0.85436  0.30511  0.56958  1.0000
  C   C4429     1.0  0.85049  0.26836  0.58063  1.0000
  C   C4430     1.0  0.88762  0.29818  0.58147  1.0000
  C   C4431     1.0  0.87120  0.30178  0.53323  1.0000
  C   C4432     1.0  0.85702  0.32336  0.56131  1.0000
  H   H7525     1.0  0.87787  0.26419  0.57678  1.0000
  H   H7526     1.0  0.86596  0.27691  0.59159  1.0000
  H   H7527     1.0  0.89048  0.30354  0.55459  1.0000
  H   H7528     1.0  0.89642  0.28211  0.56362  1.0000
  H   H7529     1.0  0.88084  0.27629  0.54598  1.0000
  H   H7530     1.0  0.85820  0.28294  0.54893  1.0000
  H   H7531     1.0  0.84278  0.30396  0.56614  1.0000
  H   H7532     1.0  0.85071  0.30432  0.58347  1.0000
  H   H7533     1.0  0.83862  0.27836  0.58172  1.0000
  H   H7534     1.0  0.85169  0.26225  0.57013  1.0000
  H   H7535     1.0  0.84900  0.25836  0.59234  1.0000
  H   H7536     1.0  0.87745  0.30901  0.58504  1.0000
  H   H7537     1.0  0.88767  0.28715  0.59227  1.0000
  H   H7538     1.0  0.90007  0.30186  0.57908  1.0000
  H   H7539     1.0  0.88237  0.30737  0.53122  1.0000
  H   H7540     1.0  0.85926  0.31174  0.53383  1.0000
  H   H7541     1.0  0.87279  0.29688  0.52181  1.0000
  H   H7542     1.0  0.84630  0.33070  0.55499  1.0000
  H   H7543     1.0  0.86895  0.32431  0.55173  1.0000
  H   H7544     1.0  0.85658  0.33013  0.57108  1.0000
  N   N311      1.0  0.86766  0.40891  0.55696  1.0000
  C   C4433     1.0  0.86331  0.39171  0.56160  1.0000
  C   C4434     1.0  0.86847  0.41544  0.53825  1.0000
  C   C4435     1.0  0.85334  0.42118  0.56576  1.0000
  C   C4436     1.0  0.88468  0.40720  0.56099  1.0000
  C   C4437     1.0  0.85896  0.38372  0.58054  1.0000
  C   C4438     1.0  0.88289  0.40549  0.52645  1.0000
  C   C4439     1.0  0.85469  0.42281  0.58315  1.0000
  H   H7545     1.0  0.85213  0.39223  0.55648  1.0000
  H   H7546     1.0  0.87411  0.38233  0.55597  1.0000
  H   H7547     1.0  0.86990  0.42882  0.53413  1.0000
  H   H7548     1.0  0.85608  0.41582  0.53524  1.0000
  H   H7549     1.0  0.85209  0.43430  0.55798  1.0000
  H   H7550     1.0  0.84070  0.41818  0.56716  1.0000
  H   H7551     1.0  0.88409  0.40275  0.57471  1.0000
  H   H7552     1.0  0.89444  0.39712  0.55533  1.0000
  H   H7553     1.0  0.86927  0.38270  0.58698  1.0000
  H   H7554     1.0  0.84652  0.39062  0.58687  1.0000
  H   H7555     1.0  0.85754  0.37061  0.58202  1.0000
  H   H7556     1.0  0.88223  0.39206  0.52892  1.0000
  H   H7557     1.0  0.88150  0.41114  0.51323  1.0000
  H   H7558     1.0  0.89576  0.40632  0.52711  1.0000
  H   H7559     1.0  0.85702  0.41057  0.59218  1.0000
  H   H7560     1.0  0.84248  0.43058  0.58891  1.0000
  H   H7561     1.0  0.86488  0.42954  0.58188  1.0000
  N   N312      1.0  0.88997  0.12990  0.56913  1.0000
  C   C4440     1.0  0.89272  0.12910  0.55087  1.0000
  C   C4441     1.0  0.88837  0.14808  0.56956  1.0000
  C   C4442     1.0  0.87332  0.12466  0.57837  1.0000
  C   C4443     1.0  0.90489  0.11799  0.57607  1.0000
  C   C4444     1.0  0.89186  0.11225  0.54754  1.0000
  C   C4445     1.0  0.90372  0.15592  0.55911  1.0000
  C   C4446     1.0  0.86733  0.12539  0.59714  1.0000
  C   C4447     1.0  0.90855  0.12108  0.59187  1.0000
  H   H7562     1.0  0.88317  0.13908  0.54470  1.0000
  H   H7563     1.0  0.90541  0.13167  0.54358  1.0000
  H   H7564     1.0  0.88621  0.14996  0.58250  1.0000
  H   H7565     1.0  0.87681  0.15621  0.56494  1.0000
  H   H7566     1.0  0.86275  0.13252  0.57198  1.0000
  H   H7567     1.0  0.87400  0.11137  0.57809  1.0000
  H   H7568     1.0  0.90334  0.10474  0.57901  1.0000
  H   H7569     1.0  0.91698  0.11835  0.56630  1.0000
  H   H7570     1.0  0.89632  0.11254  0.53381  1.0000
  H   H7571     1.0  0.90007  0.10118  0.55424  1.0000
  H   H7572     1.0  0.87846  0.11059  0.55091  1.0000
  H   H7573     1.0  0.90178  0.16862  0.56173  1.0000
  H   H7574     1.0  0.91600  0.14821  0.56232  1.0000
  H   H7575     1.0  0.90449  0.15799  0.54541  1.0000
  H   H7576     1.0  0.85473  0.12171  0.60198  1.0000
  H   H7577     1.0  0.98637  0.44423  0.71428  1.0000
  H   H7578     1.0  0.87609  0.11603  0.60475  1.0000
  H   H7579     1.0  0.91189  0.10867  0.60049  1.0000
  H   H7580     1.0  0.89798  0.12893  0.59937  1.0000
  H   H7581     1.0  0.92006  0.12659  0.58835  1.0000
  H   H7582     1.0  0.97209  0.08573  0.69368  1.0000
  S   S1289     1.0  0.99690  0.08149  0.61517  1.0000
  H   H7583     1.0  0.90516  0.03676  0.58126  1.0000
  H   H7584     1.0  0.83622  0.00517  0.58998  1.0000
  C   C4448     1.0  0.87592  0.02477  0.59620  1.0000
  C   C4449     1.0  0.98439  0.35823  0.51720  1.0000
  C   C4450     1.0  0.99592  0.38176  0.57375  1.0000
  H   H7585     1.0  0.95319  0.40180  0.61502  1.0000
  C   C4451     1.0  0.85172  0.46910  0.54747  1.0000
  C   C4452     1.0  0.99642  0.38459  0.52117  1.0000
  H   H7586     1.0  0.76005  0.40261  0.48831  1.0000
  H   H7587     1.0  0.82588  0.16270  0.49399  1.0000
  H   H7588     1.0  0.97214  0.47164  0.62565  1.0000
  H   H7589     1.0  0.77563  0.04422  0.55584  1.0000
  S   S1290     1.0  0.85031  0.47021  0.52676  1.0000
  H   H7590     1.0  0.76404  0.43883  0.50300  1.0000
  H   H7591     1.0  0.88171  0.46547  0.56959  1.0000
  H   H7592     1.0  0.97746  0.48586  0.64348  1.0000
  C   C4453     1.0  0.92260  0.02308  0.59711  1.0000
  Fe  Fe646     1.0  0.92263  0.20079  0.49081  1.0000
  H   H7593     1.0  0.98158  0.08299  0.71146  1.0000
  N   N313      1.0  0.97429  0.12298  0.68517  1.0000
  H   H7594     1.0  0.97927  0.37383  0.60479  1.0000
  H   H7595     1.0  0.83247  0.13318  0.49326  1.0000
  N   N314      1.0  0.99219  0.03076  0.60458  1.0000
  C   C4454     1.0  0.97931  0.47197  0.64811  1.0000
  S   S1291     1.0  0.76435  0.47092  0.54482  1.0000
  H   H7596     1.0  0.88704  0.00460  0.64183  1.0000
  H   H7597     1.0  0.82809  0.02625  0.59407  1.0000
  C   C4455     1.0  0.93012  0.08297  0.72311  1.0000
  C   C4456     1.0  0.96085  0.13059  0.69874  1.0000
  H   H7598     1.0  0.82462  0.01572  0.56301  1.0000
  H   H7599     1.0  0.98131  0.02793  0.63999  1.0000
  H   H7600     1.0  0.88967  0.47685  0.68169  1.0000
  H   H7601     1.0  0.99458  0.14586  0.50496  1.0000
  H   H7602     1.0  0.84395  0.02255  0.57561  1.0000
  H   H7603     1.0  0.93516  0.06023  0.71395  1.0000
  H   H7604     1.0  0.90114  0.44156  0.72029  1.0000
  H   H7605     1.0  0.93303  0.46828  0.67844  1.0000
  C   C4457     1.0  0.93017  0.01419  0.69936  1.0000
  C   C4458     1.0  0.86315  0.48166  0.68129  1.0000
  C   C4459     1.0  0.98036  0.41111  0.57574  1.0000
  H   H7606     1.0  0.97087  0.05874  0.58808  1.0000
  H   H7607     1.0  0.77310  0.41853  0.49809  1.0000
  C   C4460     1.0  0.97461  0.38743  0.59924  1.0000
  C   C4461     1.0  0.97285  0.44736  0.72087  1.0000
  H   H7608     1.0  0.93384  0.02099  0.68606  1.0000
  H   H7609     1.0  0.76270  0.46527  0.51297  1.0000
  H   H7610     1.0  0.99414  0.10067  0.68230  1.0000
  C   C4462     1.0  0.97899  0.28886  0.54950  1.0000
  H   H7611     1.0  0.95923  0.44633  0.65918  1.0000
  C   C4463     1.0  0.99197  0.43507  0.64980  1.0000
  C   C4464     1.0  0.89352  0.00484  0.61505  1.0000
  H   H7612     1.0  0.95936  0.46977  0.70596  1.0000
  H   H7613     1.0  0.96162  0.37864  0.49074  1.0000
  H   H7614     1.0  0.98509  0.05332  0.61467  1.0000
  C   C4465     1.0  0.88600  0.01405  0.62983  1.0000
  H   H7615     1.0  0.98910  0.38312  0.48610  1.0000
  H   H7616     1.0  0.94436  0.42766  0.65502  1.0000
  C   C4466     1.0  0.97007  0.20397  0.55348  1.0000
  H   H7617     1.0  0.87048  0.03395  0.60462  1.0000
  S   S1292     1.0  0.80661  0.47684  0.51296  1.0000
  H   H7618     1.0  0.97272  0.40809  0.61221  1.0000
  H   H7619     1.0  0.96602  0.44079  0.71587  1.0000
  C   C4467     1.0  0.83228  0.01871  0.58420  1.0000
  H   H7620     1.0  0.94789  0.99135  0.63764  1.0000
  H   H7621     1.0  0.89738  0.03851  0.60258  1.0000
  H   H7622     1.0  0.96306  0.45437  0.61262  1.0000
  H   H7623     1.0  0.98444  0.31195  0.55012  1.0000
  H   H7624     1.0  0.81330  0.03359  0.48495  1.0000
  H   H7625     1.0  0.77758  0.01819  0.57761  1.0000
  C   C4468     1.0  0.98459  0.10614  0.69248  1.0000
  C   C4469     1.0  0.98186  0.46379  0.63310  1.0000
  H   H7626     1.0  0.99005  0.30783  0.52997  1.0000
  H   H7627     1.0  0.93184  0.03469  0.70913  1.0000
  H   H7628     1.0  0.96610  0.41640  0.65392  1.0000
  C   C4470     1.0  0.96240  0.44430  0.64608  1.0000
  C   C4471     1.0  0.79444  0.02316  0.59919  1.0000
  H   H7629     1.0  0.99269  0.10737  0.70045  1.0000
  N   N315      1.0  0.98070  0.44547  0.63765  1.0000
  H   H7630     1.0  0.98865  0.06747  0.58755  1.0000
  C   C4472     1.0  0.87844  0.48747  0.68325  1.0000
  H   H7631     1.0  0.97307  0.41965  0.58447  1.0000
  H   H7632     1.0  0.98542  0.27598  0.54757  1.0000
  C   C4473     1.0  0.75057  0.09390  0.56277  1.0000
  H   H7633     1.0  0.92582  0.99099  0.59222  1.0000
  C   C4474     1.0  0.96689  0.13012  0.71463  1.0000
  C   C4475     1.0  0.96725  0.39706  0.61381  1.0000
  H   H7634     1.0  0.90148  0.00415  0.72379  1.0000
  S   S1293     1.0  0.97724  0.34194  0.51391  1.0000
  H   H7635     1.0  0.89695  0.42504  0.56530  1.0000
  H   H7636     1.0  0.84839  0.15651  0.48690  1.0000
  H   H7637     1.0  0.98659  0.21583  0.58100  1.0000
  H   H7638     1.0  0.78922  0.01634  0.49566  1.0000
  H   H7639     1.0  0.86007  0.47121  0.69217  1.0000
  C   C4476     1.0  0.90416  0.02926  0.59442  1.0000
  C   C4477     1.0  0.97410  0.02801  0.61032  1.0000
  H   H7640     1.0  0.97486  0.11341  0.66350  1.0000
  H   H7641     1.0  0.95790  0.03522  0.59175  1.0000
  H   H7642     1.0  0.95310  0.46785  0.72772  1.0000
  H   H7643     1.0  0.95857  0.40134  0.48532  1.0000
  H   H7644     1.0  0.95529  0.14410  0.69374  1.0000
  C   C4478     1.0  0.74984  0.46775  0.52042  1.0000
  H   H7645     1.0  0.82770  0.46830  0.58735  1.0000
  C   C4479     1.0  0.99208  0.47633  0.70347  1.0000
  H   H7646     1.0  0.89086  0.00048  0.58219  1.0000
  C   C4480     1.0  0.98347  0.37808  0.56529  1.0000
  H   H7647     1.0  0.95738  0.20067  0.55944  1.0000
  H   H7648     1.0  0.98341  0.17854  0.55117  1.0000
  H   H7649     1.0  0.92111  0.00654  0.69968  1.0000
  H   H7650     1.0  0.95669  0.18010  0.48590  1.0000
  H   H7651     1.0  0.95070  0.15404  0.49485  1.0000
  C   C4481     1.0  0.79084  0.98913  0.59606  1.0000
  H   H7652     1.0  0.85066  0.09893  0.48477  1.0000
  C   C4482     1.0  0.89828  0.04998  0.73374  1.0000
  C   C4483     1.0  0.88726  0.31881  0.48398  1.0000
  Fe  Fe647     1.0  0.92834  0.06032  0.78050  1.0000
  S   S1294     1.0  0.90634  0.07689  0.76920  1.0000
  S   S1295     1.0  0.93864  0.03301  0.77885  1.0000
  Fe  Fe648     1.0  0.93286  0.08832  0.79414  1.0000
  S   S1296     1.0  0.91131  0.10724  0.78377  1.0000
  S   S1297     1.0  0.94705  0.09376  0.81068  1.0000
  Fe  Fe649     1.0  0.89739  0.08593  0.79353  1.0000
  S   S1298     1.0  0.86952  0.08970  0.80682  1.0000
  Fe  Fe650     1.0  0.92242  0.09631  0.76057  1.0000
  H   H7653     1.0  0.96564  0.27022  0.88562  1.0000
  S   S1299     1.0  0.91815  0.06772  0.80552  1.0000
  S   S1300     1.0  0.94525  0.07910  0.77016  1.0000
  Fe  Fe651     1.0  0.82644  0.10487  0.89465  1.0000
  S   S1301     1.0  0.80506  0.11981  0.88153  1.0000
  S   S1302     1.0  0.84904  0.08491  0.88573  1.0000
  Fe  Fe652     1.0  0.81463  0.12551  0.92221  1.0000
  H   H7654     1.0  0.89714  0.05890  0.74177  1.0000
  H   H7655     1.0  0.84215  0.05262  0.80569  1.0000
  H   H7656     1.0  0.95618  0.27357  0.83886  1.0000
  Fe  Fe653     1.0  0.81074  0.14253  0.88648  1.0000
  S   S1303     1.0  0.81620  0.16651  0.86823  1.0000
  S   S1304     1.0  0.80979  0.10110  0.92075  1.0000
  S   S1305     1.0  0.83327  0.12763  0.89749  1.0000
  Fe  Fe654     1.0  0.93907  0.18375  0.86243  1.0000
  S   S1306     1.0  0.93954  0.19828  0.83582  1.0000
  S   S1307     1.0  0.96423  0.17613  0.87055  1.0000
  Fe  Fe655     1.0  0.90114  0.18420  0.86931  1.0000
  S   S1308     1.0  0.89882  0.19902  0.84330  1.0000
  S   S1309     1.0  0.87887  0.17685  0.88970  1.0000
  Fe  Fe656     1.0  0.92344  0.18125  0.83498  1.0000
  S   S1310     1.0  0.92729  0.17179  0.81142  1.0000
  Fe  Fe657     1.0  0.91511  0.21450  0.84695  1.0000
  S   S1311     1.0  0.90924  0.24300  0.83878  1.0000
  S   S1312     1.0  0.92480  0.16526  0.86081  1.0000
  S   S1313     1.0  0.91553  0.20102  0.87370  1.0000
  H   H7657     1.0  0.87649  0.00618  0.74678  1.0000
  H   H7658     1.0  0.93859  0.99811  0.78129  1.0000
  H   H7659     1.0  0.93885  0.29855  0.90139  1.0000
  H   H7660     1.0  0.91787  0.30625  0.97872  1.0000
  C   C4484     1.0  0.96488  0.28540  0.85394  1.0000
  H   H7661     1.0  0.86438  0.14996  0.85407  1.0000
  H   H7662     1.0  0.96987  0.29389  0.84199  1.0000
  H   H7663     1.0  0.86414  0.21844  0.91219  1.0000
  H   H7664     1.0  0.95810  0.41008  0.81076  1.0000
  H   H7665     1.0  0.93963  0.12370  0.78505  1.0000
  N   N316      1.0  0.99510  0.13402  0.81645  1.0000
  Fe  Fe658     1.0  0.78499  0.43134  0.88168  1.0000
  S   S1314     1.0  0.77062  0.44656  0.86166  1.0000
  S   S1315     1.0  0.78160  0.40460  0.89197  1.0000
  H   H7666     1.0  0.96113  0.29194  0.90302  1.0000
  C   C4485     1.0  0.89644  0.11538  0.82557  1.0000
  H   H7667     1.0  0.85470  0.28417  0.86676  1.0000
  Fe  Fe659     1.0  0.79341  0.45846  0.85052  1.0000
  S   S1316     1.0  0.80391  0.46186  0.82252  1.0000
  H   H7668     1.0  0.84529  0.27197  0.88634  1.0000
  S   S1317     1.0  0.80875  0.44141  0.86918  1.0000
  Fe  Fe660     1.0  0.93281  0.44844  0.77251  1.0000
  S   S1318     1.0  0.93218  0.43217  0.75577  1.0000
  S   S1319     1.0  0.95729  0.44458  0.78084  1.0000
  Fe  Fe661     1.0  0.89502  0.46494  0.77589  1.0000
  S   S1320     1.0  0.89103  0.45019  0.75924  1.0000
  H   H7669     1.0  0.77135  0.10265  0.95218  1.0000
  Fe  Fe662     1.0  0.90751  0.42815  0.77373  1.0000
  S   S1321     1.0  0.90091  0.40254  0.78403  1.0000
  H   H7670     1.0  0.76018  0.02259  0.91030  1.0000
  S   S1322     1.0  0.90945  0.44254  0.79154  1.0000
  H   H7671     1.0  0.85740  0.22848  0.97593  1.0000
  Fe  Fe663     1.0  0.89424  0.31276  0.88740  1.0000
  S   S1323     1.0  0.90428  0.33033  0.89628  1.0000
  S   S1324     1.0  0.90723  0.28503  0.89147  1.0000
  Fe  Fe664     1.0  0.86475  0.34058  0.87658  1.0000
  S   S1325     1.0  0.87227  0.36029  0.88448  1.0000
  S   S1326     1.0  0.84105  0.34614  0.86639  1.0000
  Fe  Fe665     1.0  0.89889  0.34872  0.87235  1.0000
  S   S1327     1.0  0.91690  0.36545  0.85615  1.0000
  Fe  Fe666     1.0  0.87674  0.34022  0.90757  1.0000
  S   S1328     1.0  0.86429  0.34566  0.93347  1.0000
  S   S1329     1.0  0.89111  0.33032  0.86258  1.0000
  S   S1330     1.0  0.86709  0.32125  0.90053  1.0000
  H   H7672     1.0  0.82731  0.47028  0.83751  1.0000
  C   C4486     1.0  0.87709  0.34504  0.94722  1.0000
  C   C4487     1.0  0.89486  0.34288  0.94196  1.0000
  C   C4488     1.0  0.90469  0.34258  0.95323  1.0000
  C   C4489     1.0  0.89680  0.34449  0.96976  1.0000
  H   H7673     1.0  0.79447  0.07746  0.95431  1.0000
  C   C4490     1.0  0.86919  0.34700  0.96375  1.0000
  H   H7674     1.0  0.90102  0.34149  0.92921  1.0000
  H   H7675     1.0  0.91846  0.34088  0.94912  1.0000
  H   H7676     1.0  0.87902  0.05066  0.82377  1.0000
  H   H7677     1.0  0.96463  0.42127  0.83583  1.0000
  C   C4491     1.0  0.91244  0.37567  0.83610  1.0000
  C   C4492     1.0  0.90099  0.37082  0.82983  1.0000
  C   C4493     1.0  0.89792  0.37882  0.81365  1.0000
  C   C4494     1.0  0.90584  0.39208  0.80385  1.0000
  C   C4495     1.0  0.91727  0.39696  0.81012  1.0000
  C   C4496     1.0  0.92063  0.38870  0.82616  1.0000
  H   H7678     1.0  0.89462  0.36079  0.83733  1.0000
  H   H7679     1.0  0.88930  0.37479  0.80877  1.0000
  H   H7680     1.0  0.92374  0.40690  0.80252  1.0000
  H   H7681     1.0  0.92950  0.39250  0.83092  1.0000
  H   H7682     1.0  0.99372  0.16193  0.78578  1.0000
  H   H7683     1.0  0.81646  0.13893  0.97613  1.0000
  H   H7684     1.0  0.83367  0.12945  0.84305  1.0000
  C   C4497     1.0  0.98519  0.47397  0.78628  1.0000
  C   C4498     1.0  0.79839  0.38887  0.88434  1.0000
  C   C4499     1.0  0.81539  0.39066  0.87987  1.0000
  C   C4500     1.0  0.82867  0.37730  0.87499  1.0000
  C   C4501     1.0  0.82487  0.36255  0.87365  1.0000
  C   C4502     1.0  0.80782  0.36106  0.87760  1.0000
  C   C4503     1.0  0.79465  0.37400  0.88332  1.0000
  H   H7685     1.0  0.81833  0.40220  0.88040  1.0000
  H   H7686     1.0  0.84180  0.37860  0.87178  1.0000
  H   H7687     1.0  0.80482  0.34971  0.87654  1.0000
  H   H7688     1.0  0.78154  0.37255  0.88678  1.0000
  H   H7689     1.0  0.81677  0.47396  0.97855  1.0000
  H   H7690     1.0  0.80752  0.38745  0.91732  1.0000
  C   C4504     1.0  0.95273  0.03090  0.82243  1.0000
  S   S1331     1.0  0.87528  0.48299  0.79058  1.0000
  H   H7691     1.0  0.77762  0.13738  0.97187  1.0000
  C   C4505     1.0  0.83280  0.47092  0.82423  1.0000
  C   C4506     1.0  0.75239  0.04028  0.88777  1.0000
  H   H7692     1.0  0.90766  0.02867  0.75245  1.0000
  C   C4507     1.0  0.98674  0.04951  0.78668  1.0000
  H   H7693     1.0  0.82925  0.05426  0.86417  1.0000
  H   H7694     1.0  0.94773  0.04208  0.82833  1.0000
  C   C4508     1.0  0.84774  0.39182  0.93831  1.0000
  H   H7695     1.0  0.84711  0.48526  0.85538  1.0000
  C   C4509     1.0  0.96374  0.46255  0.78129  1.0000
  C   C4510     1.0  0.78579  0.08060  0.96615  1.0000
  H   H7696     1.0  0.76337  0.01308  0.89304  1.0000
  S   S1332     1.0  0.76293  0.11021  0.91843  1.0000
  H   H7697     1.0  0.80936  0.48164  0.94930  1.0000
  C   C4511     1.0  0.75049  0.11102  0.90423  1.0000
  H   H7698     1.0  0.98851  0.01567  0.83349  1.0000
  C   C4512     1.0  0.95495  0.28152  0.88454  1.0000
  H   H7699     1.0  0.90492  0.13374  0.90672  1.0000
  Fe  Fe667     1.0  0.79643  0.46167  0.88412  1.0000
  C   C4513     1.0  0.96814  0.39830  0.81024  1.0000
  C   C4514     1.0  0.77795  0.09981  0.96283  1.0000
  H   H7700     1.0  0.99592  0.15840  0.82000  1.0000
  C   C4515     1.0  0.90971  0.25477  0.85296  1.0000
  C   C4516     1.0  0.91666  0.24698  0.86723  1.0000
  C   C4517     1.0  0.91591  0.25642  0.87890  1.0000
  C   C4518     1.0  0.90825  0.27372  0.87636  1.0000
  C   C4519     1.0  0.90162  0.28161  0.86191  1.0000
  C   C4520     1.0  0.90245  0.27217  0.85019  1.0000
  H   H7701     1.0  0.92259  0.23369  0.86933  1.0000
  H   H7702     1.0  0.92123  0.25027  0.88997  1.0000
  H   H7703     1.0  0.89571  0.29494  0.85982  1.0000
  H   H7704     1.0  0.89712  0.27832  0.83912  1.0000
  C   C4521     1.0  0.97070  0.19350  0.87278  1.0000
  C   C4522     1.0  0.98812  0.19296  0.87082  1.0000
  C   C4523     1.0  0.98631  0.15094  0.82106  1.0000
  C   C4524     1.0  0.98123  0.22170  0.87510  1.0000
  C   C4525     1.0  0.96383  0.22211  0.87732  1.0000
  C   C4526     1.0  0.95861  0.20814  0.87595  1.0000
  C   C4527     1.0  0.96410  0.03537  0.80476  1.0000
  H   H7705     1.0  0.98627  0.43345  0.84127  1.0000
  H   H7706     1.0  0.95435  0.23333  0.87991  1.0000
  H   H7707     1.0  0.94518  0.20863  0.87762  1.0000
  H   H7708     1.0  0.84181  0.13884  0.85485  1.0000
  H   H7709     1.0  0.81597  0.41296  0.94020  1.0000
  H   H7710     1.0  0.89134  0.16823  0.80985  1.0000
  H   H7711     1.0  0.82357  0.09725  0.95294  1.0000
  C   C4528     1.0  0.83196  0.17244  0.87431  1.0000
  C   C4529     1.0  0.84461  0.17974  0.86209  1.0000
  C   C4530     1.0  0.85897  0.18148  0.86668  1.0000
  C   C4531     1.0  0.86032  0.17664  0.88358  1.0000
  C   C4532     1.0  0.84689  0.17084  0.89593  1.0000
  C   C4533     1.0  0.83287  0.16852  0.89129  1.0000
  H   H7712     1.0  0.84371  0.18325  0.84900  1.0000
  H   H7713     1.0  0.86912  0.18614  0.85708  1.0000
  H   H7714     1.0  0.84754  0.16754  0.90909  1.0000
  H   H7715     1.0  0.82287  0.16341  0.90089  1.0000
  H   H7716     1.0  0.86939  0.24634  0.89762  1.0000
  C   C4534     1.0  0.84175  0.13843  0.84185  1.0000
  C   C4535     1.0  0.97464  0.15047  0.83882  1.0000
  H   H7717     1.0  0.96547  0.02507  0.79823  1.0000
  H   H7718     1.0  0.97734  0.40538  0.85635  1.0000
  C   C4536     1.0  0.92192  0.02251  0.78298  1.0000
  C   C4537     1.0  0.92546  0.00515  0.78337  1.0000
  C   C4538     1.0  0.91198  0.99681  0.78674  1.0000
  C   C4539     1.0  0.89501  0.00591  0.78955  1.0000
  C   C4540     1.0  0.89157  0.02330  0.78869  1.0000
  C   C4541     1.0  0.90496  0.03150  0.78576  1.0000
  H   H7719     1.0  0.87853  0.03050  0.79025  1.0000
  H   H7720     1.0  0.90205  0.04479  0.78569  1.0000
  C   C4542     1.0  0.86404  0.08781  0.82882  1.0000
  C   C4543     1.0  0.87622  0.08035  0.83881  1.0000
  C   C4544     1.0  0.87146  0.07931  0.85631  1.0000
  C   C4545     1.0  0.85456  0.08589  0.86388  1.0000
  C   C4546     1.0  0.84232  0.09302  0.85395  1.0000
  C   C4547     1.0  0.84702  0.09386  0.83648  1.0000
  H   H7721     1.0  0.88933  0.07551  0.83306  1.0000
  H   H7722     1.0  0.88096  0.07366  0.86396  1.0000
  H   H7723     1.0  0.82920  0.09781  0.85971  1.0000
  H   H7724     1.0  0.83750  0.09948  0.82885  1.0000
  C   C4548     1.0  0.94197  0.11540  0.81098  1.0000
  C   C4549     1.0  0.94069  0.12055  0.82583  1.0000
  C   C4550     1.0  0.93611  0.13785  0.82622  1.0000
  C   C4551     1.0  0.93300  0.15001  0.81169  1.0000
  C   C4552     1.0  0.93434  0.14481  0.79688  1.0000
  C   C4553     1.0  0.93868  0.12757  0.79655  1.0000
  H   H7725     1.0  0.94304  0.11114  0.83707  1.0000
  H   H7726     1.0  0.93505  0.14175  0.83770  1.0000
  H   H7727     1.0  0.93188  0.15416  0.78562  1.0000
  C   C4554     1.0  0.80259  0.48673  0.90609  1.0000
  N   N317      1.0  0.98437  0.23201  0.81402  1.0000
  C   C4555     1.0  0.97528  0.23619  0.83095  1.0000
  H   H7728     1.0  0.94075  0.31602  0.87622  1.0000
  C   C4556     1.0  0.97989  0.21664  0.81190  1.0000
  C   C4557     1.0  0.97891  0.24676  0.80037  1.0000
  C   C4558     1.0  0.95561  0.23895  0.83514  1.0000
  S   S1333     1.0  0.91874  0.47226  0.75820  1.0000
  H   H7729     1.0  0.92188  0.00042  0.74981  1.0000
  H   H7730     1.0  0.95931  0.02018  0.83095  1.0000
  H   H7731     1.0  0.99754  0.18169  0.86828  1.0000
  H   H7732     1.0  0.97097  0.13445  0.81127  1.0000
  H   H7733     1.0  0.85328  0.37895  0.91137  1.0000
  H   H7734     1.0  0.84056  0.01034  0.85773  1.0000
  H   H7735     1.0  0.96622  0.21928  0.81111  1.0000
  C   C4559     1.0  0.81977  0.11940  0.96275  1.0000
  H   H7736     1.0  0.96495  0.24889  0.80104  1.0000
  H   H7737     1.0  0.98947  0.38396  0.85764  1.0000
  H   H7738     1.0  0.95072  0.24158  0.84798  1.0000
  H   H7739     1.0  0.94946  0.25002  0.82654  1.0000
  H   H7740     1.0  0.95126  0.22756  0.83545  1.0000
  H   H7741     1.0  0.77773  0.48110  0.91085  1.0000
  H   H7742     1.0  0.98926  0.25753  0.77406  1.0000
  H   H7743     1.0  0.83432  0.38003  0.96354  1.0000
  N   N318      1.0  0.83486  0.39435  0.92770  1.0000
  H   H7744     1.0  0.78898  0.10613  0.95779  1.0000
  H   H7745     1.0  0.97431  0.04100  0.77123  1.0000
  H   H7746     1.0  0.90968  0.48748  0.79656  1.0000
  N   N319      1.0  0.98849  0.40798  0.82216  1.0000
  S   S1334     1.0  0.98724  0.23990  0.87586  1.0000
  H   H7747     1.0  0.92365  0.03792  0.73741  1.0000
  S   S1335     1.0  0.81336  0.47054  0.89511  1.0000
  H   H7748     1.0  0.85193  0.00148  0.83943  1.0000
  C   C4560     1.0  0.99015  0.28923  0.87259  1.0000
  H   H7749     1.0  0.85433  0.05710  0.84482  1.0000
  H   H7750     1.0  0.94389  0.27655  0.88452  1.0000
  C   C4561     1.0  0.85453  0.04359  0.85091  1.0000
  H   H7751     1.0  0.86247  0.05577  0.80551  1.0000
  H   H7752     1.0  0.94709  0.27756  0.91179  1.0000
  C   C4562     1.0  0.97888  0.46015  0.78659  1.0000
  H   H7753     1.0  0.93910  0.28752  0.84945  1.0000
  H   H7754     1.0  0.96953  0.43020  0.81420  1.0000
  H   H7755     1.0  0.88916  0.10776  0.82262  1.0000
  H   H7756     1.0  0.88624  0.23823  0.88183  1.0000
  N   N320      1.0  0.86377  0.03221  0.83870  1.0000
  C   C4563     1.0  0.90746  0.29567  0.96462  1.0000
  C   C4564     1.0  0.85415  0.03439  0.82518  1.0000
  C   C4565     1.0  0.86733  0.01386  0.84783  1.0000
  C   C4566     1.0  0.98161  0.12509  0.81654  1.0000
  H   H7757     1.0  0.98701  0.14374  0.78426  1.0000
  H   H7758     1.0  0.95472  0.99598  0.73494  1.0000
  H   H7759     1.0  0.97573  0.11953  0.82972  1.0000
  H   H7760     1.0  0.86124  0.02547  0.81672  1.0000
  H   H7761     1.0  0.87880  0.00646  0.84045  1.0000
  H   H7762     1.0  0.87049  0.01265  0.86018  1.0000
  S   S1336     1.0  0.79229  0.14182  0.91144  1.0000
  H   H7763     1.0  0.75909  0.03831  0.87487  1.0000
  C   C4567     1.0  0.75783  0.12471  0.97103  1.0000
  Fe  Fe668     1.0  0.78863  0.11762  0.90789  1.0000
  S   S1337     1.0  0.81980  0.13367  0.94327  1.0000
  N   N321      1.0  0.87830  0.11811  0.92630  1.0000
  C   C4568     1.0  0.87837  0.12533  0.94084  1.0000
  C   C4569     1.0  0.89655  0.10966  0.91976  1.0000
  C   C4570     1.0  0.86745  0.10500  0.93324  1.0000
  C   C4571     1.0  0.87084  0.13230  0.91315  1.0000
  C   C4572     1.0  0.86068  0.13300  0.95070  1.0000
  C   C4573     1.0  0.90965  0.12111  0.91430  1.0000
  H   H7764     1.0  0.98035  0.25887  0.80220  1.0000
  C   C4574     1.0  0.87661  0.13008  0.89469  1.0000
  H   H7765     1.0  0.88507  0.11548  0.95016  1.0000
  H   H7766     1.0  0.88557  0.13567  0.93639  1.0000
  H   H7767     1.0  0.89775  0.10419  0.90885  1.0000
  H   H7768     1.0  0.90108  0.09861  0.92954  1.0000
  H   H7769     1.0  0.94482  0.01210  0.74721  1.0000
  H   H7770     1.0  0.97814  0.06236  0.78558  1.0000
  H   H7771     1.0  0.85658  0.13495  0.91652  1.0000
  H   H7772     1.0  0.87441  0.14422  0.91287  1.0000
  H   H7773     1.0  0.77594  0.07292  0.96969  1.0000
  H   H7774     1.0  0.85384  0.11101  0.93772  1.0000
  H   H7775     1.0  0.85261  0.14222  0.94227  1.0000
  H   H7776     1.0  0.92161  0.11500  0.90649  1.0000
  H   H7777     1.0  0.75067  0.12534  0.96136  1.0000
  H   H7778     1.0  0.91317  0.12278  0.92543  1.0000
  C   C4575     1.0  0.88806  0.00965  0.74782  1.0000
  C   C4576     1.0  0.77023  0.13686  0.96296  1.0000
  C   C4577     1.0  0.99567  0.46249  0.73799  1.0000
  H   H7779     1.0  0.86641  0.13768  0.88782  1.0000
  H   H7780     1.0  0.87899  0.11699  0.89307  1.0000
  H   H7781     1.0  0.88790  0.13569  0.88806  1.0000
  N   N322      1.0  0.84361  0.40908  0.81886  1.0000
  C   C4578     1.0  0.85418  0.40972  0.80116  1.0000
  C   C4579     1.0  0.84707  0.39100  0.82857  1.0000
  C   C4580     1.0  0.84827  0.42004  0.82762  1.0000
  C   C4581     1.0  0.82502  0.41553  0.81800  1.0000
  C   C4582     1.0  0.85475  0.42748  0.78988  1.0000
  C   C4583     1.0  0.83941  0.37865  0.82381  1.0000
  C   C4584     1.0  0.86732  0.41613  0.82844  1.0000
  C   C4585     1.0  0.81204  0.41471  0.83511  1.0000
  H   H7782     1.0  0.86759  0.40283  0.80132  1.0000
  H   H7783     1.0  0.84950  0.40296  0.79428  1.0000
  H   H7784     1.0  0.84259  0.39018  0.84234  1.0000
  H   H7785     1.0  0.86108  0.38559  0.82696  1.0000
  H   H7786     1.0  0.84458  0.43367  0.82165  1.0000
  H   H7787     1.0  0.84081  0.41891  0.84087  1.0000
  H   H7788     1.0  0.82265  0.42909  0.81144  1.0000
  H   H7789     1.0  0.82122  0.40922  0.81001  1.0000
  H   H7790     1.0  0.84193  0.43470  0.78777  1.0000
  H   H7791     1.0  0.86061  0.43490  0.79487  1.0000
  H   H7792     1.0  0.86297  0.42604  0.77732  1.0000
  H   H7793     1.0  0.82523  0.38149  0.82747  1.0000
  H   H7794     1.0  0.84363  0.37845  0.81022  1.0000
  H   H7795     1.0  0.84391  0.36563  0.83086  1.0000
  H   H7796     1.0  0.86921  0.42517  0.83486  1.0000
  H   H7797     1.0  0.87587  0.41775  0.81576  1.0000
  H   H7798     1.0  0.87144  0.40322  0.83586  1.0000
  H   H7799     1.0  0.81039  0.42602  0.84020  1.0000
  H   H7800     1.0  0.81559  0.40328  0.84473  1.0000
  H   H7801     1.0  0.79947  0.41412  0.83337  1.0000
  H   H7802     1.0  0.87983  0.08711  0.91614  1.0000
  C   C4586     1.0  0.82403  0.46721  0.81417  1.0000
  C   C4587     1.0  0.82422  0.38109  0.93575  1.0000
  H   H7803     1.0  0.90018  0.28603  0.96603  1.0000
  H   H7804     1.0  0.85544  0.34868  0.96787  1.0000
  H   H7805     1.0  0.85385  0.12298  0.95866  1.0000
  C   C4588     1.0  0.99037  0.39748  0.85361  1.0000
  C   C4589     1.0  0.89205  0.14476  0.84912  1.0000
  H   H7806     1.0  0.84389  0.06210  0.82150  1.0000
  H   H7807     1.0  0.86240  0.13987  0.95943  1.0000
  H   H7808     1.0  0.89644  0.11196  0.83920  1.0000
  H   H7809     1.0  0.85455  0.16590  0.82922  1.0000
  C   C4590     1.0  0.85694  0.27201  0.87610  1.0000
  H   H7810     1.0  0.88104  0.22768  0.86039  1.0000
  C   C4591     1.0  0.89362  0.03389  0.84133  1.0000
  C   C4592     1.0  0.98328  0.20054  0.82566  1.0000
  H   H7811     1.0  0.99763  0.40002  0.86161  1.0000
  H   H7812     1.0  0.98181  0.11519  0.79488  1.0000
  H   H7813     1.0  0.96862  0.47253  0.74411  1.0000
  H   H7814     1.0  0.89993  0.14081  0.81729  1.0000
  C   C4593     1.0  0.85597  0.47612  0.79981  1.0000
  C   C4594     1.0  0.87902  0.34673  0.97501  1.0000
  C   C4595     1.0  0.99464  0.02209  0.80533  1.0000
  C   C4596     1.0  0.85622  0.40465  0.90055  1.0000
  S   S1338     1.0  0.87775  0.99596  0.79474  1.0000
  C   C4597     1.0  0.82385  0.41193  0.92740  1.0000
  H   H7815     1.0  0.88348  0.01996  0.75486  1.0000
  C   C4598     1.0  0.86704  0.09443  0.92112  1.0000
  H   H7816     1.0  0.96143  0.38782  0.81284  1.0000
  H   H7817     1.0  0.80667  0.36795  0.93225  1.0000
  H   H7818     1.0  0.86075  0.10228  0.91073  1.0000
  H   H7819     1.0  0.84160  0.03080  0.83044  1.0000
  C   C4599     1.0  0.94463  0.32104  0.84943  1.0000
  C   C4600     1.0  0.97558  0.42399  0.82525  1.0000
  H   H7820     1.0  0.93206  0.07628  0.73558  1.0000
  C   C4601     1.0  0.94361  0.30832  0.86657  1.0000
  H   H7821     1.0  0.82259  0.07761  0.98100  1.0000
  H   H7822     1.0  0.83523  0.15088  0.83534  1.0000
  H   H7823     1.0  0.83170  0.47552  0.94911  1.0000
  H   H7824     1.0  0.93200  0.30317  0.86900  1.0000
  H   H7825     1.0  0.90570  0.03731  0.83325  1.0000
  C   C4602     1.0  0.98766  0.24493  0.78207  1.0000
  H   H7826     1.0  0.99481  0.05844  0.82802  1.0000
  C   C4603     1.0  0.83614  0.04211  0.86032  1.0000
  H   H7827     1.0  0.89699  0.02042  0.84774  1.0000
  C   C4604     1.0  0.87583  0.21962  0.90217  1.0000
  C   C4605     1.0  0.86672  0.16002  0.82154  1.0000
  H   H7828     1.0  0.97752  0.31031  0.85634  1.0000
  H   H7829     1.0  0.85124  0.38911  0.96360  1.0000
  H   H7830     1.0  0.97161  0.44202  0.73464  1.0000
  C   C4606     1.0  0.97904  0.39455  0.82354  1.0000
  H   H7831     1.0  0.98221  0.14678  0.84876  1.0000
  H   H7832     1.0  0.83226  0.36890  0.94118  1.0000
  N   N323      1.0  0.98144  0.03850  0.80381  1.0000
  C   C4607     1.0  0.81104  0.41825  0.91566  1.0000
  H   H7833     1.0  0.83172  0.42158  0.92451  1.0000
  C   C4608     1.0  0.83137  0.46770  0.79705  1.0000
  C   C4609     1.0  0.87524  0.14118  0.84772  1.0000
  H   H7834     1.0  0.88616  0.21879  0.90858  1.0000
  H   H7835     1.0  0.97015  0.39246  0.83609  1.0000
  H   H7836     1.0  0.85761  0.37995  0.93715  1.0000
  N   N324      1.0  0.95925  0.29428  0.86845  1.0000
  N   N325      1.0  0.86101  0.23977  0.87844  1.0000
  C   C4610     1.0  0.86091  0.25719  0.86717  1.0000
  C   C4611     1.0  0.86758  0.22725  0.86710  1.0000
  C   C4612     1.0  0.87338  0.23678  0.88966  1.0000
  C   C4613     1.0  0.84311  0.23918  0.88872  1.0000
  H   H7837     1.0  0.99687  0.19660  0.82665  1.0000
  C   C4614     1.0  0.85730  0.22986  0.85353  1.0000
  H   H7838     1.0  0.77048  0.47623  0.97950  1.0000
  C   C4615     1.0  0.83856  0.22150  0.89545  1.0000
  H   H7839     1.0  0.97525  0.04166  0.82978  1.0000
  H   H7840     1.0  0.85129  0.26053  0.85919  1.0000
  H   H7841     1.0  0.86833  0.21400  0.87422  1.0000
  H   H7842     1.0  0.86374  0.16022  0.80937  1.0000
  H   H7843     1.0  0.98016  0.18996  0.82244  1.0000
  H   H7844     1.0  0.88906  0.15242  0.85881  1.0000
  H   H7845     1.0  0.84042  0.24516  0.89969  1.0000
  H   H7846     1.0  0.83355  0.24684  0.88101  1.0000
  H   H7847     1.0  0.86799  0.27209  0.88106  1.0000
  H   H7848     1.0  0.86384  0.11879  0.83843  1.0000
  H   H7849     1.0  0.84332  0.23189  0.85870  1.0000
  H   H7850     1.0  0.86020  0.24061  0.84296  1.0000
  H   H7851     1.0  0.86115  0.21844  0.84806  1.0000
  H   H7852     1.0  0.96695  0.16343  0.83952  1.0000
  H   H7853     1.0  0.86166  0.04127  0.86101  1.0000
  H   H7854     1.0  0.87998  0.20877  0.89593  1.0000
  H   H7855     1.0  0.82947  0.22133  0.90786  1.0000
  H   H7856     1.0  0.84942  0.21069  0.89746  1.0000
  H   H7857     1.0  0.83156  0.21914  0.88712  1.0000
  H   H7858     1.0  0.82459  0.46489  0.78923  1.0000
  H   H7859     1.0  0.90081  0.13277  0.85368  1.0000
  C   C4616     1.0  0.99341  0.20711  0.87179  1.0000
  C   C4617     1.0  0.82176  0.10209  0.96407  1.0000
  N   N326      1.0  0.87314  0.14205  0.83026  1.0000
  H   H7860     1.0  0.87268  0.18473  0.81027  1.0000
  C   C4618     1.0  0.91164  0.03378  0.73872  1.0000
  C   C4619     1.0  0.85059  0.05232  0.81400  1.0000
  H   H7861     1.0  0.85871  0.13158  0.81915  1.0000
  H   H7862     1.0  0.90976  0.11172  0.81867  1.0000
  C   C4620     1.0  0.85990  0.13214  0.83184  1.0000
  C   C4621     1.0  0.87856  0.17244  0.81767  1.0000
  H   H7863     1.0  0.99368  0.44098  0.81890  1.0000
  C   C4622     1.0  0.88941  0.13437  0.81923  1.0000
  S   S1339     1.0  0.77412  0.44990  0.89851  1.0000
  C   C4623     1.0  0.95030  0.28801  0.90098  1.0000
  H   H7864     1.0  0.87978  0.17517  0.82936  1.0000
  H   H7865     1.0  0.83619  0.03182  0.87184  1.0000
  H   H7866     1.0  0.87346  0.25751  0.85812  1.0000
  H   H7867     1.0  0.96929  0.31024  0.87799  1.0000
  H   H7868     1.0  0.89908  0.15190  0.83756  1.0000
  H   H7869     1.0  0.76634  0.12354  0.88232  1.0000
  H   H7870     1.0  0.88745  0.13598  0.80627  1.0000
  H   H7871     1.0  0.98609  0.44755  0.79051  1.0000
  H   H7872     1.0  0.87161  0.09590  0.94450  1.0000
  Fe  Fe669     1.0  0.76106  0.46592  0.87764  1.0000
  H   H7873     1.0  0.81585  0.41400  0.90365  1.0000
  H   H7874     1.0  0.87449  0.12834  0.85575  1.0000
  C   C4624     1.0  0.78306  0.47709  0.98101  1.0000
  H   H7875     1.0  0.95617  0.04680  0.79799  1.0000
  H   H7876     1.0  0.97076  0.06051  0.81483  1.0000
  H   H7877     1.0  0.98141  0.09998  0.81408  1.0000
  H   H7878     1.0  0.94301  0.48091  0.77168  1.0000
  C   C4625     1.0  0.98024  0.04827  0.81681  1.0000
  C   C4626     1.0  0.81688  0.48685  0.97041  1.0000
  C   C4627     1.0  0.84047  0.39097  0.95738  1.0000
  H   H7879     1.0  0.75755  0.06487  0.85903  1.0000
  C   C4628     1.0  0.84864  0.47564  0.81697  1.0000
  H   H7880     1.0  0.99176  0.41798  0.79513  1.0000
  C   C4629     1.0  0.99304  0.00957  0.82257  1.0000
  H   H7881     1.0  0.85492  0.40216  0.93383  1.0000
  C   C4630     1.0  0.98261  0.43755  0.82884  1.0000
  H   H7882     1.0  0.86221  0.40191  0.88782  1.0000
  H   H7883     1.0  0.97825  0.24783  0.83219  1.0000
  H   H7884     1.0  0.95496  0.32797  0.84680  1.0000
  C   C4631     1.0  0.98703  0.04277  0.77128  1.0000
  H   H7885     1.0  0.80867  0.43228  0.91189  1.0000
  C   C4632     1.0  0.81538  0.37638  0.92432  1.0000
  C   C4633     1.0  0.91529  0.29363  0.97984  1.0000
  H   H7886     1.0  0.88739  0.02993  0.81983  1.0000
  C   C4634     1.0  0.88077  0.03700  0.83001  1.0000
  H   H7887     1.0  0.84868  0.41786  0.89867  1.0000
  C   C4635     1.0  0.98716  0.11090  0.80644  1.0000
  H   H7888     1.0  0.89923  0.30848  0.96175  1.0000
  C   C4636     1.0  0.92724  0.00511  0.73625  1.0000
  H   H7889     1.0  0.88895  0.04202  0.85072  1.0000
  H   H7890     1.0  0.94608  0.31502  0.83882  1.0000
  H   H7891     1.0  0.97242  0.44926  0.82920  1.0000
  H   H7892     1.0  0.85676  0.99139  0.85958  1.0000
  H   H7893     1.0  0.86689  0.40343  0.90662  1.0000
  H   H7894     1.0  0.79863  0.41455  0.92210  1.0000
  C   C4637     1.0  0.81782  0.12554  0.97718  1.0000
  H   H7895     1.0  0.85533  0.47876  0.82466  1.0000
  Fe  Fe670     1.0  0.91614  0.45550  0.74266  1.0000
  C   C4638     1.0  0.95117  0.27809  0.85081  1.0000
  C   C4639     1.0  0.84741  0.47190  0.78994  1.0000
  H   H7896     1.0  0.97978  0.23974  0.77682  1.0000
  H   H7897     1.0  0.99686  0.47180  0.79055  1.0000
  H   H7898     1.0  0.79369  0.07664  0.97578  1.0000
  H   H7899     1.0  0.98468  0.00093  0.82352  1.0000
  H   H7900     1.0  0.97797  0.15873  0.81217  1.0000
  H   H7901     1.0  0.98730  0.21323  0.79970  1.0000
  H   H7902     1.0  0.82838  0.04034  0.85247  1.0000
  H   H7903     1.0  0.83652  0.39226  0.90204  1.0000
  H   H7904     1.0  0.99445  0.01483  0.79620  1.0000
  H   H7905     1.0  0.86851  0.20694  0.97772  1.0000
  H   H7906     1.0  0.97500  0.20211  0.83809  1.0000
  C   C4640     1.0  0.97359  0.30189  0.86874  1.0000
  H   H7907     1.0  0.98801  0.38207  0.82302  1.0000
  H   H7908     1.0  0.93241  0.33068  0.84978  1.0000
  H   H7909     1.0  0.85905  0.08502  0.92815  1.0000
  C   C4641     1.0  0.85315  0.00397  0.85128  1.0000
  C   C4642     1.0  0.99712  0.05229  0.81727  1.0000
  H   H7910     1.0  0.99675  0.03086  0.77033  1.0000
  C   C4643     1.0  0.84488  0.39186  0.91040  1.0000
  H   H7911     1.0  0.99755  0.12237  0.84227  1.0000
  H   H7912     1.0  0.97606  0.39902  0.79726  1.0000
  H   H7913     1.0  0.76007  0.04736  0.89113  1.0000
  S   S1340     1.0  0.78255  0.47949  0.86457  1.0000
  H   H7914     1.0  0.81406  0.38490  0.94657  1.0000
  C   C4644     1.0  0.95471  0.47901  0.77580  1.0000
  H   H7915     1.0  0.88540  0.04740  0.73585  1.0000
  H   H7916     1.0  0.89513  0.99826  0.75532  1.0000
  C   C4645     1.0  0.75495  0.11839  0.88710  1.0000
  H   H7917     1.0  0.94836  0.26700  0.86096  1.0000
  H   H7918     1.0  0.82487  0.36908  0.91534  1.0000
  H   H7919     1.0  0.96544  0.14221  0.84173  1.0000
  H   H7920     1.0  0.91795  0.29406  0.95336  1.0000
  H   H7921     1.0  0.83142  0.40284  0.95995  1.0000
  H   H7922     1.0  0.99628  0.28158  0.86287  1.0000
  C   C4646     1.0  0.82000  0.48541  0.95190  1.0000
  H   H7923     1.0  0.77913  0.13366  0.95128  1.0000
  H   H7924     1.0  0.98001  0.22615  0.84132  1.0000
  N   N327      1.0  0.76593  0.10655  0.97770  1.0000
  H   H7925     1.0  0.99062  0.05224  0.75962  1.0000
  H   H7926     1.0  0.92836  0.28543  0.97766  1.0000
  H   H7927     1.0  0.94141  0.02718  0.82107  1.0000
  C   C4647     1.0  0.75430  0.02264  0.89993  1.0000
  H   H7928     1.0  0.99590  0.44989  0.73622  1.0000
  H   H7929     1.0  0.76270  0.14987  0.95921  1.0000
  H   H7930     1.0  0.97580  0.27449  0.85593  1.0000
  H   H7931     1.0  0.98144  0.48788  0.73569  1.0000
  C   C4648     1.0  0.99799  0.14844  0.78486  1.0000
  H   H7932     1.0  0.98805  0.28073  0.88523  1.0000
  C   C4649     1.0  0.94499  0.00796  0.73571  1.0000
  H   H7933     1.0  0.79296  0.46815  0.97403  1.0000
  H   H7934     1.0  0.75251  0.40351  0.87106  1.0000
  C   C4650     1.0  0.82129  0.09100  0.97991  1.0000
  H   H7935     1.0  0.85292  0.47235  0.77667  1.0000
  H   H7936     1.0  0.99587  0.46096  0.75144  1.0000
  H   H7937     1.0  0.87572  0.30343  0.98165  1.0000
  H   H7938     1.0  0.92246  0.25908  0.98264  1.0000
  S   S1341     1.0  0.90955  0.34346  0.98371  1.0000
  S   S1342     1.0  0.92512  0.11218  0.73408  1.0000
  C   C4651     1.0  0.97963  0.47588  0.73390  1.0000
  Fe  Fe671     1.0  0.79799  0.92025  0.07141  1.0000
  S   S1343     1.0  0.79564  0.94825  0.06225  1.0000
  S   S1344     1.0  0.80762  0.90570  0.09491  1.0000
  Fe  Fe672     1.0  0.78962  0.91634  0.03959  1.0000
  S   S1345     1.0  0.78763  0.89893  0.02445  1.0000
  Fe  Fe673     1.0  0.81042  0.94153  0.03754  1.0000
  Fe  Fe674     1.0  0.77233  0.94734  0.05405  1.0000
  C   C4652     1.0  0.97649  0.88899  0.12921  1.0000
  S   S1346     1.0  0.81405  0.91363  0.04710  1.0000
  S   S1347     1.0  0.77363  0.91958  0.06516  1.0000
  Fe  Fe675     1.0  0.85662  0.94035  0.13815  1.0000
  S   S1348     1.0  0.87453  0.94819  0.11388  1.0000
  S   S1349     1.0  0.82913  0.94658  0.13578  1.0000
  Fe  Fe676     1.0  0.88436  0.93056  0.15855  1.0000
  S   S1350     1.0  0.90443  0.93760  0.13557  1.0000
  S   S1351     1.0  0.89412  0.91999  0.18275  1.0000
  Fe  Fe677     1.0  0.88420  0.96035  0.12875  1.0000
  H   H7939     1.0  0.96855  0.94261  0.13219  1.0000
  Fe  Fe678     1.0  0.89294  0.92464  0.12284  1.0000
  S   S1352     1.0  0.91080  0.90975  0.10402  1.0000
  S   S1353     1.0  0.86488  0.95450  0.15261  1.0000
  S   S1354     1.0  0.87436  0.91553  0.14627  1.0000
  Fe  Fe679     1.0  0.89998  0.83377  0.02972  1.0000
  S   S1355     1.0  0.91930  0.84731  0.01086  1.0000
  S   S1356     1.0  0.89155  0.81509  0.02065  1.0000
  Fe  Fe680     1.0  0.89627  0.85461  0.05533  1.0000
  S   S1357     1.0  0.91493  0.87006  0.03845  1.0000
  S   S1358     1.0  0.88247  0.85890  0.08124  1.0000
  Fe  Fe681     1.0  0.90193  0.87090  0.01816  1.0000
  H   H7940     1.0  0.81948  0.63559  0.01384  1.0000
  Fe  Fe682     1.0  0.93064  0.84515  0.03277  1.0000
  S   S1359     1.0  0.95915  0.83616  0.03097  1.0000
  S   S1360     1.0  0.88171  0.85762  0.03540  1.0000
  S   S1361     1.0  0.91280  0.82946  0.05120  1.0000
  H   H7941     1.0  0.80165  0.95465  0.11864  1.0000
  H   H7942     1.0  0.87882  0.52361  0.12039  1.0000
  Fe  Fe683     1.0  0.79063  0.59099  0.08765  1.0000
  S   S1362     1.0  0.80471  0.59099  0.06089  1.0000
  H   H7943     1.0  0.82606  0.49589  0.99634  1.0000
  Fe  Fe684     1.0  0.82357  0.57798  0.10132  1.0000
  S   S1363     1.0  0.84022  0.57702  0.07566  1.0000
  S   S1364     1.0  0.83257  0.57140  0.12570  1.0000
  Fe  Fe685     1.0  0.82321  0.60205  0.06732  1.0000
  S   S1365     1.0  0.83438  0.62277  0.04815  1.0000
  Fe  Fe686     1.0  0.82015  0.56608  0.07183  1.0000
  S   S1366     1.0  0.82811  0.54274  0.06120  1.0000
  S   S1367     1.0  0.80803  0.60396  0.09331  1.0000
  S   S1368     1.0  0.80467  0.56505  0.09826  1.0000
  Fe  Fe687     1.0  0.90238  0.68265  0.05870  1.0000
  S   S1369     1.0  0.88076  0.69658  0.07556  1.0000
  S   S1370     1.0  0.92191  0.65993  0.06842  1.0000
  C   C4653     1.0  0.81316  0.50393  0.99963  1.0000
  Fe  Fe688     1.0  0.88570  0.72014  0.05621  1.0000
  S   S1371     1.0  0.88774  0.74188  0.06616  1.0000
  Fe  Fe689     1.0  0.86428  0.69451  0.05946  1.0000
  S   S1372     1.0  0.83977  0.68542  0.07252  1.0000
  S   S1373     1.0  0.90862  0.70623  0.04028  1.0000
  S   S1374     1.0  0.88567  0.67892  0.04378  1.0000
  Fe  Fe690     1.0  0.91387  0.56672  0.18323  1.0000
  S   S1375     1.0  0.93174  0.54933  0.16690  1.0000
  S   S1376     1.0  0.90450  0.55267  0.20967  1.0000
  Fe  Fe691     1.0  0.91775  0.59798  0.15492  1.0000
  S   S1377     1.0  0.93602  0.58261  0.13702  1.0000
  S   S1378     1.0  0.91038  0.62645  0.14670  1.0000
  Fe  Fe692     1.0  0.91767  0.56526  0.14676  1.0000
  S   S1379     1.0  0.91127  0.55517  0.12754  1.0000
  Fe  Fe693     1.0  0.94803  0.56859  0.15899  1.0000
  S   S1380     1.0  0.97676  0.56067  0.15617  1.0000
  S   S1381     1.0  0.89851  0.58139  0.16356  1.0000
  S   S1382     1.0  0.93102  0.58508  0.17653  1.0000
  S   S1383     1.0  0.86690  0.71952  0.04167  1.0000
  H   H7944     1.0  0.83513  0.95496  0.05891  1.0000
  H   H7945     1.0  0.83672  0.87121  0.99739  1.0000
  H   H7946     1.0  0.87652  0.96936  0.03243  1.0000
  Fe  Fe694     1.0  0.77617  0.49528  0.04095  1.0000
  H   H7947     1.0  0.98372  0.50724  0.09557  1.0000
  H   H7948     1.0  0.84513  0.91410  0.12644  1.0000
  H   H7949     1.0  0.95712  0.98476  0.21739  1.0000
  N   N328      1.0  0.85952  0.61662  0.99733  1.0000
  H   H7950     1.0  0.98647  0.52524  0.13825  1.0000
  H   H7951     1.0  0.92912  0.96019  0.13716  1.0000
  H   H7952     1.0  0.93124  0.97959  0.13911  1.0000
  C   C4654     1.0  0.98617  0.57455  0.16116  1.0000
  C   C4655     1.0  0.97628  0.58986  0.16507  1.0000
  C   C4656     1.0  0.98371  0.60072  0.16937  1.0000
  H   H7953     1.0  0.96292  0.59345  0.16463  1.0000
  H   H7954     1.0  0.97589  0.61247  0.17258  1.0000
  C   C4657     1.0  0.91354  0.63566  0.12490  1.0000
  C   C4658     1.0  0.92411  0.62652  0.11291  1.0000
  C   C4659     1.0  0.92656  0.63413  0.09566  1.0000
  C   C4660     1.0  0.91834  0.65091  0.09019  1.0000
  C   C4661     1.0  0.90781  0.66013  0.10214  1.0000
  C   C4662     1.0  0.90555  0.65256  0.11944  1.0000
  H   H7955     1.0  0.93056  0.61366  0.11681  1.0000
  H   H7956     1.0  0.93479  0.62695  0.08649  1.0000
  H   H7957     1.0  0.90167  0.67319  0.09810  1.0000
  H   H7958     1.0  0.89746  0.65981  0.12861  1.0000
  C   C4663     1.0  0.79010  0.52898  0.03985  1.0000
  C   C4664     1.0  0.86565  0.50875  0.11242  1.0000
  C   C4665     1.0  0.80974  0.52167  0.05863  1.0000
  C   C4666     1.0  0.81278  0.53805  0.05346  1.0000
  C   C4667     1.0  0.80418  0.55008  0.04169  1.0000
  C   C4668     1.0  0.79296  0.54548  0.03476  1.0000
  H   H7959     1.0  0.92785  0.51285  0.14551  1.0000
  H   H7960     1.0  0.81624  0.51241  0.06784  1.0000
  H   H7961     1.0  0.80658  0.56273  0.03759  1.0000
  C   C4669     1.0  0.79818  0.51726  0.05211  1.0000
  C   C4670     1.0  0.83488  0.64064  0.05480  1.0000
  C   C4671     1.0  0.82531  0.64399  0.07041  1.0000
  C   C4672     1.0  0.82628  0.65820  0.07549  1.0000
  C   C4673     1.0  0.83713  0.66887  0.06515  1.0000
  C   C4674     1.0  0.84626  0.66576  0.04936  1.0000
  C   C4675     1.0  0.84510  0.65173  0.04418  1.0000
  H   H7962     1.0  0.81727  0.63563  0.07862  1.0000
  H   H7963     1.0  0.81905  0.66066  0.08767  1.0000
  H   H7964     1.0  0.85413  0.67428  0.04105  1.0000
  H   H7965     1.0  0.85234  0.64943  0.03199  1.0000
  C   C4676     1.0  0.85454  0.56735  0.12565  1.0000
  C   C4677     1.0  0.85937  0.56681  0.14049  1.0000
  C   C4678     1.0  0.87673  0.56317  0.14112  1.0000
  C   C4679     1.0  0.88941  0.55995  0.12692  1.0000
  C   C4680     1.0  0.88460  0.56031  0.11209  1.0000
  C   C4681     1.0  0.86720  0.56412  0.11141  1.0000
  H   H7966     1.0  0.84963  0.56917  0.15158  1.0000
  H   H7967     1.0  0.88025  0.56260  0.15270  1.0000
  H   H7968     1.0  0.89436  0.55771  0.10109  1.0000
  H   H7969     1.0  0.86362  0.56432  0.09997  1.0000
  H   H7970     1.0  0.78041  0.52504  0.08870  1.0000
  C   C4682     1.0  0.96951  0.51190  0.15812  1.0000
  H   H7971     1.0  0.83172  0.98018  0.14122  1.0000
  H   H7972     1.0  0.85945  0.85214  0.99973  1.0000
  H   H7973     1.0  0.98199  0.83915  0.99683  1.0000
  C   C4683     1.0  0.87890  0.90968  0.00458  1.0000
  H   H7974     1.0  0.85659  0.74341  0.99201  1.0000
  C   C4684     1.0  0.97790  0.50441  0.12319  1.0000
  H   H7975     1.0  0.94685  0.98872  0.15950  1.0000
  C   C4685     1.0  0.88945  0.79513  0.03369  1.0000
  C   C4686     1.0  0.89024  0.79138  0.05069  1.0000
  C   C4687     1.0  0.88947  0.77504  0.06054  1.0000
  C   C4688     1.0  0.88791  0.76236  0.05348  1.0000
  C   C4689     1.0  0.88696  0.76617  0.03652  1.0000
  C   C4690     1.0  0.88765  0.78253  0.02668  1.0000
  H   H7976     1.0  0.89151  0.80102  0.05624  1.0000
  H   H7977     1.0  0.89014  0.77216  0.07368  1.0000
  H   H7978     1.0  0.88575  0.75647  0.03099  1.0000
  H   H7979     1.0  0.88703  0.78536  0.01353  1.0000
  C   C4691     1.0  0.96867  0.87806  0.03857  1.0000
  C   C4692     1.0  0.96100  0.86718  0.03452  1.0000
  H   H7980     1.0  0.96273  0.89139  0.03722  1.0000
  H   H7981     1.0  0.94941  0.87227  0.02979  1.0000
  H   H7982     1.0  0.75262  0.95943  0.01049  1.0000
  C   C4693     1.0  0.87443  0.94539  0.19951  1.0000
  H   H7983     1.0  0.85901  0.96454  0.21327  1.0000
  C   C4694     1.0  0.84301  0.88124  0.07342  1.0000
  H   H7984     1.0  0.89153  0.90380  0.06320  1.0000
  C   C4695     1.0  0.75586  0.94958  0.00296  1.0000
  H   H7985     1.0  0.86913  0.95118  0.18840  1.0000
  H   H7986     1.0  0.95593  0.61886  0.20198  1.0000
  H   H7987     1.0  0.84543  0.53485  0.12239  1.0000
  H   H7988     1.0  0.93560  0.88296  0.98865  1.0000
  C   C4696     1.0  0.96944  0.92874  0.15745  1.0000
  H   H7989     1.0  0.90307  0.91114  0.21494  1.0000
  H   H7990     1.0  0.82358  0.50589  0.12625  1.0000
  H   H7991     1.0  0.75054  0.63773  0.08746  1.0000
  C   C4697     1.0  0.94111  0.50829  0.13873  1.0000
  C   C4698     1.0  0.90296  0.89495  0.09868  1.0000
  C   C4699     1.0  0.91366  0.88554  0.08693  1.0000
  C   C4700     1.0  0.90761  0.87404  0.08195  1.0000
  C   C4701     1.0  0.89076  0.87202  0.08857  1.0000
  C   C4702     1.0  0.88017  0.88113  0.10065  1.0000
  C   C4703     1.0  0.88623  0.89265  0.10564  1.0000
  H   H7992     1.0  0.92661  0.88725  0.08149  1.0000
  H   H7993     1.0  0.91600  0.86677  0.07297  1.0000
  H   H7994     1.0  0.86716  0.87954  0.10591  1.0000
  H   H7995     1.0  0.87792  0.89983  0.11477  1.0000
  H   H7996     1.0  0.79322  0.93900  0.10227  1.0000
  S   S1384     1.0  0.99321  0.88579  0.04939  1.0000
  C   C4704     1.0  0.86865  0.90675  0.02080  1.0000
  C   C4705     1.0  0.85462  0.91938  0.02590  1.0000
  H   H7997     1.0  0.87166  0.89485  0.02951  1.0000
  H   H7998     1.0  0.84725  0.91726  0.03863  1.0000
  C   C4706     1.0  0.81419  0.91753  0.10533  1.0000
  C   C4707     1.0  0.82888  0.91057  0.11213  1.0000
  C   C4708     1.0  0.83391  0.91962  0.12105  1.0000
  C   C4709     1.0  0.82398  0.93545  0.12360  1.0000
  C   C4710     1.0  0.80938  0.94243  0.11668  1.0000
  C   C4711     1.0  0.80462  0.93360  0.10738  1.0000
  H   H7999     1.0  0.83629  0.89812  0.11064  1.0000
  N   N329      1.0  0.86773  0.93715  0.06583  1.0000
  H   H8000     1.0  0.91560  0.95101  0.16311  1.0000
  C   C4712     1.0  0.85242  0.94602  0.07703  1.0000
  C   C4713     1.0  0.88364  0.93557  0.07196  1.0000
  C   C4714     1.0  0.83304  0.51888  0.10127  1.0000
  C   C4715     1.0  0.84246  0.52367  0.13243  1.0000
  H   H8001     1.0  0.85838  0.82939  0.09496  1.0000
  C   C4716     1.0  0.88926  0.95209  0.07007  1.0000
  C   C4717     1.0  0.98082  0.60202  0.22408  1.0000
  H   H8002     1.0  0.86341  0.91291  0.08170  1.0000
  H   H8003     1.0  0.87410  0.49457  0.23163  1.0000
  H   H8004     1.0  0.85377  0.95852  0.07765  1.0000
  H   H8005     1.0  0.85125  0.93880  0.09037  1.0000
  H   H8006     1.0  0.88215  0.92897  0.08550  1.0000
  H   H8007     1.0  0.89496  0.92768  0.06510  1.0000
  H   H8008     1.0  0.77615  0.62842  0.09997  1.0000
  C   C4718     1.0  0.98912  0.84774  0.98652  1.0000
  H   H8009     1.0  0.94992  0.74363  0.04475  1.0000
  H   H8010     1.0  0.95813  0.85255  0.09971  1.0000
  H   H8011     1.0  0.93146  0.74231  0.03852  1.0000
  C   C4719     1.0  0.75563  0.60425  0.06450  1.0000
  H   H8012     1.0  0.90105  0.52951  0.17715  1.0000
  H   H8013     1.0  0.84226  0.90436  0.00173  1.0000
  H   H8014     1.0  0.90036  0.94901  0.07615  1.0000
  H   H8015     1.0  0.87926  0.96141  0.07643  1.0000
  H   H8016     1.0  0.89376  0.95786  0.05663  1.0000
  C   C4720     1.0  0.86599  0.96524  0.04279  1.0000
  C   C4721     1.0  0.76709  0.55146  0.08005  1.0000
  H   H8017     1.0  0.92839  0.74991  0.05698  1.0000
  H   H8018     1.0  0.75725  0.89993  0.98490  1.0000
  H   H8019     1.0  0.96421  0.87521  0.99433  1.0000
  H   H8020     1.0  0.88710  0.60962  0.98848  1.0000
  H   H8021     1.0  0.97015  0.96198  0.15823  1.0000
  H   H8022     1.0  0.77338  0.53754  0.10477  1.0000
  H   H8023     1.0  0.99182  0.50300  0.12239  1.0000
  C   C4722     1.0  0.93914  0.95624  0.16621  1.0000
  H   H8024     1.0  0.97730  0.85193  0.08383  1.0000
  C   C4723     1.0  0.88293  0.62561  0.00591  1.0000
  C   C4724     1.0  0.85932  0.60224  0.01265  1.0000
  H   H8025     1.0  0.95410  0.58972  0.19828  1.0000
  H   H8026     1.0  0.93206  0.79358  0.00434  1.0000
  C   C4725     1.0  0.79489  0.90673  0.00277  1.0000
  H   H8027     1.0  0.75239  0.56242  0.10957  1.0000
  C   C4726     1.0  0.98262  0.64580  0.12216  1.0000
  H   H8028     1.0  0.99500  0.61725  0.11155  1.0000
  C   C4727     1.0  0.95924  0.94104  0.14453  1.0000
  C   C4728     1.0  0.75554  0.66248  0.05844  1.0000
  H   H8029     1.0  0.94446  0.88095  0.14356  1.0000
  C   C4729     1.0  0.88659  0.49830  0.22579  1.0000
  C   C4730     1.0  0.87975  0.90764  0.05817  1.0000
  H   H8030     1.0  0.95235  0.55624  0.11575  1.0000
  C   C4731     1.0  0.86952  0.94564  0.04738  1.0000
  H   H8031     1.0  0.79939  0.64938  0.04465  1.0000
  H   H8032     1.0  0.83075  0.88966  0.01633  1.0000
  C   C4732     1.0  0.95264  0.58071  0.21071  1.0000
  H   H8033     1.0  0.93157  0.93215  0.16851  1.0000
  H   H8034     1.0  0.86355  0.51978  0.10180  1.0000
  C   C4733     1.0  0.97503  0.78518  0.02786  1.0000
  C   C4734     1.0  0.85074  0.93499  0.01481  1.0000
  S   S1385     1.0  0.76195  0.59909  0.09615  1.0000
  H   H8035     1.0  0.78660  0.50538  0.00052  1.0000
  H   H8036     1.0  0.87046  0.59159  0.01025  1.0000
  C   C4735     1.0  0.87131  0.85408  0.99036  1.0000
  H   H8037     1.0  0.98531  0.90560  0.09355  1.0000
  H   H8038     1.0  0.77690  0.68863  0.07784  1.0000
  C   C4736     1.0  0.95668  0.98665  0.14797  1.0000
  H   H8039     1.0  0.79131  0.54075  0.08791  1.0000
  N   N330      1.0  0.76749  0.65347  0.07028  1.0000
  H   H8040     1.0  0.96536  0.53714  0.14403  1.0000
  H   H8041     1.0  0.76929  0.60067  0.06007  1.0000
  C   C4737     1.0  0.87535  0.94545  0.22823  1.0000
  H   H8042     1.0  0.75744  0.63671  0.11390  1.0000
  S   S1386     1.0  0.88949  0.98620  0.11715  1.0000
  H   H8043     1.0  0.95472  0.79221  0.00202  1.0000
  C   C4738     1.0  0.98396  0.87179  0.04435  1.0000
  H   H8044     1.0  0.98151  0.96915  0.23312  1.0000
  H   H8045     1.0  0.83070  0.93677  0.07523  1.0000
  H   H8046     1.0  0.75022  0.60868  0.03990  1.0000
  C   C4739     1.0  0.88676  0.93022  0.19996  1.0000
  N   N331      1.0  0.95017  0.95805  0.14863  1.0000
  H   H8047     1.0  0.86064  0.94205  0.04189  1.0000
  H   H8048     1.0  0.96395  0.89692  0.13370  1.0000
  H   H8049     1.0  0.99473  0.59804  0.22398  1.0000
  C   C4740     1.0  0.84648  0.63227  0.00122  1.0000
  C   C4741     1.0  0.84202  0.89070  0.00570  1.0000
  C   C4742     1.0  0.83981  0.88378  0.99146  1.0000
  H   H8050     1.0  0.97832  0.59370  0.20343  1.0000
  H   H8051     1.0  0.92486  0.88107  0.13886  1.0000
  H   H8052     1.0  0.97665  0.49884  0.15730  1.0000
  N   N332      1.0  0.83060  0.85759  0.06989  1.0000
  C   C4743     1.0  0.81512  0.84977  0.07690  1.0000
  C   C4744     1.0  0.84607  0.84446  0.07440  1.0000
  C   C4745     1.0  0.83337  0.86348  0.05099  1.0000
  C   C4746     1.0  0.82762  0.87272  0.07740  1.0000
  C   C4747     1.0  0.79845  0.86036  0.07128  1.0000
  C   C4748     1.0  0.84658  0.83925  0.09329  1.0000
  C   C4749     1.0  0.83609  0.84964  0.04114  1.0000
  H   H8053     1.0  0.82111  0.51810  0.09826  1.0000
  H   H8054     1.0  0.81771  0.83716  0.07377  1.0000
  H   H8055     1.0  0.81202  0.84725  0.09092  1.0000
  H   H8056     1.0  0.87558  0.89580  0.05952  1.0000
  H   H8057     1.0  0.84710  0.83260  0.07041  1.0000
  H   H8058     1.0  0.82257  0.87387  0.04731  1.0000
  H   H8059     1.0  0.84469  0.86932  0.04585  1.0000
  H   H8060     1.0  0.81689  0.88267  0.07308  1.0000
  H   H8061     1.0  0.82327  0.86942  0.09138  1.0000
  H   H8062     1.0  0.78795  0.85356  0.07784  1.0000
  H   H8063     1.0  0.79440  0.87290  0.07472  1.0000
  H   H8064     1.0  0.79945  0.86204  0.05756  1.0000
  H   H8065     1.0  0.94721  0.49782  0.20057  1.0000
  H   H8066     1.0  0.77416  0.55155  0.06684  1.0000
  H   H8067     1.0  0.83555  0.83375  0.10110  1.0000
  H   H8068     1.0  0.82528  0.84313  0.04508  1.0000
  H   H8069     1.0  0.84827  0.84021  0.04221  1.0000
  H   H8070     1.0  0.83702  0.85561  0.02756  1.0000
  H   H8071     1.0  0.83913  0.89497  0.06815  1.0000
  H   H8072     1.0  0.98592  0.89715  0.12323  1.0000
  C   C4750     1.0  0.75690  0.64773  0.08754  1.0000
  N   N333      1.0  0.96255  0.88359  0.10750  1.0000
  C   C4751     1.0  0.96837  0.87570  0.09223  1.0000
  C   C4752     1.0  0.95842  0.90251  0.10103  1.0000
  C   C4753     1.0  0.94652  0.87774  0.11798  1.0000
  C   C4754     1.0  0.97665  0.87784  0.11726  1.0000
  H   H8073     1.0  0.97641  0.91720  0.15249  1.0000
  C   C4755     1.0  0.97332  0.91007  0.08877  1.0000
  H   H8074     1.0  0.94790  0.49946  0.14827  1.0000
  H   H8075     1.0  0.89535  0.62950  0.00017  1.0000
  H   H8076     1.0  0.95930  0.88129  0.08353  1.0000
  H   H8077     1.0  0.98090  0.87845  0.08473  1.0000
  C   C4756     1.0  0.76669  0.64022  0.10195  1.0000
  H   H8078     1.0  0.94765  0.90617  0.09435  1.0000
  H   H8079     1.0  0.93711  0.88009  0.10996  1.0000
  H   H8080     1.0  0.94934  0.86384  0.12304  1.0000
  C   C4757     1.0  0.77962  0.63818  0.06453  1.0000
  H   H8081     1.0  0.96989  0.79623  0.03381  1.0000
  H   H8082     1.0  0.75433  0.64166  0.04770  1.0000
  H   H8083     1.0  0.86490  0.97143  0.05310  1.0000
  C   C4758     1.0  0.79021  0.64138  0.04628  1.0000
  H   H8084     1.0  0.97577  0.90719  0.07614  1.0000
  H   H8085     1.0  0.78662  0.55464  0.02537  1.0000
  H   H8086     1.0  0.84081  0.58905  0.00980  1.0000
  H   H8087     1.0  0.82483  0.62171  0.99975  1.0000
  H   H8088     1.0  0.86266  0.52159  0.14611  1.0000
  C   C4759     1.0  0.87714  0.62057  0.99241  1.0000
  H   H8089     1.0  0.84349  0.51632  0.09024  1.0000
  H   H8090     1.0  0.94716  0.95105  0.17586  1.0000
  H   H8091     1.0  0.78745  0.53225  0.98531  1.0000
  N   N334      1.0  0.87088  0.63120  0.09600  1.0000
  C   C4760     1.0  0.87966  0.64207  0.08040  1.0000
  C   C4761     1.0  0.85676  0.64300  0.10542  1.0000
  C   C4762     1.0  0.86354  0.61965  0.09031  1.0000
  C   C4763     1.0  0.88409  0.62112  0.10618  1.0000
  C   C4764     1.0  0.89352  0.63249  0.06786  1.0000
  C   C4765     1.0  0.86253  0.65524  0.11232  1.0000
  C   C4766     1.0  0.84847  0.61249  0.10268  1.0000
  C   C4767     1.0  0.87776  0.61054  0.12373  1.0000
  H   H8092     1.0  0.87011  0.65090  0.07322  1.0000
  H   H8093     1.0  0.88611  0.65027  0.08373  1.0000
  H   H8094     1.0  0.84866  0.63609  0.11636  1.0000
  H   H8095     1.0  0.84782  0.65084  0.09718  1.0000
  H   H8096     1.0  0.85872  0.62634  0.07859  1.0000
  H   H8097     1.0  0.87367  0.60859  0.08692  1.0000
  H   H8098     1.0  0.89383  0.61195  0.09927  1.0000
  H   H8099     1.0  0.89171  0.62933  0.10770  1.0000
  H   H8100     1.0  0.88833  0.62460  0.06276  1.0000
  H   H8101     1.0  0.89871  0.64189  0.05692  1.0000
  H   H8102     1.0  0.90456  0.62478  0.07344  1.0000
  H   H8103     1.0  0.85105  0.66272  0.11947  1.0000
  H   H8104     1.0  0.87110  0.64843  0.12118  1.0000
  H   H8105     1.0  0.86865  0.66457  0.10209  1.0000
  H   H8106     1.0  0.83657  0.62249  0.10390  1.0000
  H   H8107     1.0  0.85114  0.60612  0.11529  1.0000
  H   H8108     1.0  0.84582  0.60285  0.09756  1.0000
  H   H8109     1.0  0.87749  0.59771  0.12282  1.0000
  H   H8110     1.0  0.86515  0.61646  0.13051  1.0000
  H   H8111     1.0  0.88669  0.60922  0.13193  1.0000
  N   N335      1.0  0.94414  0.77952  0.03670  1.0000
  C   C4768     1.0  0.93490  0.76812  0.03313  1.0000
  C   C4769     1.0  0.93854  0.79708  0.02657  1.0000
  C   C4770     1.0  0.93833  0.77977  0.05523  1.0000
  C   C4771     1.0  0.96318  0.77255  0.03209  1.0000
  C   C4772     1.0  0.93649  0.75000  0.04410  1.0000
  C   C4773     1.0  0.94161  0.79863  0.00739  1.0000
  C   C4774     1.0  0.94630  0.79055  0.06178  1.0000
  H   H8112     1.0  0.92102  0.77384  0.03453  1.0000
  H   H8113     1.0  0.93942  0.76665  0.01982  1.0000
  H   H8114     1.0  0.94463  0.80643  0.02837  1.0000
  H   H8115     1.0  0.92459  0.80193  0.03104  1.0000
  H   H8116     1.0  0.92414  0.78416  0.05856  1.0000
  H   H8117     1.0  0.94130  0.76684  0.06314  1.0000
  H   H8118     1.0  0.96733  0.76188  0.04235  1.0000
  H   H8119     1.0  0.96630  0.76705  0.02072  1.0000
  H   H8120     1.0  0.98821  0.53270  0.10812  1.0000
  H   H8121     1.0  0.85832  0.95001  0.99007  1.0000
  C   C4775     1.0  0.91318  0.50895  0.19501  1.0000
  H   H8122     1.0  0.81340  0.51741  0.99394  1.0000
  H   H8123     1.0  0.93633  0.62946  0.21357  1.0000
  H   H8124     1.0  0.78495  0.88980  0.99480  1.0000
  H   H8125     1.0  0.94469  0.80390  0.05482  1.0000
  C   C4776     1.0  0.89525  0.98510  0.14788  1.0000
  H   H8126     1.0  0.93975  0.79078  0.07511  1.0000
  N   N336      1.0  0.96806  0.52159  0.12640  1.0000
  H   H8127     1.0  0.84523  0.60650  0.98558  1.0000
  C   C4777     1.0  0.88695  0.69684  0.98947  1.0000
  C   C4778     1.0  0.98399  0.84368  0.04178  1.0000
  C   C4779     1.0  0.94892  0.52381  0.12901  1.0000
  H   H8128     1.0  0.76098  0.67764  0.09131  1.0000
  H   H8129     1.0  0.89171  0.97295  0.15200  1.0000
  H   H8130     1.0  0.90487  0.98610  0.20326  1.0000
  H   H8131     1.0  0.98475  0.57682  0.21989  1.0000
  C   C4780     1.0  0.82756  0.63314  0.00152  1.0000
  H   H8132     1.0  0.97923  0.93419  0.15948  1.0000
  C   C4781     1.0  0.87632  0.68593  0.99954  1.0000
  H   H8133     1.0  0.84346  0.51544  0.15946  1.0000
  C   C4782     1.0  0.90062  0.51603  0.18297  1.0000
  H   H8134     1.0  0.88514  0.61489  0.01673  1.0000
  H   H8135     1.0  0.84993  0.64372  0.99203  1.0000
  H   H8136     1.0  0.97029  0.56159  0.09980  1.0000
  H   H8137     1.0  0.96979  0.92407  0.08696  1.0000
  H   H8138     1.0  0.93560  0.61449  0.20252  1.0000
  C   C4783     1.0  0.83502  0.94879  0.07232  1.0000
  C   C4784     1.0  0.87021  0.67632  0.99214  1.0000
  H   H8139     1.0  0.88259  0.94091  0.04021  1.0000
  H   H8140     1.0  0.82760  0.49831  0.15648  1.0000
  H   H8141     1.0  0.85432  0.87619  0.06434  1.0000
  H   H8142     1.0  0.98720  0.98006  0.20452  1.0000
  C   C4785     1.0  0.97565  0.58918  0.21736  1.0000
  H   H8143     1.0  0.96115  0.97242  0.11517  1.0000
  H   H8144     1.0  0.97715  0.56274  0.20384  1.0000
  C   C4786     1.0  0.94326  0.61720  0.21000  1.0000
  N   N337      1.0  0.97185  0.63423  0.12159  1.0000
  H   H8145     1.0  0.96342  0.60166  0.13056  1.0000
  H   H8146     1.0  0.76718  0.95209  0.99287  1.0000
  C   C4787     1.0  0.96615  0.63985  0.10503  1.0000
  C   C4788     1.0  0.95673  0.63313  0.13631  1.0000
  C   C4789     1.0  0.97526  0.60281  0.12077  1.0000
  C   C4790     1.0  0.96318  0.56336  0.20713  1.0000
  C   C4791     1.0  0.95451  0.65757  0.10154  1.0000
  C   C4792     1.0  0.94692  0.64970  0.14231  1.0000
  H   H8147     1.0  0.86166  0.49271  0.14641  1.0000
  C   C4793     1.0  0.84324  0.59463  0.01915  1.0000
  H   H8148     1.0  0.74927  0.93578  0.04518  1.0000
  C   C4794     1.0  0.75034  0.53313  0.07681  1.0000
  H   H8149     1.0  0.97418  0.49406  0.13375  1.0000
  H   H8150     1.0  0.95877  0.63114  0.10399  1.0000
  H   H8151     1.0  0.94725  0.62776  0.13351  1.0000
  H   H8152     1.0  0.96090  0.62407  0.14753  1.0000
  H   H8153     1.0  0.95983  0.56123  0.19609  1.0000
  H   H8154     1.0  0.98069  0.63872  0.14986  1.0000
  C   C4795     1.0  0.84859  0.52424  0.14796  1.0000
  H   H8155     1.0  0.79556  0.50476  0.05659  1.0000
  S   S1387     1.0  0.89471  0.70918  0.99838  1.0000
  H   H8156     1.0  0.83178  0.60386  0.02385  1.0000
  H   H8157     1.0  0.82821  0.52641  0.13617  1.0000
  H   H8158     1.0  0.96042  0.66782  0.10165  1.0000
  H   H8159     1.0  0.94181  0.65820  0.11028  1.0000
  H   H8160     1.0  0.93294  0.65021  0.14514  1.0000
  H   H8161     1.0  0.94894  0.66157  0.13322  1.0000
  H   H8162     1.0  0.94984  0.64967  0.15440  1.0000
  N   N338      1.0  0.84934  0.50766  0.12565  1.0000
  H   H8163     1.0  0.97272  0.60463  0.10808  1.0000
  H   H8164     1.0  0.98939  0.87717  0.10839  1.0000
  H   H8165     1.0  0.97747  0.63940  0.09428  1.0000
  H   H8166     1.0  0.97423  0.51549  0.16748  1.0000
  C   C4796     1.0  0.97067  0.85631  0.09573  1.0000
  H   H8167     1.0  0.82514  0.95712  0.08006  1.0000
  C   C4797     1.0  0.90486  0.56170  0.22607  1.0000
  H   H8168     1.0  0.86076  0.60628  0.02359  1.0000
  H   H8169     1.0  0.95006  0.93448  0.14284  1.0000
  S   S1388     1.0  0.89654  0.89408  0.99789  1.0000
  S   S1389     1.0  0.78684  0.94404  0.02821  1.0000
  C   C4798     1.0  0.96854  0.84993  0.03624  1.0000
  H   H8170     1.0  0.90132  0.98391  0.17148  1.0000
  H   H8171     1.0  0.76251  0.66895  0.04619  1.0000
  S   S1390     1.0  0.83353  0.95121  0.02117  1.0000
  H   H8172     1.0  0.77273  0.62810  0.06598  1.0000
  H   H8173     1.0  0.96099  0.92460  0.16973  1.0000
  N   N339      1.0  0.91439  0.49062  0.20398  1.0000
  C   C4799     1.0  0.85268  0.49192  0.13919  1.0000
  H   H8174     1.0  0.85350  0.91976  0.06416  1.0000
  H   H8175     1.0  0.93978  0.81223  0.00101  1.0000
  Fe  Fe695     1.0  0.88955  0.70390  0.02695  1.0000
  H   H8176     1.0  0.83151  0.53195  0.10270  1.0000
  H   H8177     1.0  0.95567  0.51241  0.16331  1.0000
  H   H8178     1.0  0.97677  0.86471  0.12484  1.0000
  H   H8179     1.0  0.88718  0.51587  0.18968  1.0000
  H   H8180     1.0  0.92588  0.51107  0.18728  1.0000
  H   H8181     1.0  0.78911  0.63238  0.07265  1.0000
  H   H8182     1.0  0.84523  0.58410  0.03022  1.0000
  C   C4800     1.0  0.79165  0.90005  0.99073  1.0000
  C   C4801     1.0  0.94809  0.97033  0.11739  1.0000
  H   H8183     1.0  0.80765  0.92409  0.00647  1.0000
  C   C4802     1.0  0.96340  0.96771  0.14763  1.0000
  N   N340      1.0  0.95739  0.58697  0.22364  1.0000
  C   C4803     1.0  0.86528  0.91944  0.06812  1.0000
  C   C4804     1.0  0.79930  0.49810  0.99497  1.0000
  H   H8184     1.0  0.87272  0.68496  0.01300  1.0000
  C   C4805     1.0  0.99808  0.85577  0.99515  1.0000
  H   H8185     1.0  0.97178  0.55696  0.12129  1.0000
  H   H8186     1.0  0.78475  0.67048  0.05768  1.0000
  H   H8187     1.0  0.95198  0.66015  0.08869  1.0000
  C   C4806     1.0  0.93895  0.96730  0.13619  1.0000
  H   H8188     1.0  0.97369  0.96691  0.13612  1.0000
  H   H8189     1.0  0.93890  0.57995  0.21443  1.0000
  H   H8190     1.0  0.93336  0.89946  0.13034  1.0000
  H   H8191     1.0  0.85417  0.97043  0.03766  1.0000
  H   H8192     1.0  0.84359  0.53713  0.15059  1.0000
  C   C4807     1.0  0.99031  0.64112  0.13799  1.0000
  H   H8193     1.0  0.95598  0.85722  0.99712  1.0000
  H   H8194     1.0  0.83993  0.49292  0.11405  1.0000
  H   H8195     1.0  0.75924  0.53271  0.06435  1.0000
  H   H8196     1.0  0.85358  0.88341  0.01064  1.0000
  H   H8197     1.0  0.88140  0.84982  0.99787  1.0000
  H   H8198     1.0  0.97897  0.78959  0.01400  1.0000
  H   H8199     1.0  0.98098  0.88068  0.14059  1.0000
  H   H8200     1.0  0.81020  0.50277  0.01350  1.0000
  C   C4808     1.0  0.77789  0.66546  0.07063  1.0000
  C   C4809     1.0  0.92581  0.94521  0.17036  1.0000
  S   S1391     1.0  0.77636  0.52300  0.03104  1.0000
  C   C4810     1.0  0.76775  0.68109  0.07801  1.0000
  H   H8201     1.0  0.97548  0.65910  0.12114  1.0000
  H   H8202     1.0  0.78821  0.65877  0.07770  1.0000
  H   H8203     1.0  0.84965  0.98752  0.12710  1.0000
  C   C4811     1.0  0.94475  0.60327  0.22614  1.0000
  C   C4812     1.0  0.83628  0.50555  0.11738  1.0000
  H   H8204     1.0  0.92102  0.96280  0.21998  1.0000
  H   H8205     1.0  0.93179  0.96883  0.16868  1.0000
  C   C4813     1.0  0.98337  0.61681  0.12193  1.0000
  H   H8206     1.0  0.84734  0.84993  0.09818  1.0000
  H   H8207     1.0  0.90282  0.58708  0.21109  1.0000
  H   H8208     1.0  0.99351  0.64624  0.11098  1.0000
  H   H8209     1.0  0.95372  0.90950  0.11133  1.0000
  H   H8210     1.0  0.86198  0.66793  0.00003  1.0000
  H   H8211     1.0  0.85813  0.84863  0.06748  1.0000
  H   H8212     1.0  0.90415  0.50931  0.17249  1.0000
  H   H8213     1.0  0.84685  0.63434  0.01354  1.0000
  H   H8214     1.0  0.88286  0.91324  0.04451  1.0000
  C   C4814     1.0  0.90411  0.57901  0.22329  1.0000
  H   H8215     1.0  0.94213  0.53431  0.13563  1.0000
  C   C4815     1.0  0.86872  0.95294  0.21362  1.0000
  H   H8216     1.0  0.84698  0.88029  0.08526  1.0000
  C   C4816     1.0  0.97397  0.53465  0.11113  1.0000
  H   H8217     1.0  0.75855  0.68949  0.07032  1.0000
  C   C4817     1.0  0.93707  0.88547  0.13346  1.0000
  H   H8218     1.0  0.93971  0.50134  0.12990  1.0000
  H   H8219     1.0  0.96270  0.50296  0.10595  1.0000
  C   C4818     1.0  0.88093  0.51074  0.11813  1.0000
  H   H8220     1.0  0.77305  0.64928  0.10393  1.0000
  H   H8221     1.0  0.94511  0.52762  0.11659  1.0000
  H   H8222     1.0  0.91931  0.94411  0.18388  1.0000
  H   H8223     1.0  0.98710  0.77843  0.03218  1.0000
  H   H8224     1.0  0.78216  0.64694  0.03677  1.0000
  H   H8225     1.0  0.98818  0.61197  0.13379  1.0000
  H   H8226     1.0  0.76687  0.56406  0.08212  1.0000
  C   C4819     1.0  0.97269  0.52467  0.14124  1.0000
  H   H8227     1.0  0.79797  0.62907  0.04342  1.0000
  H   H8228     1.0  0.97862  0.84962  0.10518  1.0000
  C   C4820     1.0  0.96654  0.55334  0.11233  1.0000
  C   C4821     1.0  0.89353  0.92288  0.21448  1.0000
  H   H8229     1.0  0.98888  0.86469  0.00264  1.0000
  H   H8230     1.0  0.87578  0.87869  0.98849  1.0000
  H   H8231     1.0  0.97047  0.53342  0.09976  1.0000
  H   H8232     1.0  0.95995  0.55281  0.21780  1.0000
  H   H8233     1.0  0.98441  0.59043  0.12300  1.0000
  H   H8234     1.0  0.90961  0.51734  0.20417  1.0000
  H   H8235     1.0  0.75939  0.93725  0.01157  1.0000
  C   C4822     1.0  0.87508  0.92528  0.99350  1.0000
  H   H8236     1.0  0.87000  0.49737  0.10677  1.0000
  H   H8237     1.0  0.96002  0.78488  0.06176  1.0000
  H   H8238     1.0  0.89084  0.97372  0.21784  1.0000
  H   H8239     1.0  0.75595  0.52174  0.08557  1.0000
  C   C4823     1.0  0.89855  0.98300  0.21686  1.0000
  H   H8240     1.0  0.92107  0.49653  0.22450  1.0000
  C   C4824     1.0  0.86113  0.93794  0.99865  1.0000
  C   C4825     1.0  0.95529  0.98041  0.23127  1.0000
  H   H8241     1.0  0.87387  0.63663  0.01042  1.0000
  H   H8242     1.0  0.94881  0.95952  0.11187  1.0000
  H   H8243     1.0  0.97939  0.61461  0.21529  1.0000
  C   C4826     1.0  0.77843  0.53781  0.09114  1.0000
  H   H8244     1.0  0.94081  0.98205  0.11040  1.0000
  C   C4827     1.0  0.80409  0.91956  0.99740  1.0000
  H   H8245     1.0  0.88376  0.51194  0.21976  1.0000
  H   H8246     1.0  0.82298  0.64400  0.99169  1.0000
  C   C4828     1.0  0.97621  0.50028  0.10705  1.0000
  H   H8247     1.0  0.75420  0.91697  0.00347  1.0000
  C   C4829     1.0  0.88788  0.93045  0.22854  1.0000
  H   H8248     1.0  0.88417  0.50092  0.12924  1.0000
  H   H8249     1.0  0.98998  0.83037  0.04307  1.0000
  H   H8250     1.0  0.99557  0.65179  0.13835  1.0000
  H   H8251     1.0  0.92080  0.98061  0.22772  1.0000
  C   C4830     1.0  0.91262  0.97279  0.22667  1.0000
  H   H8252     1.0  0.99460  0.54474  0.23052  1.0000
  H   H8253     1.0  0.82799  0.89163  0.98733  1.0000
  H   H8254     1.0  0.89243  0.50939  0.10773  1.0000
  H   H8255     1.0  0.93174  0.60081  0.23209  1.0000
  H   H8256     1.0  0.75905  0.57056  0.04897  1.0000
  C   C4831     1.0  0.96130  0.86737  0.98722  1.0000
  C   C4832     1.0  0.99163  0.85455  0.04595  1.0000
  N   N341      1.0  0.74921  0.54907  0.08235  1.0000
  Fe  Fe696     1.0  0.88057  0.81823  0.40429  1.0000
  S   S1392     1.0  0.89732  0.83147  0.41053  1.0000
  S   S1393     1.0  0.85232  0.82731  0.40496  1.0000
  Fe  Fe697     1.0  0.91034  0.79087  0.39208  1.0000
  S   S1394     1.0  0.92974  0.80230  0.39656  1.0000
  S   S1395     1.0  0.91919  0.76722  0.38135  1.0000
  Fe  Fe698     1.0  0.91118  0.80531  0.42091  1.0000
  H   H8257     1.0  0.95787  0.97910  0.34402  1.0000
  Fe  Fe699     1.0  0.91444  0.82742  0.38563  1.0000
  S   S1396     1.0  0.92668  0.84895  0.36931  1.0000
  S   S1397     1.0  0.89268  0.79230  0.41717  1.0000
  S   S1398     1.0  0.89678  0.81581  0.37869  1.0000
  Fe  Fe700     1.0  0.79196  0.90812  0.42743  1.0000
  S   S1399     1.0  0.77703  0.90511  0.41021  1.0000
  S   S1400     1.0  0.81287  0.88939  0.43927  1.0000
  Fe  Fe701     1.0  0.77438  0.94495  0.42630  1.0000
  H   H8258     1.0  0.99535  0.90107  0.30384  1.0000
  Fe  Fe702     1.0  0.78275  0.93025  0.39514  1.0000
  S   S1401     1.0  0.78960  0.93440  0.36674  1.0000
  C   C4833     1.0  0.84486  0.53483  0.48028  1.0000
  S   S1402     1.0  0.79902  0.93233  0.41145  1.0000
  Fe  Fe703     1.0  0.87977  0.94436  0.26870  1.0000
  S   S1403     1.0  0.88475  0.96298  0.28061  1.0000
  Fe  Fe704     1.0  0.89454  0.91414  0.29407  1.0000
  S   S1404     1.0  0.90104  0.93026  0.30748  1.0000
  S   S1405     1.0  0.89907  0.88572  0.30259  1.0000
  Fe  Fe705     1.0  0.87502  0.94653  0.30542  1.0000
  S   S1406     1.0  0.85983  0.95621  0.32888  1.0000
  Fe  Fe706     1.0  0.91014  0.94510  0.28159  1.0000
  S   S1407     1.0  0.93507  0.95383  0.27236  1.0000
  S   S1408     1.0  0.86776  0.92942  0.29357  1.0000
  S   S1409     1.0  0.90588  0.92752  0.26815  1.0000
  C   C4834     1.0  0.85170  0.54254  0.30412  1.0000
  H   H8259     1.0  0.87095  0.50413  0.47500  1.0000
  H   H8260     1.0  0.97372  0.68064  0.48117  1.0000
  H   H8261     1.0  0.90697  0.96613  0.23945  1.0000
  H   H8262     1.0  0.95620  0.91951  0.30846  1.0000
  C   C4835     1.0  0.97105  0.49602  0.32743  1.0000
  H   H8263     1.0  0.77443  0.55173  0.41662  1.0000
  H   H8264     1.0  0.98910  0.52982  0.24947  1.0000
  H   H8265     1.0  0.95099  0.61657  0.38966  1.0000
  C   C4836     1.0  0.77914  0.51857  0.43456  1.0000
  S   S1410     1.0  0.79614  0.54460  0.45773  1.0000
  H   H8266     1.0  0.98488  0.97373  0.36375  1.0000
  Fe  Fe707     1.0  0.79688  0.59172  0.44142  1.0000
  S   S1411     1.0  0.81890  0.57251  0.45032  1.0000
  S   S1412     1.0  0.80006  0.61874  0.43250  1.0000
  Fe  Fe708     1.0  0.81407  0.55661  0.43563  1.0000
  S   S1413     1.0  0.83737  0.54082  0.42196  1.0000
  Fe  Fe709     1.0  0.79875  0.56271  0.47143  1.0000
  S   S1414     1.0  0.79333  0.57645  0.42487  1.0000
  S   S1415     1.0  0.77675  0.58281  0.46355  1.0000
  Fe  Fe710     1.0  0.89068  0.68093  0.40451  1.0000
  S   S1416     1.0  0.89932  0.66162  0.42661  1.0000
  S   S1417     1.0  0.87910  0.70755  0.40884  1.0000
  Fe  Fe711     1.0  0.89812  0.65406  0.38361  1.0000
  S   S1418     1.0  0.90708  0.63313  0.40423  1.0000
  S   S1419     1.0  0.89762  0.64881  0.35883  1.0000
  Fe  Fe712     1.0  0.88447  0.64564  0.42144  1.0000
  S   S1420     1.0  0.86904  0.62927  0.44260  1.0000
  Fe  Fe713     1.0  0.92097  0.65119  0.40707  1.0000
  S   S1421     1.0  0.94903  0.64158  0.40727  1.0000
  S   S1422     1.0  0.87433  0.66550  0.40065  1.0000
  S   S1423     1.0  0.91348  0.67161  0.38524  1.0000
  Fe  Fe714     1.0  0.90734  0.56963  0.29453  1.0000
  S   S1424     1.0  0.93094  0.55597  0.30479  1.0000
  S   S1425     1.0  0.90972  0.58449  0.26754  1.0000
  Fe  Fe715     1.0  0.88315  0.56047  0.32841  1.0000
  S   S1426     1.0  0.90472  0.54604  0.34113  1.0000
  S   S1427     1.0  0.85540  0.56350  0.34213  1.0000
  Fe  Fe716     1.0  0.91742  0.56766  0.32720  1.0000
  S   S1428     1.0  0.93093  0.57612  0.34227  1.0000
  Fe  Fe717     1.0  0.91602  0.53580  0.31775  1.0000
  S   S1429     1.0  0.92715  0.50796  0.32065  1.0000
  S   S1430     1.0  0.89497  0.58306  0.31600  1.0000
  S   S1431     1.0  0.89338  0.54844  0.30588  1.0000
  H   H8267     1.0  0.83757  0.51250  0.30055  1.0000
  H   H8268     1.0  0.95544  0.87280  0.32235  1.0000
  C   C4837     1.0  0.92499  0.50079  0.30393  1.0000
  C   C4838     1.0  0.77412  0.50236  0.44653  1.0000
  C   C4839     1.0  0.96938  0.76991  0.47490  1.0000
  C   C4840     1.0  0.92196  0.50608  0.27507  1.0000
  C   C4841     1.0  0.92416  0.51182  0.28828  1.0000
  H   H8269     1.0  0.92128  0.51463  0.26298  1.0000
  H   H8270     1.0  0.92526  0.52476  0.28635  1.0000
  C   C4842     1.0  0.90691  0.62852  0.35438  1.0000
  C   C4843     1.0  0.91486  0.61540  0.36583  1.0000
  C   C4844     1.0  0.92215  0.59936  0.36202  1.0000
  C   C4845     1.0  0.92134  0.59625  0.34681  1.0000
  C   C4846     1.0  0.91322  0.60928  0.33540  1.0000
  C   C4847     1.0  0.90605  0.62537  0.33917  1.0000
  H   H8271     1.0  0.91541  0.61756  0.37762  1.0000
  H   H8272     1.0  0.92824  0.58927  0.37096  1.0000
  H   H8273     1.0  0.91262  0.60705  0.32357  1.0000
  H   H8274     1.0  0.89984  0.63543  0.33026  1.0000
  H   H8275     1.0  0.87191  0.49430  0.26531  1.0000
  C   C4848     1.0  0.84237  0.54750  0.39982  1.0000
  C   C4849     1.0  0.83021  0.55862  0.39105  1.0000
  C   C4850     1.0  0.83430  0.56329  0.37336  1.0000
  C   C4851     1.0  0.85069  0.55719  0.36432  1.0000
  C   C4852     1.0  0.86286  0.54612  0.37311  1.0000
  C   C4853     1.0  0.85867  0.54119  0.39079  1.0000
  H   H8276     1.0  0.81758  0.56352  0.39780  1.0000
  H   H8277     1.0  0.82478  0.57180  0.36664  1.0000
  H   H8278     1.0  0.87538  0.54102  0.36631  1.0000
  H   H8279     1.0  0.86810  0.53245  0.39746  1.0000
  C   C4854     1.0  0.81865  0.62232  0.43598  1.0000
  C   C4855     1.0  0.82661  0.61161  0.44884  1.0000
  C   C4856     1.0  0.84205  0.61386  0.45069  1.0000
  C   C4857     1.0  0.84956  0.62701  0.43988  1.0000
  C   C4858     1.0  0.84126  0.63819  0.42747  1.0000
  C   C4859     1.0  0.82579  0.63590  0.42559  1.0000
  H   H8280     1.0  0.82076  0.60175  0.45755  1.0000
  H   H8281     1.0  0.84827  0.60528  0.46044  1.0000
  H   H8282     1.0  0.84669  0.64862  0.41935  1.0000
  H   H8283     1.0  0.81952  0.64448  0.41585  1.0000
  C   C4860     1.0  0.97091  0.66819  0.43429  1.0000
  C   C4861     1.0  0.96607  0.76843  0.45827  1.0000
  C   C4862     1.0  0.97493  0.65148  0.41367  1.0000
  C   C4863     1.0  0.95731  0.65196  0.41762  1.0000
  C   C4864     1.0  0.94653  0.66050  0.42995  1.0000
  C   C4865     1.0  0.95335  0.66839  0.43843  1.0000
  H   H8284     1.0  0.78093  0.52635  0.44243  1.0000
  C   C4866     1.0  0.86776  0.83870  0.47257  1.0000
  H   H8285     1.0  0.93296  0.66087  0.43308  1.0000
  H   H8286     1.0  0.94483  0.67507  0.44783  1.0000
  C   C4867     1.0  0.90698  0.55833  0.25514  1.0000
  C   C4868     1.0  0.90655  0.57562  0.25225  1.0000
  Fe  Fe718     1.0  0.99807  0.94330  0.32466  1.0000
  H   H8287     1.0  0.90837  0.55024  0.26729  1.0000
  C   C4869     1.0  0.96574  0.71747  0.39133  1.0000
  H   H8288     1.0  0.83769  0.49976  0.42398  1.0000
  H   H8289     1.0  0.97633  0.87201  0.44719  1.0000
  H   H8290     1.0  0.82390  0.51623  0.32669  1.0000
  H   H8291     1.0  0.76610  0.93066  0.35049  1.0000
  H   H8292     1.0  0.85758  0.54121  0.31483  1.0000
  H   H8293     1.0  0.80459  0.95731  0.42794  1.0000
  C   C4870     1.0  0.98981  0.51553  0.34045  1.0000
  C   C4871     1.0  0.87325  0.50133  0.28772  1.0000
  C   C4872     1.0  0.96080  0.51375  0.35613  1.0000
  C   C4873     1.0  0.94434  0.95319  0.28893  1.0000
  C   C4874     1.0  0.96196  0.95224  0.28590  1.0000
  C   C4875     1.0  0.97577  0.84952  0.39154  1.0000
  C   C4876     1.0  0.96420  0.59035  0.39131  1.0000
  C   C4877     1.0  0.94212  0.95164  0.31856  1.0000
  C   C4878     1.0  0.93439  0.95310  0.30524  1.0000
  H   H8294     1.0  0.96981  0.95182  0.27343  1.0000
  H   H8295     1.0  0.93500  0.85074  0.43769  1.0000
  H   H8296     1.0  0.93444  0.95127  0.33122  1.0000
  H   H8297     1.0  0.92074  0.95415  0.30761  1.0000
  C   C4879     1.0  0.80900  0.94071  0.35626  1.0000
  C   C4880     1.0  0.81782  0.94671  0.36452  1.0000
  C   C4881     1.0  0.83334  0.95153  0.35594  1.0000
  C   C4882     1.0  0.84021  0.95026  0.33909  1.0000
  C   C4883     1.0  0.83137  0.94431  0.33079  1.0000
  C   C4884     1.0  0.81575  0.93964  0.33934  1.0000
  H   H8298     1.0  0.81262  0.94784  0.37745  1.0000
  H   H8299     1.0  0.84012  0.95611  0.36244  1.0000
  H   H8300     1.0  0.83647  0.94348  0.31774  1.0000
  H   H8301     1.0  0.80896  0.93507  0.33284  1.0000
  C   C4885     1.0  0.90810  0.75058  0.38928  1.0000
  C   C4886     1.0  0.91288  0.73698  0.38114  1.0000
  C   C4887     1.0  0.90432  0.72350  0.38718  1.0000
  C   C4888     1.0  0.89076  0.72370  0.40128  1.0000
  C   C4889     1.0  0.88594  0.73735  0.40935  1.0000
  C   C4890     1.0  0.89474  0.75061  0.40354  1.0000
  H   H8302     1.0  0.92324  0.73684  0.37011  1.0000
  H   H8303     1.0  0.90804  0.71308  0.38081  1.0000
  H   H8304     1.0  0.87547  0.73754  0.42028  1.0000
  H   H8305     1.0  0.89109  0.76086  0.41006  1.0000
  C   C4891     1.0  0.83753  0.50997  0.32674  1.0000
  H   H8306     1.0  0.87408  0.53304  0.28641  1.0000
  H   H8307     1.0  0.95741  0.82136  0.41488  1.0000
  H   H8308     1.0  0.80672  0.53119  0.39731  1.0000
  H   H8309     1.0  0.85406  0.53286  0.28275  1.0000
  S   S1432     1.0  0.76785  0.96739  0.43802  1.0000
  C   C4892     1.0  0.78905  0.92160  0.48207  1.0000
  C   C4893     1.0  0.99206  0.83542  0.39280  1.0000
  H   H8310     1.0  0.94101  0.90812  0.27385  1.0000
  H   H8311     1.0  0.92556  0.82987  0.42837  1.0000
  C   C4894     1.0  0.84171  0.84475  0.41430  1.0000
  C   C4895     1.0  0.84887  0.84947  0.42505  1.0000
  C   C4896     1.0  0.83995  0.86325  0.43261  1.0000
  C   C4897     1.0  0.82398  0.87250  0.42926  1.0000
  C   C4898     1.0  0.81699  0.86796  0.41826  1.0000
  C   C4899     1.0  0.82578  0.85404  0.41090  1.0000
  H   H8312     1.0  0.86111  0.84234  0.42777  1.0000
  H   H8313     1.0  0.84542  0.86678  0.44104  1.0000
  N   N342      1.0  0.99180  0.82180  0.40882  1.0000
  H   H8314     1.0  0.82018  0.85044  0.40260  1.0000
  C   C4900     1.0  0.91946  0.85898  0.35050  1.0000
  C   C4901     1.0  0.91174  0.85070  0.34333  1.0000
  C   C4902     1.0  0.90574  0.85899  0.32852  1.0000
  C   C4903     1.0  0.90727  0.87568  0.32086  1.0000
  C   C4904     1.0  0.91513  0.88395  0.32794  1.0000
  C   C4905     1.0  0.92133  0.87557  0.34266  1.0000
  H   H8315     1.0  0.91064  0.83779  0.34900  1.0000
  H   H8316     1.0  0.89983  0.85247  0.32301  1.0000
  H   H8317     1.0  0.91656  0.89672  0.32204  1.0000
  H   H8318     1.0  0.92737  0.88202  0.34811  1.0000
  H   H8319     1.0  0.96270  0.98402  0.31487  1.0000
  H   H8320     1.0  0.86439  0.51634  0.26450  1.0000
  C   C4906     1.0  0.83742  0.49563  0.47035  1.0000
  N   N343      1.0  0.86023  0.78403  0.37265  1.0000
  C   C4907     1.0  0.86457  0.76501  0.37514  1.0000
  C   C4908     1.0  0.86522  0.78869  0.38639  1.0000
  C   C4909     1.0  0.86982  0.79221  0.35582  1.0000
  C   C4910     1.0  0.84129  0.79024  0.37328  1.0000
  C   C4911     1.0  0.86225  0.75790  0.36109  1.0000
  C   C4912     1.0  0.85516  0.78302  0.40451  1.0000
  C   C4913     1.0  0.88945  0.78585  0.35208  1.0000
  C   C4914     1.0  0.83406  0.80922  0.37340  1.0000
  H   H8321     1.0  0.87796  0.75974  0.37671  1.0000
  H   H8322     1.0  0.85658  0.75913  0.38703  1.0000
  H   H8323     1.0  0.86407  0.80259  0.38394  1.0000
  H   H8324     1.0  0.87896  0.78314  0.38653  1.0000
  H   H8325     1.0  0.86501  0.79085  0.34528  1.0000
  H   H8326     1.0  0.86762  0.80609  0.35469  1.0000
  H   H8327     1.0  0.83797  0.78812  0.36222  1.0000
  H   H8328     1.0  0.83379  0.78288  0.38452  1.0000
  H   H8329     1.0  0.86602  0.74385  0.36443  1.0000
  H   H8330     1.0  0.84872  0.76115  0.35989  1.0000
  H   H8331     1.0  0.87058  0.76201  0.34873  1.0000
  H   H8332     1.0  0.85977  0.78750  0.41334  1.0000
  H   H8333     1.0  0.84127  0.78864  0.40615  1.0000
  H   H8334     1.0  0.85728  0.76907  0.40860  1.0000
  H   H8335     1.0  0.89535  0.78908  0.36073  1.0000
  H   H8336     1.0  0.89489  0.79235  0.33915  1.0000
  H   H8337     1.0  0.89352  0.77208  0.35249  1.0000
  H   H8338     1.0  0.83519  0.81251  0.38485  1.0000
  H   H8339     1.0  0.82018  0.81231  0.37341  1.0000
  H   H8340     1.0  0.84020  0.81754  0.36208  1.0000
  H   H8341     1.0  0.99854  0.88631  0.38674  1.0000
  H   H8342     1.0  0.80843  0.49531  0.43722  1.0000
  H   H8343     1.0  0.98571  0.97763  0.26570  1.0000
  H   H8344     1.0  0.76535  0.90121  0.35309  1.0000
  H   H8345     1.0  0.88320  0.66134  0.47483  1.0000
  H   H8346     1.0  0.95684  0.90720  0.33860  1.0000
  H   H8347     1.0  0.99448  0.73536  0.46562  1.0000
  N   N344      1.0  0.98225  0.87915  0.47676  1.0000
  H   H8348     1.0  0.97393  0.85804  0.40018  1.0000
  H   H8349     1.0  0.98480  0.84992  0.45287  1.0000
  H   H8350     1.0  0.95073  0.88201  0.46620  1.0000
  H   H8351     1.0  0.98470  0.91958  0.29148  1.0000
  H   H8352     1.0  0.94242  0.57099  0.24329  1.0000
  H   H8353     1.0  0.93067  0.73966  0.43817  1.0000
  S   S1433     1.0  0.96946  0.94723  0.33251  1.0000
  C   C4915     1.0  0.97120  0.97947  0.23782  1.0000
  C   C4916     1.0  0.78481  0.61724  0.48163  1.0000
  H   H8354     1.0  0.97825  0.58696  0.38970  1.0000
  H   H8355     1.0  0.95677  0.63507  0.47885  1.0000
  H   H8356     1.0  0.99288  0.80928  0.44426  1.0000
  H   H8357     1.0  0.77739  0.51705  0.47637  1.0000
  N   N345      1.0  0.96876  0.61565  0.36564  1.0000
  H   H8358     1.0  0.95518  0.56771  0.26657  1.0000
  C   C4917     1.0  0.84670  0.50627  0.30907  1.0000
  C   C4918     1.0  0.87513  0.50734  0.31360  1.0000
  H   H8359     1.0  0.81105  0.51559  0.43691  1.0000
  C   C4919     1.0  0.96430  0.90383  0.28286  1.0000
  H   H8360     1.0  0.94750  0.60899  0.23519  1.0000
  N   N346      1.0  0.85879  0.60338  0.38405  1.0000
  C   C4920     1.0  0.87212  0.58876  0.37802  1.0000
  C   C4921     1.0  0.85813  0.60102  0.40259  1.0000
  C   C4922     1.0  0.86489  0.61940  0.37458  1.0000
  C   C4923     1.0  0.84192  0.60349  0.38046  1.0000
  C   C4924     1.0  0.87567  0.58905  0.35903  1.0000
  C   C4925     1.0  0.85352  0.58439  0.41393  1.0000
  C   C4926     1.0  0.85356  0.63610  0.37896  1.0000
  C   C4927     1.0  0.82541  0.61229  0.39129  1.0000
  H   H8361     1.0  0.88461  0.58785  0.38110  1.0000
  H   H8362     1.0  0.86831  0.57651  0.38452  1.0000
  H   H8363     1.0  0.84893  0.61140  0.40802  1.0000
  H   H8364     1.0  0.87069  0.60159  0.40452  1.0000
  H   H8365     1.0  0.87785  0.61857  0.37649  1.0000
  H   H8366     1.0  0.86621  0.62122  0.36077  1.0000
  H   H8367     1.0  0.84165  0.60931  0.36695  1.0000
  H   H8368     1.0  0.84057  0.59026  0.38240  1.0000
  H   H8369     1.0  0.88421  0.57685  0.35664  1.0000
  H   H8370     1.0  0.86387  0.59037  0.35464  1.0000
  H   H8371     1.0  0.88252  0.59907  0.35121  1.0000
  H   H8372     1.0  0.85055  0.58537  0.42733  1.0000
  H   H8373     1.0  0.84215  0.58177  0.41152  1.0000
  H   H8374     1.0  0.86444  0.57343  0.41249  1.0000
  H   H8375     1.0  0.85169  0.63634  0.39238  1.0000
  H   H8376     1.0  0.84114  0.63911  0.37515  1.0000
  H   H8377     1.0  0.86009  0.64657  0.37160  1.0000
  H   H8378     1.0  0.81582  0.61858  0.38332  1.0000
  H   H8379     1.0  0.82689  0.62215  0.39678  1.0000
  H   H8380     1.0  0.81940  0.60282  0.40147  1.0000
  C   C4928     1.0  0.92875  0.82670  0.44062  1.0000
  H   H8381     1.0  0.84284  0.51824  0.33115  1.0000
  H   H8382     1.0  0.94367  0.98837  0.23762  1.0000
  H   H8383     1.0  0.97396  0.82373  0.45129  1.0000
  H   H8384     1.0  0.93790  0.51372  0.34764  1.0000
  C   C4929     1.0  0.94308  0.71209  0.42593  1.0000
  C   C4930     1.0  0.95543  0.57382  0.23988  1.0000
  H   H8385     1.0  0.88603  0.50446  0.28193  1.0000
  H   H8386     1.0  0.86037  0.84975  0.46483  1.0000
  H   H8387     1.0  0.95117  0.76007  0.42444  1.0000
  H   H8388     1.0  0.96322  0.54516  0.34775  1.0000
  C   C4931     1.0  0.96899  0.98365  0.34473  1.0000
  C   C4932     1.0  0.97742  0.55016  0.32201  1.0000
  H   H8389     1.0  0.99794  0.93687  0.24867  1.0000
  C   C4933     1.0  0.90595  0.55143  0.24210  1.0000
  H   H8390     1.0  0.95558  0.73731  0.44716  1.0000
  H   H8391     1.0  0.83222  0.54263  0.47791  1.0000
  H   H8392     1.0  0.95889  0.59027  0.40493  1.0000
  H   H8393     1.0  0.87432  0.82418  0.45304  1.0000
  S   S1434     1.0  0.94326  0.84992  0.46885  1.0000
  N   N347      1.0  0.97240  0.89834  0.29809  1.0000
  H   H8394     1.0  0.78356  0.49538  0.45446  1.0000
  C   C4934     1.0  0.79362  0.50455  0.41007  1.0000
  C   C4935     1.0  0.84110  0.51312  0.46857  1.0000
  H   H8395     1.0  0.97650  0.62052  0.48101  1.0000
  H   H8396     1.0  0.83726  0.49795  0.33635  1.0000
  H   H8397     1.0  0.93507  0.51116  0.36982  1.0000
  H   H8398     1.0  0.96269  0.51831  0.36655  1.0000
  H   H8399     1.0  0.85199  0.55555  0.29645  1.0000
  C   C4936     1.0  0.96542  0.72665  0.42422  1.0000
  H   H8400     1.0  0.97298  0.75634  0.45454  1.0000
  C   C4937     1.0  0.82750  0.50407  0.41658  1.0000
  C   C4938     1.0  0.96528  0.81198  0.40741  1.0000
  N   N348      1.0  0.86125  0.89702  0.35893  1.0000
  C   C4939     1.0  0.86407  0.90196  0.33991  1.0000
  C   C4940     1.0  0.86724  0.90959  0.36450  1.0000
  C   C4941     1.0  0.84228  0.89810  0.36595  1.0000
  C   C4942     1.0  0.87127  0.87917  0.36357  1.0000
  C   C4943     1.0  0.85700  0.89192  0.33152  1.0000
  C   C4944     1.0  0.88654  0.90946  0.35867  1.0000
  C   C4945     1.0  0.83514  0.90034  0.38430  1.0000
  C   C4946     1.0  0.87229  0.87205  0.38223  1.0000
  H   H8401     1.0  0.85834  0.91561  0.33571  1.0000
  H   H8402     1.0  0.87793  0.90046  0.33396  1.0000
  H   H8403     1.0  0.86431  0.90787  0.37839  1.0000
  H   H8404     1.0  0.86020  0.92268  0.35996  1.0000
  H   H8405     1.0  0.83471  0.90903  0.35825  1.0000
  H   H8406     1.0  0.83852  0.88667  0.36513  1.0000
  H   H8407     1.0  0.86585  0.87013  0.36022  1.0000
  H   H8408     1.0  0.88454  0.87752  0.35586  1.0000
  H   H8409     1.0  0.85969  0.89695  0.31767  1.0000
  H   H8410     1.0  0.86349  0.87836  0.33349  1.0000
  H   H8411     1.0  0.84293  0.89335  0.33568  1.0000
  H   H8412     1.0  0.88940  0.91877  0.36407  1.0000
  H   H8413     1.0  0.89450  0.89694  0.36322  1.0000
  H   H8414     1.0  0.89047  0.91344  0.34480  1.0000
  H   H8415     1.0  0.83512  0.91319  0.38542  1.0000
  H   H8416     1.0  0.84200  0.89067  0.39341  1.0000
  H   H8417     1.0  0.82155  0.89918  0.38813  1.0000
  H   H8418     1.0  0.86156  0.86569  0.38913  1.0000
  H   H8419     1.0  0.87260  0.88151  0.38891  1.0000
  H   H8420     1.0  0.88453  0.86257  0.38291  1.0000
  H   H8421     1.0  0.75137  0.94271  0.37450  1.0000
  C   C4947     1.0  0.80994  0.50770  0.42873  1.0000
  H   H8422     1.0  0.97025  0.89500  0.27410  1.0000
  C   C4948     1.0  0.98824  0.90554  0.29346  1.0000
  C   C4949     1.0  0.88111  0.82905  0.45976  1.0000
  H   H8423     1.0  0.77369  0.54219  0.40013  1.0000
  C   C4950     1.0  0.81388  0.98016  0.42255  1.0000
  S   S1435     1.0  0.86792  0.95533  0.24569  1.0000
  H   H8424     1.0  0.95217  0.77046  0.45884  1.0000
  H   H8425     1.0  0.95177  0.65258  0.36164  1.0000
  C   C4951     1.0  0.99215  0.98824  0.25891  1.0000
  H   H8426     1.0  0.96939  0.85922  0.47887  1.0000
  H   H8427     1.0  0.83800  0.54194  0.30869  1.0000
  H   H8428     1.0  0.93980  0.89502  0.29448  1.0000
  C   C4952     1.0  0.97264  0.59263  0.34913  1.0000
  H   H8429     1.0  0.99614  0.90579  0.26602  1.0000
  H   H8430     1.0  0.87677  0.98527  0.24734  1.0000
  H   H8431     1.0  0.80435  0.53878  0.41564  1.0000
  C   C4953     1.0  0.78392  0.97887  0.43154  1.0000
  H   H8432     1.0  0.94138  0.73510  0.39460  1.0000
  H   H8433     1.0  0.89304  0.92450  0.23971  1.0000
  H   H8434     1.0  0.93797  0.91741  0.29134  1.0000
  H   H8435     1.0  0.80480  0.50389  0.39922  1.0000
  C   C4954     1.0  0.98984  0.61507  0.38357  1.0000
  C   C4955     1.0  0.86138  0.52979  0.29280  1.0000
  H   H8436     1.0  0.98757  0.63111  0.35917  1.0000
  H   H8437     1.0  0.83218  0.97772  0.47548  1.0000
  Fe  Fe719     1.0  0.77540  0.56549  0.44806  1.0000
  H   H8438     1.0  0.99122  0.71722  0.48237  1.0000
  H   H8439     1.0  0.81575  0.98613  0.36749  1.0000
  H   H8440     1.0  0.78444  0.95528  0.46688  1.0000
  H   H8441     1.0  0.85867  0.55415  0.46471  1.0000
  C   C4956     1.0  0.94469  0.90602  0.28608  1.0000
  H   H8442     1.0  0.91612  0.72025  0.42339  1.0000
  C   C4957     1.0  0.96736  0.90237  0.32858  1.0000
  H   H8443     1.0  0.80464  0.87493  0.41571  1.0000
  C   C4958     1.0  0.80111  0.97080  0.42730  1.0000
  H   H8444     1.0  0.87007  0.51523  0.32316  1.0000
  H   H8445     1.0  0.88773  0.51066  0.30699  1.0000
  H   H8446     1.0  0.77517  0.49768  0.40063  1.0000
  H   H8447     1.0  0.83232  0.64749  0.46890  1.0000
  C   C4959     1.0  0.96359  0.86937  0.31048  1.0000
  H   H8448     1.0  0.97635  0.72364  0.44566  1.0000
  H   H8449     1.0  0.94832  0.90083  0.31668  1.0000
  N   N349      1.0  0.97121  0.52121  0.33949  1.0000
  C   C4960     1.0  0.94026  0.76005  0.41932  1.0000
  H   H8450     1.0  0.96950  0.85568  0.31380  1.0000
  H   H8451     1.0  0.99527  0.65960  0.41857  1.0000
  C   C4961     1.0  0.95678  0.60778  0.38087  1.0000
  H   H8452     1.0  0.96755  0.72166  0.37740  1.0000
  H   H8453     1.0  0.96781  0.97482  0.25167  1.0000
  C   C4962     1.0  0.75400  0.92814  0.34961  1.0000
  H   H8454     1.0  0.85562  0.54103  0.45292  1.0000
  H   H8455     1.0  0.97223  0.80795  0.44180  1.0000
  H   H8456     1.0  0.83081  0.94049  0.46552  1.0000
  H   H8457     1.0  0.98699  0.53343  0.35679  1.0000
  N   N350      1.0  0.86372  0.51125  0.30122  1.0000
  H   H8458     1.0  0.97472  0.71494  0.42150  1.0000
  H   H8459     1.0  0.76756  0.52602  0.42973  1.0000
  H   H8460     1.0  0.85339  0.62246  0.47736  1.0000
  C   C4963     1.0  0.96545  0.54025  0.33618  1.0000
  H   H8461     1.0  0.97986  0.54629  0.30988  1.0000
  H   H8462     1.0  0.96075  0.70576  0.39489  1.0000
  H   H8463     1.0  0.90633  0.53807  0.24432  1.0000
  H   H8464     1.0  0.78646  0.55740  0.39579  1.0000
  C   C4964     1.0  0.95979  0.95035  0.31557  1.0000
  S   S1436     1.0  0.75213  0.55513  0.45069  1.0000
  C   C4965     1.0  0.93783  0.83463  0.46192  1.0000
  C   C4966     1.0  0.98240  0.82928  0.42405  1.0000
  C   C4967     1.0  0.96965  0.95102  0.29917  1.0000
  C   C4968     1.0  0.79784  0.53285  0.40957  1.0000
  C   C4969     1.0  0.94534  0.64310  0.36056  1.0000
  H   H8465     1.0  0.85987  0.86999  0.47840  1.0000
  H   H8466     1.0  0.97855  0.71456  0.39431  1.0000
  H   H8467     1.0  0.94584  0.60594  0.37697  1.0000
  S   S1437     1.0  0.92062  0.79600  0.44514  1.0000
  C   C4970     1.0  0.95818  0.57800  0.25547  1.0000
  C   C4971     1.0  0.83676  0.98370  0.48310  1.0000
  H   H8468     1.0  0.95997  0.80045  0.41328  1.0000
  H   H8469     1.0  0.95041  0.62179  0.34965  1.0000
  H   H8470     1.0  0.82994  0.52274  0.46452  1.0000
  C   C4972     1.0  0.95824  0.62817  0.35367  1.0000
  H   H8471     1.0  0.93917  0.71005  0.43989  1.0000
  C   C4973     1.0  0.97110  0.97798  0.36324  1.0000
  C   C4974     1.0  0.93414  0.83848  0.44588  1.0000
  H   H8472     1.0  0.86163  0.65385  0.46420  1.0000
  H   H8473     1.0  0.96671  0.63368  0.34190  1.0000
  H   H8474     1.0  0.81585  0.93285  0.45944  1.0000
  H   H8475     1.0  0.82853  0.49372  0.41032  1.0000
  H   H8476     1.0  0.97748  0.90947  0.32646  1.0000
  H   H8477     1.0  0.98327  0.95021  0.29677  1.0000
  H   H8478     1.0  0.77228  0.62587  0.48032  1.0000
  N   N351      1.0  0.79475  0.51597  0.42055  1.0000
  C   C4975     1.0  0.98572  0.86249  0.45396  1.0000
  Fe  Fe720     1.0  0.75429  0.92058  0.42498  1.0000
  H   H8479     1.0  0.96662  0.91647  0.27535  1.0000
  C   C4976     1.0  0.89195  0.86459  0.46266  1.0000
  H   H8480     1.0  0.95591  0.52131  0.32225  1.0000
  C   C4977     1.0  0.92751  0.81090  0.45122  1.0000
  C   C4978     1.0  0.99498  0.52127  0.35393  1.0000
  H   H8481     1.0  0.93582  0.53163  0.35662  1.0000
  H   H8482     1.0  0.95569  0.87066  0.30139  1.0000
  H   H8483     1.0  0.96986  0.90571  0.47211  1.0000
  H   H8484     1.0  0.96457  0.56164  0.23845  1.0000
  H   H8485     1.0  0.96521  0.49974  0.35940  1.0000
  H   H8486     1.0  0.98172  0.61097  0.39608  1.0000
  H   H8487     1.0  0.98329  0.64486  0.40415  1.0000
  H   H8488     1.0  0.88879  0.83743  0.44997  1.0000
  H   H8489     1.0  0.76180  0.50602  0.45537  1.0000
  H   H8490     1.0  0.82722  0.97392  0.41942  1.0000
  C   C4979     1.0  0.97790  0.87932  0.30282  1.0000
  H   H8491     1.0  0.90540  0.86487  0.45594  1.0000
  H   H8492     1.0  0.93682  0.64983  0.35158  1.0000
  C   C4980     1.0  0.96033  0.90558  0.31259  1.0000
  H   H8493     1.0  0.98638  0.87560  0.31201  1.0000
  H   H8494     1.0  0.95901  0.74316  0.39402  1.0000
  H   H8495     1.0  0.76857  0.95658  0.33771  1.0000
  C   C4981     1.0  0.94132  0.51792  0.35738  1.0000
  H   H8496     1.0  0.94301  0.76476  0.40546  1.0000
  H   H8497     1.0  0.93067  0.71122  0.40617  1.0000
  H   H8498     1.0  0.97210  0.88873  0.33356  1.0000
  H   H8499     1.0  0.97192  0.73723  0.41707  1.0000
  H   H8500     1.0  0.77208  0.49382  0.43966  1.0000
  C   C4982     1.0  0.93684  0.81871  0.47239  1.0000
  H   H8501     1.0  0.92914  0.76932  0.42463  1.0000
  H   H8502     1.0  0.93694  0.63889  0.37283  1.0000
  S   S1438     1.0  0.97884  0.67887  0.44470  1.0000
  H   H8503     1.0  0.79486  0.49117  0.41718  1.0000
  H   H8504     1.0  0.95979  0.58013  0.38879  1.0000
  H   H8505     1.0  0.88677  0.87633  0.46765  1.0000
  C   C4983     1.0  0.93541  0.74266  0.42425  1.0000
  C   C4984     1.0  0.97892  0.62521  0.37054  1.0000
  C   C4985     1.0  0.75403  0.90965  0.35931  1.0000
  C   C4986     1.0  0.98535  0.73051  0.47707  1.0000
  C   C4987     1.0  0.98171  0.65979  0.42184  1.0000
  H   H8506     1.0  0.95278  0.96746  0.23441  1.0000
  H   H8507     1.0  0.94432  0.90424  0.46472  1.0000
  H   H8508     1.0  0.92403  0.74458  0.41887  1.0000
  H   H8509     1.0  0.92456  0.69806  0.42617  1.0000
  H   H8510     1.0  0.97385  0.72973  0.47345  1.0000
  H   H8511     1.0  0.78000  0.51798  0.38964  1.0000
  H   H8512     1.0  0.85128  0.50137  0.27751  1.0000
  C   C4988     1.0  0.98445  0.80771  0.40775  1.0000
  H   H8513     1.0  0.97119  0.56384  0.31998  1.0000
  H   H8514     1.0  0.97798  0.51938  0.31326  1.0000
  H   H8515     1.0  0.90130  0.83818  0.47234  1.0000
  H   H8516     1.0  0.98686  0.79637  0.41804  1.0000
  H   H8517     1.0  0.99121  0.80292  0.39610  1.0000
  H   H8518     1.0  0.98014  0.65023  0.47312  1.0000
  C   C4989     1.0  0.92775  0.71059  0.41990  1.0000
  H   H8519     1.0  0.99700  0.62350  0.38549  1.0000
  H   H8520     1.0  0.97042  0.63584  0.37618  1.0000
  H   H8521     1.0  0.79474  0.62483  0.47826  1.0000
  C   C4990     1.0  0.77775  0.50937  0.40224  1.0000
  C   C4991     1.0  0.96342  0.72554  0.44319  1.0000
  C   C4992     1.0  0.98192  0.86282  0.47283  1.0000
  C   C4993     1.0  0.81694  0.94175  0.46646  1.0000
  S   S1439     1.0  0.76866  0.92105  0.44370  1.0000
  H   H8522     1.0  0.88990  0.81802  0.46566  1.0000
  H   H8523     1.0  0.95388  0.66969  0.47262  1.0000
  S   S1440     1.0  0.75873  0.94539  0.40841  1.0000
  C   C4994     1.0  0.78205  0.54659  0.40539  1.0000
  H   H8524     1.0  0.83734  0.49405  0.45773  1.0000
  N   N352      1.0  0.94926  0.72834  0.41847  1.0000
  H   H8525     1.0  0.96563  0.96657  0.36928  1.0000
  H   H8526     1.0  0.95363  0.70111  0.42337  1.0000
  H   H8527     1.0  0.87160  0.53317  0.46582  1.0000
  H   H8528     1.0  0.85205  0.51448  0.45759  1.0000
  H   H8529     1.0  0.97171  0.57833  0.25415  1.0000
  H   H8530     1.0  0.97065  0.77861  0.44791  1.0000
  H   H8531     1.0  0.78935  0.92576  0.46828  1.0000
  H   H8532     1.0  0.97549  0.89666  0.45418  1.0000
  H   H8533     1.0  0.96926  0.83646  0.42304  1.0000
  H   H8534     1.0  0.88468  0.86477  0.45336  1.0000
  H   H8535     1.0  0.81206  0.95495  0.46018  1.0000
  C   C4995     1.0  0.82981  0.64005  0.48207  1.0000
  C   C4996     1.0  0.97048  0.89399  0.46808  1.0000
  C   C4997     1.0  0.95176  0.89238  0.47131  1.0000
  C   C4998     1.0  0.85859  0.54088  0.46502  1.0000
  H   H8536     1.0  0.85840  0.83059  0.47959  1.0000
  H   H8537     1.0  0.94938  0.58978  0.25862  1.0000
  H   H8538     1.0  0.82207  0.63112  0.48224  1.0000
  C   C4999     1.0  0.86442  0.50372  0.27307  1.0000
  C   C5000     1.0  0.75637  0.96469  0.34294  1.0000
  H   H8539     1.0  0.98883  0.83883  0.42505  1.0000
  H   H8540     1.0  0.99616  0.90933  0.46965  1.0000
  C   C5001     1.0  0.95326  0.73184  0.39946  1.0000
  C   C5002     1.0  0.93168  0.80688  0.46704  1.0000
  H   H8541     1.0  0.93057  0.79471  0.47533  1.0000
  H   H8542     1.0  0.85274  0.98348  0.36507  1.0000
  H   H8543     1.0  0.96233  0.58731  0.35876  1.0000
  H   H8544     1.0  0.95800  0.71460  0.45118  1.0000
  H   H8545     1.0  0.90374  0.59943  0.23426  1.0000
  C   C5003     1.0  0.77957  0.95263  0.48076  1.0000
  H   H8546     1.0  0.96336  0.81656  0.39425  1.0000
  H   H8547     1.0  0.78840  0.60927  0.47216  1.0000
  C   C5004     1.0  0.90472  0.58596  0.23641  1.0000
  C   C5005     1.0  0.98045  0.81658  0.44118  1.0000
  H   H8548     1.0  0.75532  0.92845  0.33602  1.0000
  H   H8549     1.0  0.95273  0.54430  0.33268  1.0000
  H   H8550     1.0  0.83041  0.51543  0.40696  1.0000
  H   H8551     1.0  0.98975  0.54885  0.32544  1.0000
  C   C5006     1.0  0.96880  0.51529  0.32510  1.0000
  H   H8552     1.0  0.76584  0.51508  0.41023  1.0000
  C   C5007     1.0  0.98101  0.60291  0.35596  1.0000
  H   H8553     1.0  0.97738  0.85752  0.37857  1.0000
  H   H8554     1.0  0.96741  0.60037  0.33797  1.0000
  H   H8555     1.0  0.96410  0.84464  0.39385  1.0000
  H   H8556     1.0  0.99369  0.50148  0.34329  1.0000
  H   H8557     1.0  0.98052  0.97621  0.33754  1.0000
  H   H8558     1.0  0.82454  0.49462  0.47829  1.0000
  H   H8559     1.0  0.98282  0.77145  0.47211  1.0000
  H   H8560     1.0  0.80072  0.91134  0.48336  1.0000
  C   C5008     1.0  0.86941  0.66718  0.47834  1.0000
  H   H8561     1.0  0.98994  0.59371  0.36345  1.0000
  H   H8562     1.0  0.99153  0.85217  0.47831  1.0000
  H   H8563     1.0  0.99443  0.51150  0.36586  1.0000
  H   H8564     1.0  0.98252  0.58185  0.34486  1.0000
  H   H8565     1.0  0.84043  0.98631  0.34242  1.0000
  H   H8566     1.0  0.96948  0.49342  0.31578  1.0000
  H   H8567     1.0  0.74940  0.58591  0.42448  1.0000
  H   H8568     1.0  0.75541  0.90765  0.37247  1.0000
  H   H8569     1.0  0.75437  0.96717  0.47746  1.0000
  H   H8570     1.0  0.84821  0.49243  0.31031  1.0000
  H   H8571     1.0  0.82531  0.57433  0.47991  1.0000
  H   H8572     1.0  0.77085  0.90797  0.48077  1.0000
  H   H8573     1.0  0.75786  0.94570  0.47629  1.0000
  H   H8574     1.0  0.97416  0.60333  0.23705  1.0000
  H   H8575     1.0  0.94972  0.74738  0.47941  1.0000
  H   H8576     1.0  0.75573  0.97740  0.33442  1.0000
  H   H8577     1.0  0.89316  0.49639  0.23618  1.0000
  C   C5009     1.0  0.89169  0.84875  0.47716  1.0000
  H   H8578     1.0  0.96110  0.49094  0.33782  1.0000
  H   H8579     1.0  0.98575  0.87417  0.29164  1.0000
  H   H8580     1.0  0.96460  0.98737  0.37114  1.0000
  H   H8581     1.0  0.81013  0.98733  0.34823  1.0000
  H   H8582     1.0  0.75676  0.96620  0.35547  1.0000
  H   H8583     1.0  0.98962  0.60936  0.34494  1.0000
  H   H8584     1.0  0.99515  0.82973  0.38157  1.0000
  H   H8585     1.0  0.96121  0.78228  0.47740  1.0000
  H   H8586     1.0  0.80586  0.98397  0.46341  1.0000
  H   H8587     1.0  0.85007  0.98513  0.47713  1.0000
  C   C5010     1.0  0.76025  0.95403  0.48317  1.0000
  H   H8588     1.0  0.84481  0.66415  0.47817  1.0000
  C   C5011     1.0  0.85788  0.65608  0.47728  1.0000
  H   H8589     1.0  0.86718  0.67938  0.46907  1.0000
  H   H8590     1.0  0.88117  0.62899  0.47299  1.0000
  H   H8591     1.0  0.99830  0.51922  0.32804  1.0000
  C   C5012     1.0  0.92017  0.48945  0.27762  1.0000
  H   H8592     1.0  0.92729  0.68775  0.48354  1.0000
  H   H8593     1.0  0.97601  0.48944  0.27302  1.0000
  H   H8594     1.0  0.99890  0.86402  0.44747  1.0000
  C   C5013     1.0  0.84183  0.94435  0.60666  1.0000
  Fe  Fe721     1.0  0.90415  0.85116  0.52526  1.0000
  S   S1441     1.0  0.92038  0.86904  0.50852  1.0000
  S   S1442     1.0  0.87535  0.85883  0.53122  1.0000
  Fe  Fe722     1.0  0.93511  0.82245  0.53077  1.0000
  S   S1443     1.0  0.95368  0.83854  0.51458  1.0000
  S   S1444     1.0  0.94682  0.79532  0.54177  1.0000
  Fe  Fe723     1.0  0.93663  0.85898  0.52786  1.0000
  S   S1445     1.0  0.94595  0.87863  0.53473  1.0000
  Fe  Fe724     1.0  0.93553  0.84693  0.49707  1.0000
  S   S1446     1.0  0.91943  0.84227  0.54551  1.0000
  S   S1447     1.0  0.91801  0.82972  0.51232  1.0000
  Fe  Fe725     1.0  0.90881  0.93051  0.64724  1.0000
  S   S1448     1.0  0.91043  0.95667  0.63183  1.0000
  S   S1449     1.0  0.90814  0.92070  0.67527  1.0000
  Fe  Fe726     1.0  0.91352  0.91605  0.61610  1.0000
  S   S1450     1.0  0.91564  0.94080  0.59817  1.0000
  S   S1451     1.0  0.91556  0.89147  0.60892  1.0000
  Fe  Fe727     1.0  0.93188  0.94341  0.61415  1.0000
  S   S1452     1.0  0.95685  0.95120  0.60177  1.0000
  Fe  Fe728     1.0  0.89386  0.95205  0.61709  1.0000
  H   H8595     1.0  0.74945  0.59680  0.51508  1.0000
  S   S1453     1.0  0.93176  0.91757  0.63055  1.0000
  S   S1454     1.0  0.89026  0.92695  0.63404  1.0000
  Fe  Fe729     1.0  0.82390  0.94870  0.52480  1.0000
  S   S1455     1.0  0.80979  0.93498  0.54879  1.0000
  S   S1456     1.0  0.84267  0.93591  0.50483  1.0000
  Fe  Fe730     1.0  0.81537  0.95280  0.56097  1.0000
  S   S1457     1.0  0.82310  0.94198  0.58589  1.0000
  C   C5014     1.0  0.96656  0.63044  0.48669  1.0000
  H   H8596     1.0  0.95324  0.73423  0.58345  1.0000
  H   H8597     1.0  0.99637  0.54561  0.58611  1.0000
  H   H8598     1.0  0.85344  0.51279  0.61590  1.0000
  Fe  Fe731     1.0  0.83172  0.62156  0.56633  1.0000
  S   S1458     1.0  0.85378  0.60060  0.55970  1.0000
  S   S1459     1.0  0.83626  0.64736  0.56430  1.0000
  Fe  Fe732     1.0  0.80566  0.59933  0.57616  1.0000
  S   S1460     1.0  0.82607  0.57653  0.57055  1.0000
  S   S1461     1.0  0.77914  0.59361  0.58477  1.0000
  Fe  Fe733     1.0  0.84155  0.58485  0.58353  1.0000
  S   S1462     1.0  0.85980  0.56553  0.59835  1.0000
  Fe  Fe734     1.0  0.83629  0.59437  0.54743  1.0000
  S   S1463     1.0  0.84616  0.58897  0.52149  1.0000
  S   S1464     1.0  0.82039  0.60619  0.59128  1.0000
  S   S1465     1.0  0.81500  0.61674  0.55193  1.0000
  Fe  Fe735     1.0  0.93218  0.56085  0.68527  1.0000
  S   S1466     1.0  0.95426  0.55399  0.66445  1.0000
  S   S1467     1.0  0.94131  0.55650  0.70927  1.0000
  Fe  Fe736     1.0  0.90670  0.56988  0.66246  1.0000
  S   S1468     1.0  0.92696  0.56353  0.64010  1.0000
  S   S1469     1.0  0.87937  0.58025  0.65960  1.0000
  Fe  Fe737     1.0  0.93724  0.54091  0.65861  1.0000
  S   S1470     1.0  0.94719  0.51429  0.65466  1.0000
  Fe  Fe738     1.0  0.94189  0.57725  0.64807  1.0000
  S   S1471     1.0  0.95850  0.59335  0.62838  1.0000
  S   S1472     1.0  0.91581  0.54603  0.68062  1.0000
  S   S1473     1.0  0.92099  0.58537  0.66933  1.0000
  Fe  Fe739     1.0  0.92579  0.67954  0.57713  1.0000
  S   S1474     1.0  0.94007  0.66264  0.55920  1.0000
  S   S1475     1.0  0.91949  0.66874  0.60499  1.0000
  Fe  Fe740     1.0  0.92137  0.71087  0.54918  1.0000
  S   S1476     1.0  0.93513  0.69633  0.52893  1.0000
  S   S1477     1.0  0.91036  0.73866  0.54068  1.0000
  Fe  Fe741     1.0  0.92012  0.67664  0.54413  1.0000
  S   S1478     1.0  0.91104  0.66063  0.53216  1.0000
  Fe  Fe742     1.0  0.95361  0.68376  0.54579  1.0000
  C   C5015     1.0  0.96197  0.72640  0.59195  1.0000
  S   S1479     1.0  0.90467  0.69220  0.56307  1.0000
  S   S1480     1.0  0.94108  0.69964  0.56507  1.0000
  H   H8599     1.0  0.96885  0.71340  0.53623  1.0000
  C   C5016     1.0  0.94747  0.61417  0.62159  1.0000
  C   C5017     1.0  0.93154  0.62068  0.63102  1.0000
  C   C5018     1.0  0.92318  0.63753  0.62596  1.0000
  C   C5019     1.0  0.93052  0.64784  0.61123  1.0000
  C   C5020     1.0  0.94650  0.64137  0.60179  1.0000
  C   C5021     1.0  0.95503  0.62459  0.60706  1.0000
  H   H8600     1.0  0.92568  0.61288  0.64233  1.0000
  H   H8601     1.0  0.91090  0.64253  0.63338  1.0000
  H   H8602     1.0  0.95244  0.64939  0.59063  1.0000
  H   H8603     1.0  0.96748  0.61969  0.59985  1.0000
  C   C5022     1.0  0.86523  0.57051  0.61484  1.0000
  C   C5023     1.0  0.88069  0.56160  0.61959  1.0000
  C   C5024     1.0  0.88516  0.56463  0.63319  1.0000
  C   C5025     1.0  0.87409  0.57642  0.64232  1.0000
  C   C5026     1.0  0.85856  0.58529  0.63763  1.0000
  C   C5027     1.0  0.85423  0.58252  0.62375  1.0000
  H   H8604     1.0  0.88919  0.55221  0.61281  1.0000
  H   H8605     1.0  0.89692  0.55742  0.63689  1.0000
  H   H8606     1.0  0.84985  0.59430  0.64475  1.0000
  H   H8607     1.0  0.84218  0.58929  0.62028  1.0000
  C   C5028     1.0  0.85691  0.65122  0.55478  1.0000
  C   C5029     1.0  0.86901  0.64062  0.54492  1.0000
  C   C5030     1.0  0.88546  0.64383  0.53773  1.0000
  C   C5031     1.0  0.89002  0.65750  0.54058  1.0000
  C   C5032     1.0  0.87787  0.66823  0.55026  1.0000
  C   C5033     1.0  0.86134  0.66516  0.55723  1.0000
  H   H8608     1.0  0.86566  0.63007  0.54265  1.0000
  H   H8609     1.0  0.89477  0.63553  0.53018  1.0000
  H   H8610     1.0  0.88114  0.67899  0.55228  1.0000
  H   H8611     1.0  0.85200  0.67352  0.56471  1.0000
  H   H8612     1.0  0.95679  0.88370  0.62723  1.0000
  C   C5034     1.0  0.81177  0.56254  0.52230  1.0000
  C   C5035     1.0  0.82182  0.57030  0.52747  1.0000
  C   C5036     1.0  0.83331  0.57925  0.51546  1.0000
  H   H8613     1.0  0.88283  0.51242  0.49158  1.0000
  C   C5037     1.0  0.96531  0.55968  0.60504  1.0000
  H   H8614     1.0  0.80307  0.55544  0.53165  1.0000
  H   H8615     1.0  0.82079  0.56919  0.54075  1.0000
  C   C5038     1.0  0.87104  0.92913  0.55617  1.0000
  C   C5039     1.0  0.93963  0.51023  0.63899  1.0000
  C   C5040     1.0  0.93618  0.52288  0.62490  1.0000
  C   C5041     1.0  0.93073  0.51917  0.61223  1.0000
  H   H8616     1.0  0.93799  0.53543  0.62358  1.0000
  H   H8617     1.0  0.92817  0.52893  0.60128  1.0000
  H   H8618     1.0  0.79595  0.97524  0.59940  1.0000
  H   H8619     1.0  0.95322  0.89992  0.60087  1.0000
  C   C5042     1.0  0.91286  0.57867  0.72228  1.0000
  H   H8620     1.0  0.76182  0.51140  0.54047  1.0000
  H   H8621     1.0  0.83012  0.52947  0.51467  1.0000
  H   H8622     1.0  0.90771  0.57895  0.71170  1.0000
  H   H8623     1.0  0.83005  0.49876  0.50163  1.0000
  H   H8624     1.0  0.86636  0.67024  0.49095  1.0000
  C   C5043     1.0  0.86776  0.51816  0.67614  1.0000
  H   H8625     1.0  0.77558  0.57889  0.52522  1.0000
  H   H8626     1.0  0.75562  0.54045  0.52126  1.0000
  C   C5044     1.0  0.75969  0.62377  0.57057  1.0000
  H   H8627     1.0  0.93863  0.76109  0.49316  1.0000
  H   H8628     1.0  0.90371  0.51403  0.57060  1.0000
  C   C5045     1.0  0.95380  0.93678  0.65935  1.0000
  H   H8629     1.0  0.76889  0.62991  0.57204  1.0000
  H   H8630     1.0  0.86114  0.54497  0.66416  1.0000
  H   H8631     1.0  0.96670  0.67979  0.50324  1.0000
  C   C5046     1.0  0.96326  0.96177  0.61343  1.0000
  C   C5047     1.0  0.98043  0.95782  0.61455  1.0000
  H   H8632     1.0  0.87337  0.54229  0.54061  1.0000
  C   C5048     1.0  0.97886  0.63277  0.64210  1.0000
  C   C5049     1.0  0.97333  0.67182  0.49377  1.0000
  C   C5050     1.0  0.95148  0.97386  0.62178  1.0000
  C   C5051     1.0  0.94639  0.73482  0.50518  1.0000
  N   N353      1.0  0.84468  0.51629  0.48397  1.0000
  H   H8633     1.0  0.80914  0.94775  0.49110  1.0000
  H   H8634     1.0  0.93822  0.97706  0.62083  1.0000
  C   C5052     1.0  0.85955  0.96479  0.60026  1.0000
  H   H8635     1.0  0.86296  0.50383  0.57342  1.0000
  H   H8636     1.0  0.95992  0.88298  0.59082  1.0000
  C   C5053     1.0  0.83674  0.95134  0.59126  1.0000
  H   H8637     1.0  0.88360  0.53749  0.66159  1.0000
  H   H8638     1.0  0.95923  0.55156  0.60120  1.0000
  H   H8639     1.0  0.86748  0.86521  0.49724  1.0000
  H   H8640     1.0  0.83735  0.97469  0.49542  1.0000
  C   C5054     1.0  0.98372  0.90442  0.60203  1.0000
  C   C5055     1.0  0.87929  0.50860  0.54925  1.0000
  C   C5056     1.0  0.93632  0.77960  0.54210  1.0000
  C   C5057     1.0  0.92139  0.78387  0.53589  1.0000
  C   C5058     1.0  0.91356  0.77116  0.53565  1.0000
  C   C5059     1.0  0.92047  0.75410  0.54175  1.0000
  C   C5060     1.0  0.93538  0.74976  0.54808  1.0000
  C   C5061     1.0  0.94329  0.76250  0.54825  1.0000
  H   H8641     1.0  0.91574  0.79695  0.53142  1.0000
  H   H8642     1.0  0.90199  0.77459  0.53083  1.0000
  H   H8643     1.0  0.94083  0.73663  0.55278  1.0000
  H   H8644     1.0  0.95484  0.75912  0.55307  1.0000
  C   C5062     1.0  0.93765  0.88217  0.55538  1.0000
  C   C5063     1.0  0.93076  0.86994  0.56836  1.0000
  C   C5064     1.0  0.92416  0.87295  0.58471  1.0000
  C   C5065     1.0  0.92419  0.88830  0.58820  1.0000
  C   C5066     1.0  0.93108  0.90059  0.57524  1.0000
  C   C5067     1.0  0.93795  0.89745  0.55891  1.0000
  H   H8645     1.0  0.93072  0.85801  0.56590  1.0000
  H   H8646     1.0  0.91894  0.86335  0.59470  1.0000
  H   H8647     1.0  0.93105  0.91250  0.57779  1.0000
  H   H8648     1.0  0.94327  0.90698  0.54892  1.0000
  C   C5068     1.0  0.86635  0.88017  0.52353  1.0000
  C   C5069     1.0  0.84982  0.88729  0.53140  1.0000
  C   C5070     1.0  0.84249  0.90438  0.52575  1.0000
  C   C5071     1.0  0.85146  0.91435  0.51192  1.0000
  C   C5072     1.0  0.86773  0.90704  0.50362  1.0000
  C   C5073     1.0  0.87521  0.89003  0.50947  1.0000
  H   H8649     1.0  0.84278  0.87966  0.54210  1.0000
  H   H8650     1.0  0.82984  0.90969  0.53207  1.0000
  H   H8651     1.0  0.88765  0.88451  0.50287  1.0000
  C   C5074     1.0  0.89869  0.95395  0.71320  1.0000
  C   C5075     1.0  0.90320  0.93633  0.71803  1.0000
  C   C5076     1.0  0.90587  0.92631  0.70628  1.0000
  C   C5077     1.0  0.90417  0.93383  0.68960  1.0000
  C   C5078     1.0  0.89982  0.95147  0.68471  1.0000
  C   C5079     1.0  0.89712  0.96148  0.69649  1.0000
  H   H8652     1.0  0.96382  0.87399  0.50019  1.0000
  H   H8653     1.0  0.90940  0.91267  0.71009  1.0000
  H   H8654     1.0  0.89857  0.95737  0.67187  1.0000
  C   C5080     1.0  0.86147  0.50480  0.48715  1.0000
  C   C5081     1.0  0.74952  0.97158  0.52353  1.0000
  H   H8655     1.0  0.75752  0.58908  0.53955  1.0000
  H   H8656     1.0  0.83920  0.97056  0.56839  1.0000
  S   S1481     1.0  0.98067  0.98725  0.64511  1.0000
  C   C5082     1.0  0.84297  0.96519  0.58036  1.0000
  C   C5083     1.0  0.96344  0.76281  0.50570  1.0000
  H   H8657     1.0  0.86300  0.51603  0.69008  1.0000
  H   H8658     1.0  0.86176  0.91023  0.70917  1.0000
  H   H8659     1.0  0.94555  0.73646  0.51795  1.0000
  C   C5084     1.0  0.76353  0.52945  0.51574  1.0000
  H   H8660     1.0  0.89321  0.60457  0.49302  1.0000
  H   H8661     1.0  0.95137  0.77274  0.50698  1.0000
  C   C5085     1.0  0.87036  0.50928  0.49878  1.0000
  N   N354      1.0  0.77528  0.61444  0.51390  1.0000
  C   C5086     1.0  0.93743  0.49396  0.64047  1.0000
  H   H8662     1.0  0.98024  0.55875  0.62282  1.0000
  H   H8663     1.0  0.96520  0.90612  0.67909  1.0000
  H   H8664     1.0  0.97383  0.50546  0.70996  1.0000
  H   H8665     1.0  0.84451  0.52221  0.59762  1.0000
  C   C5087     1.0  0.83620  0.65286  0.51369  1.0000
  H   H8666     1.0  0.97165  0.91353  0.60600  1.0000
  H   H8667     1.0  0.97963  0.63242  0.51865  1.0000
  H   H8668     1.0  0.85984  0.49155  0.49259  1.0000
  H   H8669     1.0  0.76262  0.64269  0.52929  1.0000
  H   H8670     1.0  0.77296  0.60864  0.54098  1.0000
  H   H8671     1.0  0.88559  0.92714  0.53051  1.0000
  H   H8672     1.0  0.93377  0.73266  0.50522  1.0000
  H   H8673     1.0  0.96448  0.91177  0.65242  1.0000
  C   C5088     1.0  0.93722  0.68304  0.49124  1.0000
  H   H8674     1.0  0.93488  0.61635  0.67510  1.0000
  H   H8675     1.0  0.87233  0.60304  0.49292  1.0000
  H   H8676     1.0  0.78092  0.63880  0.49992  1.0000
  H   H8677     1.0  0.86296  0.51971  0.50511  1.0000
  S   S1482     1.0  0.79971  0.55471  0.49893  1.0000
  C   C5089     1.0  0.97410  0.97759  0.63272  1.0000
  S   S1483     1.0  0.92124  0.49840  0.59817  1.0000
  H   H8678     1.0  0.95371  0.72221  0.60434  1.0000
  C   C5090     1.0  0.97321  0.71129  0.58422  1.0000
  C   C5091     1.0  0.85376  0.64162  0.50788  1.0000
  C   C5092     1.0  0.83466  0.58046  0.49830  1.0000
  H   H8679     1.0  0.89833  0.49431  0.70098  1.0000
  H   H8680     1.0  0.85723  0.94541  0.62298  1.0000
  H   H8681     1.0  0.89959  0.52161  0.63974  1.0000
  H   H8682     1.0  0.77676  0.57780  0.54627  1.0000
  C   C5093     1.0  0.92833  0.50291  0.61387  1.0000
  H   H8683     1.0  0.98544  0.63763  0.64897  1.0000
  H   H8684     1.0  0.96342  0.58675  0.68569  1.0000
  C   C5094     1.0  0.85333  0.95095  0.61108  1.0000
  H   H8685     1.0  0.98270  0.58934  0.69722  1.0000
  H   H8686     1.0  0.85919  0.98264  0.57645  1.0000
  C   C5095     1.0  0.88436  0.50220  0.65374  1.0000
  C   C5096     1.0  0.76197  0.60617  0.57548  1.0000
  C   C5097     1.0  0.95697  0.98194  0.63124  1.0000
  C   C5098     1.0  0.97701  0.93658  0.67282  1.0000
  H   H8687     1.0  0.75519  0.50273  0.49568  1.0000
  H   H8688     1.0  0.96685  0.68505  0.60852  1.0000
  C   C5099     1.0  0.77868  0.60241  0.53014  1.0000
  H   H8689     1.0  0.96657  0.54425  0.62964  1.0000
  H   H8690     1.0  0.90484  0.93045  0.73076  1.0000
  H   H8691     1.0  0.94863  0.66233  0.51984  1.0000
  C   C5100     1.0  0.88808  0.81369  0.49872  1.0000
  C   C5101     1.0  0.96362  0.88849  0.59954  1.0000
  C   C5102     1.0  0.84668  0.62975  0.48734  1.0000
  C   C5103     1.0  0.87564  0.83071  0.50062  1.0000
  H   H8692     1.0  0.89039  0.59531  0.73339  1.0000
  H   H8693     1.0  0.90996  0.54278  0.56735  1.0000
  C   C5104     1.0  0.97900  0.61438  0.67889  1.0000
  C   C5105     1.0  0.81281  0.56410  0.50511  1.0000
  H   H8694     1.0  0.98334  0.66603  0.59205  1.0000
  H   H8695     1.0  0.82200  0.64848  0.49065  1.0000
  H   H8696     1.0  0.78292  0.94493  0.51232  1.0000
  H   H8697     1.0  0.96949  0.69975  0.61857  1.0000
  H   H8698     1.0  0.98672  0.50913  0.64308  1.0000
  C   C5106     1.0  0.83014  0.51243  0.49862  1.0000
  H   H8699     1.0  0.88500  0.49598  0.57366  1.0000
  H   H8700     1.0  0.97408  0.89020  0.49893  1.0000
  H   H8701     1.0  0.95580  0.92178  0.58001  1.0000
  C   C5107     1.0  0.96608  0.62228  0.65421  1.0000
  N   N355      1.0  0.95919  0.93365  0.67580  1.0000
  H   H8702     1.0  0.95716  0.96884  0.67217  1.0000
  H   H8703     1.0  0.75354  0.95160  0.49658  1.0000
  S   S1484     1.0  0.83164  0.96491  0.53735  1.0000
  H   H8704     1.0  0.98238  0.54703  0.70074  1.0000
  N   N356      1.0  0.85832  0.63942  0.48993  1.0000
  H   H8705     1.0  0.95483  0.56945  0.61036  1.0000
  H   H8706     1.0  0.83949  0.92096  0.71339  1.0000
  C   C5108     1.0  0.96135  0.91135  0.70348  1.0000
  H   H8707     1.0  0.93442  0.59929  0.69314  1.0000
  H   H8708     1.0  0.99810  0.56944  0.59856  1.0000
  C   C5109     1.0  0.85427  0.97201  0.58494  1.0000
  H   H8709     1.0  0.80567  0.92117  0.51910  1.0000
  C   C5110     1.0  0.99564  0.57887  0.66725  1.0000
  H   H8710     1.0  0.99025  0.49780  0.60354  1.0000
  H   H8711     1.0  0.87329  0.49800  0.50895  1.0000
  N   N357      1.0  0.96362  0.65846  0.49537  1.0000
  H   H8712     1.0  0.95610  0.72319  0.50292  1.0000
  C   C5111     1.0  0.85114  0.91568  0.71877  1.0000
  H   H8713     1.0  0.94389  0.91475  0.68746  1.0000
  H   H8714     1.0  0.98337  0.88703  0.62718  1.0000
  N   N358      1.0  0.96619  0.75584  0.49021  1.0000
  N   N359      1.0  0.87444  0.84423  0.48471  1.0000
  H   H8715     1.0  0.85664  0.51845  0.67102  1.0000
  H   H8716     1.0  0.98571  0.80124  0.53225  1.0000
  C   C5112     1.0  0.78326  0.62926  0.51159  1.0000
  C   C5113     1.0  0.89775  0.53925  0.57488  1.0000
  H   H8717     1.0  0.79668  0.90660  0.51363  1.0000
  H   H8718     1.0  0.97492  0.56276  0.71308  1.0000
  H   H8719     1.0  0.86376  0.64615  0.51085  1.0000
  H   H8720     1.0  0.89947  0.53405  0.58805  1.0000
  C   C5114     1.0  0.96459  0.92532  0.64711  1.0000
  H   H8721     1.0  0.76610  0.49657  0.51233  1.0000
  H   H8722     1.0  0.94444  0.61591  0.69216  1.0000
  C   C5115     1.0  0.77375  0.91286  0.49041  1.0000
  C   C5116     1.0  0.98243  0.71026  0.53594  1.0000
  H   H8723     1.0  0.99780  0.66646  0.57204  1.0000
  H   H8724     1.0  0.99335  0.74591  0.48839  1.0000
  C   C5117     1.0  0.94241  0.60812  0.68451  1.0000
  H   H8725     1.0  0.76128  0.97593  0.52074  1.0000
  H   H8726     1.0  0.84866  0.90494  0.72942  1.0000
  H   H8727     1.0  0.78617  0.91574  0.53170  1.0000
  Fe  Fe743     1.0  0.78684  0.95528  0.54354  1.0000
  C   C5118     1.0  0.99666  0.50592  0.60705  1.0000
  H   H8728     1.0  0.93031  0.68076  0.50456  1.0000
  H   H8729     1.0  0.96202  0.89758  0.70859  1.0000
  H   H8730     1.0  0.87075  0.54123  0.68157  1.0000
  C   C5119     1.0  0.78321  0.93350  0.50794  1.0000
  H   H8731     1.0  0.84359  0.58730  0.48898  1.0000
  H   H8732     1.0  0.88535  0.63496  0.48991  1.0000
  C   C5120     1.0  0.96137  0.87648  0.61705  1.0000
  C   C5121     1.0  0.99706  0.79700  0.52261  1.0000
  H   H8733     1.0  0.88087  0.49591  0.54683  1.0000
  H   H8734     1.0  0.87252  0.49988  0.65194  1.0000
  S   S1485     1.0  0.98191  0.67793  0.53543  1.0000
  H   H8735     1.0  0.97312  0.51876  0.62088  1.0000
  H   H8736     1.0  0.97787  0.68133  0.57354  1.0000
  C   C5122     1.0  0.99141  0.51982  0.64402  1.0000
  H   H8737     1.0  0.86948  0.94584  0.53177  1.0000
  H   H8738     1.0  0.75088  0.61146  0.49500  1.0000
  C   C5123     1.0  0.99117  0.89552  0.61786  1.0000
  H   H8739     1.0  0.87467  0.91462  0.49278  1.0000
  N   N360      1.0  0.87618  0.52260  0.57404  1.0000
  C   C5124     1.0  0.87272  0.51834  0.59309  1.0000
  C   C5125     1.0  0.89402  0.52594  0.56770  1.0000
  C   C5126     1.0  0.87571  0.50720  0.56842  1.0000
  C   C5127     1.0  0.86252  0.53755  0.56833  1.0000
  H   H8740     1.0  0.87612  0.60933  0.51026  1.0000
  H   H8741     1.0  0.99694  0.67662  0.49598  1.0000
  C   C5128     1.0  0.97674  0.69055  0.61048  1.0000
  C   C5129     1.0  0.86746  0.54915  0.55092  1.0000
  H   H8742     1.0  0.85577  0.50019  0.60129  1.0000
  H   H8743     1.0  0.95438  0.94980  0.65203  1.0000
  H   H8744     1.0  0.97301  0.56656  0.59372  1.0000
  H   H8745     1.0  0.96831  0.92671  0.55919  1.0000
  C   C5130     1.0  0.83007  0.51614  0.51554  1.0000
  H   H8746     1.0  0.98259  0.86488  0.51996  1.0000
  H   H8747     1.0  0.85101  0.53325  0.56826  1.0000
  H   H8748     1.0  0.85771  0.54602  0.57744  1.0000
  C   C5131     1.0  0.87135  0.53622  0.67047  1.0000
  C   C5132     1.0  0.77157  0.51655  0.52988  1.0000
  H   H8749     1.0  0.85185  0.94160  0.71492  1.0000
  H   H8750     1.0  0.77402  0.53451  0.50603  1.0000
  C   C5133     1.0  0.98321  0.55001  0.71250  1.0000
  N   N361      1.0  0.75299  0.52301  0.50790  1.0000
  H   H8751     1.0  0.78127  0.50600  0.52512  1.0000
  N   N362      1.0  0.98616  0.69938  0.59392  1.0000
  C   C5134     1.0  0.99067  0.72280  0.53582  1.0000
  H   H8752     1.0  0.87605  0.55705  0.55117  1.0000
  H   H8753     1.0  0.85569  0.55804  0.54756  1.0000
  H   H8754     1.0  0.78150  0.65113  0.52157  1.0000
  H   H8755     1.0  0.88972  0.51693  0.69612  1.0000
  H   H8756     1.0  0.98996  0.85166  0.50506  1.0000
  C   C5135     1.0  0.97786  0.77061  0.50662  1.0000
  H   H8757     1.0  0.75159  0.58472  0.57747  1.0000
  C   C5136     1.0  0.94683  0.94605  0.68588  1.0000
  C   C5137     1.0  0.98579  0.96550  0.62440  1.0000
  S   S1486     1.0  0.79104  0.97199  0.55804  1.0000
  C   C5138     1.0  0.88799  0.51765  0.63966  1.0000
  H   H8758     1.0  0.89025  0.51429  0.62726  1.0000
  C   C5139     1.0  0.97583  0.54958  0.61854  1.0000
  H   H8759     1.0  0.88754  0.55090  0.57447  1.0000
  C   C5140     1.0  0.99219  0.66570  0.49541  1.0000
  H   H8760     1.0  0.97993  0.78161  0.49610  1.0000
  H   H8761     1.0  0.89690  0.85103  0.48701  1.0000
  H   H8762     1.0  0.97171  0.64385  0.63425  1.0000
  S   S1487     1.0  0.76271  0.94598  0.54796  1.0000
  H   H8763     1.0  0.98657  0.63843  0.49182  1.0000
  C   C5141     1.0  0.84411  0.85745  0.49997  1.0000
  S   S1488     1.0  0.89521  0.96693  0.72759  1.0000
  H   H8764     1.0  0.89719  0.53007  0.55379  1.0000
  H   H8765     1.0  0.90402  0.51618  0.66503  1.0000
  H   H8766     1.0  0.96956  0.73480  0.59313  1.0000
  C   C5142     1.0  0.77679  0.63918  0.52585  1.0000
  C   C5143     1.0  0.87238  0.93201  0.53709  1.0000
  H   H8767     1.0  0.94620  0.64450  0.51489  1.0000
  H   H8768     1.0  0.86822  0.51679  0.54393  1.0000
  H   H8769     1.0  0.97875  0.94795  0.66254  1.0000
  H   H8770     1.0  0.97382  0.91388  0.70323  1.0000
  N   N363      1.0  0.88238  0.50377  0.67161  1.0000
  N   N364      1.0  0.87278  0.91107  0.56604  1.0000
  C   C5144     1.0  0.87039  0.91135  0.58438  1.0000
  C   C5145     1.0  0.85847  0.90410  0.56461  1.0000
  C   C5146     1.0  0.89035  0.90054  0.56032  1.0000
  C   C5147     1.0  0.88210  0.92053  0.58830  1.0000
  C   C5148     1.0  0.85649  0.88684  0.57645  1.0000
  C   C5149     1.0  0.89260  0.89139  0.54601  1.0000
  H   H8771     1.0  0.85691  0.91727  0.58956  1.0000
  H   H8772     1.0  0.87270  0.89825  0.59219  1.0000
  H   H8773     1.0  0.85989  0.90271  0.55161  1.0000
  H   H8774     1.0  0.84593  0.91314  0.56726  1.0000
  H   H8775     1.0  0.88112  0.93491  0.55725  1.0000
  H   H8776     1.0  0.90018  0.90837  0.55624  1.0000
  H   H8777     1.0  0.89447  0.89038  0.57095  1.0000
  H   H8778     1.0  0.89565  0.91665  0.58204  1.0000
  H   H8779     1.0  0.87783  0.93447  0.58467  1.0000
  H   H8780     1.0  0.88138  0.91736  0.60212  1.0000
  H   H8781     1.0  0.86895  0.87782  0.57702  1.0000
  H   H8782     1.0  0.84972  0.88847  0.58940  1.0000
  H   H8783     1.0  0.84856  0.88109  0.57185  1.0000
  H   H8784     1.0  0.88604  0.88065  0.55036  1.0000
  H   H8785     1.0  0.90641  0.88589  0.54187  1.0000
  H   H8786     1.0  0.88819  0.89979  0.53475  1.0000
  H   H8787     1.0  0.96149  0.49835  0.70012  1.0000
  H   H8788     1.0  0.86302  0.92676  0.53408  1.0000
  H   H8789     1.0  0.82599  0.64551  0.51788  1.0000
  H   H8790     1.0  0.97961  0.67126  0.63329  1.0000
  H   H8791     1.0  0.98951  0.94849  0.60809  1.0000
  H   H8792     1.0  0.77727  0.90148  0.50022  1.0000
  H   H8793     1.0  0.83267  0.66432  0.50409  1.0000
  H   H8794     1.0  0.98082  0.73253  0.50298  1.0000
  H   H8795     1.0  0.93744  0.96828  0.66708  1.0000
  H   H8796     1.0  0.87257  0.52937  0.59803  1.0000
  H   H8797     1.0  0.85856  0.93700  0.56142  1.0000
  Fe  Fe744     1.0  0.80691  0.98296  0.53337  1.0000
  H   H8798     1.0  0.90950  0.49419  0.67060  1.0000
  H   H8799     1.0  0.85365  0.62916  0.51684  1.0000
  H   H8800     1.0  0.96173  0.63222  0.53548  1.0000
  H   H8801     1.0  0.87677  0.52842  0.64012  1.0000
  N   N365      1.0  0.88287  0.62687  0.60034  1.0000
  C   C5150     1.0  0.86422  0.62987  0.59993  1.0000
  C   C5151     1.0  0.89338  0.62586  0.58285  1.0000
  C   C5152     1.0  0.88637  0.64104  0.60573  1.0000
  C   C5153     1.0  0.88739  0.61064  0.61288  1.0000
  C   C5154     1.0  0.85119  0.63410  0.61595  1.0000
  C   C5155     1.0  0.89351  0.61033  0.57641  1.0000
  C   C5156     1.0  0.88161  0.65887  0.59476  1.0000
  C   C5157     1.0  0.90658  0.60417  0.61352  1.0000
  H   H8802     1.0  0.86089  0.64022  0.58914  1.0000
  H   H8803     1.0  0.86137  0.61855  0.59776  1.0000
  H   H8804     1.0  0.90689  0.62637  0.58166  1.0000
  H   H8805     1.0  0.88859  0.63712  0.57351  1.0000
  H   H8806     1.0  0.87983  0.64140  0.61907  1.0000
  H   H8807     1.0  0.90019  0.63896  0.60557  1.0000
  H   H8808     1.0  0.88035  0.61192  0.62589  1.0000
  H   H8809     1.0  0.88300  0.60031  0.61049  1.0000
  H   H8810     1.0  0.85151  0.64638  0.61819  1.0000
  H   H8811     1.0  0.83809  0.63530  0.61421  1.0000
  H   H8812     1.0  0.85296  0.62397  0.62730  1.0000
  H   H8813     1.0  0.90111  0.61142  0.56325  1.0000
  H   H8814     1.0  0.89964  0.59832  0.58395  1.0000
  H   H8815     1.0  0.88047  0.60969  0.57607  1.0000
  H   H8816     1.0  0.86799  0.66251  0.59385  1.0000
  H   H8817     1.0  0.88993  0.66001  0.58194  1.0000
  H   H8818     1.0  0.88381  0.66828  0.60052  1.0000
  H   H8819     1.0  0.90804  0.60218  0.62667  1.0000
  H   H8820     1.0  0.91504  0.61270  0.60545  1.0000
  H   H8821     1.0  0.91146  0.59164  0.61003  1.0000
  C   C5158     1.0  0.96907  0.92148  0.57262  1.0000
  C   C5159     1.0  0.89929  0.50523  0.67385  1.0000
  H   H8822     1.0  0.97402  0.77538  0.51845  1.0000
  C   C5160     1.0  0.94917  0.50160  0.72506  1.0000
  S   S1489     1.0  0.87399  0.97300  0.60581  1.0000
  H   H8823     1.0  0.84065  0.50749  0.52127  1.0000
  H   H8824     1.0  0.93708  0.97265  0.68664  1.0000
  H   H8825     1.0  0.96092  0.62431  0.49966  1.0000
  H   H8826     1.0  0.78195  0.63206  0.53721  1.0000
  H   H8827     1.0  0.77891  0.59499  0.49989  1.0000
  C   C5161     1.0  0.87647  0.62917  0.48667  1.0000
  H   H8828     1.0  0.99356  0.80249  0.51014  1.0000
  H   H8829     1.0  0.86302  0.82740  0.50689  1.0000
  C   C5162     1.0  0.95935  0.59782  0.67587  1.0000
  H   H8830     1.0  0.87930  0.83548  0.50994  1.0000
  N   N366      1.0  0.97328  0.60751  0.66704  1.0000
  H   H8831     1.0  0.95160  0.86928  0.61811  1.0000
  H   H8832     1.0  0.78110  0.96334  0.48522  1.0000
  C   C5163     1.0  0.85637  0.92966  0.72368  1.0000
  C   C5164     1.0  0.77164  0.58620  0.53525  1.0000
  C   C5165     1.0  0.98152  0.74126  0.49035  1.0000
  C   C5166     1.0  0.95726  0.91617  0.68579  1.0000
  H   H8833     1.0  0.96183  0.75282  0.51737  1.0000
  C   C5167     1.0  0.94472  0.96497  0.67720  1.0000
  H   H8834     1.0  0.95625  0.59232  0.66673  1.0000
  C   C5168     1.0  0.86206  0.85982  0.48972  1.0000
  H   H8835     1.0  0.96819  0.60667  0.70598  1.0000
  H   H8836     1.0  0.96412  0.70444  0.58295  1.0000
  C   C5169     1.0  0.89964  0.50632  0.69170  1.0000
  C   C5170     1.0  0.92910  0.56888  0.72392  1.0000
  H   H8837     1.0  0.78879  0.51315  0.49312  1.0000
  H   H8838     1.0  0.83704  0.93363  0.61512  1.0000
  C   C5171     1.0  0.76301  0.50720  0.50166  1.0000
  H   H8839     1.0  0.83670  0.65773  0.52451  1.0000
  H   H8840     1.0  0.81806  0.51367  0.52459  1.0000
  H   H8841     1.0  0.93385  0.94325  0.68970  1.0000
  H   H8842     1.0  0.95553  0.63143  0.66046  1.0000
  H   H8843     1.0  0.79796  0.60006  0.50032  1.0000
  H   H8844     1.0  0.94369  0.51524  0.72061  1.0000
  H   H8845     1.0  0.89127  0.51281  0.54235  1.0000
  C   C5172     1.0  0.98051  0.90345  0.57436  1.0000
  H   H8846     1.0  0.88315  0.50797  0.59765  1.0000
  C   C5173     1.0  0.99186  0.69377  0.53544  1.0000
  H   H8847     1.0  0.84447  0.85094  0.51328  1.0000
  H   H8848     1.0  0.94010  0.81548  0.48460  1.0000
  H   H8849     1.0  0.95069  0.94486  0.69785  1.0000
  H   H8850     1.0  0.97308  0.64892  0.53049  1.0000
  H   H8851     1.0  0.94020  0.93578  0.66170  1.0000
  C   C5174     1.0  0.85557  0.51312  0.60224  1.0000
  H   H8852     1.0  0.84645  0.53876  0.49112  1.0000
  H   H8853     1.0  0.97295  0.86672  0.61928  1.0000
  N   N367      1.0  0.98074  0.89334  0.59216  1.0000
  H   H8854     1.0  0.88914  0.80587  0.51150  1.0000
  H   H8855     1.0  0.88309  0.80642  0.49270  1.0000
  C   C5175     1.0  0.96567  0.49620  0.71214  1.0000
  C   C5176     1.0  0.82430  0.57307  0.49314  1.0000
  H   H8856     1.0  0.97462  0.93016  0.57631  1.0000
  H   H8857     1.0  0.77833  0.52299  0.53510  1.0000
  H   H8858     1.0  0.95904  0.92895  0.63576  1.0000
  C   C5177     1.0  0.98836  0.86475  0.50646  1.0000
  H   H8859     1.0  0.79745  0.62505  0.50999  1.0000
  H   H8860     1.0  0.90120  0.81505  0.49197  1.0000
  S   S1490     1.0  0.80056  0.96791  0.51851  1.0000
  H   H8861     1.0  0.94418  0.69329  0.48865  1.0000
  H   H8862     1.0  0.96998  0.62643  0.68126  1.0000
  C   C5178     1.0  0.95606  0.65171  0.51360  1.0000
  H   H8863     1.0  0.90940  0.97911  0.59790  1.0000
  C   C5179     1.0  0.79365  0.91828  0.51851  1.0000
  H   H8864     1.0  0.99463  0.87171  0.56749  1.0000
  H   H8865     1.0  0.98340  0.73556  0.53617  1.0000
  H   H8866     1.0  0.89375  0.97513  0.69265  1.0000
  H   H8867     1.0  0.98228  0.86062  0.58650  1.0000
  H   H8868     1.0  0.98928  0.91143  0.66518  1.0000
  H   H8869     1.0  0.75344  0.63387  0.50692  1.0000
  C   C5180     1.0  0.75626  0.62080  0.51470  1.0000
  H   H8870     1.0  0.97613  0.89677  0.56713  1.0000
  H   H8871     1.0  0.79270  0.59854  0.52978  1.0000
  H   H8872     1.0  0.97783  0.92736  0.64244  1.0000
  C   C5181     1.0  0.96854  0.64085  0.52496  1.0000
  H   H8873     1.0  0.97736  0.54093  0.72313  1.0000
  H   H8874     1.0  0.97877  0.93972  0.68416  1.0000
  H   H8875     1.0  0.98609  0.57081  0.67274  1.0000
  C   C5182     1.0  0.87941  0.61053  0.49640  1.0000
  H   H8876     1.0  0.99737  0.68114  0.62493  1.0000
  H   H8877     1.0  0.99369  0.90491  0.56735  1.0000
  H   H8878     1.0  0.98064  0.52879  0.65004  1.0000
  H   H8879     1.0  0.94038  0.65778  0.48863  1.0000
  C   C5183     1.0  0.99534  0.87809  0.59101  1.0000
  C   C5184     1.0  0.77983  0.50875  0.48854  1.0000
  H   H8880     1.0  0.87055  0.92793  0.72003  1.0000
  H   H8881     1.0  0.76976  0.93208  0.51195  1.0000
  C   C5185     1.0  0.97501  0.64468  0.48656  1.0000
  N   N368      1.0  0.99066  0.53576  0.61319  1.0000
  C   C5186     1.0  0.98003  0.60302  0.69658  1.0000
  H   H8882     1.0  0.85597  0.96413  0.72048  1.0000
  H   H8883     1.0  0.81627  0.92587  0.49096  1.0000
  C   C5187     1.0  0.99400  0.86579  0.58105  1.0000
  H   H8884     1.0  0.96024  0.61790  0.64627  1.0000
  C   C5188     1.0  0.94996  0.75046  0.49127  1.0000
  C   C5189     1.0  0.74985  0.59835  0.57371  1.0000
  H   H8885     1.0  0.99005  0.76112  0.50729  1.0000
  H   H8886     1.0  0.76173  0.92106  0.49566  1.0000
  C   C5190     1.0  0.97640  0.87774  0.49556  1.0000
  C   C5191     1.0  0.98821  0.59651  0.65745  1.0000
  C   C5192     1.0  0.94897  0.66660  0.48644  1.0000
  C   C5193     1.0  0.98797  0.67641  0.62133  1.0000
  H   H8887     1.0  0.75963  0.53995  0.48399  1.0000
  H   H8888     1.0  0.95104  0.91800  0.71243  1.0000
  N   N369      1.0  0.78966  0.93610  0.48907  1.0000
  H   H8889     1.0  0.81762  0.51941  0.49526  1.0000
  H   H8890     1.0  0.94550  0.89061  0.48487  1.0000
  H   H8891     1.0  0.97950  0.71642  0.57107  1.0000
  C   C5194     1.0  0.78439  0.60578  0.49943  1.0000
  H   H8892     1.0  0.99722  0.73058  0.57548  1.0000
  H   H8893     1.0  0.98456  0.59436  0.64653  1.0000
  H   H8894     1.0  0.78640  0.49606  0.48586  1.0000
  H   H8895     1.0  0.99001  0.71659  0.60696  1.0000
  C   C5195     1.0  0.93151  0.49037  0.62809  1.0000
  H   H8896     1.0  0.83549  0.87009  0.50039  1.0000
  H   H8897     1.0  0.84324  0.62012  0.49890  1.0000
  H   H8898     1.0  0.91232  0.50846  0.69146  1.0000
  H   H8899     1.0  0.93922  0.49468  0.72600  1.0000
  H   H8900     1.0  0.92064  0.98376  0.57659  1.0000
  H   H8901     1.0  0.98362  0.49151  0.68006  1.0000
  H   H8902     1.0  0.97770  0.52731  0.59897  1.0000
  C   C5196     1.0  0.98835  0.67459  0.58027  1.0000
  H   H8903     1.0  0.99714  0.87038  0.60359  1.0000
  H   H8904     1.0  0.89475  0.49107  0.65092  1.0000
  H   H8905     1.0  0.85146  0.49190  0.68113  1.0000
  H   H8906     1.0  0.74931  0.62197  0.52779  1.0000
  H   H8907     1.0  0.99048  0.60535  0.70092  1.0000
  H   H8908     1.0  0.99290  0.91238  0.59392  1.0000
  H   H8909     1.0  0.98845  0.62550  0.63319  1.0000
  H   H8910     1.0  0.99166  0.61779  0.67297  1.0000
  H   H8911     1.0  0.99394  0.65600  0.50700  1.0000
  C   C5197     1.0  0.98364  0.52237  0.61017  1.0000
  C   C5198     1.0  0.99232  0.92190  0.66851  1.0000
  H   H8912     1.0  0.99471  0.66566  0.61511  1.0000
  H   H8913     1.0  0.99171  0.90531  0.62414  1.0000
  H   H8914     1.0  0.83837  0.85055  0.49425  1.0000
  C   C5199     1.0  0.99735  0.68687  0.58348  1.0000
  C   C5200     1.0  0.99735  0.70881  0.59749  1.0000
  C   C5201     1.0  0.80805  0.93778  0.48529  1.0000
  C   C5202     1.0  0.91513  0.98900  0.58814  1.0000
  S   S1491     1.0  0.96751  0.58222  0.79353  1.0000
  H   H8915     1.0  0.81930  0.52115  0.87365  1.0000
  Fe  Fe745     1.0  0.90954  0.79775  0.88513  1.0000
  S   S1492     1.0  0.91812  0.80799  0.90258  1.0000
  S   S1493     1.0  0.91450  0.76917  0.89191  1.0000
  Fe  Fe746     1.0  0.90270  0.83268  0.86156  1.0000
  S   S1494     1.0  0.91120  0.84525  0.87711  1.0000
  S   S1495     1.0  0.89338  0.84788  0.83803  1.0000
  Fe  Fe747     1.0  0.93244  0.82219  0.87901  1.0000
  S   S1496     1.0  0.96064  0.82042  0.87461  1.0000
  Fe  Fe748     1.0  0.89581  0.82980  0.89901  1.0000
  S   S1497     1.0  0.87891  0.84203  0.92022  1.0000
  S   S1498     1.0  0.92524  0.81079  0.86160  1.0000
  S   S1499     1.0  0.88588  0.81846  0.88340  1.0000
  Fe  Fe749     1.0  0.90241  0.93464  0.78771  1.0000
  S   S1500     1.0  0.88731  0.93064  0.77128  1.0000
  S   S1501     1.0  0.92202  0.91391  0.79972  1.0000
  H   H8916     1.0  0.95677  0.51890  0.82002  1.0000
  H   H8917     1.0  0.98352  0.78811  0.86966  1.0000
  Fe  Fe750     1.0  0.86473  0.94443  0.78772  1.0000
  S   S1502     1.0  0.84040  0.93471  0.79867  1.0000
  N   N370      1.0  0.76622  0.65223  0.92321  1.0000
  S   S1503     1.0  0.87961  0.94680  0.80507  1.0000
  S   S1504     1.0  0.90768  0.95942  0.77093  1.0000
  Fe  Fe751     1.0  0.79861  0.92604  0.92819  1.0000
  S   S1505     1.0  0.78099  0.90828  0.93449  1.0000
  S   S1506     1.0  0.81194  0.92929  0.94667  1.0000
  Fe  Fe752     1.0  0.79476  0.93835  0.89135  1.0000
  S   S1507     1.0  0.77696  0.92137  0.89474  1.0000
  S   S1508     1.0  0.80192  0.95755  0.86754  1.0000
  Fe  Fe753     1.0  0.79521  0.90197  0.90947  1.0000
  S   S1509     1.0  0.80494  0.87531  0.90565  1.0000
  S   S1510     1.0  0.81397  0.91844  0.90410  1.0000
  H   H8918     1.0  0.92350  0.70262  0.87179  1.0000
  C   C5203     1.0  0.96138  0.49298  0.77495  1.0000
  H   H8919     1.0  0.83114  0.86018  0.87032  1.0000
  H   H8920     1.0  0.85313  0.94570  0.75797  1.0000
  Fe  Fe754     1.0  0.76414  0.59096  0.91373  1.0000
  S   S1511     1.0  0.77330  0.57477  0.93676  1.0000
  H   H8921     1.0  0.89918  0.75300  0.92849  1.0000
  Fe  Fe755     1.0  0.79718  0.57690  0.89018  1.0000
  S   S1512     1.0  0.80857  0.55931  0.91155  1.0000
  S   S1513     1.0  0.81099  0.58004  0.86284  1.0000
  Fe  Fe756     1.0  0.78214  0.55429  0.92204  1.0000
  S   S1514     1.0  0.77505  0.52914  0.93430  1.0000
  Fe  Fe757     1.0  0.79863  0.58168  0.92385  1.0000
  S   S1515     1.0  0.81368  0.58906  0.93826  1.0000
  S   S1516     1.0  0.77132  0.57010  0.89966  1.0000
  S   S1517     1.0  0.78875  0.59957  0.90186  1.0000
  Fe  Fe758     1.0  0.90910  0.61804  0.81037  1.0000
  S   S1518     1.0  0.92323  0.59532  0.82601  1.0000
  S   S1519     1.0  0.90035  0.64388  0.81674  1.0000
  Fe  Fe759     1.0  0.90766  0.59773  0.78584  1.0000
  S   S1520     1.0  0.92180  0.57353  0.79961  1.0000
  N   N371      1.0  0.81273  0.52050  0.85051  1.0000
  Fe  Fe760     1.0  0.90482  0.58170  0.82297  1.0000
  S   S1521     1.0  0.89227  0.56376  0.84506  1.0000
  Fe  Fe761     1.0  0.93869  0.58960  0.80108  1.0000
  H   H8922     1.0  0.86167  0.86269  0.86130  1.0000
  S   S1522     1.0  0.88954  0.60490  0.80913  1.0000
  S   S1523     1.0  0.92573  0.61335  0.78548  1.0000
  Fe  Fe762     1.0  0.86262  0.70144  0.90804  1.0000
  S   S1524     1.0  0.88597  0.68502  0.91728  1.0000
  S   S1525     1.0  0.85774  0.72971  0.89786  1.0000
  Fe  Fe763     1.0  0.84583  0.67156  0.91435  1.0000
  S   S1526     1.0  0.86758  0.65292  0.92434  1.0000
  S   S1527     1.0  0.82423  0.66374  0.90931  1.0000
  Fe  Fe764     1.0  0.86699  0.67264  0.93803  1.0000
  S   S1528     1.0  0.86685  0.66522  0.96583  1.0000
  Fe  Fe765     1.0  0.88428  0.66705  0.90258  1.0000
  S   S1529     1.0  0.90711  0.65240  0.88690  1.0000
  S   S1530     1.0  0.84365  0.69022  0.92977  1.0000
  S   S1531     1.0  0.86249  0.68448  0.89170  1.0000
  C   C5204     1.0  0.91128  0.53324  0.74539  1.0000
  H   H8923     1.0  0.76959  0.93233  0.97829  1.0000
  C   C5205     1.0  0.87447  0.67775  0.97461  1.0000
  C   C5206     1.0  0.88497  0.68878  0.96451  1.0000
  C   C5207     1.0  0.89130  0.69818  0.97194  1.0000
  C   C5208     1.0  0.76017  0.95341  0.95953  1.0000
  H   H8924     1.0  0.85372  0.75687  0.94551  1.0000
  H   H8925     1.0  0.91738  0.53023  0.80559  1.0000
  H   H8926     1.0  0.88846  0.68983  0.95101  1.0000
  H   H8927     1.0  0.89971  0.70640  0.96411  1.0000
  C   C5209     1.0  0.90858  0.73346  0.85471  1.0000
  H   H8928     1.0  0.88303  0.91441  0.74632  1.0000
  H   H8929     1.0  0.87794  0.53317  0.79093  1.0000
  C   C5210     1.0  0.82335  0.96036  0.83644  1.0000
  H   H8930     1.0  0.85621  0.97194  0.73790  1.0000
  C   C5211     1.0  0.97055  0.58943  0.82218  1.0000
  H   H8931     1.0  0.85050  0.86893  0.88050  1.0000
  H   H8932     1.0  0.95820  0.58634  0.82790  1.0000
  H   H8933     1.0  0.83537  0.87327  0.84982  1.0000
  C   C5212     1.0  0.90263  0.64615  0.83611  1.0000
  C   C5213     1.0  0.89212  0.65988  0.84294  1.0000
  C   C5214     1.0  0.89329  0.66183  0.85856  1.0000
  C   C5215     1.0  0.90531  0.65032  0.86726  1.0000
  C   C5216     1.0  0.91622  0.63691  0.86015  1.0000
  C   C5217     1.0  0.91473  0.63468  0.84473  1.0000
  H   H8934     1.0  0.88279  0.66884  0.83628  1.0000
  H   H8935     1.0  0.88497  0.67230  0.86377  1.0000
  H   H8936     1.0  0.92567  0.62805  0.86673  1.0000
  H   H8937     1.0  0.92306  0.62418  0.83950  1.0000
  C   C5218     1.0  0.81898  0.60897  0.92951  1.0000
  C   C5219     1.0  0.81809  0.61699  0.91283  1.0000
  C   C5220     1.0  0.82038  0.63361  0.90652  1.0000
  C   C5221     1.0  0.82400  0.64220  0.91674  1.0000
  C   C5222     1.0  0.82599  0.63387  0.93310  1.0000
  C   C5223     1.0  0.82341  0.61726  0.93951  1.0000
  H   H8938     1.0  0.81559  0.61042  0.90477  1.0000
  H   H8939     1.0  0.81918  0.63992  0.89375  1.0000
  H   H8940     1.0  0.82880  0.64048  0.94103  1.0000
  H   H8941     1.0  0.82430  0.61105  0.95238  1.0000
  C   C5224     1.0  0.83357  0.57564  0.85828  1.0000
  C   C5225     1.0  0.84233  0.58209  0.84207  1.0000
  C   C5226     1.0  0.86030  0.57840  0.83787  1.0000
  C   C5227     1.0  0.86968  0.56816  0.84984  1.0000
  C   C5228     1.0  0.86093  0.56141  0.86596  1.0000
  C   C5229     1.0  0.84293  0.56526  0.87022  1.0000
  H   H8942     1.0  0.83519  0.58994  0.83268  1.0000
  H   H8943     1.0  0.86684  0.58323  0.82526  1.0000
  H   H8944     1.0  0.86810  0.55336  0.87525  1.0000
  H   H8945     1.0  0.83635  0.55996  0.88265  1.0000
  N   N372      1.0  0.89841  0.72230  0.85225  1.0000
  C   C5230     1.0  0.78563  0.51329  0.92287  1.0000
  C   C5231     1.0  0.80324  0.51098  0.91617  1.0000
  H   H8946     1.0  0.80014  0.55009  0.86421  1.0000
  H   H8947     1.0  0.81035  0.51936  0.91752  1.0000
  H   H8948     1.0  0.86988  0.91764  0.94773  1.0000
  C   C5232     1.0  0.85680  0.75078  0.97884  1.0000
  H   H8949     1.0  0.75925  0.96392  0.96548  1.0000
  C   C5233     1.0  0.87601  0.78581  0.93009  1.0000
  H   H8950     1.0  0.96608  0.85960  0.95539  1.0000
  C   C5234     1.0  0.78521  0.49555  0.97405  1.0000
  C   C5235     1.0  0.81294  0.95046  0.84884  1.0000
  C   C5236     1.0  0.81098  0.93561  0.84581  1.0000
  C   C5237     1.0  0.81918  0.93093  0.83028  1.0000
  C   C5238     1.0  0.82976  0.94079  0.81796  1.0000
  C   C5239     1.0  0.83194  0.95542  0.82118  1.0000
  H   H8951     1.0  0.98071  0.51241  0.83253  1.0000
  H   H8952     1.0  0.80291  0.92793  0.85529  1.0000
  H   H8953     1.0  0.81749  0.91957  0.82787  1.0000
  C   C5240     1.0  0.92749  0.52966  0.79400  1.0000
  H   H8954     1.0  0.78980  0.66067  0.91012  1.0000
  C   C5241     1.0  0.89836  0.75863  0.89375  1.0000
  C   C5242     1.0  0.90124  0.74110  0.90011  1.0000
  C   C5243     1.0  0.88866  0.73220  0.90184  1.0000
  C   C5244     1.0  0.87324  0.74073  0.89697  1.0000
  C   C5245     1.0  0.87033  0.75829  0.89066  1.0000
  C   C5246     1.0  0.88284  0.76727  0.88913  1.0000
  H   H8955     1.0  0.91322  0.73438  0.90377  1.0000
  H   H8956     1.0  0.89101  0.71872  0.90681  1.0000
  H   H8957     1.0  0.85838  0.76496  0.88688  1.0000
  H   H8958     1.0  0.88053  0.78081  0.88425  1.0000
  C   C5247     1.0  0.96718  0.82807  0.88862  1.0000
  C   C5248     1.0  0.95583  0.83962  0.89791  1.0000
  C   C5249     1.0  0.96206  0.84720  0.90727  1.0000
  H   H8959     1.0  0.82412  0.95097  0.76451  1.0000
  H   H8960     1.0  0.96068  0.75415  0.92119  1.0000
  H   H8961     1.0  0.89911  0.55357  0.75818  1.0000
  H   H8962     1.0  0.94245  0.84325  0.89729  1.0000
  H   H8963     1.0  0.95349  0.85677  0.91377  1.0000
  C   C5250     1.0  0.82063  0.53467  0.83859  1.0000
  H   H8964     1.0  0.95418  0.64430  0.81920  1.0000
  C   C5251     1.0  0.85777  0.85048  0.91749  1.0000
  C   C5252     1.0  0.84976  0.84213  0.91067  1.0000
  C   C5253     1.0  0.83321  0.84950  0.90773  1.0000
  C   C5254     1.0  0.82472  0.86536  0.91137  1.0000
  C   C5255     1.0  0.83251  0.87342  0.91875  1.0000
  C   C5256     1.0  0.84900  0.86601  0.92177  1.0000
  H   H8965     1.0  0.85623  0.82994  0.90775  1.0000
  H   H8966     1.0  0.82716  0.84310  0.90224  1.0000
  H   H8967     1.0  0.82587  0.88540  0.92208  1.0000
  H   H8968     1.0  0.85515  0.87253  0.92700  1.0000
  C   C5257     1.0  0.90253  0.86540  0.82672  1.0000
  C   C5258     1.0  0.91600  0.86886  0.83127  1.0000
  C   C5259     1.0  0.92218  0.88360  0.82273  1.0000
  C   C5260     1.0  0.91476  0.89505  0.80977  1.0000
  C   C5261     1.0  0.90154  0.89138  0.80505  1.0000
  C   C5262     1.0  0.89561  0.87652  0.81334  1.0000
  H   H8969     1.0  0.92165  0.86018  0.84133  1.0000
  H   H8970     1.0  0.93251  0.88628  0.82633  1.0000
  H   H8971     1.0  0.89588  0.89996  0.79498  1.0000
  H   H8972     1.0  0.88533  0.87383  0.80963  1.0000
  S   S1532     1.0  0.89664  0.59857  0.76392  1.0000
  C   C5263     1.0  0.92541  0.71259  0.82984  1.0000
  H   H8973     1.0  0.83029  0.50302  0.83561  1.0000
  H   H8974     1.0  0.91981  0.68757  0.86177  1.0000
  C   C5264     1.0  0.79636  0.52121  0.84552  1.0000
  C   C5265     1.0  0.76421  0.96158  0.85226  1.0000
  H   H8975     1.0  0.96319  0.89364  0.86957  1.0000
  H   H8976     1.0  0.89194  0.53066  0.80417  1.0000
  H   H8977     1.0  0.91138  0.68726  0.88346  1.0000
  H   H8978     1.0  0.80202  0.51161  0.87676  1.0000
  H   H8979     1.0  0.77312  0.95137  0.95120  1.0000
  H   H8980     1.0  0.99856  0.65263  0.79942  1.0000
  H   H8981     1.0  0.88277  0.75255  0.97532  1.0000
  H   H8982     1.0  0.97326  0.59483  0.84473  1.0000
  H   H8983     1.0  0.79451  0.90146  0.96419  1.0000
  H   H8984     1.0  0.80592  0.52357  0.81789  1.0000
  H   H8985     1.0  0.89220  0.50285  0.80465  1.0000
  H   H8986     1.0  0.78463  0.49887  0.96048  1.0000
  H   H8987     1.0  0.89586  0.56092  0.79124  1.0000
  C   C5266     1.0  0.85683  0.90115  0.96890  1.0000
  C   C5267     1.0  0.97955  0.84304  0.90743  1.0000
  H   H8988     1.0  0.95421  0.62883  0.78989  1.0000
  H   H8989     1.0  0.98290  0.74048  0.90541  1.0000
  C   C5268     1.0  0.96165  0.63816  0.80850  1.0000
  C   C5269     1.0  0.93560  0.56850  0.73773  1.0000
  C   C5270     1.0  0.81178  0.49745  0.90818  1.0000
  H   H8990     1.0  0.89597  0.75979  0.84559  1.0000
  H   H8991     1.0  0.81099  0.54684  0.83709  1.0000
  C   C5271     1.0  0.77652  0.50232  0.92117  1.0000
  H   H8992     1.0  0.97477  0.66565  0.82177  1.0000
  H   H8993     1.0  0.89760  0.50931  0.77423  1.0000
  H   H8994     1.0  0.76353  0.62910  0.95572  1.0000
  C   C5272     1.0  0.98640  0.87267  0.86460  1.0000
  C   C5273     1.0  0.86718  0.72297  0.85182  1.0000
  C   C5274     1.0  0.76796  0.62335  0.94452  1.0000
  C   C5275     1.0  0.96867  0.86490  0.84957  1.0000
  H   H8995     1.0  0.93107  0.57777  0.76039  1.0000
  H   H8996     1.0  0.95151  0.50015  0.73775  1.0000
  H   H8997     1.0  0.98507  0.86031  0.87329  1.0000
  C   C5276     1.0  0.99775  0.53861  0.79687  1.0000
  H   H8998     1.0  0.75074  0.95711  0.95135  1.0000
  C   C5277     1.0  0.84021  0.86264  0.96940  1.0000
  H   H8999     1.0  0.97100  0.85174  0.85706  1.0000
  C   C5278     1.0  0.98291  0.64008  0.78183  1.0000
  C   C5279     1.0  0.97340  0.85070  0.96473  1.0000
  H   H9000     1.0  0.84629  0.85155  0.97795  1.0000
  H   H9001     1.0  0.83419  0.49446  0.87248  1.0000
  H   H9002     1.0  0.87468  0.55874  0.80190  1.0000
  H   H9003     1.0  0.97469  0.64494  0.77234  1.0000
  H   H9004     1.0  0.77107  0.67488  0.90451  1.0000
  C   C5280     1.0  0.88492  0.55613  0.79072  1.0000
  H   H9005     1.0  0.87026  0.62695  0.96012  1.0000
  H   H9006     1.0  0.94647  0.88659  0.85210  1.0000
  H   H9007     1.0  0.99852  0.75178  0.90362  1.0000
  H   H9008     1.0  0.96640  0.53136  0.80094  1.0000
  H   H9009     1.0  0.94951  0.77514  0.92319  1.0000
  C   C5281     1.0  0.98820  0.64603  0.80693  1.0000
  C   C5282     1.0  0.99137  0.77546  0.87421  1.0000
  S   S1533     1.0  0.86644  0.96984  0.77090  1.0000
  H   H9010     1.0  0.78852  0.51301  0.85550  1.0000
  H   H9011     1.0  0.93561  0.51669  0.79477  1.0000
  C   C5283     1.0  0.85018  0.87698  0.96313  1.0000
  C   C5284     1.0  0.89696  0.75052  0.94244  1.0000
  H   H9012     1.0  0.76943  0.65548  0.88700  1.0000
  H   H9013     1.0  0.83600  0.53606  0.85602  1.0000
  C   C5285     1.0  0.97809  0.58846  0.80542  1.0000
  H   H9014     1.0  0.97833  0.77668  0.90797  1.0000
  H   H9015     1.0  0.99694  0.73133  0.87886  1.0000
  H   H9016     1.0  0.81625  0.93635  0.97620  1.0000
  H   H9017     1.0  0.99315  0.52069  0.73789  1.0000
  H   H9018     1.0  0.91995  0.50715  0.77201  1.0000
  C   C5286     1.0  0.98169  0.65223  0.82361  1.0000
  C   C5287     1.0  0.96995  0.77465  0.90077  1.0000
  Fe  Fe766     1.0  0.76451  0.92948  0.91937  1.0000
  N   N373      1.0  0.87014  0.61146  0.87318  1.0000
  C   C5288     1.0  0.87256  0.61216  0.85460  1.0000
  C   C5289     1.0  0.88727  0.60383  0.87791  1.0000
  C   C5290     1.0  0.86413  0.62951  0.87554  1.0000
  C   C5291     1.0  0.85687  0.60110  0.88283  1.0000
  C   C5292     1.0  0.85661  0.62103  0.84700  1.0000
  C   C5293     1.0  0.89621  0.58634  0.87378  1.0000
  C   C5294     1.0  0.86649  0.63316  0.89159  1.0000
  C   C5295     1.0  0.85736  0.59242  0.90140  1.0000
  H   H9019     1.0  0.88314  0.61863  0.84705  1.0000
  H   H9020     1.0  0.87647  0.59925  0.85194  1.0000
  H   H9021     1.0  0.88625  0.60252  0.89159  1.0000
  H   H9022     1.0  0.89625  0.61243  0.87141  1.0000
  H   H9023     1.0  0.87105  0.63801  0.86491  1.0000
  H   H9024     1.0  0.85034  0.63440  0.87516  1.0000
  H   H9025     1.0  0.84370  0.60885  0.88262  1.0000
  H   H9026     1.0  0.85790  0.59070  0.87659  1.0000
  H   H9027     1.0  0.85300  0.63477  0.84687  1.0000
  H   H9028     1.0  0.85958  0.61988  0.83366  1.0000
  H   H9029     1.0  0.84554  0.61507  0.85363  1.0000
  H   H9030     1.0  0.90221  0.58763  0.86017  1.0000
  H   H9031     1.0  0.90667  0.58039  0.88076  1.0000
  H   H9032     1.0  0.88737  0.57761  0.87723  1.0000
  H   H9033     1.0  0.88014  0.63045  0.89226  1.0000
  H   H9034     1.0  0.85903  0.62663  0.90324  1.0000
  H   H9035     1.0  0.86158  0.64692  0.89122  1.0000
  H   H9036     1.0  0.86906  0.58238  0.90261  1.0000
  H   H9037     1.0  0.84638  0.58606  0.90687  1.0000
  H   H9038     1.0  0.85607  0.60137  0.90929  1.0000
  H   H9039     1.0  0.94753  0.78210  0.88011  1.0000
  H   H9040     1.0  0.91472  0.98333  0.78753  1.0000
  H   H9041     1.0  0.97363  0.64409  0.83328  1.0000
  N   N374      1.0  0.97487  0.64786  0.79712  1.0000
  H   H9042     1.0  0.94810  0.56083  0.73911  1.0000
  C   C5296     1.0  0.90965  0.75830  0.94665  1.0000
  N   N375      1.0  0.90440  0.53105  0.77775  1.0000
  H   H9043     1.0  0.96803  0.62529  0.81434  1.0000
  H   H9044     1.0  0.95981  0.53910  0.82030  1.0000
  H   H9045     1.0  0.87199  0.71472  0.84254  1.0000
  H   H9046     1.0  0.82388  0.88250  0.86800  1.0000
  H   H9047     1.0  0.76411  0.92867  0.85352  1.0000
  H   H9048     1.0  0.94142  0.86628  0.85820  1.0000
  H   H9049     1.0  0.82537  0.92526  0.74387  1.0000
  H   H9050     1.0  0.93239  0.70420  0.83951  1.0000
  Fe  Fe767     1.0  0.88334  0.97116  0.78690  1.0000
  H   H9051     1.0  0.91389  0.50291  0.80479  1.0000
  H   H9052     1.0  0.99005  0.91372  0.82684  1.0000
  H   H9053     1.0  0.91861  0.75627  0.84278  1.0000
  H   H9054     1.0  0.79096  0.54370  0.96394  1.0000
  C   C5297     1.0  0.98548  0.87421  0.96431  1.0000
  C   C5298     1.0  0.94830  0.63586  0.80015  1.0000
  C   C5299     1.0  0.83452  0.87249  0.86335  1.0000
  C   C5300     1.0  0.90575  0.71594  0.83607  1.0000
  H   H9055     1.0  0.77127  0.67318  0.95184  1.0000
  H   H9056     1.0  0.92222  0.72708  0.85421  1.0000
  H   H9057     1.0  0.84762  0.50627  0.85535  1.0000
  H   H9058     1.0  0.78834  0.64097  0.89308  1.0000
  C   C5301     1.0  0.96359  0.83656  0.97425  1.0000
  C   C5302     1.0  0.97919  0.59402  0.83177  1.0000
  H   H9059     1.0  0.79423  0.53918  0.88553  1.0000
  C   C5303     1.0  0.83625  0.53822  0.84246  1.0000
  C   C5304     1.0  0.85724  0.61095  0.98273  1.0000
  H   H9060     1.0  0.78444  0.67337  0.93133  1.0000
  C   C5305     1.0  0.88965  0.53692  0.79136  1.0000
  H   H9061     1.0  0.84840  0.53089  0.83610  1.0000
  H   H9062     1.0  0.90178  0.70399  0.83717  1.0000
  C   C5306     1.0  0.89948  0.53976  0.76099  1.0000
  C   C5307     1.0  0.78110  0.65427  0.89155  1.0000
  H   H9063     1.0  0.87633  0.90004  0.73830  1.0000
  H   H9064     1.0  0.76800  0.97253  0.85410  1.0000
  H   H9065     1.0  0.99484  0.63252  0.81003  1.0000
  H   H9066     1.0  0.76050  0.97302  0.88159  1.0000
  C   C5308     1.0  0.98008  0.89070  0.83689  1.0000
  C   C5309     1.0  0.78491  0.48930  0.91244  1.0000
  H   H9067     1.0  0.78870  0.63573  0.93146  1.0000
  H   H9068     1.0  0.82436  0.92869  0.77290  1.0000
  H   H9069     1.0  0.99290  0.65126  0.82887  1.0000
  H   H9070     1.0  0.93979  0.62815  0.80980  1.0000
  H   H9071     1.0  0.84437  0.90984  0.96695  1.0000
  H   H9072     1.0  0.92468  0.53429  0.74354  1.0000
  H   H9073     1.0  0.95029  0.87225  0.87198  1.0000
  H   H9074     1.0  0.83965  0.85815  0.95838  1.0000
  C   C5310     1.0  0.99055  0.83062  0.89910  1.0000
  H   H9075     1.0  0.78058  0.62757  0.91881  1.0000
  H   H9076     1.0  0.93130  0.53099  0.76778  1.0000
  N   N376      1.0  0.80100  0.49936  0.97643  1.0000
  H   H9077     1.0  0.80713  0.94229  0.76372  1.0000
  H   H9078     1.0  0.98009  0.55367  0.82085  1.0000
  H   H9079     1.0  0.98110  0.53705  0.83877  1.0000
  H   H9080     1.0  0.75351  0.67526  0.93206  1.0000
  H   H9081     1.0  0.99494  0.83712  0.84318  1.0000
  S   S1534     1.0  0.98812  0.85474  0.91611  1.0000
  H   H9082     1.0  0.90119  0.73654  0.94633  1.0000
  H   H9083     1.0  0.87845  0.79820  0.92998  1.0000
  H   H9084     1.0  0.97772  0.89033  0.82461  1.0000
  C   C5311     1.0  0.77663  0.63482  0.92890  1.0000
  C   C5312     1.0  0.87332  0.77521  0.94838  1.0000
  C   C5313     1.0  0.89720  0.70771  0.86731  1.0000
  N   N377      1.0  0.85722  0.88966  0.86009  1.0000
  C   C5314     1.0  0.87492  0.88673  0.86325  1.0000
  C   C5315     1.0  0.85787  0.89452  0.84139  1.0000
  C   C5316     1.0  0.84426  0.90261  0.86902  1.0000
  C   C5317     1.0  0.87636  0.88052  0.88188  1.0000
  C   C5318     1.0  0.86550  0.90995  0.83130  1.0000
  C   C5319     1.0  0.85015  0.91850  0.86920  1.0000
  H   H9085     1.0  0.88037  0.89816  0.85833  1.0000
  H   H9086     1.0  0.88400  0.87722  0.85628  1.0000
  H   H9087     1.0  0.86526  0.88367  0.83544  1.0000
  H   H9088     1.0  0.84481  0.89745  0.83884  1.0000
  H   H9089     1.0  0.83256  0.90706  0.86366  1.0000
  H   H9090     1.0  0.83978  0.89661  0.88249  1.0000
  H   H9091     1.0  0.88903  0.88146  0.88307  1.0000
  H   H9092     1.0  0.86641  0.88806  0.89027  1.0000
  H   H9093     1.0  0.87573  0.86700  0.88644  1.0000
  H   H9094     1.0  0.87887  0.90857  0.83219  1.0000
  H   H9095     1.0  0.85726  0.92184  0.83469  1.0000
  H   H9096     1.0  0.86593  0.91127  0.81774  1.0000
  H   H9097     1.0  0.83965  0.92981  0.86710  1.0000
  H   H9098     1.0  0.86158  0.92128  0.85959  1.0000
  H   H9099     1.0  0.85228  0.91766  0.88186  1.0000
  H   H9100     1.0  0.90048  0.72500  0.82539  1.0000
  C   C5320     1.0  0.80798  0.52224  0.86861  1.0000
  H   H9101     1.0  0.88039  0.74310  0.84041  1.0000
  C   C5321     1.0  0.79546  0.53876  0.87220  1.0000
  H   H9102     1.0  0.87529  0.73898  0.86276  1.0000
  H   H9103     1.0  0.90993  0.74958  0.82895  1.0000
  C   C5322     1.0  0.85175  0.87293  0.86664  1.0000
  H   H9104     1.0  0.86126  0.90598  0.97763  1.0000
  S   S1535     1.0  0.78116  0.94786  0.91494  1.0000
  C   C5323     1.0  0.95085  0.87331  0.85846  1.0000
  C   C5324     1.0  0.92062  0.53587  0.77764  1.0000
  H   H9105     1.0  0.93005  0.72454  0.82517  1.0000
  H   H9106     1.0  0.77744  0.61142  0.94776  1.0000
  H   H9107     1.0  0.95763  0.67112  0.80322  1.0000
  H   H9108     1.0  0.96292  0.78310  0.86023  1.0000
  H   H9109     1.0  0.92901  0.70627  0.81902  1.0000
  H   H9110     1.0  0.86455  0.78810  0.92474  1.0000
  H   H9111     1.0  0.90805  0.77204  0.94096  1.0000
  H   H9112     1.0  0.88281  0.72558  0.93917  1.0000
  H   H9113     1.0  0.87966  0.77963  0.95592  1.0000
  H   H9114     1.0  0.87809  0.63125  0.98129  1.0000
  H   H9115     1.0  0.88630  0.53870  0.76131  1.0000
  H   H9116     1.0  0.83674  0.96774  0.73688  1.0000
  H   H9117     1.0  0.86202  0.87259  0.95399  1.0000
  H   H9118     1.0  0.84807  0.63640  0.96767  1.0000
  H   H9119     1.0  0.76353  0.97344  0.82552  1.0000
  C   C5325     1.0  0.77715  0.66117  0.90775  1.0000
  H   H9120     1.0  0.85946  0.77921  0.95386  1.0000
  C   C5326     1.0  0.85523  0.91519  0.75395  1.0000
  C   C5327     1.0  0.99457  0.90030  0.83290  1.0000
  C   C5328     1.0  0.90956  0.58755  0.74837  1.0000
  C   C5329     1.0  0.83033  0.93581  0.74504  1.0000
  C   C5330     1.0  0.79843  0.51596  0.82876  1.0000
  H   H9121     1.0  0.88145  0.87196  0.96955  1.0000
  H   H9122     1.0  0.92291  0.75222  0.94113  1.0000
  H   H9123     1.0  0.97728  0.56118  0.74088  1.0000
  H   H9124     1.0  0.95636  0.66688  0.78456  1.0000
  H   H9125     1.0  0.97818  0.53928  0.75215  1.0000
  H   H9126     1.0  0.94820  0.76951  0.86596  1.0000
  H   H9127     1.0  0.88727  0.77995  0.92147  1.0000
  H   H9128     1.0  0.98387  0.62614  0.78540  1.0000
  C   C5331     1.0  0.80930  0.92628  0.98017  1.0000
  H   H9129     1.0  0.86298  0.71540  0.86459  1.0000
  C   C5332     1.0  0.88046  0.73266  0.85184  1.0000
  H   H9130     1.0  0.88302  0.89719  0.95307  1.0000
  C   C5333     1.0  0.90818  0.75070  0.84213  1.0000
  H   H9131     1.0  0.90381  0.73626  0.86753  1.0000
  N   N378      1.0  0.87831  0.75627  0.95026  1.0000
  H   H9132     1.0  0.94542  0.76623  0.90823  1.0000
  C   C5334     1.0  0.95568  0.76686  0.91398  1.0000
  H   H9133     1.0  0.85554  0.73221  0.84852  1.0000
  H   H9134     1.0  0.80425  0.50228  0.82950  1.0000
  H   H9135     1.0  0.97000  0.69164  0.78300  1.0000
  H   H9136     1.0  0.87067  0.75643  0.92765  1.0000
  C   C5335     1.0  0.95629  0.77460  0.87102  1.0000
  H   H9137     1.0  0.83633  0.55187  0.83755  1.0000
  H   H9138     1.0  0.89017  0.71245  0.87895  1.0000
  C   C5336     1.0  0.85649  0.94506  0.74442  1.0000
  H   H9139     1.0  0.95497  0.50565  0.76990  1.0000
  N   N379      1.0  0.85450  0.88321  0.97635  1.0000
  C   C5337     1.0  0.98903  0.54247  0.82657  1.0000
  C   C5338     1.0  0.76148  0.66260  0.93650  1.0000
  H   H9140     1.0  0.82568  0.94679  0.73532  1.0000
  H   H9141     1.0  0.93992  0.64805  0.79549  1.0000
  H   H9142     1.0  0.78405  0.96177  0.82932  1.0000
  C   C5339     1.0  0.92595  0.57799  0.74983  1.0000
  H   H9143     1.0  0.91091  0.52004  0.74585  1.0000
  H   H9144     1.0  0.84207  0.88751  0.95552  1.0000
  H   H9145     1.0  0.97943  0.67852  0.76767  1.0000
  H   H9146     1.0  0.82489  0.97187  0.83869  1.0000
  H   H9147     1.0  0.96826  0.89890  0.84256  1.0000
  H   H9148     1.0  0.85335  0.91760  0.76676  1.0000
  H   H9149     1.0  0.97082  0.82653  0.98289  1.0000
  H   H9150     1.0  0.77343  0.50358  0.98023  1.0000
  H   H9151     1.0  0.95013  0.89022  0.96995  1.0000
  C   C5340     1.0  0.91414  0.69589  0.87096  1.0000
  H   H9152     1.0  0.77216  0.95019  0.85904  1.0000
  H   H9153     1.0  0.91952  0.54978  0.77371  1.0000
  Fe  Fe768     1.0  0.89056  0.95645  0.75589  1.0000
  C   C5341     1.0  0.77653  0.66575  0.94182  1.0000
  C   C5342     1.0  0.82438  0.50343  0.84907  1.0000
  C   C5343     1.0  0.98405  0.55034  0.74922  1.0000
  S   S1536     1.0  0.98665  0.50706  0.77736  1.0000
  N   N380      1.0  0.84960  0.93141  0.74175  1.0000
  H   H9154     1.0  0.78244  0.53938  0.87072  1.0000
  H   H9155     1.0  0.78813  0.53420  0.84440  1.0000
  C   C5344     1.0  0.80255  0.51689  0.96636  1.0000
  C   C5345     1.0  0.90718  0.51217  0.77950  1.0000
  H   H9156     1.0  0.96379  0.78756  0.89480  1.0000
  H   H9157     1.0  0.76845  0.95055  0.83004  1.0000
  H   H9158     1.0  0.81683  0.49333  0.85398  1.0000
  H   H9159     1.0  0.88301  0.92764  0.98096  1.0000
  H   H9160     1.0  0.78555  0.51800  0.82612  1.0000
  H   H9161     1.0  0.93550  0.53824  0.79406  1.0000
  H   H9162     1.0  0.82496  0.53226  0.82561  1.0000
  C   C5346     1.0  0.99441  0.59196  0.79831  1.0000
  C   C5347     1.0  0.98444  0.82338  0.88948  1.0000
  N   N381      1.0  0.97734  0.86000  0.97567  1.0000
  H   H9163     1.0  0.86148  0.72988  0.93621  1.0000
  C   C5348     1.0  0.75821  0.93678  0.97251  1.0000
  C   C5349     1.0  0.87407  0.90593  0.74920  1.0000
  H   H9164     1.0  0.76289  0.50406  0.92638  1.0000
  H   H9165     1.0  0.88966  0.69928  0.86599  1.0000
  H   H9166     1.0  0.90860  0.75609  0.96042  1.0000
  H   H9167     1.0  0.99696  0.76992  0.86281  1.0000
  C   C5350     1.0  0.86755  0.75121  0.94149  1.0000
  C   C5351     1.0  0.97508  0.88674  0.87392  1.0000
  H   H9168     1.0  0.87729  0.89557  0.76002  1.0000
  C   C5352     1.0  0.86944  0.73200  0.94377  1.0000
  H   H9169     1.0  0.86749  0.59970  0.98004  1.0000
  C   C5353     1.0  0.87550  0.74803  0.96879  1.0000
  C   C5354     1.0  0.79700  0.90669  0.97340  1.0000
  H   H9170     1.0  0.98868  0.50824  0.81194  1.0000
  H   H9171     1.0  0.75342  0.65675  0.94828  1.0000
  H   H9172     1.0  0.84003  0.96313  0.81177  1.0000
  C   C5355     1.0  0.82119  0.93964  0.76257  1.0000
  H   H9173     1.0  0.78479  0.65384  0.94725  1.0000
  H   H9174     1.0  0.75934  0.92722  0.96515  1.0000
  H   H9175     1.0  0.75734  0.61971  0.94178  1.0000
  C   C5356     1.0  0.85732  0.62436  0.96604  1.0000
  H   H9176     1.0  0.96157  0.75065  0.88855  1.0000
  C   C5357     1.0  0.96578  0.66601  0.79208  1.0000
  C   C5358     1.0  0.99535  0.59781  0.82461  1.0000
  C   C5359     1.0  0.96899  0.75976  0.87939  1.0000
  H   H9177     1.0  0.80248  0.51808  0.95293  1.0000
  H   H9178     1.0  0.97677  0.75299  0.86925  1.0000
  H   H9179     1.0  0.96173  0.83049  0.96491  1.0000
  H   H9180     1.0  0.84841  0.74609  0.97381  1.0000
  H   H9181     1.0  0.84715  0.90595  0.75591  1.0000
  H   H9182     1.0  0.87430  0.84571  0.98132  1.0000
  C   C5360     1.0  0.87104  0.87263  0.98103  1.0000
  H   H9183     1.0  0.82675  0.86731  0.97562  1.0000
  H   H9184     1.0  0.87070  0.94206  0.74117  1.0000
  C   C5361     1.0  0.97689  0.67870  0.78126  1.0000
  H   H9185     1.0  0.99849  0.90026  0.84443  1.0000
  C   C5362     1.0  0.80553  0.92009  0.96812  1.0000
  H   H9186     1.0  0.98173  0.55427  0.76134  1.0000
  C   C5363     1.0  0.98331  0.51870  0.81893  1.0000
  H   H9187     1.0  0.98263  0.89596  0.87347  1.0000
  H   H9188     1.0  0.75027  0.92600  0.87424  1.0000
  C   C5364     1.0  0.78822  0.53154  0.97218  1.0000
  H   H9189     1.0  0.85363  0.61947  0.95687  1.0000
  H   H9190     1.0  0.99324  0.81449  0.88232  1.0000
  C   C5365     1.0  0.90569  0.50099  0.79749  1.0000
  C   C5366     1.0  0.75062  0.93012  0.86055  1.0000
  H   H9191     1.0  0.88066  0.73414  0.97071  1.0000
  H   H9192     1.0  0.82218  0.49738  0.94295  1.0000
  H   H9193     1.0  0.78936  0.66183  0.88135  1.0000
  H   H9194     1.0  0.87976  0.56355  0.77943  1.0000
  C   C5367     1.0  0.94658  0.87865  0.97871  1.0000
  H   H9195     1.0  0.86622  0.90041  0.94178  1.0000
  H   H9196     1.0  0.97118  0.88099  0.88752  1.0000
  N   N382      1.0  0.98037  0.76462  0.88761  1.0000
  N   N383      1.0  0.98334  0.87307  0.84764  1.0000
  H   H9197     1.0  0.81506  0.51950  0.96605  1.0000
  C   C5368     1.0  0.96562  0.52775  0.81476  1.0000
  C   C5369     1.0  0.77014  0.96185  0.83320  1.0000
  H   H9198     1.0  0.98911  0.67676  0.78505  1.0000
  H   H9199     1.0  0.97675  0.88290  0.95619  1.0000
  H   H9200     1.0  0.77557  0.53078  0.97084  1.0000
  H   H9201     1.0  0.96754  0.86396  0.83700  1.0000
  H   H9202     1.0  0.98542  0.84467  0.95685  1.0000
  H   H9203     1.0  0.82851  0.49017  0.97151  1.0000
  H   H9204     1.0  0.94182  0.87173  0.97213  1.0000
  H   H9205     1.0  0.86482  0.72584  0.95705  1.0000
  H   H9206     1.0  0.95068  0.84155  0.98137  1.0000
  C   C5370     1.0  0.86978  0.90394  0.95190  1.0000
  C   C5371     1.0  0.99111  0.74872  0.89610  1.0000
  H   H9207     1.0  0.85137  0.76421  0.97959  1.0000
  H   H9208     1.0  0.82547  0.49547  0.90332  1.0000
  N   N384      1.0  0.99596  0.52984  0.81525  1.0000
  H   H9209     1.0  0.98572  0.54780  0.79455  1.0000
  C   C5372     1.0  0.83909  0.49734  0.85864  1.0000
  C   C5373     1.0  0.97676  0.49036  0.78005  1.0000
  H   H9210     1.0  0.98733  0.88254  0.97161  1.0000
  H   H9211     1.0  0.99515  0.55912  0.83871  1.0000
  H   H9212     1.0  0.75294  0.64012  0.91261  1.0000
  C   C5374     1.0  0.85082  0.96311  0.73422  1.0000
  H   H9213     1.0  0.74993  0.94780  0.88405  1.0000
  C   C5375     1.0  0.75032  0.65126  0.91838  1.0000
  C   C5376     1.0  0.90307  0.58790  0.73455  1.0000
  H   H9214     1.0  0.75640  0.58395  0.98275  1.0000
  H   H9215     1.0  0.99833  0.86454  0.82482  1.0000
  H   H9216     1.0  0.90670  0.54119  0.73392  1.0000
