data_image0
_chemical_formula_structural       FeS2FeSHFeSFeS3FeS2FeS2FeSFeS4HC6H4CSCHCH4C7H4C6H6C4H3C3HFeH3CH5CH4CHSCH3NCH2CH8NH11NCSCH3CSHCHC3HS2H4FeHCNC3H3NC8H9CH3SH7C2H3CH3C4H2CHCH4C2HCH8C2FeC3H7C2FeS2FeS2FeSFeS3FeS2FeS2FeHFeS4HC6H2CFeH5CH4C3H2CH4C6H4CHC4H3C4H3C2H3SH2C3H3FeH2CHNH2SH2CH3CNC4HCH9CH3CH3SCH6C2H3CNHCHCHC2H2NCHC2HNC5HCSH7CH3NH6CH6CHCHCHCHCSCH2C2H8C2H10CH4C2H2C2H3CHCH2CH2CSHCHSHCH2C3H4CHCHCH2CHCH5CHCH5CHCHCH4CHC3H3CH3C2H5CHCH2CFeS2FeSH2SHFeSFeSCFeSHFeSCFeSFeHS2H2FeS2FeSFeSHCHFeH2C7H4C6H3CH2C2HCH3C4H5NHC6H5CH2C3HFeH2CH2FeCH6CH5CH2SNCNC2HCSHCHC2H3CH2S2CSH3CSHCFeCHSCSHCHCH4SNC8H22CHCSNH2C2HC2H3CSH9CHCH2SCH4NSCHCHCHC2H2CH3C2H6CH2CH3C2HFeS4H2SHFeSHSCFeS2FeSCFeSFeCS2HCFeS2FeSFeSHCHCHCHC6H4SH2C4H5C4H4C3H4CHC7H5CN2CHC5H5NC8H22SHFeHC5H5CHSH3CSH2C4HNHC2H4CSCH7CHFeCH4CH2FeSFe2CNHC2HCH2SH3SCH2CHCH4CH4C2HCH4C2H2CH2NHSFeHCHCH5CH2CH3CHC2FeSFeS2HC2H2CH3FeS2HCH3SHSH3CFeHSH2CS2CHCSH4CHSCNHCHCHC2SH6C2HC6H4SHSH5CH2FeCHFeCSCH4CH4CH2FeC2H2CS2HFeH2CH2SC2H3C5H2CH5CHFeH2SHCH2NC8H17CFeCSH2C2H3NCHCHS2H4C2SHCNC3HFeHCHCH2C2H4CHC3SCH3CHNCHCH3CH2CHCH3FeH4CHCH4CHCH3CSCNH9FeHC2SFeC2HCFeCFeS2H2SHSH2NCFeS2H2FeHCSHSCFe2CHSH3CH3CHCH6C2H3S2H2SHFeHFeHC4HC6H4S2H4C2H3C2HCNHC2FeHCH2C3H5C2FeC3HC2HFeCH2CHSC2HCHFeCH4CSCSH2CSHS2HNHC2HC2SHC2NC8H20CSCSC2H14CH2CH4CHFeHSCH7C2H4FeH2FeC2FeS2FeS4FeSHSFeS2FeHFe2S2FeS2FeSFeSFeS2HCHSC3H4C6H4C6H3C6H3C2H3C2HC2H2CH2C4H2CH3FeSHCSC2FeH2S2CSCH2CH2NC8H11CH8NC5HC2H11CH2CH2CH2NHSHCHCH2SH3CH4CH2CH2CH2NH2CHNC7H13C2H4CH5CHSH4CHS2H6CHC6H2C2H3CNFeH2C4H4CH2CH6CH5CH5CH2CH2CHCHCH5CNCHCHSC3H6CH3CFeS2FeS2HSFeSCSFeS2FeCFe2S2FeS2FeSFeSFeS2HC2HC3H4C6H4C6H3C4HCH3C2H4CHC2SHSHCHC3H2SHCHSH7CH2CH3CH5CH2CH2NC6H13NC4HC3H9CH10NC4HC3H8CH5SH7C2HCHC3HC3H3CSNC5H5CH4CH4CFeH3C2SNC4HCHC2H3NH15CSHFeH3S3CHC3FeC3H2S2H2SHFeCH2SNH6C2H2SNCH3CHCHCHFeH2CH6SH2SC2FeSHSFeS2FeS2FeHFeS3HSH2C2HNH2CH3CH3C2H6CH3C3H2SH4C6H6C2HC7H4C6H4CH2C2H4SC2H2CHC2HFeSH2C2H3CHCH4FeH2NHCHCFeH5CHCH8C2H2C2HCH7C3HCHCHCNH3C2HCHNH2CH2CH3NHCH3CH3NH2SC2HCH2CH2CH4CH3C2H2SH3CHC3HNC2SCH2FeCH2CHSNCH4C2HCH3C3SHCSCHFeSHCFeS2FeS2FeHFeS3CSHCH2CH2CH8SHCHCFeHC2HCHC5H3NHC6H4SH5C6H4C6H6C2H2CH2C2H4CH6CHCH3SCHCH7CH2CHSHNCH2NH2CHSC2HFeH3SHCH3C2H2SC2HFeCH2CHCH2CHSHSFeCH5CHSHCH5CH4C2H2N2CH4CHCH2C3H3SHC2H3CHC2H2CH6NC2H2C2H5C2SH2CHSFeCHSH2FeS2FeS2FeSFeS3C3H2C3H2C3H2CHC2HCHCH2CHC3SCHC3H2C2H12SCHCHSH2FeHNCHC2HCHCHFeCHCH2C2HFeH2SFeHC2HC3HCH2NH5CH4C2NCH4C2HSH2CHCHCH4SCSH2SH4FeC4HCFe2H4SHSHCFeHCNH2CHCH3CHC2H4SCHCNHC5HC2Fe2H2CH5CH3N2H3CH4CHSH2C2H2C2HCH3CH5S2H3CNCHC2HNHC2H3CSH2SH3CS2HFeS2FeS2FeSFe2S2C3H2C3H2C3HCHC3HCH7CHSHSHFeH4C2H3C2H3CNC2HC2H7CH5C2H2FeH7CH2C2H2CHCH2CFeC2HCHSCFeH2C2S2HCHSHFeHCH3FeHFeHCSHFeSCHC2HCH2FeCHCH2C2H2SCH3SH3C3H2CHC2NHFeC2HC4HCH7C3H2CH4NH2C2HCH4CSCH2CH3C2SHS2CHCH5CHCH4CH2CHCHCSH5CHCH5C2H5NH3CHCH7C2HCHSCH2CH2CH4CH3FeSFeS2Fe2S4H2SHSHCSH3C6H4C3H2CH5SC6H2CH5CHCH3CFeCH2CFeH2SH3SH2NHC3HCH2C2HSHCSN2H2C4H3C2SCH2C2H2CH2CHCHFeHSFeCS2CH3C2FeH3CNH3CH3CHCH5CH3CSHCHCH3CHSCH4C4H2NC9H9CH2CH3SH7CHCH2CH3CHNHFeH4CH12FeSFeS2Fe2S4CH2FeCSCS2H2C6H4C2HCHCH6C6H2NC5HC2H11C2FeH7S2H2CHSH3C2SHCHCH2CFeH2NC3HCHC2SFeNHCNCHCSH5C2H4SHSCH4C2H3SCFeCH2C2H6CHCH2CH2CHC2HSH2CNHCH4FeHC2HSH2CH3SH4C3H5C2HC2HCHC2HSH3CH3CH6NH3CH2C2H2C3H6SFeS2FeNFeHS2CSCH2FeS2FeS2FeSFeS3H2C7H4CHSHCH2C6H4C6H5CH2CH2C2H3C5H8CH3C2HCHCH2CH4NS2CH4CHCH3CHSH10C2H5CNH2CSHSH4CHCH2CHCNHCFeHCH4CH3C2H2NH2C3HNH4CHFeC2HC3HCH8CH2C3HCH3SCH2C2H5CH4CHCH5SH9C2HSHCHC2H2CH4C2H2CH2NH2FeS2FeCFeS3H5FeS2FeS2FeSFeS3H3C6H3C2H2CHCHC6H4C6H5CSCH3CH2SC2HC2H5CH3N2CH5CHFeH6C2H2CSHCHCH4CH6C2H2CH2NHC2H2CH2CHSH3CH6CNC4HC2H2NH3CHSCH5CHC2H10CH2C4H4CHCHCHCH2SHNH3FeHCH2CH2CH4C3HCH2CHCH4CSCHCSH4CS2FeSFeSHSCFeSFeSH2FeS2H2CFeHFeS3H4C3H2C6H3C6H4C3H2S2C5H3CH3C2HCH2FeHNC8H15NH3C2H3CH2NCHCH3C4HCH2CHSNH2SH2NC8H20NFeHCH3CHC2H2C2HCH2C2FeH4C2H2SFeH2CHC2SHSCHFeH3SHCH3C2H2SH2CH3C2SHC2H5SCHCHSC2H3CHC2HFeSCH4Fe2SNSHS2C2HFeCSNSCHCHCH5C2H4SHC2H3CH5CH5CH3CHCNHCH2NH3C3FeH2S2FeSFeS3HFeSFeSCHFeS2C2HFeCFeS3C2H2C3SC7H3C6H4CH6C4HSH4CHC2H4FeH6NC8H22CHCHCH4CH2SCHC2HCHCH5NCH2CH3C2H3CH3CH3CH4C2NH2SNHCHNH2FeH5SC2H2CSH3CFeS2H4CSCH2Fe2HSHC2SFeHCH3SCH3C4H3CNCH5CH2CH3CH3SCNC2HCH2C3H2CH3FeHC2H2CHSCH2CH2CHCHC2FeHSHC4HCHCHS2CHC3SH3NH3SH4C2H3CH3C2HCH6CHCHC2H4CHCH2FeSC2HFeC2SHFeCH2CHSHSHNHCHCH5FeSFeSHSCFeS2FeSFeS3C6HC5H5C4H4CH2SCHCSHC6H5C2H4FeCFeCH2C2HCHSH2S2HNC8H4SH4FeSHSCH2CH4CH2CH2CH7CH2CH7CH2NC5HC2H9FeH12S3CH4CHSNHCHCFeC2H4C2H2CH2CHCHCH6CH6CHSCH2FeS2NH7SCSCHCHS2CH2SFe2SFeC2SHFeS2FeSFeS3C11H6C4H7SHCHC8H5FeH3CH2CH2CHC2HCHC2HFeSNH3SCHCHCNC2H3CHSHCH8CH2CH3CHSH2CHC2H2CH2C4H3FeHC3HFeC2HCHSHCSH2CSH2FeC3HSC2HCFeHCH3CH7CH2C2NHCHCHSH6NHNH5C2H5C2H4CH7FeHCH5SH2CHFeH2
_chemical_formula_sum              "Fe256 S512 H3072 C1792 N128"
_cell_length_a       62.8945
_cell_length_b       63.13
_cell_length_c       48.924
_cell_angle_alpha    90.5377
_cell_angle_beta     90.5028
_cell_angle_gamma    85.1455

_space_group_name_H-M_alt    "P 1"
_space_group_IT_number       1

loop_
  _space_group_symop_operation_xyz
  'x, y, z'

loop_
  _atom_site_type_symbol
  _atom_site_label
  _atom_site_symmetry_multiplicity
  _atom_site_fract_x
  _atom_site_fract_y
  _atom_site_fract_z
  _atom_site_occupancy
  Fe  Fe1       1.0  0.10496  0.23899  0.32939  1.0000
  S   S1        1.0  0.08764  0.20928  0.32804  1.0000
  S   S2        1.0  0.14053  0.24021  0.32656  1.0000
  Fe  Fe2       1.0  0.06392  0.26870  0.33196  1.0000
  S   S3        1.0  0.04368  0.24125  0.33105  1.0000
  H   H1        1.0  0.12196  0.26806  0.21547  1.0000
  Fe  Fe3       1.0  0.06746  0.22584  0.36116  1.0000
  S   S4        1.0  0.05514  0.21239  0.40050  1.0000
  Fe  Fe4       1.0  0.06591  0.22768  0.29808  1.0000
  S   S5        1.0  0.05131  0.21702  0.25805  1.0000
  S   S6        1.0  0.08627  0.25436  0.36418  1.0000
  S   S7        1.0  0.08470  0.25626  0.29734  1.0000
  Fe  Fe5       1.0  0.04742  0.20357  0.07690  1.0000
  S   S8        1.0  0.07369  0.17730  0.07387  1.0000
  S   S9        1.0  0.01262  0.19697  0.06934  1.0000
  Fe  Fe6       1.0  0.07989  0.23690  0.08995  1.0000
  S   S10       1.0  0.10727  0.21228  0.08641  1.0000
  S   S11       1.0  0.09079  0.26913  0.10117  1.0000
  Fe  Fe7       1.0  0.09043  0.20091  0.04906  1.0000
  S   S12       1.0  0.22324  0.23882  0.48588  1.0000
  Fe  Fe8       1.0  0.08692  0.19266  0.11169  1.0000
  S   S13       1.0  0.10096  0.18071  0.15209  1.0000
  S   S14       1.0  0.06385  0.22676  0.05120  1.0000
  S   S15       1.0  0.05978  0.21762  0.11593  1.0000
  S   S16       1.0  0.17056  0.26809  0.18219  1.0000
  H   H2        1.0  0.00849  0.16168  0.99971  1.0000
  C   C1        1.0  0.11359  0.26826  0.12275  1.0000
  C   C2        1.0  0.12672  0.28519  0.12290  1.0000
  C   C3        1.0  0.14498  0.28474  0.13989  1.0000
  C   C4        1.0  0.14989  0.26762  0.15748  1.0000
  C   C5        1.0  0.13643  0.25098  0.15782  1.0000
  C   C6        1.0  0.11864  0.25104  0.14015  1.0000
  H   H3        1.0  0.99439  0.13390  0.13301  1.0000
  H   H4        1.0  0.18296  0.27791  0.46781  1.0000
  H   H5        1.0  0.13972  0.23794  0.17188  1.0000
  H   H6        1.0  0.10852  0.23800  0.14058  1.0000
  C   C7        1.0  0.06048  0.29504  0.24633  1.0000
  S   S17       1.0  0.10773  0.19418  0.00849  1.0000
  C   C8        1.0  0.07448  0.15100  0.99370  1.0000
  H   H7        1.0  0.07386  0.22734  0.99603  1.0000
  C   C9        1.0  0.14627  0.24111  0.42292  1.0000
  H   H8        1.0  0.03796  0.29478  0.18716  1.0000
  H   H9        1.0  0.12282  0.29866  0.10973  1.0000
  H   H10       1.0  0.03846  0.12771  0.43869  1.0000
  H   H11       1.0  0.13440  0.21088  0.40880  1.0000
  C   C10       1.0  0.01850  0.30064  0.29829  1.0000
  C   C11       1.0  0.07158  0.20814  0.42983  1.0000
  C   C12       1.0  0.09040  0.19463  0.42898  1.0000
  C   C13       1.0  0.10155  0.18904  0.45333  1.0000
  C   C14       1.0  0.09422  0.19714  0.47873  1.0000
  C   C15       1.0  0.07552  0.21079  0.47947  1.0000
  C   C16       1.0  0.06418  0.21608  0.45521  1.0000
  H   H12       1.0  0.09595  0.18791  0.40962  1.0000
  H   H13       1.0  0.11569  0.17803  0.45249  1.0000
  H   H14       1.0  0.15820  0.20348  0.08062  1.0000
  H   H15       1.0  0.04944  0.22623  0.45615  1.0000
  C   C17       1.0  0.06577  0.20652  0.22934  1.0000
  C   C18       1.0  0.08806  0.20299  0.22942  1.0000
  C   C19       1.0  0.09876  0.19490  0.20576  1.0000
  C   C20       1.0  0.08732  0.19078  0.18172  1.0000
  C   C21       1.0  0.06507  0.19430  0.18181  1.0000
  C   C22       1.0  0.05438  0.20193  0.20552  1.0000
  H   H16       1.0  0.09698  0.20623  0.24777  1.0000
  H   H17       1.0  0.11592  0.19181  0.20599  1.0000
  H   H18       1.0  0.05600  0.19057  0.16379  1.0000
  H   H19       1.0  0.03715  0.20433  0.20538  1.0000
  H   H20       1.0  0.06402  0.14055  0.46964  1.0000
  H   H21       1.0  0.05607  0.28430  0.14212  1.0000
  C   C23       1.0  0.17857  0.22363  0.34713  1.0000
  C   C24       1.0  0.15693  0.22060  0.34373  1.0000
  C   C25       1.0  0.14911  0.20191  0.35325  1.0000
  C   C26       1.0  0.16287  0.18667  0.36694  1.0000
  H   H22       1.0  0.18480  0.23803  0.34008  1.0000
  H   H23       1.0  0.13245  0.19935  0.35046  1.0000
  H   H24       1.0  0.15670  0.17257  0.37511  1.0000
  C   C27       1.0  0.01308  0.13388  0.04956  1.0000
  C   C28       1.0  0.01944  0.15357  0.05888  1.0000
  C   C29       1.0  0.00500  0.17169  0.05867  1.0000
  H   H25       1.0  0.18371  0.24188  0.44929  1.0000
  Fe  Fe9       1.0  0.20549  0.27221  0.17338  1.0000
  H   H26       1.0  0.02448  0.12004  0.04954  1.0000
  H   H27       1.0  0.03558  0.15470  0.06611  1.0000
  H   H28       1.0  0.18466  0.19810  0.06813  1.0000
  C   C30       1.0  0.19502  0.26381  0.06122  1.0000
  H   H29       1.0  0.18145  0.24171  0.03429  1.0000
  H   H30       1.0  0.20568  0.26426  0.07936  1.0000
  H   H31       1.0  0.20391  0.26962  0.04367  1.0000
  H   H32       1.0  0.18077  0.27515  0.06418  1.0000
  H   H33       1.0  0.05896  0.31057  0.19548  1.0000
  C   C31       1.0  0.13063  0.24528  0.46842  1.0000
  H   H34       1.0  0.16586  0.27742  0.43859  1.0000
  H   H35       1.0  0.03113  0.21889  0.00869  1.0000
  H   H36       1.0  0.10320  0.24836  0.21398  1.0000
  H   H37       1.0  0.03279  0.24836  0.19812  1.0000
  C   C32       1.0  0.01866  0.14185  0.48286  1.0000
  H   H38       1.0  0.06568  0.26080  0.23857  1.0000
  S   S18       1.0  0.22270  0.28566  0.13819  1.0000
  C   C33       1.0  0.15569  0.24546  0.08273  1.0000
  H   H39       1.0  0.18078  0.19848  0.11915  1.0000
  H   H40       1.0  0.04070  0.17093  0.41019  1.0000
  H   H41       1.0  0.07221  0.24249  0.19568  1.0000
  N   N1        1.0  0.15027  0.23688  0.45292  1.0000
  C   C34       1.0  0.09087  0.28016  0.19979  1.0000
  H   H42       1.0  0.16119  0.23865  0.41080  1.0000
  H   H43       1.0  0.17049  0.18494  0.43990  1.0000
  C   C35       1.0  0.19234  0.20816  0.35988  1.0000
  H   H44       1.0  0.16349  0.22130  0.13008  1.0000
  H   H45       1.0  0.15678  0.19075  0.03466  1.0000
  H   H46       1.0  0.09367  0.29679  0.20550  1.0000
  H   H47       1.0  0.17358  0.20951  0.02180  1.0000
  H   H48       1.0  0.14004  0.20482  0.45436  1.0000
  H   H49       1.0  0.03201  0.18718  0.44970  1.0000
  H   H50       1.0  0.99333  0.29948  0.26823  1.0000
  H   H51       1.0  0.07713  0.16025  0.01265  1.0000
  N   N2        1.0  0.17559  0.23145  0.07589  1.0000
  H   H52       1.0  0.00306  0.16710  0.12025  1.0000
  H   H53       1.0  0.10145  0.26863  0.24054  1.0000
  H   H54       1.0  0.03712  0.18027  0.02042  1.0000
  H   H55       1.0  0.17636  0.20827  0.42324  1.0000
  H   H56       1.0  0.04138  0.23617  0.16691  1.0000
  H   H57       1.0  0.18847  0.20237  0.45595  1.0000
  H   H58       1.0  0.15751  0.21064  0.48054  1.0000
  H   H59       1.0  0.07773  0.30015  0.15142  1.0000
  H   H60       1.0  0.05133  0.31232  0.14676  1.0000
  H   H61       1.0  0.12741  0.23323  0.38756  1.0000
  H   H62       1.0  0.09774  0.27802  0.17899  1.0000
  N   N3        1.0  0.06740  0.27677  0.19929  1.0000
  C   C36       1.0  0.06064  0.29792  0.15471  1.0000
  S   S19       1.0  0.22682  0.28522  0.20561  1.0000
  C   C37       1.0  0.10493  0.26531  0.21866  1.0000
  H   H63       1.0  0.01638  0.29379  0.39029  1.0000
  H   H64       1.0  0.99199  0.19204  0.13291  1.0000
  H   H65       1.0  0.15963  0.25921  0.09565  1.0000
  C   C38       1.0  0.99210  0.13191  0.04041  1.0000
  S   S20       1.0  0.20140  0.17267  0.39060  1.0000
  H   H66       1.0  0.12728  0.24540  0.05613  1.0000
  C   C39       1.0  0.04126  0.25119  0.17888  1.0000
  H   H67       1.0  0.20525  0.22114  0.09697  1.0000
  C   C40       1.0  0.14153  0.25448  0.05881  1.0000
  C   C41       1.0  0.02158  0.17760  0.46197  1.0000
  C   C42       1.0  0.02584  0.20641  0.99469  1.0000
  H   H68       1.0  0.13563  0.27118  0.06363  1.0000
  S   S21       1.0  0.05044  0.30301  0.33711  1.0000
  S   S22       1.0  0.21983  0.22608  0.41254  1.0000
  H   H69       1.0  0.06224  0.16865  0.46740  1.0000
  H   H70       1.0  0.14961  0.25507  0.03898  1.0000
  H   H71       1.0  0.19211  0.27986  0.27959  1.0000
  H   H72       1.0  0.04675  0.30702  0.24295  1.0000
  Fe  Fe10      1.0  0.22809  0.19130  0.40573  1.0000
  H   H73       1.0  0.11697  0.23576  0.46342  1.0000
  C   C43       1.0  0.18907  0.24108  0.05474  1.0000
  N   N4        1.0  0.03166  0.15522  0.46510  1.0000
  C   C44       1.0  0.03281  0.14489  0.43709  1.0000
  C   C45       1.0  0.16137  0.20727  0.03748  1.0000
  C   C46       1.0  0.18905  0.22883  0.10165  1.0000
  H   H74       1.0  0.20418  0.23084  0.05161  1.0000
  H   H75       1.0  0.12526  0.26178  0.46208  1.0000
  H   H76       1.0  0.07285  0.25565  0.16417  1.0000
  N   N5        1.0  0.18178  0.22839  0.25787  1.0000
  C   C47       1.0  0.18867  0.24599  0.27621  1.0000
  C   C48       1.0  0.18211  0.20853  0.27484  1.0000
  C   C49       1.0  0.15930  0.23481  0.24806  1.0000
  C   C50       1.0  0.19704  0.22595  0.23427  1.0000
  C   C51       1.0  0.18708  0.26848  0.26382  1.0000
  C   C52       1.0  0.20396  0.20033  0.28693  1.0000
  C   C53       1.0  0.14558  0.21684  0.23901  1.0000
  C   C54       1.0  0.19440  0.20756  0.21392  1.0000
  H   H77       1.0  0.17894  0.24715  0.29511  1.0000
  H   H78       1.0  0.20556  0.24276  0.28295  1.0000
  H   H79       1.0  0.17626  0.19500  0.26329  1.0000
  H   H80       1.0  0.17074  0.21109  0.29205  1.0000
  H   H81       1.0  0.14991  0.24355  0.26452  1.0000
  H   H82       1.0  0.15943  0.24607  0.23072  1.0000
  H   H83       1.0  0.19569  0.24052  0.22162  1.0000
  H   H84       1.0  0.21395  0.22493  0.24138  1.0000
  H   H85       1.0  0.19795  0.26950  0.24632  1.0000
  C   C55       1.0  0.15437  0.21345  0.45845  1.0000
  H   H86       1.0  0.03210  0.26353  0.16663  1.0000
  H   H87       1.0  0.21610  0.19698  0.27084  1.0000
  H   H88       1.0  0.20972  0.21142  0.30247  1.0000
  S   S23       1.0  0.22499  0.24102  0.17156  1.0000
  H   H89       1.0  0.13067  0.22401  0.22947  1.0000
  H   H90       1.0  0.14072  0.20767  0.25686  1.0000
  H   H91       1.0  0.15339  0.20595  0.22367  1.0000
  H   H92       1.0  0.18277  0.21262  0.19752  1.0000
  H   H93       1.0  0.18978  0.19288  0.22347  1.0000
  H   H94       1.0  0.21008  0.20285  0.20438  1.0000
  H   H95       1.0  0.18997  0.21700  0.14332  1.0000
  C   C56       1.0  0.17359  0.20180  0.44364  1.0000
  C   C57       1.0  0.04725  0.15477  0.41614  1.0000
  H   H96       1.0  0.99357  0.13257  0.45404  1.0000
  H   H97       1.0  0.06396  0.15524  0.42335  1.0000
  H   H98       1.0  0.19179  0.24453  0.11101  1.0000
  C   C58       1.0  0.00082  0.30929  0.28311  1.0000
  H   H99       1.0  0.20912  0.21042  0.36147  1.0000
  H   H100      1.0  0.04142  0.27296  0.22709  1.0000
  H   H101      1.0  0.11353  0.23110  0.41871  1.0000
  C   C59       1.0  0.12941  0.22815  0.40914  1.0000
  C   C60       1.0  0.06454  0.25623  0.18422  1.0000
  C   C61       1.0  0.05874  0.27528  0.22778  1.0000
  C   C62       1.0  0.05420  0.15525  0.47612  1.0000
  H   H102      1.0  0.02455  0.28423  0.29517  1.0000
  H   H103      1.0  0.14511  0.23688  0.09598  1.0000
  C   C63       1.0  0.18003  0.21562  0.12461  1.0000
  H   H104      1.0  0.00664  0.17809  0.44952  1.0000
  C   C64       1.0  0.05552  0.29539  0.18524  1.0000
  H   H105      1.0  0.17056  0.27402  0.25762  1.0000
  H   H106      1.0  0.04778  0.14498  0.39714  1.0000
  H   H107      1.0  0.20221  0.18517  0.29773  1.0000
  H   H108      1.0  0.15485  0.29797  0.14007  1.0000
  C   C65       1.0  0.17021  0.20960  0.06675  1.0000
  C   C66       1.0  0.18447  0.18998  0.37061  1.0000
  H   H109      1.0  0.14072  0.25811  0.41959  1.0000
  C   C67       1.0  0.16969  0.24759  0.46190  1.0000
  H   H110      1.0  0.14671  0.21772  0.03361  1.0000
  H   H111      1.0  0.00896  0.20454  0.99991  1.0000
  H   H112      1.0  0.06057  0.29022  0.26809  1.0000
  H   H113      1.0  0.02627  0.12527  0.48400  1.0000
  H   H114      1.0  0.99367  0.16967  0.15512  1.0000
  H   H115      1.0  0.00352  0.20287  0.48451  1.0000
  H   H116      1.0  0.05678  0.19006  0.99967  1.0000
  H   H117      1.0  0.04411  0.14326  0.00893  1.0000
  C   C68       1.0  0.99936  0.29597  0.38373  1.0000
  C   C69       1.0  0.04008  0.18559  0.99929  1.0000
  Fe  Fe11      1.0  0.23988  0.22182  0.45026  1.0000
  C   C70       1.0  0.02835  0.31325  0.31743  1.0000
  C   C71       1.0  0.99516  0.14059  0.47409  1.0000
  C   C72       1.0  0.16784  0.27203  0.46005  1.0000
  H   H118      1.0  0.01678  0.14545  0.42722  1.0000
  H   H119      1.0  0.99882  0.28931  0.36268  1.0000
  H   H120      1.0  0.15476  0.27958  0.47274  1.0000
  H   H121      1.0  0.99154  0.09836  0.11802  1.0000
  H   H122      1.0  0.07549  0.30267  0.24357  1.0000
  H   H123      1.0  0.17448  0.24314  0.48318  1.0000
  H   H124      1.0  0.08318  0.13510  0.99650  1.0000
  C   C73       1.0  0.01694  0.19065  0.48839  1.0000
  C   C74       1.0  0.99195  0.31996  0.38475  1.0000
  Fe  Fe12      1.0  0.11338  0.23410  0.81692  1.0000
  S   S24       1.0  0.09731  0.20537  0.82987  1.0000
  S   S25       1.0  0.14867  0.23737  0.81412  1.0000
  Fe  Fe13      1.0  0.07140  0.26109  0.80607  1.0000
  S   S26       1.0  0.05213  0.23466  0.81869  1.0000
  S   S27       1.0  0.05942  0.29276  0.78735  1.0000
  Fe  Fe14      1.0  0.07586  0.22927  0.85350  1.0000
  S   S28       1.0  0.06374  0.22713  0.89708  1.0000
  Fe  Fe15      1.0  0.07538  0.21343  0.79399  1.0000
  S   S29       1.0  0.06205  0.19227  0.76170  1.0000
  S   S30       1.0  0.09339  0.25759  0.84249  1.0000
  S   S31       1.0  0.09319  0.24016  0.77939  1.0000
  Fe  Fe16      1.0  0.05132  0.19592  0.58127  1.0000
  S   S32       1.0  0.07810  0.17052  0.57496  1.0000
  S   S33       1.0  0.01669  0.18876  0.57422  1.0000
  Fe  Fe17      1.0  0.08286  0.23003  0.59385  1.0000
  S   S34       1.0  0.11072  0.20655  0.58682  1.0000
  S   S35       1.0  0.09326  0.26234  0.60612  1.0000
  Fe  Fe18      1.0  0.09265  0.19558  0.55035  1.0000
  H   H125      1.0  0.14328  0.24094  0.72002  1.0000
  Fe  Fe19      1.0  0.09264  0.18505  0.61233  1.0000
  S   S36       1.0  0.11035  0.17174  0.64958  1.0000
  S   S37       1.0  0.06559  0.22061  0.55563  1.0000
  S   S38       1.0  0.06498  0.20887  0.62033  1.0000
  S   S39       1.0  0.17891  0.26090  0.67635  1.0000
  H   H126      1.0  0.01151  0.18129  0.50555  1.0000
  C   C75       1.0  0.11814  0.26138  0.62362  1.0000
  C   C76       1.0  0.12574  0.24327  0.63812  1.0000
  C   C77       1.0  0.14474  0.24316  0.65347  1.0000
  C   C78       1.0  0.15691  0.26079  0.65358  1.0000
  C   C79       1.0  0.14966  0.27878  0.63855  1.0000
  C   C80       1.0  0.13018  0.27917  0.62392  1.0000
  H   H127      1.0  0.11659  0.22952  0.63839  1.0000
  H   H128      1.0  0.14990  0.22934  0.66551  1.0000
  C   C81       1.0  0.14382  0.23884  0.96874  1.0000
  Fe  Fe20      1.0  0.23636  0.20465  0.90967  1.0000
  H   H129      1.0  0.06901  0.15481  0.92929  1.0000
  H   H130      1.0  0.14625  0.24485  0.55927  1.0000
  H   H131      1.0  0.21359  0.16511  0.74673  1.0000
  H   H132      1.0  0.19831  0.25546  0.96523  1.0000
  H   H133      1.0  0.99610  0.30906  0.73394  1.0000
  C   C82       1.0  0.01774  0.28934  0.80305  1.0000
  H   H134      1.0  0.21695  0.23700  0.78708  1.0000
  H   H135      1.0  0.22652  0.22074  0.73430  1.0000
  H   H136      1.0  0.07870  0.27814  0.69708  1.0000
  H   H137      1.0  0.02297  0.27342  0.80953  1.0000
  C   C83       1.0  0.07805  0.21926  0.92718  1.0000
  C   C84       1.0  0.09537  0.20377  0.92714  1.0000
  C   C85       1.0  0.10451  0.19631  0.95212  1.0000
  H   H138      1.0  0.99436  0.16110  0.66424  1.0000
  H   H139      1.0  0.15306  0.23674  0.98817  1.0000
  C   C86       1.0  0.07050  0.22763  0.95229  1.0000
  H   H140      1.0  0.10121  0.19702  0.90793  1.0000
  H   H141      1.0  0.11750  0.18393  0.95194  1.0000
  H   H142      1.0  0.16522  0.19018  0.93437  1.0000
  H   H143      1.0  0.05712  0.23961  0.95256  1.0000
  C   C87       1.0  0.07595  0.18683  0.73083  1.0000
  C   C88       1.0  0.06444  0.18147  0.70743  1.0000
  C   C89       1.0  0.07484  0.17733  0.68239  1.0000
  C   C90       1.0  0.09700  0.17773  0.68074  1.0000
  C   C91       1.0  0.10860  0.18284  0.70423  1.0000
  C   C92       1.0  0.09806  0.18781  0.72909  1.0000
  H   H144      1.0  0.04737  0.18059  0.70865  1.0000
  H   H145      1.0  0.06579  0.17318  0.66451  1.0000
  H   H146      1.0  0.12573  0.18317  0.70310  1.0000
  H   H147      1.0  0.10707  0.19184  0.74705  1.0000
  C   C93       1.0  0.05717  0.15643  0.50741  1.0000
  H   H148      1.0  0.18380  0.18694  0.96172  1.0000
  C   C94       1.0  0.18504  0.22911  0.84420  1.0000
  C   C95       1.0  0.16466  0.22289  0.83833  1.0000
  C   C96       1.0  0.15777  0.20493  0.85104  1.0000
  C   C97       1.0  0.17128  0.19330  0.86964  1.0000
  H   H149      1.0  0.19055  0.24294  0.83452  1.0000
  H   H150      1.0  0.14218  0.19983  0.84639  1.0000
  H   H151      1.0  0.16590  0.17948  0.87952  1.0000
  C   C98       1.0  0.01894  0.12526  0.55658  1.0000
  C   C99       1.0  0.02478  0.14541  0.56478  1.0000
  C   C100      1.0  0.00997  0.16319  0.56353  1.0000
  C   C101      1.0  0.16137  0.17825  0.55758  1.0000
  H   H152      1.0  0.08174  0.15866  0.97620  1.0000
  H   H153      1.0  0.03064  0.11168  0.55742  1.0000
  H   H154      1.0  0.04076  0.14710  0.57223  1.0000
  C   C102      1.0  0.23828  0.25333  0.56377  1.0000
  C   C103      1.0  0.16922  0.25736  0.93946  1.0000
  H   H155      1.0  0.18864  0.17962  0.73961  1.0000
  H   H156      1.0  0.18699  0.28168  0.95880  1.0000
  H   H157      1.0  0.17440  0.26581  0.98301  1.0000
  S   S40       1.0  0.23026  0.28463  0.70188  1.0000
  H   H158      1.0  0.13322  0.22564  0.96811  1.0000
  H   H159      1.0  0.17994  0.17767  0.79075  1.0000
  C   C104      1.0  0.19160  0.19975  0.87571  1.0000
  C   C105      1.0  0.20230  0.23715  0.77440  1.0000
  C   C106      1.0  0.04442  0.17497  0.95117  1.0000
  H   H160      1.0  0.18847  0.21015  0.79019  1.0000
  H   H161      1.0  0.11722  0.25214  0.50859  1.0000
  H   H162      1.0  0.22506  0.19673  0.52925  1.0000
  Fe  Fe21      1.0  0.21251  0.26970  0.66754  1.0000
  H   H163      1.0  0.17981  0.25529  0.92126  1.0000
  H   H164      1.0  0.13487  0.24526  0.75443  1.0000
  C   C107      1.0  0.00768  0.14458  0.96176  1.0000
  H   H165      1.0  0.01870  0.23552  0.75297  1.0000
  N   N6        1.0  0.03741  0.16788  0.97885  1.0000
  H   H166      1.0  0.03109  0.19885  0.49496  1.0000
  H   H167      1.0  0.21435  0.22220  0.86631  1.0000
  S   S41       1.0  0.20803  0.18621  0.90030  1.0000
  H   H168      1.0  0.04216  0.30022  0.73121  1.0000
  H   H169      1.0  0.06961  0.21718  0.49870  1.0000
  C   C108      1.0  0.19846  0.21753  0.86268  1.0000
  H   H170      1.0  0.15685  0.19640  0.96924  1.0000
  H   H171      1.0  0.18126  0.30966  0.74430  1.0000
  H   H172      1.0  0.06169  0.27759  0.65823  1.0000
  C   C109      1.0  0.23445  0.19042  0.71617  1.0000
  N   N7        1.0  0.18082  0.21182  0.56874  1.0000
  C   C110      1.0  0.17636  0.20986  0.59882  1.0000
  C   C111      1.0  0.16357  0.20205  0.55254  1.0000
  C   C112      1.0  0.18100  0.23483  0.56081  1.0000
  C   C113      1.0  0.20248  0.20065  0.56277  1.0000
  H   H173      1.0  0.05246  0.25354  0.64398  1.0000
  C   C114      1.0  0.16116  0.24958  0.56888  1.0000
  H   H174      1.0  0.06564  0.31089  0.71964  1.0000
  H   H175      1.0  0.15963  0.21588  0.60363  1.0000
  H   H176      1.0  0.17757  0.19288  0.60497  1.0000
  H   H177      1.0  0.16559  0.20418  0.53022  1.0000
  H   H178      1.0  0.14773  0.21029  0.55697  1.0000
  H   H179      1.0  0.19506  0.24188  0.56993  1.0000
  H   H180      1.0  0.18283  0.23640  0.53835  1.0000
  H   H181      1.0  0.21542  0.20981  0.57140  1.0000
  H   H182      1.0  0.20418  0.18490  0.57298  1.0000
  C   C115      1.0  0.13670  0.27445  0.72993  1.0000
  H   H183      1.0  0.18083  0.21597  0.75642  1.0000
  H   H184      1.0  0.20443  0.20962  0.71856  1.0000
  H   H185      1.0  0.15909  0.25061  0.59130  1.0000
  C   C116      1.0  0.16982  0.19725  0.95418  1.0000
  H   H186      1.0  0.16329  0.26595  0.56189  1.0000
  H   H187      1.0  0.00550  0.10272  0.61055  1.0000
  H   H188      1.0  0.11331  0.31578  0.73942  1.0000
  S   S42       1.0  0.10870  0.18984  0.50901  1.0000
  C   C117      1.0  0.01411  0.16382  0.97849  1.0000
  H   H189      1.0  0.19035  0.23840  0.61579  1.0000
  H   H190      1.0  0.11207  0.31903  0.78921  1.0000
  H   H191      1.0  0.00414  0.17775  0.97023  1.0000
  H   H192      1.0  0.18520  0.22369  0.96980  1.0000
  H   H193      1.0  0.15863  0.29266  0.63900  1.0000
  H   H194      1.0  0.18871  0.21941  0.93421  1.0000
  C   C118      1.0  0.09657  0.20443  0.97728  1.0000
  C   C119      1.0  0.99811  0.12250  0.54746  1.0000
  H   H195      1.0  0.20833  0.21445  0.61617  1.0000
  H   H196      1.0  0.15749  0.27070  0.93391  1.0000
  H   H197      1.0  0.07416  0.15864  0.51207  1.0000
  C   C120      1.0  0.03234  0.30225  0.79186  1.0000
  N   N8        1.0  0.15879  0.23713  0.94472  1.0000
  H   H198      1.0  0.10547  0.28484  0.76373  1.0000
  C   C121      1.0  0.23114  0.19510  0.77807  1.0000
  H   H199      1.0  0.23137  0.26340  0.57993  1.0000
  C   C122      1.0  0.11777  0.30303  0.79674  1.0000
  H   H200      1.0  0.23148  0.21118  0.81817  1.0000
  C   C123      1.0  0.20758  0.19662  0.53218  1.0000
  C   C124      1.0  0.13896  0.31791  0.71179  1.0000
  H   H201      1.0  0.03585  0.27820  0.64424  1.0000
  H   H202      1.0  0.12596  0.27115  0.78359  1.0000
  N   N9        1.0  0.21169  0.19816  0.75971  1.0000
  C   C125      1.0  0.19247  0.16721  0.78036  1.0000
  H   H203      1.0  0.14635  0.27795  0.71201  1.0000
  C   C126      1.0  0.14455  0.25157  0.73810  1.0000
  C   C127      1.0  0.17652  0.22006  0.95065  1.0000
  H   H204      1.0  0.13220  0.30390  0.80974  1.0000
  N   N10       1.0  0.05310  0.25837  0.70752  1.0000
  C   C128      1.0  0.04004  0.25569  0.73288  1.0000
  C   C129      1.0  0.06647  0.27675  0.71298  1.0000
  C   C130      1.0  0.06719  0.23799  0.70323  1.0000
  C   C131      1.0  0.03798  0.26236  0.68370  1.0000
  C   C132      1.0  0.02573  0.23697  0.73236  1.0000
  H   H205      1.0  0.04638  0.30359  0.69501  1.0000
  C   C133      1.0  0.08767  0.23922  0.68645  1.0000
  S   S43       1.0  0.22896  0.28707  0.63468  1.0000
  H   H206      1.0  0.05061  0.25354  0.75125  1.0000
  H   H207      1.0  0.02919  0.27009  0.73729  1.0000
  H   H208      1.0  0.21383  0.26313  0.53429  1.0000
  H   H209      1.0  0.07574  0.27410  0.73235  1.0000
  H   H210      1.0  0.07268  0.23109  0.72323  1.0000
  H   H211      1.0  0.05809  0.22566  0.69314  1.0000
  H   H212      1.0  0.02493  0.27478  0.68874  1.0000
  C   C134      1.0  0.17859  0.29271  0.74762  1.0000
  H   H213      1.0  0.00204  0.13355  0.63309  1.0000
  H   H214      1.0  0.01226  0.23969  0.71770  1.0000
  H   H215      1.0  0.16157  0.25040  0.74431  1.0000
  N   N11       1.0  0.13755  0.29118  0.75208  1.0000
  H   H216      1.0  0.10006  0.24681  0.69842  1.0000
  H   H217      1.0  0.14512  0.25516  0.50747  1.0000
  H   H218      1.0  0.09447  0.22287  0.68148  1.0000
  H   H219      1.0  0.04447  0.14206  0.93276  1.0000
  H   H220      1.0  0.20522  0.16156  0.79500  1.0000
  H   H221      1.0  0.21133  0.19245  0.81594  1.0000
  C   C135      1.0  0.04779  0.26808  0.65621  1.0000
  H   H222      1.0  0.23516  0.28180  0.80312  1.0000
  H   H223      1.0  0.02696  0.21242  0.97358  1.0000
  H   H224      1.0  0.19302  0.28483  0.75767  1.0000
  H   H225      1.0  0.02938  0.24799  0.67929  1.0000
  H   H226      1.0  0.05842  0.18447  0.95362  1.0000
  H   H227      1.0  0.17757  0.28451  0.72770  1.0000
  C   C136      1.0  0.20173  0.17749  0.75513  1.0000
  H   H228      1.0  0.12439  0.29329  0.61286  1.0000
  C   C137      1.0  0.12137  0.28650  0.77338  1.0000
  H   H229      1.0  0.18470  0.15287  0.77358  1.0000
  C   C138      1.0  0.07987  0.22050  0.97709  1.0000
  H   H230      1.0  0.17644  0.16823  0.55422  1.0000
  C   C139      1.0  0.19148  0.22091  0.61835  1.0000
  H   H231      1.0  0.12724  0.26976  0.95377  1.0000
  C   C140      1.0  0.13257  0.24526  0.49988  1.0000
  S   S44       1.0  0.23572  0.24077  0.66540  1.0000
  C   C141      1.0  0.14755  0.23061  0.91900  1.0000
  H   H232      1.0  0.01601  0.12934  0.96853  1.0000
  H   H233      1.0  0.12015  0.27424  0.72172  1.0000
  C   C142      1.0  0.05132  0.15741  0.93001  1.0000
  C   C143      1.0  0.12883  0.24570  0.90853  1.0000
  H   H234      1.0  0.05367  0.14132  0.51718  1.0000
  H   H235      1.0  0.10508  0.29797  0.81029  1.0000
  H   H236      1.0  0.11321  0.25598  0.97831  1.0000
  H   H237      1.0  0.08487  0.24741  0.66678  1.0000
  H   H238      1.0  0.22682  0.17645  0.70802  1.0000
  H   H239      1.0  0.15918  0.22837  0.90201  1.0000
  H   H240      1.0  0.14070  0.21511  0.92160  1.0000
  H   H241      1.0  0.18969  0.24715  0.78529  1.0000
  C   C144      1.0  0.19497  0.21465  0.77038  1.0000
  C   C145      1.0  0.05415  0.29894  0.71474  1.0000
  H   H242      1.0  0.15527  0.17553  0.57837  1.0000
  H   H243      1.0  0.14936  0.17266  0.54297  1.0000
  H   H244      1.0  0.16224  0.27619  0.77875  1.0000
  H   H245      1.0  0.03174  0.18590  0.94150  1.0000
  H   H246      1.0  0.99479  0.17466  0.63198  1.0000
  H   H247      1.0  0.11509  0.24638  0.92266  1.0000
  H   H248      1.0  0.12301  0.23915  0.88894  1.0000
  H   H249      1.0  0.13347  0.26182  0.90402  1.0000
  H   H250      1.0  0.19989  0.20872  0.51825  1.0000
  H   H251      1.0  0.03474  0.22152  0.72784  1.0000
  C   C146      1.0  0.15908  0.29065  0.76597  1.0000
  H   H252      1.0  0.18690  0.21801  0.63979  1.0000
  H   H253      1.0  0.04757  0.16987  0.51710  1.0000
  H   H254      1.0  0.00959  0.14697  0.93954  1.0000
  H   H255      1.0  0.04637  0.16311  0.90929  1.0000
  C   C147      1.0  0.18288  0.26529  0.96324  1.0000
  C   C148      1.0  0.12943  0.25983  0.97218  1.0000
  H   H256      1.0  0.13522  0.22894  0.50805  1.0000
  H   H257      1.0  0.04959  0.13453  0.97537  1.0000
  C   C149      1.0  0.21854  0.20575  0.73216  1.0000
  C   C150      1.0  0.22838  0.25313  0.53797  1.0000
  H   H258      1.0  0.20472  0.24502  0.75463  1.0000
  H   H259      1.0  0.15941  0.30384  0.78115  1.0000
  H   H260      1.0  0.20371  0.18048  0.52573  1.0000
  C   C151      1.0  0.22743  0.19573  0.80933  1.0000
  H   H261      1.0  0.01820  0.14752  0.50432  1.0000
  C   C152      1.0  0.99628  0.29708  0.80619  1.0000
  H   H262      1.0  0.24017  0.19889  0.69820  1.0000
  H   H263      1.0  0.13039  0.30922  0.69583  1.0000
  C   C153      1.0  0.23720  0.24006  0.51695  1.0000
  H   H264      1.0  0.15633  0.31428  0.70929  1.0000
  H   H265      1.0  0.99319  0.08737  0.63646  1.0000
  C   C154      1.0  0.13105  0.31300  0.74068  1.0000
  S   S45       1.0  0.22985  0.23989  0.91358  1.0000
  H   H266      1.0  0.23872  0.18359  0.81925  1.0000
  C   C155      1.0  0.05054  0.14841  0.98914  1.0000
  H   H267      1.0  0.24053  0.17981  0.77316  1.0000
  S   S46       1.0  0.99197  0.09683  0.53653  1.0000
  H   H268      1.0  0.13536  0.26954  0.98923  1.0000
  C   C156      1.0  0.99111  0.09470  0.61601  1.0000
  H   H269      1.0  0.99595  0.57226  0.27974  1.0000
  H   H270      1.0  0.02804  0.34438  0.33596  1.0000
  C   C157      1.0  0.99595  0.62350  0.44098  1.0000
  C   C158      1.0  0.01941  0.65121  0.43056  1.0000
  C   C159      1.0  0.99236  0.55789  0.26784  1.0000
  H   H271      1.0  0.00112  0.49284  0.32511  1.0000
  H   H272      1.0  0.00269  0.32792  0.37090  1.0000
  H   H273      1.0  0.03013  0.61979  0.33748  1.0000
  H   H274      1.0  0.03003  0.61817  0.43617  1.0000
  C   C160      1.0  0.99259  0.33044  0.28740  1.0000
  H   H275      1.0  0.99695  0.64997  0.36720  1.0000
  C   C161      1.0  0.01077  0.50503  0.27106  1.0000
  H   H276      1.0  0.00878  0.48825  0.26501  1.0000
  C   C162      1.0  0.01351  0.62599  0.34204  1.0000
  H   H277      1.0  0.04427  0.64783  0.32119  1.0000
  H   H278      1.0  0.02000  0.50403  0.29057  1.0000
  C   C163      1.0  0.00234  0.34302  0.30665  1.0000
  H   H279      1.0  0.03037  0.52989  0.25685  1.0000
  C   C164      1.0  0.01642  0.62987  0.43587  1.0000
  H   H280      1.0  0.00384  0.62658  0.32302  1.0000
  H   H281      1.0  0.01803  0.51557  0.22942  1.0000
  H   H282      1.0  0.99626  0.35940  0.30983  1.0000
  H   H283      1.0  0.04023  0.50342  0.24809  1.0000
  H   H284      1.0  0.00641  0.53864  0.30067  1.0000
  C   C165      1.0  0.02543  0.51426  0.25004  1.0000
  H   H285      1.0  0.00453  0.55532  0.25172  1.0000
  C   C166      1.0  0.02033  0.33450  0.32137  1.0000
  H   H286      1.0  0.04416  0.64565  0.48694  1.0000
  H   H287      1.0  0.99395  0.60704  0.44525  1.0000
  H   H288      1.0  0.02410  0.64547  0.37473  1.0000
  H   H289      1.0  0.00691  0.61416  0.35560  1.0000
  H   H290      1.0  0.02081  0.63939  0.00402  1.0000
  C   C167      1.0  0.01271  0.64758  0.35724  1.0000
  H   H291      1.0  0.99583  0.32551  0.40571  1.0000
  C   C168      1.0  0.99186  0.53893  0.28749  1.0000
  H   H292      1.0  0.04406  0.63653  0.02524  1.0000
  C   C169      1.0  0.03288  0.64837  0.01464  1.0000
  H   H293      1.0  0.06901  0.64776  0.50449  1.0000
  H   H294      1.0  0.00824  0.59779  0.84251  1.0000
  H   H295      1.0  0.01097  0.62319  0.87758  1.0000
  H   H296      1.0  0.13539  0.33513  0.70769  1.0000
  C   C170      1.0  0.99146  0.62855  0.95048  1.0000
  H   H297      1.0  0.01624  0.64137  0.54522  1.0000
  C   C171      1.0  0.99926  0.58355  0.89374  1.0000
  C   C172      1.0  0.00369  0.33076  0.78691  1.0000
  C   C173      1.0  0.99565  0.64943  0.85563  1.0000
  H   H298      1.0  0.99870  0.46085  0.64015  1.0000
  H   H299      1.0  0.00665  0.49396  0.62428  1.0000
  H   H300      1.0  0.01172  0.59350  0.90157  1.0000
  C   C174      1.0  0.01197  0.63476  0.94503  1.0000
  H   H301      1.0  0.02568  0.62329  0.94714  1.0000
  H   H302      1.0  0.03639  0.33302  0.77481  1.0000
  H   H303      1.0  0.01775  0.62780  0.51248  1.0000
  C   C175      1.0  0.02520  0.32292  0.78351  1.0000
  C   C176      1.0  0.99425  0.62989  0.87401  1.0000
  H   H304      1.0  0.00537  0.47839  0.59328  1.0000
  H   H305      1.0  0.00269  0.64508  0.83545  1.0000
  H   H306      1.0  0.99283  0.63425  0.52812  1.0000
  H   H307      1.0  0.00571  0.57338  0.87666  1.0000
  H   H308      1.0  0.99839  0.34679  0.78080  1.0000
  C   C177      1.0  0.99590  0.48548  0.61067  1.0000
  H   H309      1.0  0.99569  0.57260  0.91039  1.0000
  C   C178      1.0  0.00870  0.64030  0.52488  1.0000
  H   H310      1.0  0.13630  0.32563  0.75464  1.0000
  H   H311      1.0  0.99115  0.61438  0.82147  1.0000
  C   C179      1.0  0.99110  0.60277  0.83842  1.0000
  Fe  Fe22      1.0  0.06591  0.79462  0.15358  1.0000
  S   S47       1.0  0.09236  0.81555  0.14687  1.0000
  S   S48       1.0  0.07604  0.75991  0.15542  1.0000
  Fe  Fe23      1.0  0.21954  0.76904  0.10219  1.0000
  S   S49       1.0  0.19670  0.74426  0.09358  1.0000
  H   H312      1.0  0.15658  0.71834  0.46169  1.0000
  H   H313      1.0  0.12243  0.79895  0.01791  1.0000
  S   S50       1.0  0.20317  0.75319  0.02838  1.0000
  H   H314      1.0  0.17644  0.70173  0.05161  1.0000
  Fe  Fe24      1.0  0.18289  0.76734  0.06229  1.0000
  S   S51       1.0  0.14798  0.77161  0.05234  1.0000
  Fe  Fe25      1.0  0.21942  0.73254  0.06051  1.0000
  S   S52       1.0  0.20397  0.79328  0.07297  1.0000
  C   C180      1.0  0.99657  0.84477  0.17735  1.0000
  Fe  Fe26      1.0  0.05244  0.72997  0.38109  1.0000
  S   S53       1.0  0.07267  0.69890  0.38020  1.0000
  H   H315      1.0  0.06584  0.85059  0.48783  1.0000
  Fe  Fe27      1.0  0.05866  0.73621  0.44213  1.0000
  S   S54       1.0  0.07911  0.70561  0.44618  1.0000
  C   C181      1.0  0.02689  0.84327  0.26438  1.0000
  Fe  Fe28      1.0  0.09500  0.71545  0.40770  1.0000
  S   S55       1.0  0.13091  0.70758  0.40849  1.0000
  Fe  Fe29      1.0  0.05520  0.69167  0.41840  1.0000
  H   H316      1.0  0.12517  0.68345  0.08681  1.0000
  S   S56       1.0  0.07611  0.74731  0.40564  1.0000
  S   S57       1.0  0.03339  0.72150  0.41744  1.0000
  H   H317      1.0  0.05061  0.70672  0.05049  1.0000
  H   H318      1.0  0.02974  0.83090  0.32613  1.0000
  Fe  Fe30      1.0  0.21944  0.76733  0.33567  1.0000
  S   S58       1.0  0.19139  0.79133  0.33247  1.0000
  S   S59       1.0  0.21426  0.73396  0.34896  1.0000
  Fe  Fe31      1.0  0.20879  0.80329  0.29628  1.0000
  S   S60       1.0  0.19285  0.81195  0.25529  1.0000
  Fe  Fe32      1.0  0.21138  0.81137  0.35884  1.0000
  S   S61       1.0  0.20028  0.82722  0.39877  1.0000
  H   H319      1.0  0.23744  0.73194  0.48050  1.0000
  C   C182      1.0  0.06304  0.74388  0.26139  1.0000
  H   H320      1.0  0.00214  0.71402  0.46416  1.0000
  Fe  Fe33      1.0  0.04528  0.75548  0.13368  1.0000
  H   H321      1.0  0.05956  0.66817  0.48146  1.0000
  H   H322      1.0  0.04249  0.65625  0.99941  1.0000
  C   C183      1.0  0.23028  0.78732  0.45477  1.0000
  C   C184      1.0  0.15262  0.71525  0.38913  1.0000
  C   C185      1.0  0.15158  0.73328  0.37239  1.0000
  C   C186      1.0  0.17028  0.73935  0.35964  1.0000
  C   C187      1.0  0.18995  0.72730  0.36348  1.0000
  C   C188      1.0  0.19061  0.70908  0.37960  1.0000
  C   C189      1.0  0.17221  0.70325  0.39248  1.0000
  H   H323      1.0  0.13653  0.74267  0.36965  1.0000
  H   H324      1.0  0.16945  0.75323  0.34683  1.0000
  H   H325      1.0  0.20551  0.69943  0.38233  1.0000
  H   H326      1.0  0.17319  0.68927  0.40522  1.0000
  C   C190      1.0  0.21879  0.78152  0.17500  1.0000
  C   C191      1.0  0.20216  0.79775  0.17441  1.0000
  C   C192      1.0  0.19389  0.80664  0.19914  1.0000
  C   C193      1.0  0.20211  0.79931  0.22453  1.0000
  C   C194      1.0  0.21797  0.78243  0.22489  1.0000
  C   C195      1.0  0.04877  0.80325  0.29160  1.0000
  H   H327      1.0  0.19631  0.80403  0.15500  1.0000
  H   H328      1.0  0.18153  0.81964  0.19855  1.0000
  H   H329      1.0  0.09129  0.69046  0.04100  1.0000
  C   C196      1.0  0.12151  0.68808  0.06524  1.0000
  H   H330      1.0  0.11355  0.74884  0.46753  1.0000
  H   H331      1.0  0.15675  0.79592  0.45894  1.0000
  C   C197      1.0  0.20768  0.82732  0.45433  1.0000
  C   C198      1.0  0.21011  0.81568  0.42981  1.0000
  H   H332      1.0  0.09263  0.74236  0.09763  1.0000
  C   C199      1.0  0.09186  0.81143  0.00228  1.0000
  H   H333      1.0  0.13558  0.77276  0.43732  1.0000
  H   H334      1.0  0.19925  0.84299  0.45421  1.0000
  H   H335      1.0  0.18337  0.77530  0.39172  1.0000
  C   C200      1.0  0.00463  0.66899  0.31449  1.0000
  C   C201      1.0  0.07554  0.73796  0.28441  1.0000
  C   C202      1.0  0.06624  0.73749  0.31036  1.0000
  C   C203      1.0  0.01320  0.69156  0.00214  1.0000
  H   H336      1.0  0.09250  0.73387  0.28220  1.0000
  H   H337      1.0  0.07602  0.73314  0.32807  1.0000
  H   H338      1.0  0.19789  0.80123  0.99555  1.0000
  H   H339      1.0  0.23131  0.86603  0.38610  1.0000
  H   H340      1.0  0.11762  0.74271  0.05698  1.0000
  N   N12       1.0  0.12914  0.70962  0.05915  1.0000
  H   H341      1.0  0.15577  0.77530  0.39974  1.0000
  C   C204      1.0  0.10780  0.80496  0.11959  1.0000
  C   C205      1.0  0.09808  0.79449  0.09818  1.0000
  C   C206      1.0  0.11046  0.78516  0.07692  1.0000
  C   C207      1.0  0.13270  0.78528  0.07775  1.0000
  C   C208      1.0  0.14246  0.79585  0.09908  1.0000
  C   C209      1.0  0.12994  0.80609  0.11971  1.0000
  H   H342      1.0  0.08096  0.79383  0.09787  1.0000
  H   H343      1.0  0.10271  0.77752  0.06016  1.0000
  H   H344      1.0  0.15961  0.79622  0.09967  1.0000
  H   H345      1.0  0.13746  0.81440  0.13610  1.0000
  H   H346      1.0  0.03497  0.79854  0.25159  1.0000
  C   C210      1.0  0.02926  0.80385  0.27222  1.0000
  H   H347      1.0  0.13029  0.67548  0.05262  1.0000
  H   H348      1.0  0.06689  0.67489  0.30985  1.0000
  C   C211      1.0  0.10752  0.73167  0.09581  1.0000
  C   C212      1.0  0.14858  0.71271  0.07665  1.0000
  C   C213      1.0  0.09744  0.68554  0.06137  1.0000
  H   H349      1.0  0.14507  0.71082  0.09871  1.0000
  Fe  Fe34      1.0  0.05728  0.76060  0.19412  1.0000
  H   H350      1.0  0.15832  0.82175  0.99559  1.0000
  H   H351      1.0  0.06397  0.78155  0.03318  1.0000
  C   C214      1.0  0.13585  0.71098  0.02969  1.0000
  H   H352      1.0  0.04463  0.79762  0.31220  1.0000
  H   H353      1.0  0.01480  0.75219  0.29245  1.0000
  Fe  Fe35      1.0  0.22547  0.77728  0.04098  1.0000
  C   C215      1.0  0.04436  0.74279  0.31331  1.0000
  H   H354      1.0  0.14078  0.74531  0.43629  1.0000
  H   H355      1.0  0.04915  0.85596  0.23635  1.0000
  H   H356      1.0  0.08918  0.81539  0.02425  1.0000
  H   H357      1.0  0.08777  0.69448  0.07723  1.0000
  H   H358      1.0  0.05462  0.77051  0.07958  1.0000
  H   H359      1.0  0.07775  0.80375  0.99444  1.0000
  C   C216      1.0  0.03179  0.74834  0.29023  1.0000
  H   H360      1.0  0.15409  0.78754  0.99621  1.0000
  H   H361      1.0  0.10514  0.71679  0.10679  1.0000
  H   H362      1.0  0.10513  0.72345  0.01076  1.0000
  H   H363      1.0  0.15339  0.72922  0.07465  1.0000
  H   H364      1.0  0.01137  0.65776  0.29844  1.0000
  C   C217      1.0  0.04113  0.74901  0.26430  1.0000
  H   H365      1.0  0.19249  0.74680  0.47881  1.0000
  H   H366      1.0  0.09729  0.72570  0.05466  1.0000
  S   S62       1.0  0.03647  0.79053  0.12833  1.0000
  N   N13       1.0  0.16554  0.76188  0.45669  1.0000
  C   C218      1.0  0.17794  0.76002  0.43037  1.0000
  N   N14       1.0  0.01775  0.66643  0.34040  1.0000
  C   C219      1.0  0.17176  0.77718  0.40873  1.0000
  C   C220      1.0  0.14248  0.75926  0.44992  1.0000
  H   H367      1.0  0.00606  0.67725  0.08680  1.0000
  C   C221      1.0  0.01391  0.83887  0.32103  1.0000
  S   S63       1.0  0.22679  0.69740  0.05213  1.0000
  H   H368      1.0  0.18044  0.69879  0.08742  1.0000
  C   C222      1.0  0.11259  0.72768  0.06529  1.0000
  H   H369      1.0  0.17614  0.74456  0.42005  1.0000
  C   C223      1.0  0.11813  0.71069  0.00781  1.0000
  C   C224      1.0  0.05846  0.72930  0.02013  1.0000
  H   H370      1.0  0.01538  0.85593  0.31676  1.0000
  H   H371      1.0  0.02520  0.68411  0.37685  1.0000
  H   H372      1.0  0.24013  0.73292  0.99560  1.0000
  C   C225      1.0  0.12711  0.75798  0.47409  1.0000
  H   H373      1.0  0.17928  0.71072  0.48243  1.0000
  H   H374      1.0  0.22159  0.78553  0.41236  1.0000
  S   S64       1.0  0.04553  0.65822  0.42429  1.0000
  S   S65       1.0  0.03227  0.74280  0.34555  1.0000
  C   C226      1.0  0.05315  0.72309  0.04655  1.0000
  S   S66       1.0  0.07534  0.74465  0.22937  1.0000
  H   H375      1.0  0.00583  0.68515  0.30593  1.0000
  H   H376      1.0  0.05984  0.71779  0.00361  1.0000
  H   H377      1.0  0.03592  0.67305  0.04485  1.0000
  C   C227      1.0  0.01519  0.68622  0.35799  1.0000
  S   S67       1.0  0.04469  0.72991  0.10086  1.0000
  H   H378      1.0  0.03091  0.84012  0.21957  1.0000
  C   C228      1.0  0.05150  0.73799  0.06803  1.0000
  Fe  Fe36      1.0  0.02048  0.78866  0.16907  1.0000
  C   C229      1.0  0.05561  0.75900  0.06312  1.0000
  H   H379      1.0  0.10715  0.78008  0.00297  1.0000
  S   S68       1.0  0.04926  0.79582  0.19388  1.0000
  C   C230      1.0  0.22075  0.79530  0.43046  1.0000
  S   S69       1.0  0.02709  0.75309  0.17277  1.0000
  H   H380      1.0  0.01261  0.70460  0.05402  1.0000
  C   C231      1.0  0.06096  0.76520  0.03680  1.0000
  H   H381      1.0  0.12030  0.73999  0.10609  1.0000
  C   C232      1.0  0.23005  0.69938  0.48596  1.0000
  H   H382      1.0  0.00384  0.68268  0.42610  1.0000
  H   H383      1.0  0.14403  0.72577  0.02657  1.0000
  H   H384      1.0  0.00338  0.87773  0.17764  1.0000
  H   H385      1.0  0.03138  0.75334  0.24654  1.0000
  S   S70       1.0  0.04905  0.75944  0.47622  1.0000
  N   N15       1.0  0.13396  0.77332  0.21199  1.0000
  C   C233      1.0  0.13838  0.77920  0.18285  1.0000
  C   C234      1.0  0.11272  0.78477  0.21963  1.0000
  C   C235      1.0  0.13126  0.74977  0.21397  1.0000
  C   C236      1.0  0.15140  0.78023  0.23044  1.0000
  C   C237      1.0  0.15693  0.76619  0.16854  1.0000
  C   C238      1.0  0.11153  0.80930  0.21992  1.0000
  C   C239      1.0  0.15152  0.73477  0.21966  1.0000
  C   C240      1.0  0.14760  0.77751  0.26134  1.0000
  H   H386      1.0  0.12396  0.77790  0.16968  1.0000
  H   H387      1.0  0.14211  0.79608  0.18167  1.0000
  H   H388      1.0  0.10750  0.77993  0.24018  1.0000
  H   H389      1.0  0.09997  0.78003  0.20539  1.0000
  H   H390      1.0  0.12026  0.74645  0.23082  1.0000
  H   H391      1.0  0.12319  0.74403  0.19525  1.0000
  H   H392      1.0  0.16708  0.77178  0.22530  1.0000
  H   H393      1.0  0.15370  0.79728  0.22698  1.0000
  H   H394      1.0  0.15984  0.77356  0.14854  1.0000
  H   H395      1.0  0.17204  0.76614  0.18033  1.0000
  H   H396      1.0  0.15291  0.74974  0.16402  1.0000
  H   H397      1.0  0.12201  0.81552  0.23589  1.0000
  H   H398      1.0  0.11522  0.81589  0.19977  1.0000
  H   H399      1.0  0.09493  0.81553  0.22473  1.0000
  H   H400      1.0  0.14747  0.71805  0.21737  1.0000
  H   H401      1.0  0.15725  0.73661  0.24100  1.0000
  H   H402      1.0  0.16484  0.73689  0.20568  1.0000
  H   H403      1.0  0.16297  0.77205  0.27146  1.0000
  H   H404      1.0  0.13604  0.76578  0.26603  1.0000
  H   H405      1.0  0.14249  0.79310  0.27097  1.0000
  H   H406      1.0  0.17235  0.79358  0.41669  1.0000
  H   H407      1.0  0.05070  0.69552  0.32600  1.0000
  C   C241      1.0  0.22637  0.77376  0.20034  1.0000
  H   H408      1.0  0.22411  0.77621  0.24404  1.0000
  C   C242      1.0  0.22886  0.79942  0.47891  1.0000
  S   S71       1.0  0.23606  0.77798  0.29814  1.0000
  N   N16       1.0  0.00475  0.67969  0.02580  1.0000
  H   H409      1.0  0.03782  0.84727  0.28116  1.0000
  H   H410      1.0  0.06160  0.79187  0.28323  1.0000
  C   C243      1.0  0.05010  0.68014  0.31509  1.0000
  C   C244      1.0  0.16852  0.69740  0.07073  1.0000
  H   H411      1.0  0.05304  0.82778  0.23956  1.0000
  C   C245      1.0  0.17522  0.74478  0.47549  1.0000
  C   C246      1.0  0.06221  0.75043  0.01523  1.0000
  H   H412      1.0  0.22717  0.85288  0.23636  1.0000
  H   H413      1.0  0.02090  0.70000  0.34726  1.0000
  H   H414      1.0  0.01253  0.83888  0.17137  1.0000
  C   C247      1.0  0.11231  0.79627  0.99968  1.0000
  S   S72       1.0  0.22501  0.82702  0.32235  1.0000
  H   H415      1.0  0.09271  0.82691  0.99226  1.0000
  H   H416      1.0  0.02813  0.69865  0.00825  1.0000
  H   H417      1.0  0.18328  0.71747  0.44771  1.0000
  H   H418      1.0  0.11180  0.69488  0.00626  1.0000
  H   H419      1.0  0.22126  0.69788  0.46642  1.0000
  H   H420      1.0  0.05605  0.81850  0.29347  1.0000
  H   H421      1.0  0.18425  0.78868  0.46456  1.0000
  H   H422      1.0  0.16483  0.68056  0.06969  1.0000
  H   H423      1.0  0.19535  0.76032  0.43454  1.0000
  C   C248      1.0  0.17334  0.72166  0.46588  1.0000
  H   H424      1.0  0.01731  0.65442  0.05283  1.0000
  C   C249      1.0  0.16806  0.78369  0.46875  1.0000
  H   H425      1.0  0.09461  0.66852  0.06374  1.0000
  H   H426      1.0  0.13288  0.83240  0.00919  1.0000
  S   S73       1.0  0.23897  0.78696  0.36289  1.0000
  C   C250      1.0  0.00171  0.66619  0.43016  1.0000
  H   H427      1.0  0.01549  0.85770  0.26217  1.0000
  H   H428      1.0  0.23644  0.81851  0.20153  1.0000
  H   H429      1.0  0.02001  0.79063  0.27887  1.0000
  H   H430      1.0  0.14772  0.69759  0.02418  1.0000
  N   N17       1.0  0.01494  0.82422  0.27093  1.0000
  S   S74       1.0  0.23271  0.77237  0.14531  1.0000
  C   C251      1.0  0.04066  0.84133  0.23841  1.0000
  H   H431      1.0  0.23484  0.71968  0.40396  1.0000
  C   C252      1.0  0.99894  0.69511  0.04887  1.0000
  H   H432      1.0  0.04133  0.68264  0.29549  1.0000
  C   C253      1.0  0.04108  0.66291  0.33291  1.0000
  H   H433      1.0  0.13267  0.75506  0.99601  1.0000
  C   C254      1.0  0.21714  0.81930  0.47874  1.0000
  C   C255      1.0  0.99238  0.69392  0.36688  1.0000
  H   H434      1.0  0.05127  0.66115  0.35169  1.0000
  H   H435      1.0  0.99764  0.81276  0.30528  1.0000
  C   C256      1.0  0.00016  0.70590  0.48391  1.0000
  H   H436      1.0  0.99330  0.70770  0.38103  1.0000
  H   H437      1.0  0.23923  0.77199  0.45467  1.0000
  H   H438      1.0  0.06309  0.82282  0.48390  1.0000
  C   C257      1.0  0.02277  0.66432  0.03597  1.0000
  C   C258      1.0  0.99893  0.82185  0.24811  1.0000
  H   H439      1.0  0.23647  0.85461  0.27066  1.0000
  H   H440      1.0  0.22517  0.72740  0.43696  1.0000
  H   H441      1.0  0.23716  0.85451  0.43276  1.0000
  H   H442      1.0  0.00723  0.65660  0.48691  1.0000
  H   H443      1.0  0.12071  0.77411  0.48067  1.0000
  H   H444      1.0  0.02621  0.68375  0.47249  1.0000
  C   C259      1.0  0.99136  0.86675  0.18092  1.0000
  H   H445      1.0  0.00713  0.81756  0.22854  1.0000
  H   H446      1.0  0.23917  0.76118  0.20100  1.0000
  C   C260      1.0  0.00266  0.82801  0.29722  1.0000
  H   H447      1.0  0.00398  0.83836  0.33965  1.0000
  H   H448      1.0  0.99116  0.78851  0.25251  1.0000
  H   H449      1.0  0.08921  0.83243  0.48757  1.0000
  C   C261      1.0  0.23986  0.72489  0.42462  1.0000
  C   C262      1.0  0.99210  0.68504  0.07567  1.0000
  H   H450      1.0  0.99301  0.72209  0.00448  1.0000
  Fe  Fe37      1.0  0.06688  0.78642  0.65629  1.0000
  S   S75       1.0  0.09465  0.80548  0.64700  1.0000
  S   S76       1.0  0.07265  0.75108  0.65874  1.0000
  S   S77       1.0  0.23724  0.78623  0.86722  1.0000
  S   S78       1.0  0.21083  0.74003  0.59985  1.0000
  H   H451      1.0  0.10668  0.76078  0.82222  1.0000
  H   H452      1.0  0.12432  0.78256  0.93322  1.0000
  S   S79       1.0  0.21343  0.74722  0.53390  1.0000
  H   H453      1.0  0.11807  0.72070  0.85687  1.0000
  Fe  Fe38      1.0  0.19246  0.75970  0.56820  1.0000
  S   S80       1.0  0.15718  0.75860  0.56097  1.0000
  H   H454      1.0  0.20689  0.74467  0.91048  1.0000
  S   S81       1.0  0.20941  0.78922  0.57544  1.0000
  C   C263      1.0  0.06008  0.73135  0.51788  1.0000
  Fe  Fe39      1.0  0.06024  0.73267  0.88703  1.0000
  S   S82       1.0  0.07385  0.69862  0.88387  1.0000
  S   S83       1.0  0.04988  0.75565  0.85333  1.0000
  Fe  Fe40      1.0  0.06856  0.73506  0.94800  1.0000
  S   S84       1.0  0.08277  0.70144  0.94990  1.0000
  C   C264      1.0  0.11961  0.82171  0.52763  1.0000
  Fe  Fe41      1.0  0.09994  0.70898  0.91158  1.0000
  S   S85       1.0  0.13491  0.69727  0.90835  1.0000
  Fe  Fe42      1.0  0.05535  0.69387  0.92247  1.0000
  C   C265      1.0  0.05434  0.65699  0.49694  1.0000
  S   S86       1.0  0.08774  0.74310  0.91179  1.0000
  S   S87       1.0  0.03974  0.72736  0.92355  1.0000
  H   H455      1.0  0.12170  0.80829  0.51294  1.0000
  C   C266      1.0  0.14338  0.75892  0.97928  1.0000
  Fe  Fe43      1.0  0.21945  0.76617  0.83841  1.0000
  S   S88       1.0  0.19120  0.78953  0.83264  1.0000
  S   S89       1.0  0.21408  0.73200  0.84791  1.0000
  Fe  Fe44      1.0  0.20979  0.80218  0.79805  1.0000
  S   S90       1.0  0.19579  0.81070  0.75593  1.0000
  Fe  Fe45      1.0  0.20940  0.81015  0.86059  1.0000
  S   S91       1.0  0.19344  0.82305  0.89932  1.0000
  H   H456      1.0  0.05326  0.68204  0.52712  1.0000
  C   C267      1.0  0.14459  0.71472  0.81512  1.0000
  H   H457      1.0  0.02818  0.82216  0.74891  1.0000
  C   C268      1.0  0.11492  0.75169  0.83910  1.0000
  H   H458      1.0  0.15026  0.70937  0.83568  1.0000
  C   C269      1.0  0.05571  0.73744  0.76291  1.0000
  H   H459      1.0  0.01620  0.82132  0.78170  1.0000
  C   C270      1.0  0.15628  0.70871  0.89229  1.0000
  C   C271      1.0  0.17423  0.69507  0.88571  1.0000
  C   C272      1.0  0.19152  0.70262  0.87212  1.0000
  C   C273      1.0  0.19141  0.72405  0.86512  1.0000
  C   C274      1.0  0.17364  0.73805  0.87214  1.0000
  C   C275      1.0  0.15605  0.73037  0.88576  1.0000
  H   H460      1.0  0.17467  0.67839  0.89080  1.0000
  H   H461      1.0  0.20514  0.69171  0.86697  1.0000
  H   H462      1.0  0.17351  0.75472  0.86719  1.0000
  H   H463      1.0  0.14244  0.74114  0.89124  1.0000
  S   S92       1.0  0.06886  0.75878  0.98254  1.0000
  H   H464      1.0  0.09228  0.76111  0.51624  1.0000
  H   H465      1.0  0.99914  0.68645  0.92845  1.0000
  C   C276      1.0  0.20805  0.80021  0.72557  1.0000
  C   C277      1.0  0.20148  0.80878  0.70015  1.0000
  C   C278      1.0  0.21090  0.80077  0.67566  1.0000
  C   C279      1.0  0.15752  0.70101  0.79382  1.0000
  H   H466      1.0  0.17322  0.69541  0.80299  1.0000
  H   H467      1.0  0.18931  0.82195  0.69944  1.0000
  H   H468      1.0  0.06961  0.72207  0.50307  1.0000
  H   H469      1.0  0.99612  0.71865  0.49923  1.0000
  H   H470      1.0  0.13204  0.75458  0.83965  1.0000
  C   C280      1.0  0.19603  0.81153  0.95342  1.0000
  C   C281      1.0  0.20741  0.81530  0.92965  1.0000
  C   C282      1.0  0.04313  0.66913  0.52103  1.0000
  C   C283      1.0  0.11276  0.72771  0.78765  1.0000
  H   H471      1.0  0.11660  0.68461  0.79451  1.0000
  H   H472      1.0  0.17889  0.81398  0.95305  1.0000
  H   H473      1.0  0.22932  0.77661  0.74545  1.0000
  H   H474      1.0  0.16823  0.74598  0.49624  1.0000
  C   C284      1.0  0.05517  0.72151  0.78266  1.0000
  C   C285      1.0  0.05360  0.72685  0.81056  1.0000
  C   C286      1.0  0.05244  0.74819  0.81874  1.0000
  H   H475      1.0  0.05591  0.70499  0.77632  1.0000
  H   H476      1.0  0.05297  0.71453  0.82567  1.0000
  H   H477      1.0  0.15054  0.78048  0.50743  1.0000
  H   H478      1.0  0.02159  0.70606  0.54147  1.0000
  C   C287      1.0  0.05970  0.72468  0.54518  1.0000
  H   H479      1.0  0.00714  0.77261  0.77993  1.0000
  C   C288      1.0  0.09581  0.80311  0.93542  1.0000
  C   C289      1.0  0.11199  0.79273  0.62278  1.0000
  C   C290      1.0  0.10677  0.77405  0.60975  1.0000
  C   C291      1.0  0.12094  0.76353  0.59120  1.0000
  C   C292      1.0  0.14044  0.77160  0.58548  1.0000
  C   C293      1.0  0.14564  0.79046  0.59815  1.0000
  C   C294      1.0  0.13134  0.80111  0.61663  1.0000
  H   H480      1.0  0.09164  0.76781  0.61350  1.0000
  H   H481      1.0  0.11673  0.74906  0.58122  1.0000
  H   H482      1.0  0.16057  0.79694  0.59352  1.0000
  H   H483      1.0  0.13539  0.81570  0.62640  1.0000
  H   H484      1.0  0.16043  0.71034  0.77534  1.0000
  C   C295      1.0  0.20436  0.75445  0.92919  1.0000
  N   N18       1.0  0.12489  0.79698  0.97362  1.0000
  N   N19       1.0  0.12059  0.71571  0.81290  1.0000
  C   C296      1.0  0.01339  0.68115  0.56781  1.0000
  H   H485      1.0  0.23142  0.68398  0.95306  1.0000
  C   C297      1.0  0.01857  0.81246  0.76214  1.0000
  C   C298      1.0  0.23404  0.77602  0.70192  1.0000
  C   C299      1.0  0.03671  0.76245  0.52966  1.0000
  C   C300      1.0  0.16539  0.78645  0.49988  1.0000
  C   C301      1.0  0.11142  0.72775  0.83757  1.0000
  H   H486      1.0  0.09386  0.72664  0.83872  1.0000
  H   H487      1.0  0.07914  0.83042  0.59662  1.0000
  H   H488      1.0  0.02973  0.67497  0.57395  1.0000
  H   H489      1.0  0.05223  0.80400  0.55799  1.0000
  H   H490      1.0  0.99558  0.69777  0.53643  1.0000
  N   N20       1.0  0.14881  0.77223  0.70109  1.0000
  C   C302      1.0  0.16668  0.76033  0.68526  1.0000
  C   C303      1.0  0.15545  0.77189  0.73079  1.0000
  C   C304      1.0  0.14619  0.79484  0.69091  1.0000
  C   C305      1.0  0.12869  0.76130  0.69596  1.0000
  C   C306      1.0  0.16532  0.76205  0.65384  1.0000
  C   C307      1.0  0.15983  0.74973  0.74355  1.0000
  C   C308      1.0  0.13656  0.81214  0.71075  1.0000
  C   C309      1.0  0.10873  0.76944  0.71227  1.0000
  H   H491      1.0  0.18243  0.76586  0.69145  1.0000
  H   H492      1.0  0.16769  0.74303  0.68980  1.0000
  H   H493      1.0  0.14363  0.78095  0.74400  1.0000
  H   H494      1.0  0.17025  0.78016  0.73347  1.0000
  H   H495      1.0  0.16180  0.80026  0.68489  1.0000
  H   H496      1.0  0.13633  0.79586  0.67201  1.0000
  H   H497      1.0  0.12372  0.76286  0.67412  1.0000
  H   H498      1.0  0.13130  0.74377  0.69854  1.0000
  H   H499      1.0  0.16766  0.77835  0.64690  1.0000
  H   H500      1.0  0.17846  0.75148  0.64477  1.0000
  H   H501      1.0  0.15021  0.75687  0.64531  1.0000
  H   H502      1.0  0.14615  0.73999  0.74086  1.0000
  H   H503      1.0  0.17453  0.74117  0.73519  1.0000
  H   H504      1.0  0.16266  0.75168  0.76586  1.0000
  H   H505      1.0  0.14801  0.81525  0.72746  1.0000
  H   H506      1.0  0.12123  0.80832  0.71950  1.0000
  H   H507      1.0  0.13339  0.82726  0.69940  1.0000
  H   H508      1.0  0.10010  0.78330  0.70203  1.0000
  H   H509      1.0  0.11205  0.77348  0.73379  1.0000
  H   H510      1.0  0.09776  0.75659  0.71338  1.0000
  H   H511      1.0  0.15024  0.68632  0.78787  1.0000
  H   H512      1.0  0.16505  0.80361  0.50526  1.0000
  S   S93       1.0  0.05850  0.73014  0.72834  1.0000
  H   H513      1.0  0.13786  0.75209  0.95974  1.0000
  Fe  Fe46      1.0  0.01943  0.78621  0.66586  1.0000
  H   H514      1.0  0.20213  0.77132  0.92281  1.0000
  C   C310      1.0  0.11188  0.71499  0.76064  1.0000
  C   C311      1.0  0.04766  0.73675  0.56469  1.0000
  C   C312      1.0  0.10321  0.81796  0.54977  1.0000
  C   C313      1.0  0.06429  0.82735  0.58542  1.0000
  C   C314      1.0  0.22078  0.69235  0.96836  1.0000
  H   H515      1.0  0.10511  0.77381  0.95600  1.0000
  H   H516      1.0  0.10259  0.83223  0.56331  1.0000
  H   H517      1.0  0.11004  0.80463  0.56263  1.0000
  H   H518      1.0  0.05713  0.84227  0.57618  1.0000
  H   H519      1.0  0.05293  0.82280  0.60108  1.0000
  C   C315      1.0  0.21448  0.71571  0.96059  1.0000
  H   H520      1.0  0.20605  0.80782  0.65627  1.0000
  S   S94       1.0  0.04130  0.66233  0.93099  1.0000
  H   H521      1.0  0.08379  0.81055  0.94960  1.0000
  H   H522      1.0  0.07581  0.79535  0.57623  1.0000
  H   H523      1.0  0.12248  0.74133  0.78394  1.0000
  C   C316      1.0  0.01254  0.69170  0.53955  1.0000
  S   S95       1.0  0.04717  0.78953  0.69469  1.0000
  H   H524      1.0  0.11670  0.83001  0.96215  1.0000
  H   H525      1.0  0.12714  0.70588  0.75562  1.0000
  C   C317      1.0  0.06815  0.80894  0.56447  1.0000
  C   C318      1.0  0.05306  0.76409  0.79898  1.0000
  C   C319      1.0  0.05489  0.75871  0.77112  1.0000
  C   C320      1.0  0.22348  0.75132  0.94912  1.0000
  H   H526      1.0  0.15659  0.78522  0.96012  1.0000
  N   N21       1.0  0.08122  0.81368  0.53982  1.0000
  H   H527      1.0  0.08703  0.79371  0.92041  1.0000
  C   C321      1.0  0.08177  0.79456  0.52099  1.0000
  C   C322      1.0  0.99709  0.67033  0.93458  1.0000
  H   H528      1.0  0.21816  0.75835  0.96914  1.0000
  H   H529      1.0  0.23566  0.76163  0.94192  1.0000
  H   H530      1.0  0.13537  0.82315  0.53763  1.0000
  H   H531      1.0  0.02769  0.77705  0.52369  1.0000
  C   C323      1.0  0.03640  0.75581  0.55696  1.0000
  S   S96       1.0  0.02153  0.75042  0.66816  1.0000
  C   C324      1.0  0.01494  0.65564  0.93713  1.0000
  H   H532      1.0  0.05238  0.78060  0.80532  1.0000
  H   H533      1.0  0.02688  0.76507  0.57184  1.0000
  H   H534      1.0  0.13776  0.67639  0.83772  1.0000
  H   H535      1.0  0.20614  0.68373  0.96948  1.0000
  H   H536      1.0  0.10793  0.72619  0.74363  1.0000
  H   H537      1.0  0.10311  0.81553  0.92362  1.0000
  H   H538      1.0  0.17924  0.77849  0.51103  1.0000
  C   C325      1.0  0.99413  0.77265  0.76434  1.0000
  H   H539      1.0  0.11533  0.83676  0.51668  1.0000
  Fe  Fe47      1.0  0.05054  0.75370  0.69437  1.0000
  C   C326      1.0  0.99320  0.84125  0.69246  1.0000
  H   H540      1.0  0.05597  0.77094  0.75599  1.0000
  H   H541      1.0  0.02815  0.79727  0.76564  1.0000
  H   H542      1.0  0.06525  0.79155  0.51468  1.0000
  H   H543      1.0  0.00103  0.80408  0.72623  1.0000
  C   C327      1.0  0.12014  0.67958  0.83728  1.0000
  H   H544      1.0  0.05265  0.83397  0.52920  1.0000
  H   H545      1.0  0.23084  0.71176  0.91379  1.0000
  Fe  Fe48      1.0  0.04346  0.75072  0.63232  1.0000
  S   S97       1.0  0.03897  0.78604  0.62747  1.0000
  Fe  Fe49      1.0  0.23181  0.77520  0.54303  1.0000
  Fe  Fe50      1.0  0.22951  0.76865  0.60504  1.0000
  C   C328      1.0  0.09272  0.77363  0.53227  1.0000
  N   N22       1.0  0.02055  0.67822  0.51551  1.0000
  H   H546      1.0  0.11336  0.66397  0.83498  1.0000
  C   C329      1.0  0.07025  0.83304  0.52590  1.0000
  C   C330      1.0  0.14549  0.78307  0.97733  1.0000
  H   H547      1.0  0.06879  0.71016  0.55130  1.0000
  C   C331      1.0  0.20679  0.80435  0.97741  1.0000
  H   H548      1.0  0.20271  0.71505  0.94352  1.0000
  H   H549      1.0  0.18936  0.75061  0.93909  1.0000
  S   S98       1.0  0.22433  0.82622  0.82535  1.0000
  H   H550      1.0  0.10783  0.75841  0.85835  1.0000
  H   H551      1.0  0.15027  0.73087  0.81368  1.0000
  H   H552      1.0  0.09621  0.73501  0.79064  1.0000
  S   S99       1.0  0.04533  0.72665  0.59779  1.0000
  C   C332      1.0  0.11234  0.69394  0.81324  1.0000
  H   H553      1.0  0.09885  0.70416  0.76090  1.0000
  H   H554      1.0  0.09454  0.69541  0.81337  1.0000
  C   C333      1.0  0.11298  0.78811  0.94972  1.0000
  H   H555      1.0  0.14088  0.81878  0.94869  1.0000
  C   C334      1.0  0.07250  0.83460  0.49456  1.0000
  H   H556      1.0  0.00995  0.83571  0.69292  1.0000
  H   H557      1.0  0.10980  0.77493  0.53709  1.0000
  H   H558      1.0  0.07560  0.84795  0.53505  1.0000
  H   H559      1.0  0.99153  0.80379  0.80204  1.0000
  C   C335      1.0  0.99725  0.80937  0.74752  1.0000
  H   H560      1.0  0.04422  0.65815  0.53855  1.0000
  H   H561      1.0  0.00636  0.66032  0.86575  1.0000
  H   H562      1.0  0.11464  0.68620  0.85722  1.0000
  H   H563      1.0  0.15934  0.75076  0.98393  1.0000
  C   C336      1.0  0.00363  0.76218  0.73810  1.0000
  C   C337      1.0  0.04839  0.75015  0.51000  1.0000
  H   H564      1.0  0.21626  0.82895  0.49716  1.0000
  C   C338      1.0  0.22911  0.80155  0.97797  1.0000
  H   H565      1.0  0.08436  0.76774  0.55016  1.0000
  H   H566      1.0  0.00831  0.69347  0.58337  1.0000
  H   H567      1.0  0.01736  0.77038  0.73083  1.0000
  H   H568      1.0  0.00200  0.66876  0.56915  1.0000
  C   C339      1.0  0.13082  0.81907  0.96737  1.0000
  C   C340      1.0  0.00560  0.66134  0.50878  1.0000
  H   H569      1.0  0.00982  0.74554  0.74258  1.0000
  H   H570      1.0  0.13417  0.74920  0.49186  1.0000
  C   C341      1.0  0.22417  0.78356  0.72623  1.0000
  H   H571      1.0  0.03352  0.70433  0.49442  1.0000
  H   H572      1.0  0.09009  0.79729  0.50164  1.0000
  N   N23       1.0  0.23261  0.72863  0.95272  1.0000
  H   H573      1.0  0.23870  0.81600  0.91242  1.0000
  S   S100      1.0  0.23710  0.77726  0.80201  1.0000
  Fe  Fe51      1.0  0.23370  0.73027  0.56607  1.0000
  H   H574      1.0  0.99163  0.76148  0.72145  1.0000
  C   C342      1.0  0.22744  0.78448  0.67650  1.0000
  H   H575      1.0  0.20549  0.72330  0.97817  1.0000
  C   C343      1.0  0.22971  0.81253  0.93032  1.0000
  H   H576      1.0  0.99768  0.87062  0.71397  1.0000
  H   H577      1.0  0.21733  0.87170  0.75457  1.0000
  H   H578      1.0  0.21919  0.84948  0.73151  1.0000
  H   H579      1.0  0.23762  0.68362  0.49206  1.0000
  H   H580      1.0  0.22326  0.84579  0.76797  1.0000
  C   C344      1.0  0.22616  0.85604  0.75033  1.0000
  H   H581      1.0  0.14599  0.84631  0.98351  1.0000
  H   H582      1.0  0.01763  0.68059  0.98486  1.0000
  C   C345      1.0  0.24050  0.80586  0.95443  1.0000
  H   H583      1.0  0.21806  0.70415  0.50189  1.0000
  H   H584      1.0  0.00717  0.71731  0.97351  1.0000
  H   H585      1.0  0.12514  0.71353  0.98752  1.0000
  C   C346      1.0  0.14266  0.83022  0.99046  1.0000
  H   H586      1.0  0.22839  0.69119  0.98892  1.0000
  C   C347      1.0  0.99825  0.70947  0.98954  1.0000
  C   C348      1.0  0.02125  0.69282  0.49126  1.0000
  Fe  Fe52      1.0  0.41056  0.03832  0.44789  1.0000
  S   S101      1.0  0.41253  0.00305  0.44095  1.0000
  Fe  Fe53      1.0  0.37719  0.07597  0.44099  1.0000
  S   S102      1.0  0.34260  0.08414  0.42896  1.0000
  S   S103      1.0  0.39869  0.05732  0.41167  1.0000
  H   H587      1.0  0.44988  0.11027  0.33723  1.0000
  C   C349      1.0  0.35435  0.01586  0.27425  1.0000
  C   C350      1.0  0.39319  0.08883  0.34660  1.0000
  H   H588      1.0  0.30210  0.24851  0.00444  1.0000
  H   H589      1.0  0.37486  0.12446  0.28060  1.0000
  C   C351      1.0  0.34308  0.01766  0.43193  1.0000
  H   H590      1.0  0.37159  0.09184  0.38174  1.0000
  H   H591      1.0  0.47782  0.12044  0.12782  1.0000
  H   H592      1.0  0.34404  0.00466  0.44693  1.0000
  Fe  Fe54      1.0  0.27469  0.19439  0.42028  1.0000
  S   S104      1.0  0.26948  0.22965  0.42863  1.0000
  S   S105      1.0  0.30956  0.18165  0.42114  1.0000
  H   H593      1.0  0.47052  0.28788  0.26060  1.0000
  C   C352      1.0  0.43864  0.04482  0.08688  1.0000
  H   H594      1.0  0.47809  0.20054  0.09445  1.0000
  H   H595      1.0  0.44505  0.15413  0.12585  1.0000
  H   H596      1.0  0.47228  0.01336  0.07240  1.0000
  S   S106      1.0  0.25675  0.19583  0.38042  1.0000
  H   H597      1.0  0.43128  0.04848  0.04374  1.0000
  S   S107      1.0  0.26814  0.26638  0.16819  1.0000
  H   H598      1.0  0.29279  0.22531  0.03532  1.0000
  H   H599      1.0  0.44984  0.27975  0.30890  1.0000
  H   H600      1.0  0.45709  0.08315  0.12789  1.0000
  C   C353      1.0  0.25117  0.25007  0.32442  1.0000
  Fe  Fe55      1.0  0.24742  0.25471  0.20109  1.0000
  H   H601      1.0  0.47002  0.03313  0.03049  1.0000
  S   S108      1.0  0.44371  0.09069  0.02966  1.0000
  H   H602      1.0  0.34390  0.08365  0.35420  1.0000
  H   H603      1.0  0.43063  0.02308  0.00417  1.0000
  C   C354      1.0  0.44025  0.99438  0.02639  1.0000
  S   S109      1.0  0.38656  0.05465  0.47637  1.0000
  S   S110      1.0  0.48353  0.30459  0.41164  1.0000
  C   C355      1.0  0.24982  0.23924  0.07112  1.0000
  H   H604      1.0  0.41803  0.00011  0.12723  1.0000
  C   C356      1.0  0.24873  0.22420  0.04996  1.0000
  S   S111      1.0  0.25892  0.23185  0.23431  1.0000
  H   H605      1.0  0.48042  0.24713  0.36901  1.0000
  H   H606      1.0  0.25136  0.28251  0.31119  1.0000
  H   H607      1.0  0.46968  0.15662  0.14276  1.0000
  H   H608      1.0  0.35856  0.16423  0.00596  1.0000
  C   C357      1.0  0.34489  0.17481  0.99813  1.0000
  H   H609      1.0  0.33538  0.02182  0.03629  1.0000
  S   S112      1.0  0.47144  0.04647  0.28225  1.0000
  C   C358      1.0  0.24793  0.23068  0.02258  1.0000
  N   N24       1.0  0.35541  0.99238  0.39150  1.0000
  H   H610      1.0  0.32585  0.99866  0.02201  1.0000
  C   C359      1.0  0.43671  0.05609  0.06209  1.0000
  H   H611      1.0  0.45396  0.10287  0.08414  1.0000
  C   C360      1.0  0.45341  0.05961  0.36073  1.0000
  H   H612      1.0  0.39864  0.03386  0.31225  1.0000
  C   C361      1.0  0.24843  0.25218  0.01638  1.0000
  C   C362      1.0  0.40993  0.04621  0.31556  1.0000
  S   S113      1.0  0.43984  0.09584  0.39035  1.0000
  H   H613      1.0  0.35125  0.99818  0.07638  1.0000
  H   H614      1.0  0.30443  0.22448  0.28317  1.0000
  H   H615      1.0  0.29431  0.19859  0.28554  1.0000
  H   H616      1.0  0.31766  0.15962  0.31819  1.0000
  H   H617      1.0  0.36292  0.17177  0.36371  1.0000
  H   H618      1.0  0.29702  0.15444  0.34107  1.0000
  C   C363      1.0  0.34927  0.05121  0.25466  1.0000
  C   C364      1.0  0.37029  0.04955  0.24530  1.0000
  H   H619      1.0  0.33904  0.06557  0.25097  1.0000
  C   C365      1.0  0.33351  0.11113  0.42444  1.0000
  C   C366      1.0  0.34780  0.12692  0.42430  1.0000
  C   C367      1.0  0.34019  0.14841  0.42228  1.0000
  C   C368      1.0  0.31821  0.15435  0.42056  1.0000
  C   C369      1.0  0.30388  0.13858  0.41974  1.0000
  C   C370      1.0  0.31155  0.11700  0.42158  1.0000
  H   H620      1.0  0.36473  0.12262  0.42608  1.0000
  H   H621      1.0  0.35137  0.16053  0.42275  1.0000
  H   H622      1.0  0.28690  0.14300  0.41831  1.0000
  H   H623      1.0  0.30039  0.10486  0.42148  1.0000
  S   S114      1.0  0.37961  0.07200  0.22929  1.0000
  H   H624      1.0  0.29000  0.16594  0.30906  1.0000
  S   S115      1.0  0.45133  0.03927  0.14061  1.0000
  H   H625      1.0  0.37067  0.01354  0.17648  1.0000
  H   H626      1.0  0.33789  0.16159  0.35756  1.0000
  H   H627      1.0  0.39206  0.12233  0.30992  1.0000
  H   H628      1.0  0.38824  0.11339  0.37783  1.0000
  H   H629      1.0  0.24819  0.20757  0.05480  1.0000
  C   C371      1.0  0.44623  0.05444  0.11068  1.0000
  H   H630      1.0  0.46217  0.09144  0.29486  1.0000
  H   H631      1.0  0.36725  0.03295  0.02330  1.0000
  Fe  Fe56      1.0  0.45843  0.06119  0.24271  1.0000
  C   C372      1.0  0.38338  0.03080  0.25030  1.0000
  H   H632      1.0  0.37454  0.05352  0.34784  1.0000
  Fe  Fe57      1.0  0.45179  0.10082  0.20818  1.0000
  C   C373      1.0  0.47743  0.25223  0.34753  1.0000
  S   S116      1.0  0.40102  0.09918  0.45134  1.0000
  C   C374      1.0  0.40594  0.00750  0.17730  1.0000
  H   H633      1.0  0.33561  0.07739  0.31969  1.0000
  H   H634      1.0  0.46407  0.03196  0.33667  1.0000
  H   H635      1.0  0.31949  0.22521  0.04757  1.0000
  H   H636      1.0  0.39970  0.02941  0.24356  1.0000
  C   C375      1.0  0.36778  0.06312  0.33032  1.0000
  H   H637      1.0  0.38550  0.99951  0.26857  1.0000
  H   H638      1.0  0.35441  0.16897  0.32918  1.0000
  H   H639      1.0  0.43465  0.02850  0.08749  1.0000
  H   H640      1.0  0.29592  0.21265  0.08156  1.0000
  C   C376      1.0  0.37859  0.10214  0.36657  1.0000
  H   H641      1.0  0.25400  0.27310  0.26173  1.0000
  H   H642      1.0  0.24983  0.28385  0.03274  1.0000
  Fe  Fe58      1.0  0.41226  0.07655  0.48493  1.0000
  C   C377      1.0  0.45128  0.07557  0.10970  1.0000
  C   C378      1.0  0.34476  0.07137  0.33794  1.0000
  H   H643      1.0  0.31851  0.13367  0.47494  1.0000
  H   H644      1.0  0.29273  0.16455  0.47307  1.0000
  C   C379      1.0  0.30730  0.21465  0.04009  1.0000
  S   S117      1.0  0.43580  0.04338  0.21737  1.0000
  S   S118      1.0  0.25138  0.25685  0.35941  1.0000
  H   H645      1.0  0.44745  0.00256  0.30903  1.0000
  Fe  Fe59      1.0  0.24984  0.23046  0.39008  1.0000
  H   H646      1.0  0.46155  0.30747  0.35750  1.0000
  H   H647      1.0  0.32298  0.00091  0.07233  1.0000
  C   C380      1.0  0.44934  0.08175  0.36094  1.0000
  H   H648      1.0  0.35774  0.10467  0.31486  1.0000
  H   H649      1.0  0.40754  0.00676  0.19996  1.0000
  S   S119      1.0  0.43716  0.05871  0.45845  1.0000
  C   C381      1.0  0.35761  0.01296  0.40694  1.0000
  C   C382      1.0  0.45279  0.09313  0.33711  1.0000
  H   H650      1.0  0.28704  0.19253  0.05997  1.0000
  H   H651      1.0  0.44651  0.01248  0.47896  1.0000
  H   H652      1.0  0.30205  0.16487  0.03354  1.0000
  C   C383      1.0  0.45963  0.08247  0.31301  1.0000
  C   C384      1.0  0.30103  0.20150  0.06466  1.0000
  C   C385      1.0  0.46356  0.06033  0.31263  1.0000
  C   C386      1.0  0.44966  0.08668  0.08487  1.0000
  C   C387      1.0  0.36205  0.99527  0.36227  1.0000
  H   H653      1.0  0.45747  0.30519  0.29977  1.0000
  H   H654      1.0  0.38776  0.00356  0.33630  1.0000
  C   C388      1.0  0.38512  0.02112  0.17032  1.0000
  H   H655      1.0  0.46540  0.14288  0.08885  1.0000
  H   H656      1.0  0.44650  0.00267  0.04361  1.0000
  H   H657      1.0  0.48539  0.26413  0.24878  1.0000
  H   H658      1.0  0.36579  0.11231  0.35642  1.0000
  H   H659      1.0  0.29865  0.30753  0.17612  1.0000
  C   C389      1.0  0.25319  0.26076  0.27678  1.0000
  H   H660      1.0  0.39802  0.02798  0.05435  1.0000
  Fe  Fe60      1.0  0.44963  0.05801  0.18052  1.0000
  H   H661      1.0  0.31837  0.99800  0.35227  1.0000
  H   H662      1.0  0.39111  0.01168  0.37130  1.0000
  S   S120      1.0  0.47545  0.07213  0.20551  1.0000
  H   H663      1.0  0.40173  0.07613  0.35900  1.0000
  C   C390      1.0  0.40798  0.98747  0.13404  1.0000
  H   H664      1.0  0.48370  0.23876  0.33433  1.0000
  H   H665      1.0  0.44880  0.99204  0.14733  1.0000
  N   N25       1.0  0.31929  0.20187  0.33370  1.0000
  C   C391      1.0  0.31175  0.22489  0.33935  1.0000
  C   C392      1.0  0.32631  0.20049  0.30427  1.0000
  C   C393      1.0  0.33819  0.19612  0.35222  1.0000
  C   C394      1.0  0.30125  0.18832  0.33960  1.0000
  C   C395      1.0  0.30643  0.23081  0.36934  1.0000
  C   C396      1.0  0.30884  0.20707  0.28288  1.0000
  C   C397      1.0  0.34869  0.17324  0.35001  1.0000
  C   C398      1.0  0.30197  0.16604  0.32590  1.0000
  H   H666      1.0  0.32381  0.23566  0.33260  1.0000
  H   H667      1.0  0.29696  0.22971  0.32749  1.0000
  H   H668      1.0  0.33302  0.18435  0.29845  1.0000
  H   H669      1.0  0.33967  0.21071  0.30102  1.0000
  H   H670      1.0  0.35083  0.20716  0.34895  1.0000
  H   H671      1.0  0.33359  0.19793  0.37408  1.0000
  H   H672      1.0  0.29998  0.18596  0.36202  1.0000
  H   H673      1.0  0.28579  0.19673  0.33309  1.0000
  H   H674      1.0  0.32103  0.23140  0.38212  1.0000
  H   H675      1.0  0.29802  0.24700  0.37013  1.0000
  H   H676      1.0  0.29572  0.21987  0.37852  1.0000
  H   H677      1.0  0.31496  0.20309  0.26206  1.0000
  H   H678      1.0  0.35270  0.00910  0.35278  1.0000
  H   H679      1.0  0.41423  0.07808  0.30316  1.0000
  H   H680      1.0  0.39516  0.06544  0.28387  1.0000
  H   H681      1.0  0.42430  0.04102  0.30341  1.0000
  H   H682      1.0  0.41466  0.04665  0.33738  1.0000
  C   C399      1.0  0.46087  0.04901  0.33675  1.0000
  Fe  Fe61      1.0  0.41449  0.07334  0.21961  1.0000
  C   C400      1.0  0.40057  0.06809  0.30514  1.0000
  S   S121      1.0  0.42690  0.08726  0.18138  1.0000
  H   H683      1.0  0.33231  0.17718  0.03846  1.0000
  H   H684      1.0  0.31443  0.19090  0.07289  1.0000
  C   C401      1.0  0.45989  0.16249  0.12504  1.0000
  C   C402      1.0  0.44270  0.07693  0.06090  1.0000
  H   H685      1.0  0.46727  0.31913  0.46967  1.0000
  H   H686      1.0  0.36407  0.08834  0.28617  1.0000
  H   H687      1.0  0.36572  0.05165  0.31323  1.0000
  N   N26       1.0  0.38286  0.07930  0.32199  1.0000
  C   C403      1.0  0.38567  0.99891  0.35787  1.0000
  H   H688      1.0  0.33639  0.05786  0.34573  1.0000
  C   C404      1.0  0.34144  0.03459  0.26926  1.0000
  H   H689      1.0  0.39788  0.10612  0.27957  1.0000
  S   S122      1.0  0.43629  0.09063  0.24662  1.0000
  S   S123      1.0  0.46063  0.13482  0.20415  1.0000
  H   H690      1.0  0.40630  0.09862  0.34076  1.0000
  H   H691      1.0  0.45292  0.99687  0.18320  1.0000
  H   H692      1.0  0.45996  0.25517  0.34465  1.0000
  H   H693      1.0  0.47580  0.25569  0.29356  1.0000
  C   C405      1.0  0.37537  0.01666  0.02532  1.0000
  C   C406      1.0  0.48678  0.14093  0.19628  1.0000
  S   S124      1.0  0.34385  0.99630  0.29446  1.0000
  H   H694      1.0  0.38499  0.03646  0.18172  1.0000
  C   C407      1.0  0.29787  0.19072  0.00183  1.0000
  N   N27       1.0  0.31524  0.20259  0.01487  1.0000
  C   C408      1.0  0.38511  0.11309  0.29320  1.0000
  C   C409      1.0  0.48710  0.02828  0.02596  1.0000
  C   C410      1.0  0.37135  0.09602  0.30420  1.0000
  H   H695      1.0  0.41917  0.01683  0.17059  1.0000
  Fe  Fe62      1.0  0.42334  0.07915  0.42395  1.0000
  H   H696      1.0  0.25424  0.20703  0.28182  1.0000
  C   C411      1.0  0.46000  0.29254  0.31546  1.0000
  H   H697      1.0  0.45100  0.05073  0.37910  1.0000
  C   C412      1.0  0.48714  0.26828  0.29293  1.0000
  H   H698      1.0  0.34767  0.19806  0.03025  1.0000
  H   H699      1.0  0.38415  0.02506  0.14827  1.0000
  C   C413      1.0  0.25455  0.23942  0.26856  1.0000
  C   C414      1.0  0.43769  0.98875  0.30986  1.0000
  H   H700      1.0  0.39167  0.99282  0.12649  1.0000
  H   H701      1.0  0.48870  0.14301  0.25311  1.0000
  H   H702      1.0  0.27594  0.16952  0.01938  1.0000
  H   H703      1.0  0.32620  0.02141  0.42572  1.0000
  C   C415      1.0  0.25174  0.26605  0.30475  1.0000
  H   H704      1.0  0.29655  0.15611  0.99952  1.0000
  C   C416      1.0  0.33502  0.18840  0.02191  1.0000
  C   C417      1.0  0.25144  0.22886  0.31594  1.0000
  C   C418      1.0  0.24956  0.26717  0.03754  1.0000
  S   S125      1.0  0.25050  0.23066  0.10505  1.0000
  C   C419      1.0  0.25348  0.22353  0.28816  1.0000
  H   H705      1.0  0.31845  0.01796  0.37903  1.0000
  H   H706      1.0  0.37448  0.02085  0.07006  1.0000
  H   H707      1.0  0.32522  0.03627  0.27671  1.0000
  C   C420      1.0  0.37536  0.01386  0.26456  1.0000
  H   H708      1.0  0.48716  0.28242  0.36062  1.0000
  N   N28       1.0  0.48317  0.28397  0.31628  1.0000
  C   C421      1.0  0.48540  0.27746  0.26379  1.0000
  H   H709      1.0  0.46474  0.16988  0.08271  1.0000
  C   C422      1.0  0.33947  0.00438  0.03392  1.0000
  H   H710      1.0  0.44095  0.28955  0.35262  1.0000
  H   H711      1.0  0.38849  0.01583  0.01021  1.0000
  H   H712      1.0  0.43301  0.99061  0.35303  1.0000
  C   C423      1.0  0.31668  0.00093  0.37463  1.0000
  H   H713      1.0  0.35445  0.02697  0.39335  1.0000
  H   H714      1.0  0.48981  0.11142  0.09603  1.0000
  C   C424      1.0  0.43114  0.00592  0.00416  1.0000
  H   H715      1.0  0.30018  0.99759  0.38004  1.0000
  C   C425      1.0  0.45019  0.30150  0.34259  1.0000
  H   H716      1.0  0.47834  0.17472  0.19798  1.0000
  H   H717      1.0  0.48195  0.13683  0.28678  1.0000
  H   H718      1.0  0.24665  0.21913  0.00632  1.0000
  Fe  Fe63      1.0  0.24594  0.29630  0.17042  1.0000
  H   H719      1.0  0.34812  0.03203  0.44268  1.0000
  H   H720      1.0  0.37430  0.01384  0.41407  1.0000
  H   H721      1.0  0.48582  0.17795  0.26029  1.0000
  H   H722      1.0  0.25029  0.21654  0.33076  1.0000
  C   C426      1.0  0.25025  0.26073  0.06491  1.0000
  H   H723      1.0  0.48273  0.99485  0.01405  1.0000
  C   C427      1.0  0.44411  0.99575  0.48005  1.0000
  H   H724      1.0  0.43841  0.31514  0.33795  1.0000
  H   H725      1.0  0.45582  0.17984  0.12778  1.0000
  H   H726      1.0  0.33621  0.22629  0.00205  1.0000
  H   H727      1.0  0.28009  0.14172  0.48281  1.0000
  C   C428      1.0  0.29321  0.16924  0.01459  1.0000
  H   H728      1.0  0.48523  0.12953  0.05383  1.0000
  C   C429      1.0  0.47123  0.15767  0.09752  1.0000
  H   H729      1.0  0.42091  0.99490  0.30574  1.0000
  H   H730      1.0  0.25110  0.27237  0.08118  1.0000
  H   H731      1.0  0.37836  0.98838  0.21141  1.0000
  C   C430      1.0  0.38604  0.01601  0.05380  1.0000
  S   S126      1.0  0.24642  0.18639  0.44524  1.0000
  C   C431      1.0  0.48928  0.27219  0.34226  1.0000
  N   N29       1.0  0.36023  0.99996  0.01871  1.0000
  H   H732      1.0  0.28258  0.20091  0.00153  1.0000
  H   H733      1.0  0.48181  0.10616  0.25552  1.0000
  H   H734      1.0  0.33364  0.17243  0.47271  1.0000
  H   H735      1.0  0.48105  0.04881  0.07541  1.0000
  H   H736      1.0  0.39499  0.00053  0.05830  1.0000
  H   H737      1.0  0.48475  0.29623  0.03501  1.0000
  H   H738      1.0  0.35582  0.14152  0.47894  1.0000
  H   H739      1.0  0.46748  0.99938  0.36256  1.0000
  H   H740      1.0  0.47863  0.99300  0.33014  1.0000
  Fe  Fe64      1.0  0.24375  0.25496  0.13878  1.0000
  H   H741      1.0  0.46677  0.30905  0.99364  1.0000
  C   C432      1.0  0.32184  0.21872  0.99459  1.0000
  C   C433      1.0  0.48777  0.00970  0.00529  1.0000
  S   S127      1.0  0.39638  0.06345  0.99358  1.0000
  Fe  Fe65      1.0  0.42604  0.08069  0.99149  1.0000
  C   C434      1.0  0.33809  0.99449  0.06255  1.0000
  C   C435      1.0  0.48938  0.00815  0.06885  1.0000
  H   H742      1.0  0.48897  0.99271  0.05801  1.0000
  C   C436      1.0  0.29171  0.15297  0.48984  1.0000
  Fe  Fe66      1.0  0.41083  0.04437  0.95861  1.0000
  C   C437      1.0  0.48177  0.10134  0.63256  1.0000
  Fe  Fe67      1.0  0.38310  0.08612  0.96117  1.0000
  S   S128      1.0  0.34821  0.09850  0.96278  1.0000
  S   S129      1.0  0.39487  0.06510  0.92629  1.0000
  H   H743      1.0  0.40803  0.00109  0.72193  1.0000
  H   H744      1.0  0.45397  0.03132  0.83388  1.0000
  S   S130      1.0  0.44164  0.05983  0.95845  1.0000
  H   H745      1.0  0.26308  0.21736  0.50534  1.0000
  S   S131      1.0  0.45427  0.04795  0.63640  1.0000
  H   H746      1.0  0.44532  0.99926  0.73066  1.0000
  H   H747      1.0  0.37012  0.99556  0.97645  1.0000
  N   N30       1.0  0.29332  0.30680  0.76546  1.0000
  C   C438      1.0  0.43926  0.05946  0.55612  1.0000
  Fe  Fe68      1.0  0.28393  0.20601  0.91735  1.0000
  S   S132      1.0  0.28111  0.24176  0.92057  1.0000
  S   S133      1.0  0.31804  0.19123  0.92047  1.0000
  H   H748      1.0  0.42813  0.01601  0.90165  1.0000
  H   H749      1.0  0.35133  0.11288  0.52930  1.0000
  Fe  Fe69      1.0  0.25780  0.24112  0.88590  1.0000
  H   H750      1.0  0.46813  0.17313  0.75109  1.0000
  C   C439      1.0  0.44875  0.13953  0.62851  1.0000
  S   S134      1.0  0.26301  0.20583  0.87965  1.0000
  H   H751      1.0  0.28581  0.30991  0.82502  1.0000
  S   S135      1.0  0.27442  0.27243  0.66737  1.0000
  C   C440      1.0  0.35561  0.00109  0.98834  1.0000
  Fe  Fe70      1.0  0.45520  0.06306  0.74138  1.0000
  Fe  Fe71      1.0  0.25342  0.23761  0.94789  1.0000
  C   C441      1.0  0.38187  0.99445  0.61670  1.0000
  H   H752      1.0  0.34333  0.10720  0.49436  1.0000
  S   S136      1.0  0.26975  0.24018  0.60069  1.0000
  H   H753      1.0  0.29602  0.15806  0.55315  1.0000
  H   H754      1.0  0.31070  0.24601  0.96996  1.0000
  H   H755      1.0  0.43294  0.14623  0.62084  1.0000
  C   C442      1.0  0.35214  0.14013  0.50107  1.0000
  H   H756      1.0  0.31565  0.18353  0.49710  1.0000
  H   H757      1.0  0.41578  0.99327  0.61484  1.0000
  H   H758      1.0  0.34825  0.00088  0.76504  1.0000
  C   C443      1.0  0.27088  0.23916  0.81382  1.0000
  H   H759      1.0  0.30150  0.18734  0.97987  1.0000
  C   C444      1.0  0.25623  0.22746  0.52153  1.0000
  H   H760      1.0  0.27927  0.23052  0.83021  1.0000
  H   H761      1.0  0.44619  0.99952  0.58049  1.0000
  H   H762      1.0  0.47588  0.31787  0.50510  1.0000
  H   H763      1.0  0.33813  0.30506  0.76985  1.0000
  H   H764      1.0  0.35125  0.18460  0.98191  1.0000
  H   H765      1.0  0.34612  0.20375  0.49634  1.0000
  C   C445      1.0  0.26619  0.22772  0.54733  1.0000
  C   C446      1.0  0.25718  0.24057  0.56851  1.0000
  H   H766      1.0  0.28952  0.23105  0.98079  1.0000
  H   H767      1.0  0.29969  0.31206  0.67083  1.0000
  H   H768      1.0  0.28087  0.21792  0.55097  1.0000
  S   S137      1.0  0.26927  0.23635  0.73130  1.0000
  S   S138      1.0  0.43791  0.09610  0.89026  1.0000
  H   H769      1.0  0.45069  0.11512  0.59806  1.0000
  H   H770      1.0  0.34797  0.03318  0.73624  1.0000
  S   S139      1.0  0.25324  0.26615  0.85337  1.0000
  H   H771      1.0  0.40911  0.99295  0.68745  1.0000
  Fe  Fe72      1.0  0.41135  0.07414  0.71862  1.0000
  H   H772      1.0  0.38373  0.99533  0.63929  1.0000
  Fe  Fe73      1.0  0.44697  0.10454  0.71055  1.0000
  H   H773      1.0  0.43955  0.00550  0.67804  1.0000
  C   C447      1.0  0.33119  0.17399  0.49517  1.0000
  C   C448      1.0  0.43660  0.00621  0.88552  1.0000
  C   C449      1.0  0.39783  0.03357  0.76342  1.0000
  C   C450      1.0  0.37978  0.04019  0.74775  1.0000
  H   H774      1.0  0.41145  0.04294  0.76390  1.0000
  C   C451      1.0  0.33982  0.12386  0.94956  1.0000
  C   C452      1.0  0.35450  0.13720  0.93941  1.0000
  C   C453      1.0  0.34746  0.15760  0.92997  1.0000
  C   C454      1.0  0.32571  0.16483  0.93045  1.0000
  C   C455      1.0  0.31095  0.15136  0.94011  1.0000
  C   C456      1.0  0.31802  0.13097  0.94973  1.0000
  H   H775      1.0  0.37130  0.13190  0.93912  1.0000
  H   H776      1.0  0.35897  0.16793  0.92252  1.0000
  H   H777      1.0  0.29416  0.15674  0.94048  1.0000
  H   H778      1.0  0.30657  0.12070  0.95743  1.0000
  S   S140      1.0  0.37875  0.06402  0.72879  1.0000
  S   S141      1.0  0.42291  0.09122  0.68209  1.0000
  H   H779      1.0  0.31637  0.28432  0.78593  1.0000
  H   H780      1.0  0.45935  0.03651  0.57931  1.0000
  H   H781      1.0  0.44972  0.11000  0.83759  1.0000
  H   H782      1.0  0.30524  0.18175  0.53841  1.0000
  C   C457      1.0  0.34751  0.02320  0.97738  1.0000
  C   C458      1.0  0.38723  0.99085  0.88934  1.0000
  H   H783      1.0  0.40726  0.03052  0.53099  1.0000
  H   H784      1.0  0.41311  0.00336  0.52193  1.0000
  H   H785      1.0  0.47296  0.19919  0.76193  1.0000
  C   C459      1.0  0.31005  0.16739  0.55043  1.0000
  C   C460      1.0  0.41469  0.01505  0.53852  1.0000
  H   H786      1.0  0.29092  0.30329  0.72138  1.0000
  C   C461      1.0  0.30909  0.27499  0.73543  1.0000
  N   N31       1.0  0.48318  0.11836  0.61138  1.0000
  H   H787      1.0  0.46089  0.13879  0.58718  1.0000
  C   C462      1.0  0.45635  0.08204  0.81242  1.0000
  C   C463      1.0  0.25682  0.25691  0.81976  1.0000
  Fe  Fe74      1.0  0.25350  0.25887  0.63532  1.0000
  H   H788      1.0  0.28493  0.16123  0.50815  1.0000
  C   C464      1.0  0.33158  0.31815  0.75665  1.0000
  H   H789      1.0  0.37380  0.99244  0.90401  1.0000
  H   H790      1.0  0.46638  0.09404  0.56688  1.0000
  C   C465      1.0  0.31345  0.14038  0.49519  1.0000
  C   C466      1.0  0.32907  0.15333  0.53850  1.0000
  C   C467      1.0  0.45040  0.09282  0.83682  1.0000
  H   H791      1.0  0.30691  0.26793  0.71482  1.0000
  H   H792      1.0  0.48768  0.20765  0.72271  1.0000
  H   H793      1.0  0.36460  0.18127  0.50219  1.0000
  H   H794      1.0  0.40823  0.10050  0.58413  1.0000
  H   H795      1.0  0.27633  0.28552  0.73978  1.0000
  C   C468      1.0  0.30486  0.23696  0.98734  1.0000
  C   C469      1.0  0.45287  0.04850  0.83464  1.0000
  Fe  Fe75      1.0  0.25436  0.25668  0.69746  1.0000
  C   C470      1.0  0.44229  0.05916  0.60614  1.0000
  C   C471      1.0  0.36205  0.02810  0.74811  1.0000
  C   C472      1.0  0.30054  0.29296  0.78935  1.0000
  H   H796      1.0  0.41165  0.01096  0.79261  1.0000
  C   C473      1.0  0.42779  0.07720  0.60715  1.0000
  C   C474      1.0  0.45763  0.05982  0.81113  1.0000
  H   H797      1.0  0.32651  0.21094  0.97477  1.0000
  Fe  Fe76      1.0  0.42452  0.08238  0.92860  1.0000
  C   C475      1.0  0.40417  0.00987  0.56587  1.0000
  H   H798      1.0  0.34394  0.15824  0.54838  1.0000
  H   H799      1.0  0.31215  0.31780  0.81651  1.0000
  C   C476      1.0  0.42485  0.07760  0.55731  1.0000
  H   H800      1.0  0.37722  0.01079  0.60949  1.0000
  S   S142      1.0  0.40945  0.00913  0.95512  1.0000
  C   C477      1.0  0.44652  0.05936  0.85900  1.0000
  C   C478      1.0  0.26415  0.24440  0.76520  1.0000
  H   H801      1.0  0.28582  0.21948  0.78196  1.0000
  C   C479      1.0  0.29158  0.29329  0.73998  1.0000
  H   H802      1.0  0.44419  0.05291  0.53644  1.0000
  Fe  Fe77      1.0  0.44742  0.06355  0.67815  1.0000
  C   C480      1.0  0.30187  0.30440  0.81721  1.0000
  H   H803      1.0  0.42323  0.08428  0.62652  1.0000
  H   H804      1.0  0.44278  0.05066  0.87698  1.0000
  H   H805      1.0  0.47105  0.17794  0.68876  1.0000
  H   H806      1.0  0.46053  0.09095  0.79479  1.0000
  C   C481      1.0  0.48452  0.16611  0.68967  1.0000
  S   S143      1.0  0.45528  0.13882  0.70597  1.0000
  C   C482      1.0  0.27133  0.31699  0.77207  1.0000
  S   S144      1.0  0.41466  0.09090  0.52761  1.0000
  H   H807      1.0  0.45706  0.15302  0.63679  1.0000
  H   H808      1.0  0.30902  0.29289  0.83248  1.0000
  C   C483      1.0  0.24974  0.26185  0.77122  1.0000
  S   S145      1.0  0.47191  0.07716  0.70590  1.0000
  H   H809      1.0  0.38041  0.99164  0.52120  1.0000
  S   S146      1.0  0.41169  0.10506  0.96165  1.0000
  S   S147      1.0  0.46552  0.04603  0.78058  1.0000
  H   H810      1.0  0.36555  0.14686  0.51224  1.0000
  N   N32       1.0  0.33102  0.15228  0.50780  1.0000
  H   H811      1.0  0.38003  0.98892  0.86875  1.0000
  C   C484      1.0  0.39793  0.01537  0.77976  1.0000
  C   C485      1.0  0.41922  0.08638  0.58295  1.0000
  H   H812      1.0  0.38736  0.01697  0.56525  1.0000
  C   C486      1.0  0.27466  0.23303  0.78653  1.0000
  C   C487      1.0  0.44789  0.05026  0.58045  1.0000
  S   S148      1.0  0.43439  0.04577  0.71288  1.0000
  H   H813      1.0  0.31465  0.17361  0.57079  1.0000
  C   C488      1.0  0.48329  0.09014  0.57273  1.0000
  C   C489      1.0  0.34814  0.18806  0.50658  1.0000
  N   N33       1.0  0.37675  0.07949  0.83052  1.0000
  C   C490      1.0  0.37422  0.05587  0.83074  1.0000
  C   C491      1.0  0.35537  0.09039  0.82244  1.0000
  C   C492      1.0  0.38239  0.08599  0.85927  1.0000
  C   C493      1.0  0.39425  0.08356  0.81083  1.0000
  C   C494      1.0  0.39356  0.04142  0.84118  1.0000
  C   C495      1.0  0.34707  0.08459  0.79376  1.0000
  C   C496      1.0  0.38416  0.10981  0.86495  1.0000
  C   C497      1.0  0.39494  0.10658  0.80040  1.0000
  H   H814      1.0  0.36027  0.05238  0.84336  1.0000
  H   H815      1.0  0.37084  0.04989  0.80981  1.0000
  H   H816      1.0  0.35525  0.10790  0.82306  1.0000
  H   H817      1.0  0.34298  0.08681  0.83750  1.0000
  H   H818      1.0  0.37052  0.08064  0.87396  1.0000
  H   H819      1.0  0.39818  0.07821  0.86552  1.0000
  H   H820      1.0  0.41013  0.07863  0.81997  1.0000
  H   H821      1.0  0.39318  0.07336  0.79225  1.0000
  H   H822      1.0  0.39012  0.02457  0.83829  1.0000
  H   H823      1.0  0.40817  0.04366  0.82946  1.0000
  H   H824      1.0  0.39650  0.04359  0.86337  1.0000
  H   H825      1.0  0.34210  0.06814  0.79288  1.0000
  H   H826      1.0  0.33268  0.09533  0.78874  1.0000
  H   H827      1.0  0.35893  0.08659  0.77759  1.0000
  H   H828      1.0  0.38717  0.11198  0.88720  1.0000
  H   H829      1.0  0.36936  0.11988  0.86017  1.0000
  H   H830      1.0  0.39815  0.11556  0.85458  1.0000
  H   H831      1.0  0.41161  0.11115  0.80182  1.0000
  H   H832      1.0  0.38496  0.11896  0.81148  1.0000
  H   H833      1.0  0.39050  0.10740  0.77837  1.0000
  C   C498      1.0  0.44540  0.08159  0.86019  1.0000
  S   S149      1.0  0.43180  0.09127  0.74760  1.0000
  C   C499      1.0  0.47740  0.18222  0.76592  1.0000
  S   S150      1.0  0.25752  0.20187  0.94720  1.0000
  C   C500      1.0  0.24619  0.26817  0.79847  1.0000
  C   C501      1.0  0.35407  0.11610  0.50745  1.0000
  H   H834      1.0  0.42855  0.00960  0.86575  1.0000
  H   H835      1.0  0.47576  0.10838  0.65226  1.0000
  H   H836      1.0  0.46990  0.09010  0.62638  1.0000
  H   H837      1.0  0.24881  0.18527  0.72850  1.0000
  H   H838      1.0  0.44554  0.12861  0.64533  1.0000
  H   H839      1.0  0.34622  0.19112  0.52882  1.0000
  H   H840      1.0  0.32540  0.28016  0.73634  1.0000
  H   H841      1.0  0.43182  0.01739  0.54161  1.0000
  H   H842      1.0  0.25611  0.31866  0.73110  1.0000
  H   H843      1.0  0.41249  0.01894  0.58181  1.0000
  H   H844      1.0  0.26084  0.30484  0.77904  1.0000
  H   H845      1.0  0.47157  0.17807  0.78639  1.0000
  H   H846      1.0  0.34190  0.02151  0.95593  1.0000
  H   H847      1.0  0.34333  0.99018  0.98231  1.0000
  C   C502      1.0  0.36226  0.00968  0.76422  1.0000
  H   H848      1.0  0.30763  0.26196  0.75024  1.0000
  H   H849      1.0  0.28961  0.28013  0.79184  1.0000
  C   C503      1.0  0.46089  0.12775  0.60479  1.0000
  H   H850      1.0  0.32771  0.13719  0.54688  1.0000
  H   H851      1.0  0.37060  0.10942  0.50286  1.0000
  H   H852      1.0  0.48287  0.27694  0.98610  1.0000
  H   H853      1.0  0.45268  0.01203  0.88332  1.0000
  C   C504      1.0  0.48135  0.14529  0.69780  1.0000
  H   H854      1.0  0.46548  0.00790  0.69179  1.0000
  Fe  Fe78      1.0  0.24902  0.29948  0.66914  1.0000
  H   H855      1.0  0.36053  0.03402  0.97682  1.0000
  S   S151      1.0  0.24706  0.26097  0.98253  1.0000
  C   C505      1.0  0.45334  0.99640  0.68784  1.0000
  H   H856      1.0  0.48453  0.07620  0.58643  1.0000
  H   H857      1.0  0.47648  0.01406  0.98824  1.0000
  H   H858      1.0  0.46858  0.98905  0.51082  1.0000
  H   H859      1.0  0.31033  0.12642  0.50786  1.0000
  H   H860      1.0  0.48196  0.16416  0.60315  1.0000
  H   H861      1.0  0.39504  0.00583  0.89053  1.0000
  H   H862      1.0  0.33338  0.16436  0.98910  1.0000
  C   C506      1.0  0.42228  0.99520  0.98222  1.0000
  C   C507      1.0  0.38014  0.00338  0.78034  1.0000
  H   H863      1.0  0.33505  0.31415  0.73491  1.0000
  H   H864      1.0  0.24202  0.20769  0.77403  1.0000
  H   H865      1.0  0.33395  0.03067  0.98937  1.0000
  H   H866      1.0  0.24133  0.27050  0.75500  1.0000
  Fe  Fe79      1.0  0.38870  0.41864  0.47515  1.0000
  H   H867      1.0  0.31250  0.38175  0.29866  1.0000
  H   H868      1.0  0.30561  0.42323  0.13035  1.0000
  Fe  Fe80      1.0  0.33580  0.63270  0.02116  1.0000
  C   C508      1.0  0.35082  0.56331  0.39624  1.0000
  C   C509      1.0  0.45506  0.33971  0.41261  1.0000
  Fe  Fe81      1.0  0.42362  0.41601  0.43138  1.0000
  S   S152      1.0  0.39712  0.39578  0.44036  1.0000
  S   S153      1.0  0.45721  0.40375  0.41925  1.0000
  Fe  Fe82      1.0  0.39454  0.45692  0.44056  1.0000
  S   S154      1.0  0.36558  0.43960  0.44950  1.0000
  S   S155      1.0  0.39754  0.49202  0.43771  1.0000
  S   S156      1.0  0.36646  0.57722  0.02804  1.0000
  S   S157      1.0  0.38947  0.41855  0.01799  1.0000
  Fe  Fe83      1.0  0.37695  0.41865  0.41375  1.0000
  S   S158      1.0  0.36006  0.40382  0.37802  1.0000
  H   H869      1.0  0.32511  0.40069  0.06088  1.0000
  S   S159      1.0  0.40401  0.43772  0.40335  1.0000
  Fe  Fe84      1.0  0.42515  0.56153  0.27587  1.0000
  S   S160      1.0  0.39896  0.58707  0.26673  1.0000
  S   S161      1.0  0.41157  0.52971  0.28298  1.0000
  Fe  Fe85      1.0  0.45819  0.59500  0.28350  1.0000
  H   H870      1.0  0.41584  0.39952  0.25603  1.0000
  Fe  Fe86      1.0  0.41256  0.60449  0.30240  1.0000
  Fe  Fe87      1.0  0.42303  0.60166  0.24078  1.0000
  S   S162      1.0  0.43763  0.57851  0.31254  1.0000
  S   S163      1.0  0.44861  0.57499  0.24756  1.0000
  Fe  Fe88      1.0  0.35003  0.44037  0.16493  1.0000
  S   S164      1.0  0.37670  0.41460  0.16669  1.0000
  S   S165      1.0  0.34098  0.45574  0.12403  1.0000
  Fe  Fe89      1.0  0.34275  0.43739  0.22756  1.0000
  S   S166      1.0  0.36861  0.41117  0.23183  1.0000
  Fe  Fe90      1.0  0.38694  0.43144  0.20481  1.0000
  S   S167      1.0  0.41922  0.44282  0.21531  1.0000
  Fe  Fe91      1.0  0.35446  0.39792  0.19348  1.0000
  S   S168      1.0  0.34868  0.36301  0.18746  1.0000
  S   S169      1.0  0.36145  0.45811  0.20144  1.0000
  H   H871      1.0  0.42581  0.48590  0.02708  1.0000
  C   C510      1.0  0.32281  0.35400  0.18356  1.0000
  H   H872      1.0  0.32275  0.38745  0.13741  1.0000
  S   S170      1.0  0.41694  0.43725  0.46788  1.0000
  C   C511      1.0  0.28191  0.33869  0.17704  1.0000
  C   C512      1.0  0.28422  0.36056  0.17958  1.0000
  C   C513      1.0  0.30449  0.36818  0.18288  1.0000
  H   H873      1.0  0.32994  0.51079  0.01545  1.0000
  H   H874      1.0  0.33942  0.49591  0.04439  1.0000
  H   H875      1.0  0.27018  0.37172  0.17876  1.0000
  H   H876      1.0  0.30585  0.38504  0.18465  1.0000
  C   C514      1.0  0.41462  0.50576  0.26387  1.0000
  C   C515      1.0  0.43272  0.49986  0.24821  1.0000
  C   C516      1.0  0.43428  0.48035  0.23371  1.0000
  C   C517      1.0  0.41762  0.46686  0.23444  1.0000
  C   C518      1.0  0.39965  0.47279  0.25027  1.0000
  C   C519      1.0  0.39830  0.49198  0.26513  1.0000
  H   H877      1.0  0.44554  0.51024  0.24742  1.0000
  H   H878      1.0  0.44829  0.47584  0.22163  1.0000
  H   H879      1.0  0.38680  0.46249  0.25138  1.0000
  H   H880      1.0  0.38431  0.49630  0.27735  1.0000
  C   C520      1.0  0.35328  0.41752  0.34732  1.0000
  C   C521      1.0  0.34851  0.43958  0.34674  1.0000
  C   C522      1.0  0.34132  0.44956  0.32226  1.0000
  C   C523      1.0  0.33957  0.43770  0.29800  1.0000
  C   C524      1.0  0.34504  0.41575  0.29850  1.0000
  C   C525      1.0  0.35156  0.40570  0.32307  1.0000
  H   H881      1.0  0.34958  0.44882  0.36536  1.0000
  H   H882      1.0  0.34355  0.40639  0.28015  1.0000
  H   H883      1.0  0.35512  0.38863  0.32337  1.0000
  C   C526      1.0  0.37630  0.43089  0.04654  1.0000
  C   C527      1.0  0.35615  0.44210  0.04450  1.0000
  C   C528      1.0  0.34554  0.44992  0.06832  1.0000
  C   C529      1.0  0.35494  0.44654  0.09430  1.0000
  C   C530      1.0  0.37525  0.43579  0.09613  1.0000
  C   C531      1.0  0.38575  0.42785  0.07245  1.0000
  H   H884      1.0  0.34855  0.44427  0.02468  1.0000
  H   H885      1.0  0.32984  0.45827  0.06666  1.0000
  H   H886      1.0  0.40127  0.41914  0.07425  1.0000
  C   C532      1.0  0.38223  0.60190  0.17985  1.0000
  C   C533      1.0  0.36742  0.59749  0.15927  1.0000
  H   H887      1.0  0.37857  0.59962  0.20114  1.0000
  H   H888      1.0  0.35229  0.59189  0.16484  1.0000
  H   H889      1.0  0.42868  0.59867  0.36346  1.0000
  C   C534      1.0  0.31224  0.36846  0.08710  1.0000
  C   C535      1.0  0.30028  0.35832  0.11037  1.0000
  H   H890      1.0  0.34436  0.57965  0.39069  1.0000
  C   C536      1.0  0.37957  0.51012  0.45502  1.0000
  C   C537      1.0  0.38479  0.53110  0.45817  1.0000
  H   H891      1.0  0.35214  0.54396  0.34577  1.0000
  H   H892      1.0  0.42691  0.53033  0.38423  1.0000
  C   C538      1.0  0.41751  0.60464  0.37880  1.0000
  H   H893      1.0  0.39944  0.53589  0.44962  1.0000
  H   H894      1.0  0.44375  0.42431  0.26256  1.0000
  C   C539      1.0  0.34723  0.51890  0.48100  1.0000
  C   C540      1.0  0.48512  0.64445  0.30422  1.0000
  C   C541      1.0  0.44887  0.36160  0.41423  1.0000
  C   C542      1.0  0.46433  0.37626  0.41497  1.0000
  H   H895      1.0  0.47791  0.39160  0.48135  1.0000
  H   H896      1.0  0.40491  0.36782  0.48985  1.0000
  C   C543      1.0  0.48599  0.36886  0.41325  1.0000
  H   H897      1.0  0.43215  0.36711  0.41517  1.0000
  H   H898      1.0  0.34970  0.40350  0.07690  1.0000
  H   H899      1.0  0.39188  0.51258  0.35935  1.0000
  Fe  Fe92      1.0  0.33480  0.58547  0.00803  1.0000
  S   S171      1.0  0.32219  0.60594  0.04305  1.0000
  H   H900      1.0  0.27967  0.33726  0.29171  1.0000
  C   C544      1.0  0.42273  0.60200  0.40664  1.0000
  S   S172      1.0  0.43376  0.62211  0.27545  1.0000
  C   C545      1.0  0.39135  0.60811  0.12453  1.0000
  C   C546      1.0  0.38877  0.62001  0.41922  1.0000
  Fe  Fe93      1.0  0.35511  0.60004  0.06133  1.0000
  H   H901      1.0  0.28494  0.41624  0.24701  1.0000
  H   H902      1.0  0.25957  0.34910  0.23513  1.0000
  S   S173      1.0  0.39132  0.61936  0.33604  1.0000
  S   S174      1.0  0.35404  0.59192  0.10653  1.0000
  C   C547      1.0  0.40852  0.60987  0.42698  1.0000
  S   S175      1.0  0.36835  0.62777  0.04082  1.0000
  C   C548      1.0  0.40597  0.61299  0.14514  1.0000
  H   H903      1.0  0.43793  0.59396  0.41248  1.0000
  H   H904      1.0  0.42089  0.61910  0.13960  1.0000
  C   C549      1.0  0.36603  0.57102  0.33012  1.0000
  H   H905      1.0  0.37771  0.62624  0.43470  1.0000
  H   H906      1.0  0.34109  0.55178  0.38608  1.0000
  N   N34       1.0  0.37947  0.52694  0.18596  1.0000
  C   C550      1.0  0.36736  0.51579  0.20720  1.0000
  C   C551      1.0  0.38475  0.51144  0.16281  1.0000
  C   C552      1.0  0.36633  0.54601  0.17484  1.0000
  C   C553      1.0  0.39930  0.53444  0.19902  1.0000
  C   C554      1.0  0.35891  0.52947  0.23173  1.0000
  C   C555      1.0  0.40262  0.49375  0.16864  1.0000
  C   C556      1.0  0.34412  0.54180  0.16343  1.0000
  C   C557      1.0  0.41417  0.54572  0.17997  1.0000
  H   H907      1.0  0.35354  0.50837  0.19788  1.0000
  H   H908      1.0  0.37756  0.50231  0.21595  1.0000
  H   H909      1.0  0.38919  0.51973  0.14401  1.0000
  H   H910      1.0  0.37045  0.50315  0.15674  1.0000
  H   H911      1.0  0.36412  0.55880  0.19063  1.0000
  H   H912      1.0  0.37492  0.55320  0.15789  1.0000
  H   H913      1.0  0.39514  0.54606  0.21578  1.0000
  H   H914      1.0  0.40878  0.52129  0.20959  1.0000
  H   H915      1.0  0.37202  0.53488  0.24462  1.0000
  H   H916      1.0  0.34797  0.54328  0.22546  1.0000
  H   H917      1.0  0.34965  0.51951  0.24506  1.0000
  C   C558      1.0  0.32639  0.39559  0.11816  1.0000
  H   H918      1.0  0.40402  0.48261  0.15090  1.0000
  H   H919      1.0  0.41838  0.50016  0.17148  1.0000
  H   H920      1.0  0.34507  0.52965  0.14690  1.0000
  H   H921      1.0  0.33659  0.55671  0.15437  1.0000
  H   H922      1.0  0.33333  0.53709  0.17969  1.0000
  H   H923      1.0  0.41063  0.56325  0.18122  1.0000
  H   H924      1.0  0.41313  0.54084  0.15829  1.0000
  H   H925      1.0  0.43104  0.54181  0.18636  1.0000
  N   N35       1.0  0.42210  0.42649  0.31348  1.0000
  C   C559      1.0  0.41994  0.45043  0.31690  1.0000
  C   C560      1.0  0.44529  0.42017  0.30750  1.0000
  C   C561      1.0  0.41641  0.41711  0.34040  1.0000
  C   C562      1.0  0.40717  0.42045  0.29098  1.0000
  C   C563      1.0  0.39759  0.46079  0.32437  1.0000
  H   H926      1.0  0.26837  0.37612  0.32274  1.0000
  C   C564      1.0  0.41726  0.39272  0.34220  1.0000
  C   C565      1.0  0.41151  0.39807  0.27788  1.0000
  H   H927      1.0  0.43128  0.45555  0.33284  1.0000
  H   H928      1.0  0.42422  0.45832  0.29774  1.0000
  H   H929      1.0  0.44903  0.40275  0.30738  1.0000
  H   H930      1.0  0.45562  0.42585  0.32424  1.0000
  H   H931      1.0  0.42710  0.42252  0.35687  1.0000
  H   H932      1.0  0.39979  0.42257  0.34619  1.0000
  H   H933      1.0  0.39042  0.42180  0.29840  1.0000
  H   H934      1.0  0.40723  0.43199  0.27394  1.0000
  H   H935      1.0  0.39798  0.47835  0.32397  1.0000
  H   H936      1.0  0.38518  0.45676  0.30943  1.0000
  H   H937      1.0  0.39284  0.45690  0.34538  1.0000
  C   C566      1.0  0.47719  0.32241  0.99307  1.0000
  H   H938      1.0  0.27951  0.32722  0.24149  1.0000
  H   H939      1.0  0.31168  0.42289  0.09487  1.0000
  C   C567      1.0  0.29866  0.37205  0.29986  1.0000
  H   H940      1.0  0.39661  0.38978  0.27808  1.0000
  H   H941      1.0  0.40001  0.34054  0.49056  1.0000
  C   C568      1.0  0.47675  0.60916  0.37086  1.0000
  H   H942      1.0  0.37286  0.38751  0.10462  1.0000
  H   H943      1.0  0.48928  0.32174  0.04671  1.0000
  N   N36       1.0  0.29164  0.36457  0.27208  1.0000
  H   H944      1.0  0.47002  0.42084  0.27674  1.0000
  S   S176      1.0  0.32734  0.42321  0.19057  1.0000
  H   H945      1.0  0.30451  0.35818  0.31262  1.0000
  C   C569      1.0  0.37215  0.60004  0.13155  1.0000
  H   H946      1.0  0.31240  0.33562  0.26671  1.0000
  C   C570      1.0  0.40166  0.60954  0.17283  1.0000
  H   H947      1.0  0.27520  0.39988  0.30523  1.0000
  H   H948      1.0  0.34008  0.36487  0.04085  1.0000
  S   S177      1.0  0.41677  0.60800  0.46159  1.0000
  H   H949      1.0  0.44491  0.63566  0.39329  1.0000
  H   H950      1.0  0.28684  0.35010  0.10150  1.0000
  H   H951      1.0  0.27923  0.37670  0.23340  1.0000
  C   C571      1.0  0.30794  0.41264  0.11217  1.0000
  H   H952      1.0  0.42394  0.38744  0.28791  1.0000
  H   H953      1.0  0.28908  0.39114  0.33554  1.0000
  H   H954      1.0  0.29260  0.40570  0.10823  1.0000
  H   H955      1.0  0.33699  0.46651  0.32216  1.0000
  C   C572      1.0  0.36847  0.54847  0.34219  1.0000
  H   H956      1.0  0.30528  0.40568  0.26873  1.0000
  H   H957      1.0  0.42356  0.53297  0.01343  1.0000
  C   C573      1.0  0.39805  0.61526  0.37095  1.0000
  H   H958      1.0  0.40669  0.51657  0.99558  1.0000
  H   H959      1.0  0.27403  0.64554  0.09482  1.0000
  C   C574      1.0  0.38362  0.62278  0.39129  1.0000
  H   H960      1.0  0.35145  0.51390  0.36682  1.0000
  H   H961      1.0  0.38021  0.57660  0.38736  1.0000
  N   N37       1.0  0.38250  0.54582  0.36731  1.0000
  H   H962      1.0  0.38082  0.57479  0.31976  1.0000
  H   H963      1.0  0.38298  0.43356  0.11578  1.0000
  C   C575      1.0  0.40456  0.55108  0.35913  1.0000
  H   H964      1.0  0.36162  0.58342  0.34572  1.0000
  N   N38       1.0  0.38277  0.50559  0.03944  1.0000
  C   C576      1.0  0.37804  0.49988  0.06852  1.0000
  C   C577      1.0  0.39083  0.48559  0.02437  1.0000
  C   C578      1.0  0.36308  0.51520  0.02507  1.0000
  C   C579      1.0  0.39915  0.52169  0.03992  1.0000
  C   C580      1.0  0.36559  0.51735  0.08571  1.0000
  C   C581      1.0  0.41309  0.47578  0.03314  1.0000
  C   C582      1.0  0.34407  0.50126  0.02398  1.0000
  H   H965      1.0  0.34322  0.35556  0.12428  1.0000
  H   H966      1.0  0.36897  0.48552  0.06920  1.0000
  H   H967      1.0  0.39305  0.49535  0.08000  1.0000
  H   H968      1.0  0.31071  0.64543  0.07368  1.0000
  H   H969      1.0  0.37976  0.47301  0.02704  1.0000
  H   H970      1.0  0.35747  0.53091  0.03410  1.0000
  H   H971      1.0  0.39676  0.54314  0.00456  1.0000
  H   H972      1.0  0.39272  0.53650  0.05052  1.0000
  H   H973      1.0  0.38354  0.36062  0.10631  1.0000
  H   H974      1.0  0.34946  0.52191  0.07724  1.0000
  H   H975      1.0  0.36306  0.51094  0.10636  1.0000
  H   H976      1.0  0.37442  0.53171  0.08832  1.0000
  H   H977      1.0  0.31676  0.35544  0.07224  1.0000
  C   C583      1.0  0.45367  0.42839  0.28033  1.0000
  C   C584      1.0  0.36047  0.50411  0.46584  1.0000
  H   H978      1.0  0.35611  0.48803  0.46298  1.0000
  H   H979      1.0  0.44300  0.32846  0.41247  1.0000
  H   H980      1.0  0.40468  0.38626  0.32936  1.0000
  H   H981      1.0  0.36847  0.63096  0.38545  1.0000
  C   C585      1.0  0.37154  0.54583  0.47309  1.0000
  H   H982      1.0  0.26627  0.38887  0.26147  1.0000
  H   H983      1.0  0.41369  0.38850  0.36361  1.0000
  H   H984      1.0  0.45949  0.33738  0.02804  1.0000
  H   H985      1.0  0.43687  0.55448  0.37369  1.0000
  H   H986      1.0  0.46168  0.61372  0.35974  1.0000
  C   C586      1.0  0.35001  0.37742  0.04836  1.0000
  H   H987      1.0  0.39477  0.52052  0.39405  1.0000
  S   S178      1.0  0.25589  0.33029  0.17242  1.0000
  H   H988      1.0  0.36723  0.49613  0.38814  1.0000
  H   H989      1.0  0.35324  0.57189  0.31427  1.0000
  H   H990      1.0  0.41799  0.55536  0.40076  1.0000
  H   H991      1.0  0.32163  0.62966  0.10110  1.0000
  C   C587      1.0  0.30019  0.32442  0.17803  1.0000
  H   H992      1.0  0.45642  0.64904  0.34756  1.0000
  S   S179      1.0  0.32938  0.45031  0.26778  1.0000
  S   S180      1.0  0.42075  0.61541  0.19788  1.0000
  H   H993      1.0  0.39510  0.61028  0.10325  1.0000
  H   H994      1.0  0.37164  0.37347  0.13609  1.0000
  H   H995      1.0  0.37570  0.56201  0.47511  1.0000
  H   H996      1.0  0.47410  0.35632  0.46659  1.0000
  H   H997      1.0  0.34813  0.56193  0.41858  1.0000
  H   H998      1.0  0.45740  0.41239  0.48545  1.0000
  C   C588      1.0  0.36343  0.51325  0.38356  1.0000
  H   H999      1.0  0.37474  0.53745  0.32562  1.0000
  C   C589      1.0  0.37024  0.37193  0.11353  1.0000
  C   C590      1.0  0.28239  0.38258  0.25439  1.0000
  C   C591      1.0  0.33880  0.39136  0.07089  1.0000
  C   C592      1.0  0.26666  0.33800  0.25081  1.0000
  C   C593      1.0  0.32054  0.33207  0.18119  1.0000
  C   C594      1.0  0.38425  0.52285  0.37582  1.0000
  H   H1000     1.0  0.28653  0.61972  0.08802  1.0000
  H   H1001     1.0  0.48702  0.59937  0.35635  1.0000
  C   C595      1.0  0.34862  0.36345  0.10562  1.0000
  C   C596      1.0  0.33207  0.36080  0.25951  1.0000
  H   H1002     1.0  0.38309  0.55501  0.41003  1.0000
  H   H1003     1.0  0.34739  0.48729  0.01026  1.0000
  H   H1004     1.0  0.25980  0.35840  0.28530  1.0000
  C   C597      1.0  0.46465  0.34146  0.00726  1.0000
  N   N39       1.0  0.33153  0.37973  0.09547  1.0000
  Fe  Fe94      1.0  0.37626  0.60553  0.00525  1.0000
  H   H1005     1.0  0.28486  0.64328  0.02945  1.0000
  H   H1006     1.0  0.31051  0.34612  0.12162  1.0000
  C   C598      1.0  0.30996  0.35194  0.25804  1.0000
  C   C599      1.0  0.40676  0.52891  0.01175  1.0000
  C   C600      1.0  0.29579  0.40170  0.25063  1.0000
  C   C601      1.0  0.42234  0.54749  0.38100  1.0000
  H   H1007     1.0  0.40441  0.56805  0.35329  1.0000
  H   H1008     1.0  0.46856  0.61766  0.42572  1.0000
  H   H1009     1.0  0.33198  0.37709  0.25155  1.0000
  H   H1010     1.0  0.46901  0.64309  0.29707  1.0000
  C   C602      1.0  0.37509  0.56036  0.39066  1.0000
  H   H1011     1.0  0.41003  0.54177  0.34065  1.0000
  H   H1012     1.0  0.41338  0.51626  0.05248  1.0000
  C   C603      1.0  0.27435  0.34973  0.27653  1.0000
  H   H1013     1.0  0.39905  0.48424  0.18663  1.0000
  H   H1014     1.0  0.35660  0.52054  0.40259  1.0000
  H   H1015     1.0  0.41410  0.47255  0.05534  1.0000
  H   H1016     1.0  0.30624  0.34961  0.23603  1.0000
  H   H1017     1.0  0.35158  0.35010  0.09072  1.0000
  H   H1018     1.0  0.35306  0.38763  0.03065  1.0000
  C   C604      1.0  0.47672  0.33228  0.41174  1.0000
  H   H1019     1.0  0.29312  0.37041  0.12485  1.0000
  H   H1020     1.0  0.34329  0.35066  0.24652  1.0000
  H   H1021     1.0  0.43320  0.38476  0.33763  1.0000
  H   H1022     1.0  0.36580  0.37022  0.05533  1.0000
  H   H1023     1.0  0.30640  0.39921  0.23272  1.0000
  C   C605      1.0  0.28159  0.38550  0.31643  1.0000
  H   H1024     1.0  0.47553  0.63934  0.47104  1.0000
  H   H1025     1.0  0.36686  0.51881  0.00361  1.0000
  H   H1026     1.0  0.30033  0.37937  0.07605  1.0000
  H   H1027     1.0  0.34055  0.40436  0.12333  1.0000
  H   H1028     1.0  0.32603  0.64310  0.14535  1.0000
  C   C606      1.0  0.47240  0.35046  0.48777  1.0000
  H   H1029     1.0  0.33885  0.36006  0.28053  1.0000
  H   H1030     1.0  0.45018  0.64245  0.45324  1.0000
  C   C607      1.0  0.43376  0.34544  0.48855  1.0000
  H   H1031     1.0  0.28574  0.62921  0.12240  1.0000
  H   H1032     1.0  0.35386  0.63948  0.09696  1.0000
  C   C608      1.0  0.35319  0.53959  0.48552  1.0000
  H   H1033     1.0  0.44990  0.34585  0.99519  1.0000
  C   C609      1.0  0.47737  0.32614  0.48552  1.0000
  H   H1034     1.0  0.39090  0.48793  0.00185  1.0000
  C   C610      1.0  0.28761  0.63416  0.10095  1.0000
  H   H1035     1.0  0.41635  0.46019  0.02262  1.0000
  H   H1036     1.0  0.43347  0.34563  0.46577  1.0000
  H   H1037     1.0  0.44188  0.38102  0.46695  1.0000
  H   H1038     1.0  0.45500  0.44579  0.28089  1.0000
  H   H1039     1.0  0.48093  0.32948  0.33268  1.0000
  C   C611      1.0  0.30947  0.64291  0.09609  1.0000
  N   N40       1.0  0.47740  0.64343  0.40047  1.0000
  C   C612      1.0  0.47761  0.63201  0.42740  1.0000
  H   H1040     1.0  0.47363  0.35581  0.00826  1.0000
  C   C613      1.0  0.46747  0.64482  0.45176  1.0000
  H   H1041     1.0  0.47370  0.59879  0.38825  1.0000
  S   S181      1.0  0.35713  0.61386  0.49016  1.0000
  C   C614      1.0  0.44577  0.38108  0.48917  1.0000
  C   C615      1.0  0.48839  0.62874  0.37951  1.0000
  C   C616      1.0  0.45451  0.64960  0.39261  1.0000
  H   H1042     1.0  0.33273  0.51412  0.48997  1.0000
  H   H1043     1.0  0.25391  0.32782  0.25677  1.0000
  H   H1044     1.0  0.29953  0.65327  0.14905  1.0000
  H   H1045     1.0  0.35781  0.65352  0.12878  1.0000
  H   H1046     1.0  0.33458  0.32092  0.18177  1.0000
  H   H1047     1.0  0.32214  0.51609  0.96406  1.0000
  C   C617      1.0  0.45782  0.37983  0.84068  1.0000
  H   H1048     1.0  0.45389  0.37895  0.86261  1.0000
  H   H1049     1.0  0.43696  0.53339  0.68176  1.0000
  H   H1050     1.0  0.38242  0.56867  0.85583  1.0000
  C   C618      1.0  0.45175  0.35957  0.53006  1.0000
  Fe  Fe95      1.0  0.42402  0.42618  0.92843  1.0000
  S   S182      1.0  0.39850  0.40553  0.94045  1.0000
  S   S183      1.0  0.45755  0.41630  0.91396  1.0000
  Fe  Fe96      1.0  0.39416  0.46668  0.93568  1.0000
  S   S184      1.0  0.36618  0.44913  0.94815  1.0000
  S   S185      1.0  0.39573  0.50199  0.93172  1.0000
  H   H1051     1.0  0.37492  0.62780  0.94915  1.0000
  S   S186      1.0  0.38675  0.40575  0.51837  1.0000
  Fe  Fe97      1.0  0.37692  0.42687  0.91358  1.0000
  S   S187      1.0  0.35744  0.41258  0.88018  1.0000
  C   C619      1.0  0.33718  0.52263  0.96021  1.0000
  S   S188      1.0  0.40300  0.44587  0.89958  1.0000
  Fe  Fe98      1.0  0.42428  0.55866  0.78945  1.0000
  S   S189      1.0  0.39424  0.58029  0.78661  1.0000
  S   S190      1.0  0.41757  0.52443  0.79778  1.0000
  Fe  Fe99      1.0  0.45174  0.59674  0.79004  1.0000
  C   C620      1.0  0.30760  0.32444  0.76074  1.0000
  Fe  Fe100     1.0  0.40897  0.60033  0.81823  1.0000
  Fe  Fe101     1.0  0.41126  0.59829  0.75543  1.0000
  S   S191      1.0  0.43798  0.57777  0.82344  1.0000
  S   S192      1.0  0.44073  0.57532  0.75603  1.0000
  Fe  Fe102     1.0  0.35300  0.43754  0.66722  1.0000
  S   S193      1.0  0.37885  0.41136  0.67329  1.0000
  S   S194      1.0  0.34413  0.44977  0.62446  1.0000
  Fe  Fe103     1.0  0.34586  0.44194  0.73007  1.0000
  S   S195      1.0  0.37043  0.41521  0.73872  1.0000
  Fe  Fe104     1.0  0.38981  0.43139  0.70836  1.0000
  S   S196      1.0  0.42175  0.44363  0.71866  1.0000
  Fe  Fe105     1.0  0.35582  0.39873  0.70301  1.0000
  S   S197      1.0  0.34925  0.36376  0.70145  1.0000
  S   S198      1.0  0.36549  0.45829  0.70005  1.0000
  H   H1052     1.0  0.42630  0.51274  0.70042  1.0000
  C   C621      1.0  0.32342  0.35571  0.69420  1.0000
  C   C622      1.0  0.32129  0.33491  0.68467  1.0000
  H   H1053     1.0  0.35423  0.57736  0.70953  1.0000
  C   C623      1.0  0.28262  0.34176  0.68226  1.0000
  C   C624      1.0  0.28475  0.36251  0.69195  1.0000
  C   C625      1.0  0.30502  0.36945  0.69795  1.0000
  H   H1054     1.0  0.39215  0.47401  0.49782  1.0000
  H   H1055     1.0  0.46736  0.50655  0.90205  1.0000
  H   H1056     1.0  0.27063  0.37331  0.69486  1.0000
  H   H1057     1.0  0.30634  0.38541  0.70560  1.0000
  C   C626      1.0  0.41794  0.50361  0.77329  1.0000
  C   C627      1.0  0.40157  0.48981  0.77353  1.0000
  C   C628      1.0  0.40233  0.47182  0.75624  1.0000
  C   C629      1.0  0.41991  0.46694  0.73929  1.0000
  C   C630      1.0  0.43644  0.48059  0.73931  1.0000
  C   C631      1.0  0.43532  0.49904  0.75592  1.0000
  H   H1058     1.0  0.38821  0.49294  0.78719  1.0000
  H   H1059     1.0  0.38953  0.46139  0.75665  1.0000
  H   H1060     1.0  0.45017  0.47687  0.72640  1.0000
  H   H1061     1.0  0.44828  0.50928  0.75599  1.0000
  C   C632      1.0  0.35283  0.42626  0.84898  1.0000
  C   C633      1.0  0.35546  0.44799  0.84663  1.0000
  C   C634      1.0  0.35058  0.45850  0.82174  1.0000
  C   C635      1.0  0.34356  0.44727  0.79890  1.0000
  C   C636      1.0  0.34168  0.42543  0.80107  1.0000
  C   C637      1.0  0.34605  0.41505  0.82606  1.0000
  H   H1062     1.0  0.36069  0.45677  0.86417  1.0000
  H   H1063     1.0  0.33604  0.41666  0.78374  1.0000
  H   H1064     1.0  0.34388  0.39830  0.82772  1.0000
  C   C638      1.0  0.37628  0.42033  0.54707  1.0000
  C   C639      1.0  0.38479  0.41530  0.57307  1.0000
  C   C640      1.0  0.37555  0.42475  0.59678  1.0000
  C   C641      1.0  0.35736  0.43903  0.59487  1.0000
  H   H1065     1.0  0.40268  0.52061  0.66202  1.0000
  C   C642      1.0  0.35853  0.43519  0.54500  1.0000
  H   H1066     1.0  0.39844  0.40376  0.57493  1.0000
  H   H1067     1.0  0.38234  0.42064  0.61655  1.0000
  H   H1068     1.0  0.42774  0.58951  0.69230  1.0000
  C   C643      1.0  0.38093  0.61091  0.66502  1.0000
  C   C644      1.0  0.38483  0.60642  0.63718  1.0000
  H   H1069     1.0  0.36578  0.61873  0.67121  1.0000
  H   H1070     1.0  0.37284  0.61082  0.62185  1.0000
  H   H1071     1.0  0.34750  0.55658  0.64316  1.0000
  H   H1072     1.0  0.42092  0.58729  0.88160  1.0000
  C   C645      1.0  0.41434  0.59286  0.92456  1.0000
  H   H1073     1.0  0.40415  0.38038  0.89053  1.0000
  C   C646      1.0  0.41068  0.59586  0.89631  1.0000
  C   C647      1.0  0.37616  0.53936  0.95058  1.0000
  S   S199      1.0  0.33629  0.46081  0.76821  1.0000
  H   H1074     1.0  0.42736  0.58188  0.93152  1.0000
  S   S200      1.0  0.38849  0.61495  0.85232  1.0000
  H   H1075     1.0  0.39118  0.54600  0.94686  1.0000
  C   C648      1.0  0.39372  0.60997  0.88729  1.0000
  H   H1076     1.0  0.47968  0.62158  0.88023  1.0000
  C   C649      1.0  0.46205  0.35198  0.92158  1.0000
  C   C650      1.0  0.45412  0.37347  0.92207  1.0000
  C   C651      1.0  0.46742  0.38928  0.91543  1.0000
  H   H1077     1.0  0.42580  0.47939  0.82180  1.0000
  H   H1078     1.0  0.46259  0.49199  0.80514  1.0000
  S   S201      1.0  0.33876  0.55693  0.50843  1.0000
  H   H1079     1.0  0.43763  0.37774  0.92719  1.0000
  C   C652      1.0  0.48039  0.46610  0.88938  1.0000
  H   H1080     1.0  0.36064  0.56984  0.74330  1.0000
  S   S202      1.0  0.32959  0.42453  0.69623  1.0000
  H   H1081     1.0  0.42295  0.45889  0.84707  1.0000
  H   H1082     1.0  0.45501  0.45666  0.86396  1.0000
  H   H1083     1.0  0.36778  0.63231  0.89980  1.0000
  H   H1084     1.0  0.30927  0.41496  0.64266  1.0000
  H   H1085     1.0  0.36355  0.49568  0.73713  1.0000
  H   H1086     1.0  0.42477  0.40351  0.86446  1.0000
  H   H1087     1.0  0.39759  0.55559  0.88235  1.0000
  C   C653      1.0  0.34907  0.44441  0.56882  1.0000
  H   H1088     1.0  0.47125  0.36755  0.83702  1.0000
  H   H1089     1.0  0.39083  0.54903  0.73233  1.0000
  C   C654      1.0  0.34996  0.57355  0.89519  1.0000
  H   H1090     1.0  0.36556  0.56986  0.66449  1.0000
  H   H1091     1.0  0.36154  0.52315  0.74505  1.0000
  H   H1092     1.0  0.36676  0.57167  0.90233  1.0000
  C   C655      1.0  0.36325  0.55473  0.65371  1.0000
  H   H1093     1.0  0.43469  0.58160  0.64312  1.0000
  H   H1094     1.0  0.37551  0.55207  0.63755  1.0000
  H   H1095     1.0  0.33490  0.45531  0.56709  1.0000
  H   H1096     1.0  0.34803  0.53645  0.68343  1.0000
  H   H1097     1.0  0.35218  0.47535  0.82014  1.0000
  C   C656      1.0  0.36381  0.53577  0.67350  1.0000
  H   H1098     1.0  0.34644  0.55238  0.72282  1.0000
  H   H1099     1.0  0.43446  0.35880  0.82701  1.0000
  C   C657      1.0  0.48339  0.34611  0.91477  1.0000
  H   H1100     1.0  0.42353  0.53995  0.71313  1.0000
  H   H1101     1.0  0.42217  0.52789  0.89539  1.0000
  N   N41       1.0  0.35095  0.54135  0.86129  1.0000
  C   C658      1.0  0.33982  0.52128  0.85653  1.0000
  C   C659      1.0  0.34568  0.55540  0.83692  1.0000
  C   C660      1.0  0.34173  0.55206  0.88678  1.0000
  C   C661      1.0  0.37452  0.53521  0.86462  1.0000
  C   C662      1.0  0.34080  0.50517  0.88015  1.0000
  C   C663      1.0  0.35412  0.54649  0.80920  1.0000
  H   H1102     1.0  0.32259  0.52517  0.85160  1.0000
  H   H1103     1.0  0.34665  0.51224  0.83857  1.0000
  H   H1104     1.0  0.32806  0.55876  0.83480  1.0000
  H   H1105     1.0  0.32402  0.55466  0.88492  1.0000
  H   H1106     1.0  0.34494  0.54175  0.90485  1.0000
  H   H1107     1.0  0.37781  0.52769  0.88486  1.0000
  H   H1108     1.0  0.37999  0.52260  0.84954  1.0000
  H   H1109     1.0  0.33404  0.49039  0.87287  1.0000
  H   H1110     1.0  0.35734  0.50053  0.88712  1.0000
  H   H1111     1.0  0.33080  0.51112  0.89762  1.0000
  H   H1112     1.0  0.35126  0.55902  0.79349  1.0000
  H   H1113     1.0  0.37153  0.54194  0.80980  1.0000
  H   H1114     1.0  0.34556  0.53278  0.80207  1.0000
  N   N42       1.0  0.32078  0.38010  0.60685  1.0000
  C   C664      1.0  0.34009  0.38264  0.62476  1.0000
  C   C665      1.0  0.31035  0.40195  0.60062  1.0000
  C   C666      1.0  0.32682  0.36894  0.58035  1.0000
  C   C667      1.0  0.30591  0.36692  0.62193  1.0000
  H   H1115     1.0  0.36314  0.35663  0.60990  1.0000
  C   C668      1.0  0.29868  0.41370  0.62464  1.0000
  C   C669      1.0  0.34311  0.37966  0.56289  1.0000
  C   C670      1.0  0.28476  0.36296  0.60722  1.0000
  H   H1116     1.0  0.34978  0.39509  0.61675  1.0000
  H   H1117     1.0  0.33517  0.38840  0.64554  1.0000
  H   H1118     1.0  0.29885  0.40156  0.58325  1.0000
  H   H1119     1.0  0.32239  0.41257  0.59353  1.0000
  H   H1120     1.0  0.33312  0.35217  0.58397  1.0000
  H   H1121     1.0  0.31247  0.36773  0.56712  1.0000
  H   H1122     1.0  0.31377  0.35087  0.62636  1.0000
  H   H1123     1.0  0.30216  0.37363  0.64254  1.0000
  H   H1124     1.0  0.31140  0.63655  0.63966  1.0000
  C   C671      1.0  0.36212  0.51168  0.72772  1.0000
  H   H1125     1.0  0.32782  0.51579  0.57323  1.0000
  H   H1126     1.0  0.28417  0.40605  0.63051  1.0000
  H   H1127     1.0  0.26777  0.34280  0.74154  1.0000
  H   H1128     1.0  0.29346  0.43021  0.61833  1.0000
  H   H1129     1.0  0.35839  0.38108  0.57387  1.0000
  H   H1130     1.0  0.33664  0.39556  0.55576  1.0000
  H   H1131     1.0  0.34682  0.36983  0.54431  1.0000
  H   H1132     1.0  0.45157  0.33983  0.92639  1.0000
  H   H1133     1.0  0.27867  0.37611  0.59377  1.0000
  H   H1134     1.0  0.27213  0.36149  0.62270  1.0000
  N   N43       1.0  0.38227  0.50538  0.55688  1.0000
  C   C672      1.0  0.39146  0.49832  0.52952  1.0000
  C   C673      1.0  0.38803  0.52784  0.56180  1.0000
  C   C674      1.0  0.35829  0.50492  0.55518  1.0000
  C   C675      1.0  0.39161  0.49004  0.57812  1.0000
  H   H1135     1.0  0.39336  0.36833  0.86129  1.0000
  C   C676      1.0  0.41210  0.53084  0.56328  1.0000
  C   C677      1.0  0.34472  0.51955  0.57495  1.0000
  C   C678      1.0  0.38605  0.49515  0.60821  1.0000
  H   H1136     1.0  0.38680  0.51039  0.51363  1.0000
  H   H1137     1.0  0.40921  0.49700  0.53010  1.0000
  H   H1138     1.0  0.38109  0.53483  0.58091  1.0000
  H   H1139     1.0  0.38094  0.53841  0.54533  1.0000
  H   H1140     1.0  0.35235  0.50969  0.53449  1.0000
  H   H1141     1.0  0.35360  0.48849  0.55807  1.0000
  H   H1142     1.0  0.38619  0.47393  0.57432  1.0000
  H   H1143     1.0  0.40928  0.48732  0.57642  1.0000
  C   C679      1.0  0.34001  0.54361  0.96808  1.0000
  H   H1144     1.0  0.41710  0.65248  0.83282  1.0000
  H   H1145     1.0  0.30242  0.33345  0.74208  1.0000
  H   H1146     1.0  0.41419  0.54761  0.56901  1.0000
  H   H1147     1.0  0.42048  0.52072  0.57906  1.0000
  H   H1148     1.0  0.41989  0.52815  0.54315  1.0000
  S   S203      1.0  0.25676  0.33394  0.67457  1.0000
  H   H1149     1.0  0.30496  0.64292  0.53814  1.0000
  H   H1150     1.0  0.39197  0.46326  0.53128  1.0000
  H   H1151     1.0  0.37073  0.48874  0.61371  1.0000
  H   H1152     1.0  0.38545  0.51225  0.61332  1.0000
  H   H1153     1.0  0.39885  0.48756  0.62154  1.0000
  H   H1154     1.0  0.42145  0.36313  0.87018  1.0000
  H   H1155     1.0  0.41565  0.48792  0.88255  1.0000
  C   C680      1.0  0.40779  0.37539  0.86918  1.0000
  C   C681      1.0  0.44742  0.63285  0.86447  1.0000
  H   H1156     1.0  0.34690  0.51283  0.71606  1.0000
  C   C682      1.0  0.38169  0.51394  0.70958  1.0000
  H   H1157     1.0  0.47608  0.50541  0.85688  1.0000
  C   C683      1.0  0.35421  0.50970  0.94890  1.0000
  C   C684      1.0  0.42332  0.52967  0.69465  1.0000
  C   C685      1.0  0.35939  0.55207  0.96268  1.0000
  H   H1158     1.0  0.48566  0.35678  0.49974  1.0000
  C   C686      1.0  0.40116  0.60404  0.94384  1.0000
  C   C687      1.0  0.40244  0.53339  0.67794  1.0000
  C   C688      1.0  0.38526  0.47666  0.51851  1.0000
  H   H1159     1.0  0.44438  0.53596  0.87558  1.0000
  H   H1160     1.0  0.45840  0.60596  0.89080  1.0000
  H   H1161     1.0  0.34955  0.51748  0.59656  1.0000
  C   C689      1.0  0.32378  0.63676  0.62364  1.0000
  S   S204      1.0  0.39042  0.61048  0.71972  1.0000
  N   N44       1.0  0.44850  0.49081  0.87175  1.0000
  C   C690      1.0  0.45034  0.50497  0.89664  1.0000
  C   C691      1.0  0.45679  0.46867  0.88020  1.0000
  C   C692      1.0  0.42515  0.49120  0.86426  1.0000
  C   C693      1.0  0.46103  0.49949  0.84881  1.0000
  C   C694      1.0  0.43976  0.52784  0.89434  1.0000
  H   H1162     1.0  0.30594  0.33680  0.77715  1.0000
  H   H1163     1.0  0.44722  0.34033  0.56585  1.0000
  H   H1164     1.0  0.47180  0.33302  0.54814  1.0000
  H   H1165     1.0  0.44325  0.49784  0.91490  1.0000
  H   H1166     1.0  0.46524  0.36860  0.53712  1.0000
  C   C695      1.0  0.25931  0.32920  0.74863  1.0000
  H   H1167     1.0  0.43280  0.62443  0.86072  1.0000
  H   H1168     1.0  0.46207  0.64855  0.79561  1.0000
  H   H1169     1.0  0.41898  0.50726  0.85712  1.0000
  H   H1170     1.0  0.45207  0.51379  0.83983  1.0000
  C   C696      1.0  0.46756  0.48423  0.82475  1.0000
  H   H1171     1.0  0.33914  0.62963  0.63165  1.0000
  H   H1172     1.0  0.40812  0.65115  0.88252  1.0000
  H   H1173     1.0  0.43007  0.63271  0.91482  1.0000
  H   H1174     1.0  0.39560  0.51185  0.72366  1.0000
  C   C697      1.0  0.41889  0.47573  0.84170  1.0000
  Fe  Fe106     1.0  0.39042  0.42972  0.97388  1.0000
  H   H1175     1.0  0.38331  0.50003  0.69532  1.0000
  H   H1176     1.0  0.40969  0.35259  0.52088  1.0000
  H   H1177     1.0  0.33442  0.64702  0.67379  1.0000
  C   C698      1.0  0.48880  0.38343  0.90868  1.0000
  C   C699      1.0  0.35538  0.36247  0.62908  1.0000
  S   S205      1.0  0.41772  0.44893  0.96344  1.0000
  N   N45       1.0  0.41952  0.39100  0.82358  1.0000
  C   C700      1.0  0.43878  0.37509  0.82215  1.0000
  C   C701      1.0  0.40142  0.38220  0.80796  1.0000
  C   C702      1.0  0.41267  0.39513  0.85275  1.0000
  C   C703      1.0  0.42525  0.41165  0.81148  1.0000
  H   H1178     1.0  0.28656  0.34804  0.59491  1.0000
  C   C704      1.0  0.40524  0.37823  0.77713  1.0000
  H   H1179     1.0  0.38943  0.56623  0.70393  1.0000
  C   C705      1.0  0.40648  0.42861  0.80656  1.0000
  C   C706      1.0  0.38143  0.55319  0.71342  1.0000
  H   H1180     1.0  0.44510  0.37386  0.80096  1.0000
  H   H1181     1.0  0.38636  0.39266  0.81037  1.0000
  H   H1182     1.0  0.39781  0.36661  0.81636  1.0000
  N   N46       1.0  0.38194  0.53439  0.69400  1.0000
  H   H1183     1.0  0.39792  0.40608  0.85348  1.0000
  H   H1184     1.0  0.43679  0.41928  0.82496  1.0000
  H   H1185     1.0  0.43360  0.40888  0.79162  1.0000
  H   H1186     1.0  0.38838  0.64960  0.60105  1.0000
  H   H1187     1.0  0.46068  0.46874  0.82471  1.0000
  H   H1188     1.0  0.34500  0.53651  0.56913  1.0000
  H   H1189     1.0  0.36777  0.47611  0.51613  1.0000
  H   H1190     1.0  0.41785  0.36518  0.77348  1.0000
  H   H1191     1.0  0.39035  0.37319  0.76759  1.0000
  H   H1192     1.0  0.36266  0.64549  0.58762  1.0000
  H   H1193     1.0  0.46754  0.39872  0.51510  1.0000
  H   H1194     1.0  0.36436  0.52101  0.66072  1.0000
  H   H1195     1.0  0.39516  0.42362  0.79077  1.0000
  H   H1196     1.0  0.41292  0.44321  0.79877  1.0000
  H   H1197     1.0  0.39763  0.43306  0.82549  1.0000
  C   C707      1.0  0.38074  0.62116  0.90657  1.0000
  S   S206      1.0  0.35304  0.60524  0.55694  1.0000
  H   H1198     1.0  0.35146  0.57137  0.83930  1.0000
  Fe  Fe107     1.0  0.35650  0.58579  0.51803  1.0000
  H   H1199     1.0  0.34064  0.57997  0.91308  1.0000
  H   H1200     1.0  0.40261  0.54838  0.84745  1.0000
  H   H1201     1.0  0.34787  0.58583  0.87918  1.0000
  S   S207      1.0  0.39194  0.58011  0.52172  1.0000
  S   S208      1.0  0.40976  0.58995  0.59453  1.0000
  S   S209      1.0  0.42337  0.62061  0.78703  1.0000
  C   C708      1.0  0.38455  0.61837  0.93464  1.0000
  H   H1202     1.0  0.40927  0.39266  0.76625  1.0000
  C   C709      1.0  0.40427  0.59599  0.62918  1.0000
  C   C710      1.0  0.39641  0.60499  0.68502  1.0000
  C   C711      1.0  0.37382  0.51798  0.94450  1.0000
  Fe  Fe108     1.0  0.38889  0.60147  0.55850  1.0000
  C   C712      1.0  0.38979  0.55307  0.86230  1.0000
  C   C713      1.0  0.41963  0.58976  0.64922  1.0000
  C   C714      1.0  0.41575  0.59425  0.67706  1.0000
  H   H1203     1.0  0.44640  0.32535  0.53556  1.0000
  H   H1204     1.0  0.46821  0.60419  0.85667  1.0000
  S   S210      1.0  0.32018  0.55841  0.98691  1.0000
  S   S211      1.0  0.39311  0.63039  0.53327  1.0000
  H   H1205     1.0  0.35158  0.43893  0.52513  1.0000
  H   H1206     1.0  0.46376  0.39547  0.83636  1.0000
  S   S212      1.0  0.34484  0.61282  0.98407  1.0000
  H   H1207     1.0  0.35210  0.49337  0.94365  1.0000
  Fe  Fe109     1.0  0.35719  0.63303  0.52929  1.0000
  C   C715      1.0  0.35923  0.56330  0.72227  1.0000
  H   H1208     1.0  0.34743  0.34951  0.63877  1.0000
  H   H1209     1.0  0.40381  0.54849  0.66674  1.0000
  S   S213      1.0  0.40606  0.60070  0.97925  1.0000
  N   N47       1.0  0.44260  0.65174  0.88330  1.0000
  H   H1210     1.0  0.44714  0.46319  0.89739  1.0000
  H   H1211     1.0  0.40128  0.47767  0.83885  1.0000
  H   H1212     1.0  0.48265  0.47349  0.90975  1.0000
  H   H1213     1.0  0.44467  0.53739  0.91215  1.0000
  H   H1214     1.0  0.45227  0.63810  0.84400  1.0000
  H   H1215     1.0  0.36838  0.36644  0.64328  1.0000
  C   C716      1.0  0.47804  0.65013  0.80329  1.0000
  C   C717      1.0  0.46448  0.61540  0.87396  1.0000
  H   H1216     1.0  0.48521  0.48123  0.82395  1.0000
  H   H1217     1.0  0.43754  0.36906  0.53859  1.0000
  S   S214      1.0  0.48563  0.60631  0.79597  1.0000
  N   N48       1.0  0.45098  0.35865  0.49927  1.0000
  C   C718      1.0  0.30103  0.32799  0.67857  1.0000
  H   H1218     1.0  0.36163  0.56837  0.96811  1.0000
  H   H1219     1.0  0.31960  0.62599  0.60667  1.0000
  H   H1220     1.0  0.43126  0.38874  0.49929  1.0000
  C   C719      1.0  0.45461  0.33825  0.54534  1.0000
  H   H1221     1.0  0.45737  0.63592  0.91906  1.0000
  C   C720      1.0  0.44210  0.64451  0.91258  1.0000
  H   H1222     1.0  0.34069  0.33188  0.76248  1.0000
  C   C721      1.0  0.46337  0.39652  0.49329  1.0000
  H   H1223     1.0  0.36467  0.64941  0.63902  1.0000
  Fe  Fe110     1.0  0.39261  0.60926  0.49601  1.0000
  H   H1224     1.0  0.27199  0.32857  0.78929  1.0000
  H   H1225     1.0  0.24351  0.33588  0.75616  1.0000
  C   C722      1.0  0.41093  0.35222  0.49829  1.0000
  H   H1226     1.0  0.33541  0.32413  0.68171  1.0000
  H   H1227     1.0  0.43688  0.32843  0.49375  1.0000
  H   H1228     1.0  0.48545  0.44889  0.89157  1.0000
  H   H1229     1.0  0.47823  0.32628  0.97100  1.0000
  H   H1230     1.0  0.48343  0.65348  0.90673  1.0000
  H   H1231     1.0  0.24311  0.84476  0.19587  1.0000
  S   S215      1.0  0.40692  0.92620  0.05276  1.0000
  H   H1232     1.0  0.47962  0.67643  0.41291  1.0000
  H   H1233     1.0  0.27237  0.83009  0.16289  1.0000
  S   S216      1.0  0.41062  0.87511  0.04446  1.0000
  C   C723      1.0  0.48919  0.66327  0.40228  1.0000
  C   C724      1.0  0.37102  0.97818  0.02446  1.0000
  Fe  Fe111     1.0  0.41159  0.89792  0.07974  1.0000
  S   S217      1.0  0.38927  0.89445  0.11494  1.0000
  H   H1234     1.0  0.43050  0.95734  0.16828  1.0000
  S   S218      1.0  0.45357  0.95741  0.05329  1.0000
  Fe  Fe112     1.0  0.38363  0.92972  0.32899  1.0000
  S   S219      1.0  0.34893  0.94098  0.32813  1.0000
  S   S220      1.0  0.40579  0.93134  0.36535  1.0000
  Fe  Fe113     1.0  0.38637  0.92681  0.26695  1.0000
  S   S221      1.0  0.35175  0.93793  0.26098  1.0000
  S   S222      1.0  0.41232  0.92330  0.23503  1.0000
  Fe  Fe114     1.0  0.35731  0.96198  0.29373  1.0000
  H   H1235     1.0  0.33756  0.97699  0.06132  1.0000
  Fe  Fe115     1.0  0.34590  0.91577  0.29575  1.0000
  S   S223      1.0  0.31439  0.90025  0.29494  1.0000
  S   S224      1.0  0.39209  0.95269  0.29709  1.0000
  S   S225      1.0  0.38047  0.90271  0.29921  1.0000
  H   H1236     1.0  0.26294  0.81634  0.42887  1.0000
  S   S226      1.0  0.28660  0.80828  0.32353  1.0000
  H   H1237     1.0  0.28524  0.85813  0.44428  1.0000
  H   H1238     1.0  0.24785  0.87024  0.45930  1.0000
  C   C725      1.0  0.47616  0.83577  0.48478  1.0000
  C   C726      1.0  0.25922  0.66715  0.03919  1.0000
  H   H1239     1.0  0.29672  0.83655  0.25824  1.0000
  N   N49       1.0  0.44207  0.83482  0.12919  1.0000
  H   H1240     1.0  0.28924  0.67770  0.08466  1.0000
  H   H1241     1.0  0.25174  0.86505  0.24400  1.0000
  C   C727      1.0  0.29955  0.86735  0.38136  1.0000
  H   H1242     1.0  0.30651  0.80412  0.24200  1.0000
  H   H1243     1.0  0.24256  0.81784  0.24975  1.0000
  H   H1244     1.0  0.35866  0.98122  0.34958  1.0000
  C   C728      1.0  0.28709  0.80162  0.40280  1.0000
  H   H1245     1.0  0.45039  0.77846  0.45723  1.0000
  H   H1246     1.0  0.28937  0.82080  0.43906  1.0000
  H   H1247     1.0  0.36851  0.66231  0.09758  1.0000
  C   C729      1.0  0.27856  0.82057  0.42088  1.0000
  C   C730      1.0  0.46547  0.83766  0.13392  1.0000
  H   H1248     1.0  0.37064  0.97958  0.44765  1.0000
  H   H1249     1.0  0.30088  0.83377  0.37723  1.0000
  H   H1250     1.0  0.45291  0.84893  0.45599  1.0000
  H   H1251     1.0  0.34161  0.96163  0.01778  1.0000
  H   H1252     1.0  0.44306  0.84874  0.08904  1.0000
  H   H1253     1.0  0.30452  0.80169  0.39946  1.0000
  C   C731      1.0  0.45093  0.65995  0.36435  1.0000
  H   H1254     1.0  0.38717  0.97643  0.01517  1.0000
  H   H1255     1.0  0.27021  0.87486  0.42163  1.0000
  H   H1256     1.0  0.39323  0.95586  0.16651  1.0000
  C   C732      1.0  0.29525  0.67487  0.02759  1.0000
  C   C733      1.0  0.28904  0.69664  0.03045  1.0000
  C   C734      1.0  0.26811  0.70364  0.03798  1.0000
  H   H1257     1.0  0.43353  0.66379  0.36107  1.0000
  H   H1258     1.0  0.25629  0.87772  0.38189  1.0000
  S   S227      1.0  0.44731  0.89755  0.08128  1.0000
  H   H1259     1.0  0.31059  0.84268  0.40929  1.0000
  H   H1260     1.0  0.41041  0.81570  0.17232  1.0000
  H   H1261     1.0  0.30962  0.70784  0.09172  1.0000
  H   H1262     1.0  0.34882  0.96420  0.43610  1.0000
  C   C735      1.0  0.30743  0.87475  0.30447  1.0000
  C   C736      1.0  0.28568  0.87119  0.30508  1.0000
  C   C737      1.0  0.27915  0.85104  0.31131  1.0000
  C   C738      1.0  0.29430  0.83410  0.31680  1.0000
  C   C739      1.0  0.31608  0.83767  0.31654  1.0000
  C   C740      1.0  0.32265  0.85793  0.31047  1.0000
  H   H1263     1.0  0.27380  0.88409  0.30042  1.0000
  H   H1264     1.0  0.26240  0.84861  0.31141  1.0000
  H   H1265     1.0  0.32794  0.82466  0.32075  1.0000
  H   H1266     1.0  0.33944  0.86045  0.30996  1.0000
  H   H1267     1.0  0.39879  0.96683  0.21643  1.0000
  H   H1268     1.0  0.44738  0.94405  0.37076  1.0000
  C   C741      1.0  0.29924  0.68721  0.45918  1.0000
  C   C742      1.0  0.35455  0.65533  0.10657  1.0000
  H   H1269     1.0  0.43549  0.93581  0.48421  1.0000
  C   C743      1.0  0.24634  0.71631  0.48477  1.0000
  C   C744      1.0  0.39551  0.90401  0.14767  1.0000
  C   C745      1.0  0.38016  0.90407  0.16830  1.0000
  C   C746      1.0  0.38502  0.91033  0.19511  1.0000
  C   C747      1.0  0.40542  0.91615  0.20149  1.0000
  C   C748      1.0  0.42077  0.91620  0.18084  1.0000
  C   C749      1.0  0.41574  0.91048  0.15386  1.0000
  H   H1270     1.0  0.36449  0.89906  0.16360  1.0000
  H   H1271     1.0  0.37312  0.91021  0.21093  1.0000
  H   H1272     1.0  0.43665  0.92050  0.18581  1.0000
  H   H1273     1.0  0.42767  0.91045  0.13809  1.0000
  C   C750      1.0  0.39396  0.89834  0.44606  1.0000
  C   C751      1.0  0.41255  0.90849  0.44214  1.0000
  C   C752      1.0  0.41594  0.91855  0.41729  1.0000
  C   C753      1.0  0.40087  0.91831  0.39603  1.0000
  C   C754      1.0  0.38232  0.90794  0.39973  1.0000
  C   C755      1.0  0.37889  0.89795  0.42474  1.0000
  H   H1274     1.0  0.42440  0.90845  0.45824  1.0000
  H   H1275     1.0  0.43033  0.92650  0.41458  1.0000
  H   H1276     1.0  0.37063  0.90765  0.38340  1.0000
  H   H1277     1.0  0.36451  0.89001  0.42764  1.0000
  C   C756      1.0  0.38487  0.97258  0.20376  1.0000
  H   H1278     1.0  0.28143  0.67684  0.11925  1.0000
  H   H1279     1.0  0.27882  0.80139  0.38278  1.0000
  C   C757      1.0  0.44591  0.80243  0.49021  1.0000
  C   C758      1.0  0.44116  0.97212  0.02629  1.0000
  H   H1280     1.0  0.24568  0.83254  0.39336  1.0000
  H   H1281     1.0  0.46926  0.66206  0.45074  1.0000
  H   H1282     1.0  0.37396  0.97567  0.04663  1.0000
  H   H1283     1.0  0.36948  0.95986  0.39005  1.0000
  S   S228      1.0  0.32206  0.66698  0.01977  1.0000
  C   C759      1.0  0.35898  0.95938  0.01391  1.0000
  C   C760      1.0  0.41591  0.83024  0.08861  1.0000
  H   H1284     1.0  0.48641  0.66520  0.24204  1.0000
  H   H1285     1.0  0.29677  0.68408  0.43711  1.0000
  C   C761      1.0  0.45851  0.95666  0.37326  1.0000
  H   H1286     1.0  0.47888  0.80417  0.13819  1.0000
  C   C762      1.0  0.41295  0.81283  0.15010  1.0000
  C   C763      1.0  0.41500  0.96693  0.11797  1.0000
  H   H1287     1.0  0.45181  0.92481  0.33336  1.0000
  Fe  Fe116     1.0  0.44247  0.92435  0.05090  1.0000
  S   S229      1.0  0.38945  0.88588  0.47730  1.0000
  H   H1288     1.0  0.41369  0.95888  0.45227  1.0000
  H   H1289     1.0  0.45106  0.96024  0.41639  1.0000
  C   C764      1.0  0.42876  0.97427  0.17494  1.0000
  C   C765      1.0  0.43665  0.81456  0.14267  1.0000
  H   H1290     1.0  0.46459  0.77190  0.48821  1.0000
  H   H1291     1.0  0.39955  0.84232  0.44906  1.0000
  H   H1292     1.0  0.32637  0.98473  0.41173  1.0000
  C   C766      1.0  0.41281  0.83540  0.43606  1.0000
  H   H1293     1.0  0.26294  0.79183  0.22052  1.0000
  C   C767      1.0  0.46991  0.95283  0.32561  1.0000
  H   H1294     1.0  0.37558  0.95268  0.43708  1.0000
  H   H1295     1.0  0.43205  0.94460  0.00432  1.0000
  H   H1296     1.0  0.44656  0.86691  0.17579  1.0000
  H   H1297     1.0  0.46539  0.82390  0.44622  1.0000
  Fe  Fe117     1.0  0.40928  0.90353  0.01727  1.0000
  H   H1298     1.0  0.43567  0.80821  0.43419  1.0000
  H   H1299     1.0  0.31034  0.69980  0.46200  1.0000
  N   N50       1.0  0.27625  0.84206  0.40721  1.0000
  H   H1300     1.0  0.30744  0.67248  0.46797  1.0000
  C   C768      1.0  0.25829  0.82173  0.16861  1.0000
  H   H1301     1.0  0.42262  0.85321  0.48356  1.0000
  C   C769      1.0  0.44938  0.98462  0.16773  1.0000
  Fe  Fe118     1.0  0.44634  0.87625  0.04401  1.0000
  H   H1302     1.0  0.42883  0.97324  0.19761  1.0000
  H   H1303     1.0  0.33235  0.96981  0.38170  1.0000
  H   H1304     1.0  0.42702  0.96601  0.33853  1.0000
  H   H1305     1.0  0.26460  0.83350  0.36710  1.0000
  H   H1306     1.0  0.26360  0.72044  0.04020  1.0000
  C   C770      1.0  0.28313  0.84087  0.21567  1.0000
  H   H1307     1.0  0.32928  0.66797  0.17963  1.0000
  C   C771      1.0  0.27163  0.85844  0.42949  1.0000
  H   H1308     1.0  0.28402  0.71289  0.10676  1.0000
  H   H1309     1.0  0.41125  0.81437  0.09444  1.0000
  H   H1310     1.0  0.36533  0.94457  0.02430  1.0000
  H   H1311     1.0  0.43413  0.86886  0.12979  1.0000
  H   H1312     1.0  0.28482  0.79920  0.20096  1.0000
  H   H1313     1.0  0.37496  0.97839  0.16210  1.0000
  H   H1314     1.0  0.29073  0.86374  0.24768  1.0000
  H   H1315     1.0  0.41824  0.86878  0.17895  1.0000
  C   C772      1.0  0.29946  0.70303  0.10867  1.0000
  C   C773      1.0  0.25314  0.68894  0.04249  1.0000
  H   H1316     1.0  0.27638  0.74059  0.99353  1.0000
  H   H1317     1.0  0.36165  0.95676  0.99166  1.0000
  C   C774      1.0  0.43790  0.95248  0.48309  1.0000
  C   C775      1.0  0.25011  0.82802  0.19747  1.0000
  H   H1318     1.0  0.41408  0.80487  0.45581  1.0000
  C   C776      1.0  0.39001  0.97279  0.17293  1.0000
  H   H1319     1.0  0.31317  0.84838  0.23458  1.0000
  H   H1320     1.0  0.43222  0.96203  0.12103  1.0000
  H   H1321     1.0  0.28448  0.78652  0.41327  1.0000
  H   H1322     1.0  0.45937  0.98402  0.40222  1.0000
  H   H1323     1.0  0.30732  0.68582  0.16752  1.0000
  H   H1324     1.0  0.42302  0.84812  0.43038  1.0000
  H   H1325     1.0  0.29627  0.77878  0.24110  1.0000
  C   C777      1.0  0.29632  0.84742  0.24073  1.0000
  C   C778      1.0  0.47525  0.98599  0.35029  1.0000
  C   C779      1.0  0.29733  0.84545  0.39412  1.0000
  H   H1326     1.0  0.48821  0.80349  0.03276  1.0000
  C   C780      1.0  0.45003  0.97027  0.39781  1.0000
  H   H1327     1.0  0.40543  0.95360  0.12325  1.0000
  C   C781      1.0  0.43894  0.97807  0.33819  1.0000
  H   H1328     1.0  0.39591  0.98395  0.36095  1.0000
  C   C782      1.0  0.25428  0.82993  0.24683  1.0000
  N   N51       1.0  0.26440  0.71182  0.46491  1.0000
  H   H1329     1.0  0.30055  0.70815  0.02713  1.0000
  H   H1330     1.0  0.44044  0.94192  0.30666  1.0000
  H   H1331     1.0  0.25338  0.84210  0.45996  1.0000
  C   C783      1.0  0.45552  0.93536  0.31638  1.0000
  C   C784      1.0  0.31517  0.65769  0.14154  1.0000
  H   H1332     1.0  0.33767  0.68597  0.10898  1.0000
  C   C785      1.0  0.28025  0.66010  0.03182  1.0000
  H   H1333     1.0  0.40894  0.79625  0.14625  1.0000
  N   N52       1.0  0.40816  0.98554  0.16478  1.0000
  H   H1334     1.0  0.29775  0.88056  0.39644  1.0000
  H   H1335     1.0  0.41579  0.83040  0.06589  1.0000
  C   C786      1.0  0.33428  0.67021  0.10075  1.0000
  H   H1336     1.0  0.26910  0.67789  0.47224  1.0000
  H   H1337     1.0  0.40544  0.82970  0.41694  1.0000
  C   C787      1.0  0.36990  0.97434  0.40325  1.0000
  H   H1338     1.0  0.41274  0.96988  0.09572  1.0000
  H   H1339     1.0  0.28850  0.87033  0.36385  1.0000
  H   H1340     1.0  0.26949  0.70581  0.42169  1.0000
  N   N53       1.0  0.46064  0.96838  0.34684  1.0000
  H   H1341     1.0  0.31587  0.86749  0.37287  1.0000
  C   C788      1.0  0.24184  0.85199  0.24923  1.0000
  H   H1342     1.0  0.46295  0.97218  0.16690  1.0000
  H   H1343     1.0  0.46407  0.92511  0.30072  1.0000
  H   H1344     1.0  0.28940  0.72922  0.44773  1.0000
  C   C789      1.0  0.25128  0.85596  0.44611  1.0000
  H   H1345     1.0  0.40386  0.84303  0.09531  1.0000
  H   H1346     1.0  0.24544  0.82613  0.15344  1.0000
  H   H1347     1.0  0.29459  0.83433  0.19988  1.0000
  N   N54       1.0  0.26629  0.82563  0.22050  1.0000
  H   H1348     1.0  0.47023  0.85181  0.12267  1.0000
  H   H1349     1.0  0.45868  0.67502  0.36282  1.0000
  S   S230      1.0  0.24330  0.79227  0.00740  1.0000
  C   C790      1.0  0.27717  0.73097  0.46408  1.0000
  C   C791      1.0  0.48137  0.81854  0.12618  1.0000
  H   H1350     1.0  0.48109  0.81460  0.10412  1.0000
  C   C792      1.0  0.29158  0.79607  0.24334  1.0000
  H   H1351     1.0  0.24504  0.86360  0.35474  1.0000
  H   H1352     1.0  0.47393  0.94800  0.37941  1.0000
  C   C793      1.0  0.43859  0.83383  0.09866  1.0000
  H   H1353     1.0  0.26480  0.82819  0.26501  1.0000
  H   H1354     1.0  0.47980  0.67806  0.31293  1.0000
  C   C794      1.0  0.43214  0.85838  0.17147  1.0000
  H   H1355     1.0  0.30662  0.70702  0.12855  1.0000
  H   H1356     1.0  0.24767  0.65568  0.04247  1.0000
  H   H1357     1.0  0.44577  0.81235  0.16222  1.0000
  H   H1358     1.0  0.28444  0.79819  0.26390  1.0000
  C   C795      1.0  0.27584  0.80287  0.22014  1.0000
  H   H1359     1.0  0.46881  0.84086  0.15585  1.0000
  H   H1360     1.0  0.47456  0.96124  0.30696  1.0000
  H   H1361     1.0  0.27561  0.85603  0.20708  1.0000
  C   C796      1.0  0.43202  0.96161  0.00445  1.0000
  C   C797      1.0  0.29526  0.67938  0.10594  1.0000
  H   H1362     1.0  0.43291  0.84367  0.18366  1.0000
  H   H1363     1.0  0.37239  0.96145  0.20717  1.0000
  S   S231      1.0  0.24338  0.75558  0.07106  1.0000
  H   H1364     1.0  0.33364  0.68516  0.15268  1.0000
  H   H1365     1.0  0.41227  0.85439  0.13619  1.0000
  H   H1366     1.0  0.44901  0.82079  0.08912  1.0000
  C   C798      1.0  0.33283  0.98603  0.39086  1.0000
  H   H1367     1.0  0.48495  0.94430  0.33329  1.0000
  C   C799      1.0  0.42557  0.81655  0.45023  1.0000
  C   C800      1.0  0.42559  0.96558  0.46505  1.0000
  C   C801      1.0  0.45802  0.83281  0.46397  1.0000
  H   H1368     1.0  0.26679  0.74543  0.45859  1.0000
  N   N55       1.0  0.31370  0.66296  0.11157  1.0000
  C   C802      1.0  0.32156  0.67538  0.16113  1.0000
  C   C803      1.0  0.25866  0.84192  0.38596  1.0000
  S   S232      1.0  0.46414  0.84387  0.03658  1.0000
  C   C804      1.0  0.24756  0.86369  0.37723  1.0000
  H   H1369     1.0  0.44231  0.97748  0.29303  1.0000
  H   H1370     1.0  0.24872  0.69221  0.43553  1.0000
  Fe  Fe119     1.0  0.25166  0.80127  0.32529  1.0000
  C   C805      1.0  0.36554  0.96765  0.43270  1.0000
  H   H1371     1.0  0.44687  0.66103  0.40777  1.0000
  H   H1372     1.0  0.33304  0.67251  0.07820  1.0000
  C   C806      1.0  0.42958  0.85439  0.14044  1.0000
  H   H1373     1.0  0.48848  0.84471  0.47497  1.0000
  S   S233      1.0  0.44486  0.90302  0.01365  1.0000
  N   N56       1.0  0.43904  0.82226  0.47445  1.0000
  C   C807      1.0  0.27797  0.69235  0.47431  1.0000
  H   H1374     1.0  0.44194  0.80057  0.12960  1.0000
  H   H1375     1.0  0.26188  0.80429  0.16644  1.0000
  H   H1376     1.0  0.40116  0.82319  0.13845  1.0000
  H   H1377     1.0  0.29768  0.75055  0.48753  1.0000
  C   C808      1.0  0.45961  0.78519  0.47418  1.0000
  C   C809      1.0  0.48859  0.83433  0.05198  1.0000
  H   H1378     1.0  0.47437  0.79108  0.46604  1.0000
  C   C810      1.0  0.25613  0.70761  0.43651  1.0000
  H   H1379     1.0  0.38682  0.97820  0.40360  1.0000
  H   H1380     1.0  0.43293  0.97578  0.39504  1.0000
  H   H1381     1.0  0.24692  0.74021  0.42175  1.0000
  C   C811      1.0  0.42851  0.98725  0.46366  1.0000
  C   C812      1.0  0.28838  0.73664  0.49104  1.0000
  C   C813      1.0  0.27240  0.68787  0.55219  1.0000
  S   S234      1.0  0.41270  0.92386  0.53267  1.0000
  H   H1382     1.0  0.35183  0.83399  0.84919  1.0000
  C   C814      1.0  0.48532  0.82061  0.63145  1.0000
  S   S235      1.0  0.41000  0.87514  0.55174  1.0000
  C   C815      1.0  0.36151  0.85422  0.88364  1.0000
  H   H1383     1.0  0.39391  0.84345  0.50783  1.0000
  Fe  Fe120     1.0  0.41380  0.90648  0.57240  1.0000
  S   S236      1.0  0.39254  0.92266  0.60482  1.0000
  H   H1384     1.0  0.25238  0.85059  0.69695  1.0000
  C   C816      1.0  0.45666  0.98249  0.49793  1.0000
  Fe  Fe121     1.0  0.38752  0.90710  0.82551  1.0000
  S   S237      1.0  0.35823  0.92959  0.82890  1.0000
  S   S238      1.0  0.40663  0.89157  0.86031  1.0000
  Fe  Fe122     1.0  0.38776  0.90975  0.76298  1.0000
  S   S239      1.0  0.35812  0.93235  0.76148  1.0000
  S   S240      1.0  0.41003  0.89847  0.72881  1.0000
  Fe  Fe123     1.0  0.37309  0.94893  0.79682  1.0000
  H   H1385     1.0  0.29237  0.80326  0.75198  1.0000
  Fe  Fe124     1.0  0.34595  0.91070  0.79363  1.0000
  S   S241      1.0  0.31204  0.90069  0.79597  1.0000
  S   S242      1.0  0.40336  0.92757  0.79629  1.0000
  S   S243      1.0  0.37454  0.88701  0.79225  1.0000
  C   C817      1.0  0.33802  0.88463  0.86869  1.0000
  S   S244      1.0  0.28598  0.80817  0.82586  1.0000
  H   H1386     1.0  0.30417  0.70086  0.60593  1.0000
  C   C818      1.0  0.24280  0.71913  0.92699  1.0000
  H   H1387     1.0  0.43181  0.97172  0.65578  1.0000
  H   H1388     1.0  0.44756  0.97587  0.60123  1.0000
  C   C819      1.0  0.33948  0.66308  0.67782  1.0000
  H   H1389     1.0  0.47055  0.84518  0.50285  1.0000
  H   H1390     1.0  0.37992  0.83428  0.85444  1.0000
  C   C820      1.0  0.42261  0.97307  0.98253  1.0000
  H   H1391     1.0  0.40959  0.82290  0.52629  1.0000
  H   H1392     1.0  0.33747  0.87854  0.84737  1.0000
  H   H1393     1.0  0.36453  0.84091  0.89819  1.0000
  H   H1394     1.0  0.32217  0.83536  0.92313  1.0000
  H   H1395     1.0  0.26527  0.81265  0.67504  1.0000
  H   H1396     1.0  0.35218  0.89406  0.86971  1.0000
  H   H1397     1.0  0.31880  0.91346  0.85709  1.0000
  H   H1398     1.0  0.35256  0.70351  0.61677  1.0000
  S   S245      1.0  0.38486  0.91244  0.98419  1.0000
  H   H1399     1.0  0.37332  0.67117  0.58472  1.0000
  C   C821      1.0  0.33930  0.69390  0.61018  1.0000
  H   H1400     1.0  0.37101  0.86533  0.93605  1.0000
  C   C822      1.0  0.40230  0.97127  0.89717  1.0000
  Fe  Fe125     1.0  0.41222  0.89224  0.51199  1.0000
  H   H1401     1.0  0.30652  0.86236  0.89034  1.0000
  C   C823      1.0  0.36456  0.84436  0.85482  1.0000
  C   C824      1.0  0.32183  0.85329  0.88477  1.0000
  H   H1402     1.0  0.30317  0.89257  0.86636  1.0000
  C   C825      1.0  0.34004  0.87637  0.91748  1.0000
  H   H1403     1.0  0.28549  0.86673  0.70292  1.0000
  C   C826      1.0  0.31530  0.67454  0.54029  1.0000
  C   C827      1.0  0.30891  0.69611  0.54487  1.0000
  C   C828      1.0  0.28756  0.70277  0.55094  1.0000
  C   C829      1.0  0.36258  0.66381  0.62633  1.0000
  C   C830      1.0  0.27876  0.66629  0.54746  1.0000
  H   H1404     1.0  0.47805  0.82420  0.65174  1.0000
  H   H1405     1.0  0.32057  0.70774  0.54391  1.0000
  H   H1406     1.0  0.28285  0.71942  0.55453  1.0000
  N   N57       1.0  0.34037  0.86668  0.88897  1.0000
  H   H1407     1.0  0.29139  0.84749  0.76064  1.0000
  C   C831      1.0  0.30550  0.87487  0.80493  1.0000
  C   C832      1.0  0.32029  0.85704  0.80324  1.0000
  C   C833      1.0  0.31413  0.83672  0.80977  1.0000
  C   C834      1.0  0.29321  0.83403  0.81821  1.0000
  C   C835      1.0  0.27854  0.85190  0.82013  1.0000
  C   C836      1.0  0.28463  0.87215  0.81339  1.0000
  H   H1408     1.0  0.33635  0.85884  0.79646  1.0000
  H   H1409     1.0  0.32559  0.82299  0.80810  1.0000
  H   H1410     1.0  0.26247  0.85017  0.82687  1.0000
  H   H1411     1.0  0.27308  0.88583  0.81481  1.0000
  S   S246      1.0  0.34251  0.66705  0.53417  1.0000
  H   H1412     1.0  0.48083  0.80512  0.62370  1.0000
  H   H1413     1.0  0.41394  0.95333  0.74412  1.0000
  H   H1414     1.0  0.41135  0.98616  0.84685  1.0000
  H   H1415     1.0  0.31502  0.68209  0.65589  1.0000
  H   H1416     1.0  0.28177  0.69347  0.49641  1.0000
  C   C837      1.0  0.39668  0.91461  0.63896  1.0000
  C   C838      1.0  0.41464  0.90133  0.64650  1.0000
  C   C839      1.0  0.41829  0.89618  0.67411  1.0000
  C   C840      1.0  0.40389  0.90402  0.69428  1.0000
  C   C841      1.0  0.38572  0.91701  0.68670  1.0000
  C   C842      1.0  0.38222  0.92240  0.65910  1.0000
  H   H1417     1.0  0.42587  0.89527  0.63112  1.0000
  H   H1418     1.0  0.43238  0.88616  0.67990  1.0000
  H   H1419     1.0  0.37452  0.92305  0.70210  1.0000
  H   H1420     1.0  0.36827  0.93265  0.65334  1.0000
  C   C843      1.0  0.39175  0.90727  0.94992  1.0000
  C   C844      1.0  0.37953  0.91769  0.92915  1.0000
  C   C845      1.0  0.38414  0.91327  0.90154  1.0000
  C   C846      1.0  0.40082  0.89818  0.89461  1.0000
  C   C847      1.0  0.41312  0.88790  0.91538  1.0000
  C   C848      1.0  0.40871  0.89254  0.94300  1.0000
  H   H1421     1.0  0.36642  0.92916  0.93447  1.0000
  H   H1422     1.0  0.37474  0.92146  0.88568  1.0000
  H   H1423     1.0  0.42609  0.87624  0.91012  1.0000
  H   H1424     1.0  0.41818  0.88442  0.95892  1.0000
  H   H1425     1.0  0.32003  0.84917  0.86283  1.0000
  H   H1426     1.0  0.42868  0.97496  0.54357  1.0000
  C   C849      1.0  0.45337  0.96085  0.49963  1.0000
  C   C850      1.0  0.38546  0.97562  0.52927  1.0000
  H   H1427     1.0  0.33656  0.82135  0.89529  1.0000
  H   H1428     1.0  0.36587  0.85666  0.83905  1.0000
  C   C851      1.0  0.35371  0.86448  0.93984  1.0000
  H   H1429     1.0  0.44253  0.92189  0.91759  1.0000
  H   H1430     1.0  0.42706  0.67839  0.83789  1.0000
  C   C852      1.0  0.43218  0.94534  0.88691  1.0000
  C   C853      1.0  0.28682  0.84555  0.73884  1.0000
  H   H1431     1.0  0.34594  0.89251  0.91732  1.0000
  H   H1432     1.0  0.46282  0.97684  0.72131  1.0000
  H   H1433     1.0  0.41692  0.67686  0.88773  1.0000
  H   H1434     1.0  0.30818  0.82415  0.89546  1.0000
  C   C854      1.0  0.38683  0.97594  0.56072  1.0000
  H   H1435     1.0  0.37480  0.86455  0.88711  1.0000
  H   H1436     1.0  0.40816  0.95890  0.84468  1.0000
  H   H1437     1.0  0.31617  0.71587  0.63277  1.0000
  H   H1438     1.0  0.40499  0.97236  0.91960  1.0000
  H   H1439     1.0  0.27676  0.74148  0.50735  1.0000
  H   H1440     1.0  0.40537  0.96803  0.61059  1.0000
  C   C855      1.0  0.42704  0.96414  0.74334  1.0000
  H   H1441     1.0  0.47794  0.83288  0.61734  1.0000
  C   C856      1.0  0.30018  0.65960  0.54161  1.0000
  H   H1442     1.0  0.38393  0.97481  0.73386  1.0000
  H   H1443     1.0  0.46040  0.97542  0.56889  1.0000
  H   H1444     1.0  0.45470  0.80633  0.50925  1.0000
  S   S247      1.0  0.24252  0.77659  0.64718  1.0000
  C   C857      1.0  0.32261  0.83242  0.90081  1.0000
  H   H1445     1.0  0.41525  0.96469  0.96611  1.0000
  C   C858      1.0  0.40616  0.82979  0.50572  1.0000
  H   H1446     1.0  0.25521  0.71113  0.97982  1.0000
  H   H1447     1.0  0.38718  0.95914  0.56770  1.0000
  H   H1448     1.0  0.25493  0.70584  0.93212  1.0000
  H   H1449     1.0  0.37476  0.98612  0.70220  1.0000
  H   H1450     1.0  0.43665  0.84160  0.51105  1.0000
  H   H1451     1.0  0.43481  0.97216  0.81268  1.0000
  H   H1452     1.0  0.24416  0.81699  0.75366  1.0000
  C   C859      1.0  0.43692  0.66211  0.93414  1.0000
  H   H1453     1.0  0.45194  0.97798  0.84058  1.0000
  H   H1454     1.0  0.31637  0.90750  0.89245  1.0000
  C   C860      1.0  0.44692  0.95112  0.75502  1.0000
  H   H1455     1.0  0.41978  0.93860  0.92782  1.0000
  S   S248      1.0  0.24541  0.79167  0.50701  1.0000
  H   H1456     1.0  0.43135  0.94366  0.65277  1.0000
  N   N58       1.0  0.33980  0.67350  0.62623  1.0000
  C   C861      1.0  0.27514  0.80098  0.75026  1.0000
  H   H1457     1.0  0.44810  0.94215  0.87730  1.0000
  H   H1458     1.0  0.42257  0.97729  0.75812  1.0000
  N   N59       1.0  0.42328  0.96803  0.88231  1.0000
  H   H1459     1.0  0.31959  0.72228  0.59780  1.0000
  H   H1460     1.0  0.44607  0.94839  0.92849  1.0000
  C   C862      1.0  0.45814  0.66833  0.87906  1.0000
  H   H1461     1.0  0.35036  0.84767  0.94191  1.0000
  S   S249      1.0  0.25380  0.75742  0.57311  1.0000
  C   C863      1.0  0.32475  0.65936  0.61235  1.0000
  C   C864      1.0  0.33273  0.67912  0.65506  1.0000
  H   H1462     1.0  0.37327  0.67499  0.63601  1.0000
  Fe  Fe126     1.0  0.25122  0.80083  0.83031  1.0000
  H   H1463     1.0  0.44611  0.95077  0.83307  1.0000
  H   H1464     1.0  0.30807  0.66673  0.61301  1.0000
  H   H1465     1.0  0.36880  0.98403  0.61268  1.0000
  S   S250      1.0  0.24531  0.69571  0.55861  1.0000
  H   H1466     1.0  0.26545  0.74359  0.91860  1.0000
  C   C865      1.0  0.37196  0.65731  0.59816  1.0000
  H   H1467     1.0  0.34194  0.69052  0.58804  1.0000
  H   H1468     1.0  0.27926  0.73348  0.95848  1.0000
  H   H1469     1.0  0.28146  0.83420  0.67564  1.0000
  C   C866      1.0  0.48434  0.67034  0.81075  1.0000
  C   C867      1.0  0.26078  0.82161  0.75517  1.0000
  H   H1470     1.0  0.33919  0.69425  0.66184  1.0000
  H   H1471     1.0  0.26229  0.72480  0.89168  1.0000
  S   S251      1.0  0.45957  0.83762  0.55958  1.0000
  C   C868      1.0  0.26776  0.74079  0.97359  1.0000
  C   C869      1.0  0.44785  0.98624  0.71512  1.0000
  H   H1472     1.0  0.32343  0.87890  0.92529  1.0000
  Fe  Fe127     1.0  0.44819  0.91711  0.53336  1.0000
  C   C870      1.0  0.42587  0.97455  0.56581  1.0000
  H   H1473     1.0  0.45585  0.97640  0.88850  1.0000
  H   H1474     1.0  0.44241  0.94286  0.77376  1.0000
  C   C871      1.0  0.29195  0.86597  0.72407  1.0000
  H   H1475     1.0  0.49059  0.65404  0.87096  1.0000
  C   C872      1.0  0.25370  0.73430  0.90803  1.0000
  H   H1476     1.0  0.43818  0.65488  0.95479  1.0000
  H   H1477     1.0  0.47306  0.68419  0.80894  1.0000
  C   C873      1.0  0.31788  0.90026  0.87177  1.0000
  H   H1478     1.0  0.24259  0.82649  0.70769  1.0000
  S   S252      1.0  0.46740  0.94448  0.52367  1.0000
  H   H1479     1.0  0.42181  0.93400  0.87691  1.0000
  S   S253      1.0  0.44954  0.90157  0.57461  1.0000
  Fe  Fe128     1.0  0.44594  0.87139  0.55055  1.0000
  C   C874      1.0  0.43520  0.93852  0.91704  1.0000
  H   H1480     1.0  0.43912  0.98242  0.91637  1.0000
  H   H1481     1.0  0.28591  0.88038  0.73575  1.0000
  H   H1482     1.0  0.32792  0.65783  0.59010  1.0000
  H   H1483     1.0  0.39969  0.67448  0.84367  1.0000
  H   H1484     1.0  0.37297  0.96512  0.52286  1.0000
  C   C875      1.0  0.40308  0.98500  0.60420  1.0000
  H   H1485     1.0  0.29824  0.83263  0.73116  1.0000
  S   S254      1.0  0.44787  0.88668  0.50929  1.0000
  H   H1486     1.0  0.28606  0.81266  0.69969  1.0000
  C   C876      1.0  0.24834  0.72770  0.97627  1.0000
  H   H1487     1.0  0.25594  0.86410  0.76789  1.0000
  H   H1488     1.0  0.27197  0.78947  0.76644  1.0000
  H   H1489     1.0  0.42547  0.95734  0.57049  1.0000
  H   H1490     1.0  0.42469  0.94025  0.70219  1.0000
  H   H1491     1.0  0.33179  0.66871  0.69723  1.0000
  C   C877      1.0  0.42053  0.66169  0.87629  1.0000
  H   H1492     1.0  0.26341  0.75774  0.96894  1.0000
  H   H1493     1.0  0.45264  0.68379  0.88887  1.0000
  H   H1494     1.0  0.25776  0.80389  0.95477  1.0000
  H   H1495     1.0  0.39286  0.95727  0.89394  1.0000
  C   C878      1.0  0.31852  0.70882  0.61205  1.0000
  C   C879      1.0  0.48155  0.66266  0.88765  1.0000
  H   H1496     1.0  0.45010  0.94838  0.69469  1.0000
  H   H1497     1.0  0.37120  0.98373  0.56734  1.0000
  N   N60       1.0  0.42918  0.97270  0.71482  1.0000
  N   N61       1.0  0.26396  0.84008  0.73672  1.0000
  C   C880      1.0  0.48690  0.82907  0.55698  1.0000
  H   H1498     1.0  0.35696  0.66213  0.68171  1.0000
  H   H1499     1.0  0.40041  0.96909  0.51943  1.0000
  H   H1500     1.0  0.44832  0.67456  0.93359  1.0000
  H   H1501     1.0  0.27126  0.79332  0.73060  1.0000
  C   C881      1.0  0.27373  0.82310  0.68911  1.0000
  H   H1502     1.0  0.30955  0.86642  0.72296  1.0000
  C   C882      1.0  0.38803  0.97609  0.71196  1.0000
  H   H1503     1.0  0.45949  0.96153  0.76133  1.0000
  H   H1504     1.0  0.46083  0.98433  0.67350  1.0000
  C   C883      1.0  0.43947  0.96760  0.83393  1.0000
  C   C884      1.0  0.25710  0.83543  0.70775  1.0000
  C   C885      1.0  0.43287  0.95416  0.69515  1.0000
  H   H1505     1.0  0.35038  0.87246  0.95989  1.0000
  H   H1506     1.0  0.45346  0.93865  0.74056  1.0000
  H   H1507     1.0  0.25096  0.87303  0.73392  1.0000
  S   S255      1.0  0.37930  0.98335  0.80519  1.0000
  H   H1508     1.0  0.26299  0.82627  0.77693  1.0000
  C   C886      1.0  0.44599  0.98200  0.58005  1.0000
  C   C887      1.0  0.43920  0.98252  0.89361  1.0000
  H   H1509     1.0  0.25261  0.71775  0.50599  1.0000
  H   H1510     1.0  0.48921  0.67758  0.89203  1.0000
  H   H1511     1.0  0.24181  0.74538  0.89749  1.0000
  C   C888      1.0  0.25012  0.85905  0.74744  1.0000
  H   H1512     1.0  0.42029  0.66934  0.93210  1.0000
  C   C889      1.0  0.41946  0.97046  0.85200  1.0000
  C   C890      1.0  0.42553  0.95776  0.66521  1.0000
  H   H1513     1.0  0.40791  0.95918  0.66325  1.0000
  H   H1514     1.0  0.45879  0.67244  0.85710  1.0000
  C   C891      1.0  0.41624  0.66697  0.84585  1.0000
  H   H1515     1.0  0.24701  0.76363  0.70284  1.0000
  H   H1516     1.0  0.29980  0.72358  0.49836  1.0000
  H   H1517     1.0  0.48118  0.79606  0.56091  1.0000
  H   H1518     1.0  0.38864  0.96005  0.70258  1.0000
  H   H1519     1.0  0.26707  0.65468  0.54832  1.0000
  H   H1520     1.0  0.43177  0.79472  0.49757  1.0000
  N   N62       1.0  0.40506  0.98667  0.57355  1.0000
  C   C892      1.0  0.42664  0.83756  0.49336  1.0000
  C   C893      1.0  0.40909  0.98666  0.70853  1.0000
  H   H1521     1.0  0.39869  0.81791  0.49295  1.0000
  H   H1522     1.0  0.48429  0.82046  0.49166  1.0000
  C   C894      1.0  0.50447  0.06500  0.05421  1.0000
  C   C895      1.0  0.60260  0.23312  0.26287  1.0000
  H   H1523     1.0  0.51286  0.18401  0.25336  1.0000
  H   H1524     1.0  0.50322  0.25967  0.29478  1.0000
  H   H1525     1.0  0.66225  0.29088  0.34919  1.0000
  H   H1526     1.0  0.52305  0.15013  0.24002  1.0000
  H   H1527     1.0  0.66308  0.25673  0.25329  1.0000
  C   C896      1.0  0.50485  0.13844  0.11590  1.0000
  C   C897      1.0  0.65527  0.23833  0.46097  1.0000
  S   S256      1.0  0.54414  0.29077  0.44112  1.0000
  H   H1528     1.0  0.61165  0.27175  0.44352  1.0000
  H   H1529     1.0  0.63440  0.29058  0.22249  1.0000
  C   C898      1.0  0.63188  0.29867  0.36888  1.0000
  H   H1530     1.0  0.70234  0.21584  0.18774  1.0000
  S   S257      1.0  0.71327  0.22788  0.09763  1.0000
  Fe  Fe129     1.0  0.71605  0.30481  0.10981  1.0000
  C   C899      1.0  0.63504  0.26992  0.02830  1.0000
  H   H1531     1.0  0.63706  0.29852  0.44020  1.0000
  S   S258      1.0  0.56965  0.25209  0.40497  1.0000
  H   H1532     1.0  0.58398  0.28485  0.04555  1.0000
  H   H1533     1.0  0.64403  0.21546  0.02405  1.0000
  Fe  Fe130     1.0  0.56062  0.19245  0.16612  1.0000
  S   S259      1.0  0.53417  0.21762  0.15772  1.0000
  S   S260      1.0  0.55401  0.15835  0.17487  1.0000
  Fe  Fe131     1.0  0.59544  0.22357  0.15930  1.0000
  S   S261      1.0  0.57099  0.25061  0.14975  1.0000
  S   S262      1.0  0.62846  0.23421  0.16815  1.0000
  Fe  Fe132     1.0  0.55281  0.23840  0.18485  1.0000
  S   S263      1.0  0.54057  0.26143  0.21807  1.0000
  Fe  Fe133     1.0  0.55512  0.22708  0.12351  1.0000
  S   S264      1.0  0.53970  0.23090  0.08141  1.0000
  S   S265      1.0  0.57783  0.21255  0.19569  1.0000
  S   S266      1.0  0.58088  0.20065  0.13046  1.0000
  C   C900      1.0  0.65086  0.23249  0.14643  1.0000
  C   C901      1.0  0.68350  0.24757  0.13256  1.0000
  C   C902      1.0  0.66460  0.24885  0.14774  1.0000
  H   H1534     1.0  0.69400  0.26025  0.13415  1.0000
  H   H1535     1.0  0.66069  0.26259  0.16070  1.0000
  C   C903      1.0  0.54289  0.25226  0.25203  1.0000
  C   C904      1.0  0.54584  0.26674  0.27344  1.0000
  C   C905      1.0  0.54618  0.26004  0.30082  1.0000
  H   H1536     1.0  0.54770  0.28321  0.26883  1.0000
  H   H1537     1.0  0.54841  0.27127  0.31718  1.0000
  C   C906      1.0  0.55073  0.24582  0.05549  1.0000
  C   C907      1.0  0.56530  0.26076  0.06157  1.0000
  C   C908      1.0  0.57314  0.27295  0.04055  1.0000
  H   H1538     1.0  0.57022  0.26317  0.08254  1.0000
  H   H1539     1.0  0.60149  0.21554  0.43282  1.0000
  C   C909      1.0  0.52294  0.01852  0.04654  1.0000
  H   H1540     1.0  0.61300  0.24989  0.32978  1.0000
  C   C910      1.0  0.52817  0.15206  0.18380  1.0000
  C   C911      1.0  0.52403  0.13062  0.18609  1.0000
  H   H1541     1.0  0.67755  0.23361  0.41216  1.0000
  C   C912      1.0  0.49772  0.04499  0.06859  1.0000
  H   H1542     1.0  0.60014  0.30181  0.20911  1.0000
  C   C913      1.0  0.52961  0.99478  0.04028  1.0000
  H   H1543     1.0  0.53677  0.11827  0.18274  1.0000
  H   H1544     1.0  0.73980  0.31962  0.45634  1.0000
  C   C914      1.0  0.63940  0.26872  0.33787  1.0000
  H   H1545     1.0  0.63035  0.30294  0.04138  1.0000
  C   C915      1.0  0.61119  0.29257  0.37291  1.0000
  C   C916      1.0  0.70843  0.29095  0.47883  1.0000
  C   C917      1.0  0.67543  0.24819  0.47142  1.0000
  S   S267      1.0  0.53857  0.28922  0.37334  1.0000
  C   C918      1.0  0.65707  0.27321  0.24800  1.0000
  H   H1546     1.0  0.61759  0.26948  0.03003  1.0000
  C   C919      1.0  0.59804  0.28582  0.20069  1.0000
  C   C920      1.0  0.62151  0.24389  0.25061  1.0000
  C   C921      1.0  0.55113  0.15471  0.26407  1.0000
  H   H1547     1.0  0.65752  0.29253  0.04343  1.0000
  H   H1548     1.0  0.60732  0.21587  0.26518  1.0000
  C   C922      1.0  0.64093  0.28856  0.04668  1.0000
  C   C923      1.0  0.51017  0.12718  0.32938  1.0000
  H   H1549     1.0  0.61040  0.28169  0.18497  1.0000
  H   H1550     1.0  0.56058  0.14796  0.28162  1.0000
  H   H1551     1.0  0.66478  0.27227  0.42841  1.0000
  H   H1552     1.0  0.49887  0.31374  0.35538  1.0000
  H   H1553     1.0  0.50904  0.10722  0.24691  1.0000
  H   H1554     1.0  0.62176  0.26262  0.47562  1.0000
  H   H1555     1.0  0.50032  0.10853  0.19342  1.0000
  H   H1556     1.0  0.63646  0.22300  0.41640  1.0000
  H   H1557     1.0  0.51269  0.12088  0.06357  1.0000
  H   H1558     1.0  0.67124  0.25671  0.00580  1.0000
  H   H1559     1.0  0.60436  0.31087  0.28607  1.0000
  H   H1560     1.0  0.66101  0.22268  0.45177  1.0000
  S   S268      1.0  0.69383  0.29746  0.00743  1.0000
  C   C924      1.0  0.70243  0.30822  0.20417  1.0000
  H   H1561     1.0  0.53284  0.02276  0.06448  1.0000
  C   C925      1.0  0.50930  0.16605  0.29173  1.0000
  H   H1562     1.0  0.68216  0.24638  0.20563  1.0000
  S   S269      1.0  0.69612  0.28437  0.08430  1.0000
  H   H1563     1.0  0.52836  0.02800  0.02922  1.0000
  H   H1564     1.0  0.65033  0.28971  0.47158  1.0000
  Fe  Fe134     1.0  0.73114  0.26994  0.29533  1.0000
  H   H1565     1.0  0.61224  0.25579  0.06923  1.0000
  N   N63       1.0  0.64687  0.24864  0.03425  1.0000
  C   C926      1.0  0.50404  0.15504  0.07007  1.0000
  H   H1566     1.0  0.54184  0.99373  0.02395  1.0000
  C   C927      1.0  0.63525  0.29025  0.45989  1.0000
  C   C928      1.0  0.64611  0.24273  0.06403  1.0000
  H   H1567     1.0  0.65471  0.28296  0.26687  1.0000
  C   C929      1.0  0.71082  0.22466  0.20379  1.0000
  H   H1568     1.0  0.53875  0.13856  0.31399  1.0000
  C   C930      1.0  0.49935  0.00355  0.09732  1.0000
  H   H1569     1.0  0.62552  0.24774  0.09948  1.0000
  Fe  Fe135     1.0  0.51745  0.28905  0.41023  1.0000
  C   C931      1.0  0.50104  0.18215  0.26965  1.0000
  H   H1570     1.0  0.73362  0.19252  0.17819  1.0000
  C   C932      1.0  0.62678  0.26821  0.45538  1.0000
  H   H1571     1.0  0.59371  0.30835  0.25243  1.0000
  H   H1572     1.0  0.53637  0.12657  0.25296  1.0000
  C   C933      1.0  0.69969  0.24743  0.20532  1.0000
  C   C934      1.0  0.62693  0.23634  0.42677  1.0000
  H   H1573     1.0  0.62719  0.23424  0.23246  1.0000
  Fe  Fe136     1.0  0.54143  0.25370  0.37661  1.0000
  H   H1574     1.0  0.49213  0.07123  0.03926  1.0000
  H   H1575     1.0  0.59971  0.23777  0.45555  1.0000
  S   S270      1.0  0.70932  0.28395  0.32843  1.0000
  Fe  Fe137     1.0  0.72951  0.26297  0.35746  1.0000
  H   H1576     1.0  0.53861  0.21967  0.24176  1.0000
  C   C935      1.0  0.71188  0.30075  0.22894  1.0000
  C   C936      1.0  0.54054  0.22441  0.28550  1.0000
  H   H1577     1.0  0.58300  0.27044  0.23359  1.0000
  C   C937      1.0  0.64610  0.28656  0.35162  1.0000
  C   C938      1.0  0.51729  0.30021  0.04866  1.0000
  C   C939      1.0  0.70832  0.28816  0.42881  1.0000
  H   H1578     1.0  0.70128  0.23333  0.02330  1.0000
  C   C940      1.0  0.68478  0.22963  0.02824  1.0000
  H   H1579     1.0  0.67820  0.25508  0.38862  1.0000
  H   H1580     1.0  0.54761  0.17205  0.26722  1.0000
  N   N64       1.0  0.64117  0.25120  0.44096  1.0000
  H   H1581     1.0  0.61731  0.22775  0.07615  1.0000
  H   H1582     1.0  0.63451  0.24187  0.26612  1.0000
  H   H1583     1.0  0.52016  0.06223  0.04412  1.0000
  H   H1584     1.0  0.70736  0.21726  0.22363  1.0000
  H   H1585     1.0  0.58818  0.23457  0.24966  1.0000
  C   C941      1.0  0.68917  0.22970  0.11627  1.0000
  H   H1586     1.0  0.51467  0.29483  0.31197  1.0000
  H   H1587     1.0  0.60813  0.24520  0.99863  1.0000
  H   H1588     1.0  0.52134  0.15780  0.07020  1.0000
  H   H1589     1.0  0.50453  0.14231  0.33969  1.0000
  C   C942      1.0  0.66743  0.24571  0.40062  1.0000
  C   C943      1.0  0.49772  0.30155  0.31267  1.0000
  N   N65       1.0  0.73450  0.22306  0.19830  1.0000
  C   C944      1.0  0.65387  0.26114  0.41936  1.0000
  H   H1590     1.0  0.56147  0.15277  0.24572  1.0000
  H   H1591     1.0  0.59850  0.23940  0.28358  1.0000
  H   H1592     1.0  0.49603  0.16764  0.05687  1.0000
  H   H1593     1.0  0.50167  0.10020  0.28116  1.0000
  C   C945      1.0  0.72861  0.27985  0.47931  1.0000
  C   C946      1.0  0.52501  0.13076  0.30515  1.0000
  H   H1594     1.0  0.53820  0.20808  0.29015  1.0000
  S   S271      1.0  0.73968  0.27058  0.04905  1.0000
  H   H1595     1.0  0.64513  0.23225  0.99521  1.0000
  H   H1596     1.0  0.68697  0.25024  0.45483  1.0000
  C   C947      1.0  0.61114  0.27945  0.26852  1.0000
  H   H1597     1.0  0.59615  0.27445  0.27741  1.0000
  C   C948      1.0  0.61412  0.23196  0.01220  1.0000
  H   H1598     1.0  0.58232  0.28670  0.19002  1.0000
  C   C949      1.0  0.72866  0.27727  0.42943  1.0000
  H   H1599     1.0  0.53186  0.11488  0.29787  1.0000
  H   H1600     1.0  0.62353  0.27612  0.28453  1.0000
  H   H1601     1.0  0.65332  0.22623  0.06708  1.0000
  H   H1602     1.0  0.52179  0.13411  0.11014  1.0000
  S   S272      1.0  0.55311  0.23167  0.47452  1.0000
  C   C950      1.0  0.49306  0.11794  0.11649  1.0000
  S   S273      1.0  0.65655  0.25273  0.31658  1.0000
  H   H1603     1.0  0.65642  0.25243  0.07687  1.0000
  H   H1604     1.0  0.49952  0.28610  0.25880  1.0000
  S   S274      1.0  0.71065  0.23460  0.35220  1.0000
  H   H1605     1.0  0.63743  0.27443  0.00662  1.0000
  H   H1606     1.0  0.52310  0.17257  0.30237  1.0000
  H   H1607     1.0  0.49697  0.17876  0.13296  1.0000
  H   H1608     1.0  0.67733  0.26187  0.04051  1.0000
  Fe  Fe138     1.0  0.72392  0.26019  0.08731  1.0000
  C   C951      1.0  0.61835  0.26348  0.34067  1.0000
  C   C952      1.0  0.67557  0.21315  0.11516  1.0000
  C   C953      1.0  0.50337  0.12507  0.19211  1.0000
  C   C954      1.0  0.60772  0.30371  0.26555  1.0000
  H   H1609     1.0  0.64610  0.23442  0.47933  1.0000
  C   C955      1.0  0.61117  0.22590  0.44548  1.0000
  Fe  Fe139     1.0  0.73276  0.22495  0.31769  1.0000
  Fe  Fe140     1.0  0.69198  0.25461  0.32120  1.0000
  H   H1610     1.0  0.49631  0.11837  0.32340  1.0000
  H   H1611     1.0  0.50308  0.10551  0.12775  1.0000
  H   H1612     1.0  0.50582  0.14334  0.13765  1.0000
  H   H1613     1.0  0.64085  0.26414  0.21124  1.0000
  S   S275      1.0  0.51842  0.25335  0.41136  1.0000
  H   H1614     1.0  0.50381  0.00676  0.99605  1.0000
  S   S276      1.0  0.53924  0.23073  0.34086  1.0000
  H   H1615     1.0  0.59795  0.25333  0.21075  1.0000
  C   C956      1.0  0.73607  0.30084  0.18117  1.0000
  Fe  Fe141     1.0  0.56537  0.28764  0.40409  1.0000
  H   H1616     1.0  0.53286  0.23162  0.02338  1.0000
  C   C957      1.0  0.62396  0.24348  0.07750  1.0000
  N   N66       1.0  0.49522  0.15666  0.09867  1.0000
  H   H1617     1.0  0.63722  0.31212  0.38009  1.0000
  H   H1618     1.0  0.64599  0.20178  0.12914  1.0000
  C   C958      1.0  0.63684  0.27398  0.22982  1.0000
  H   H1619     1.0  0.51467  0.18445  0.18704  1.0000
  C   C959      1.0  0.71452  0.30833  0.18014  1.0000
  H   H1620     1.0  0.61742  0.24483  0.41020  1.0000
  H   H1621     1.0  0.51930  0.11733  0.34493  1.0000
  H   H1622     1.0  0.70398  0.25566  0.22445  1.0000
  C   C960      1.0  0.73365  0.29390  0.22990  1.0000
  H   H1623     1.0  0.67174  0.26341  0.48221  1.0000
  C   C961      1.0  0.66994  0.25038  0.02688  1.0000
  C   C962      1.0  0.60430  0.27538  0.35807  1.0000
  H   H1624     1.0  0.53030  0.29462  0.03471  1.0000
  H   H1625     1.0  0.52324  0.31282  0.06198  1.0000
  H   H1626     1.0  0.49453  0.30979  0.29291  1.0000
  H   H1627     1.0  0.67992  0.19917  0.10281  1.0000
  S   S277      1.0  0.71222  0.24222  0.28601  1.0000
  C   C963      1.0  0.54416  0.24313  0.02824  1.0000
  H   H1628     1.0  0.61955  0.21566  0.46114  1.0000
  C   C964      1.0  0.54078  0.23095  0.25812  1.0000
  N   N67       1.0  0.61696  0.26694  0.24287  1.0000
  H   H1629     1.0  0.58816  0.27108  0.36011  1.0000
  C   C965      1.0  0.56683  0.27001  0.01324  1.0000
  C   C966      1.0  0.59848  0.26840  0.22268  1.0000
  C   C967      1.0  0.53079  0.14318  0.25872  1.0000
  C   C968      1.0  0.54280  0.23898  0.30695  1.0000
  C   C969      1.0  0.63853  0.23154  0.01625  1.0000
  H   H1630     1.0  0.70308  0.25736  0.18758  1.0000
  C   C970      1.0  0.55232  0.25504  0.00714  1.0000
  C   C971      1.0  0.65628  0.21467  0.12987  1.0000
  Fe  Fe142     1.0  0.71249  0.29582  0.04736  1.0000
  Fe  Fe143     1.0  0.54654  0.25502  0.43972  1.0000
  H   H1631     1.0  0.65735  0.23784  0.38550  1.0000
  H   H1632     1.0  0.72377  0.23406  0.15799  1.0000
  C   C972      1.0  0.49739  0.11066  0.26354  1.0000
  H   H1633     1.0  0.51435  0.28633  0.06151  1.0000
  H   H1634     1.0  0.50663  0.26694  0.34227  1.0000
  H   H1635     1.0  0.66996  0.28001  0.23646  1.0000
  H   H1636     1.0  0.50575  0.07782  0.06970  1.0000
  H   H1637     1.0  0.64290  0.27099  0.40591  1.0000
  C   C973      1.0  0.51163  0.16791  0.18829  1.0000
  H   H1638     1.0  0.50742  0.04341  0.08772  1.0000
  H   H1639     1.0  0.70257  0.30098  0.24744  1.0000
  H   H1640     1.0  0.70059  0.29177  0.40936  1.0000
  N   N68       1.0  0.49962  0.02451  0.05219  1.0000
  N   N69       1.0  0.51503  0.14361  0.28182  1.0000
  H   H1641     1.0  0.68553  0.22270  0.04897  1.0000
  H   H1642     1.0  0.52031  0.17566  0.11316  1.0000
  H   H1643     1.0  0.72180  0.18442  0.22546  1.0000
  C   C974      1.0  0.69836  0.29516  0.45343  1.0000
  H   H1644     1.0  0.62212  0.31063  0.25789  1.0000
  H   H1645     1.0  0.60519  0.23299  0.03156  1.0000
  H   H1646     1.0  0.63850  0.28549  0.06866  1.0000
  H   H1647     1.0  0.62329  0.30042  0.47176  1.0000
  C   C975      1.0  0.50251  0.17675  0.11148  1.0000
  H   H1648     1.0  0.51694  0.00065  0.09674  1.0000
  S   S278      1.0  0.59472  0.30513  0.39817  1.0000
  H   H1649     1.0  0.68025  0.21762  0.01306  1.0000
  H   H1650     1.0  0.61026  0.21706  0.00173  1.0000
  C   C976      1.0  0.73870  0.27320  0.45479  1.0000
  C   C977      1.0  0.49628  0.31953  0.33425  1.0000
  H   H1651     1.0  0.68577  0.31412  0.20369  1.0000
  H   H1652     1.0  0.50411  0.26917  0.01028  1.0000
  C   C978      1.0  0.49503  0.13445  0.27158  1.0000
  C   C979      1.0  0.49645  0.30847  0.03377  1.0000
  H   H1653     1.0  0.50100  0.21118  0.10903  1.0000
  C   C980      1.0  0.50193  0.13392  0.05471  1.0000
  H   H1654     1.0  0.50705  0.13566  0.03322  1.0000
  H   H1655     1.0  0.68292  0.30408  0.45274  1.0000
  H   H1656     1.0  0.50341  0.19859  0.07649  1.0000
  C   C981      1.0  0.73793  0.23449  0.17176  1.0000
  H   H1657     1.0  0.73955  0.25050  0.22350  1.0000
  H   H1658     1.0  0.49654  0.16640  0.30737  1.0000
  H   H1659     1.0  0.49476  0.01667  0.11196  1.0000
  H   H1660     1.0  0.49781  0.19804  0.27943  1.0000
  H   H1661     1.0  0.73957  0.25172  0.17558  1.0000
  S   S279      1.0  0.70298  0.31913  0.14954  1.0000
  S   S280      1.0  0.72868  0.32016  0.07240  1.0000
  H   H1662     1.0  0.50679  0.99368  0.36346  1.0000
  H   H1663     1.0  0.49291  0.04162  0.01428  1.0000
  H   H1664     1.0  0.68383  0.23726  0.48641  1.0000
  C   C982      1.0  0.73886  0.18588  0.22101  1.0000
  N   N70       1.0  0.49897  0.31575  0.00483  1.0000
  C   C983      1.0  0.49563  0.19773  0.09667  1.0000
  H   H1665     1.0  0.49293  0.98906  0.10562  1.0000
  C   C984      1.0  0.49105  0.16235  0.19456  1.0000
  C   C985      1.0  0.60866  0.24375  0.53223  1.0000
  H   H1666     1.0  0.71844  0.24574  0.72151  1.0000
  N   N71       1.0  0.67320  0.19106  0.78418  1.0000
  H   H1667     1.0  0.55679  0.20666  0.52322  1.0000
  C   C986      1.0  0.70361  0.30856  0.70506  1.0000
  C   C987      1.0  0.71502  0.30143  0.72866  1.0000
  H   H1668     1.0  0.64231  0.28237  0.93877  1.0000
  H   H1669     1.0  0.70554  0.27267  0.91281  1.0000
  H   H1670     1.0  0.69138  0.14789  0.74228  1.0000
  C   C988      1.0  0.63508  0.31425  0.84420  1.0000
  S   S281      1.0  0.71211  0.22748  0.60478  1.0000
  H   H1671     1.0  0.50464  0.16196  0.77829  1.0000
  H   H1672     1.0  0.51064  0.10480  0.58875  1.0000
  S   S282      1.0  0.66160  0.25841  0.81315  1.0000
  H   H1673     1.0  0.69772  0.24010  0.69841  1.0000
  H   H1674     1.0  0.72941  0.24131  0.66133  1.0000
  H   H1675     1.0  0.49679  0.11414  0.70524  1.0000
  C   C989      1.0  0.55228  0.26580  0.54564  1.0000
  S   S283      1.0  0.58430  0.27824  0.90745  1.0000
  S   S284      1.0  0.55780  0.25763  0.60020  1.0000
  H   H1676     1.0  0.66564  0.30264  0.82771  1.0000
  Fe  Fe144     1.0  0.55956  0.19536  0.66949  1.0000
  S   S285      1.0  0.53766  0.22511  0.66461  1.0000
  S   S286      1.0  0.54834  0.16212  0.67297  1.0000
  Fe  Fe145     1.0  0.59959  0.21988  0.67450  1.0000
  S   S287      1.0  0.58023  0.25103  0.67054  1.0000
  S   S288      1.0  0.63439  0.22256  0.68555  1.0000
  Fe  Fe146     1.0  0.55718  0.23776  0.69888  1.0000
  S   S289      1.0  0.54236  0.25827  0.73292  1.0000
  Fe  Fe147     1.0  0.56295  0.23550  0.63644  1.0000
  Fe  Fe148     1.0  0.72191  0.25978  0.59300  1.0000
  S   S290      1.0  0.57759  0.20755  0.70552  1.0000
  S   S291      1.0  0.58383  0.20476  0.63867  1.0000
  C   C990      1.0  0.65370  0.22492  0.66004  1.0000
  C   C991      1.0  0.67935  0.20810  0.62793  1.0000
  C   C992      1.0  0.66165  0.20702  0.64509  1.0000
  H   H1677     1.0  0.68567  0.19403  0.61694  1.0000
  H   H1678     1.0  0.65461  0.19209  0.64749  1.0000
  C   C993      1.0  0.54732  0.25256  0.76776  1.0000
  C   C994      1.0  0.56193  0.23587  0.77619  1.0000
  C   C995      1.0  0.56522  0.23185  0.80427  1.0000
  H   H1679     1.0  0.57061  0.22603  0.76118  1.0000
  H   H1680     1.0  0.57645  0.21892  0.81076  1.0000
  C   C996      1.0  0.55499  0.24991  0.56560  1.0000
  C   C997      1.0  0.55645  0.22855  0.55745  1.0000
  C   C998      1.0  0.55546  0.22321  0.52945  1.0000
  H   H1681     1.0  0.55860  0.21619  0.57262  1.0000
  C   C999      1.0  0.72734  0.30461  0.97374  1.0000
  H   H1682     1.0  0.63735  0.16781  0.80123  1.0000
  C   C1000     1.0  0.64983  0.29864  0.83302  1.0000
  C   C1001     1.0  0.52244  0.15635  0.68300  1.0000
  C   C1002     1.0  0.51928  0.13562  0.69132  1.0000
  H   H1683     1.0  0.68477  0.31484  0.89861  1.0000
  C   C1003     1.0  0.53861  0.18037  0.77428  1.0000
  H   H1684     1.0  0.59717  0.28592  0.59950  1.0000
  H   H1685     1.0  0.70726  0.16113  0.76636  1.0000
  H   H1686     1.0  0.53269  0.12371  0.69200  1.0000
  H   H1687     1.0  0.50354  0.16687  0.74271  1.0000
  H   H1688     1.0  0.61527  0.29512  0.62426  1.0000
  H   H1689     1.0  0.72200  0.21761  0.67494  1.0000
  H   H1690     1.0  0.68852  0.25987  0.63838  1.0000
  C   C1004     1.0  0.68777  0.20412  0.83040  1.0000
  H   H1691     1.0  0.66349  0.24791  0.57824  1.0000
  S   S292      1.0  0.57761  0.28524  0.98744  1.0000
  H   H1692     1.0  0.59273  0.28465  0.85086  1.0000
  S   S293      1.0  0.55798  0.23915  0.85914  1.0000
  H   H1693     1.0  0.54748  0.25253  0.98617  1.0000
  Fe  Fe149     1.0  0.71455  0.30499  0.61248  1.0000
  H   H1694     1.0  0.65938  0.17211  0.75222  1.0000
  H   H1695     1.0  0.62447  0.19034  0.81852  1.0000
  H   H1696     1.0  0.49947  0.07576  0.65453  1.0000
  H   H1697     1.0  0.54938  0.27283  0.50251  1.0000
  C   C1005     1.0  0.62350  0.23711  0.59336  1.0000
  C   C1006     1.0  0.49889  0.13013  0.69877  1.0000
  H   H1698     1.0  0.50558  0.22596  0.71153  1.0000
  H   H1699     1.0  0.52482  0.27808  0.78117  1.0000
  H   H1700     1.0  0.59621  0.26337  0.56479  1.0000
  C   C1007     1.0  0.59788  0.29616  0.72227  1.0000
  C   C1008     1.0  0.68912  0.22713  0.62528  1.0000
  H   H1701     1.0  0.61844  0.25735  0.83057  1.0000
  H   H1702     1.0  0.52652  0.19426  0.82675  1.0000
  H   H1703     1.0  0.65409  0.30524  0.97029  1.0000
  C   C1009     1.0  0.60868  0.28862  0.84621  1.0000
  N   N72       1.0  0.60686  0.28326  0.74615  1.0000
  C   C1010     1.0  0.59185  0.28782  0.76991  1.0000
  C   C1011     1.0  0.60635  0.25995  0.73927  1.0000
  H   H1704     1.0  0.70487  0.18386  0.80155  1.0000
  C   C1012     1.0  0.62874  0.28935  0.75422  1.0000
  C   C1013     1.0  0.61643  0.24424  0.76065  1.0000
  H   H1705     1.0  0.64137  0.28204  0.90232  1.0000
  H   H1706     1.0  0.61525  0.27892  0.68806  1.0000
  H   H1707     1.0  0.57532  0.28436  0.76412  1.0000
  H   H1708     1.0  0.59637  0.27732  0.78744  1.0000
  H   H1709     1.0  0.61415  0.25566  0.71965  1.0000
  H   H1710     1.0  0.58960  0.25601  0.73582  1.0000
  H   H1711     1.0  0.69683  0.17460  0.73591  1.0000
  C   C1014     1.0  0.62323  0.27316  0.83453  1.0000
  H   H1712     1.0  0.50493  0.15162  0.58521  1.0000
  H   H1713     1.0  0.63231  0.28470  0.77572  1.0000
  H   H1714     1.0  0.61667  0.22793  0.75192  1.0000
  H   H1715     1.0  0.63310  0.24717  0.76579  1.0000
  H   H1716     1.0  0.60701  0.24430  0.77967  1.0000
  C   C1015     1.0  0.53623  0.26521  0.78750  1.0000
  C   C1016     1.0  0.68798  0.18656  0.80831  1.0000
  H   H1717     1.0  0.67377  0.26118  0.53416  1.0000
  H   H1718     1.0  0.66499  0.23050  0.73836  1.0000
  Fe  Fe150     1.0  0.73764  0.23425  0.82490  1.0000
  H   H1719     1.0  0.50708  0.18754  0.67541  1.0000
  H   H1720     1.0  0.53036  0.27072  0.83036  1.0000
  H   H1721     1.0  0.53747  0.17079  0.79311  1.0000
  H   H1722     1.0  0.65979  0.27095  0.75036  1.0000
  H   H1723     1.0  0.71250  0.26290  0.69300  1.0000
  H   H1724     1.0  0.49120  0.14013  0.64337  1.0000
  H   H1725     1.0  0.63123  0.23814  0.61381  1.0000
  C   C1017     1.0  0.64798  0.28005  0.73699  1.0000
  H   H1726     1.0  0.65796  0.28241  0.54997  1.0000
  H   H1727     1.0  0.69885  0.20529  0.76378  1.0000
  C   C1018     1.0  0.62973  0.21418  0.58338  1.0000
  C   C1019     1.0  0.72949  0.29303  0.92594  1.0000
  H   H1728     1.0  0.60188  0.30391  0.67961  1.0000
  H   H1729     1.0  0.65640  0.29317  0.72825  1.0000
  C   C1020     1.0  0.51020  0.19791  0.81824  1.0000
  H   H1730     1.0  0.52235  0.21982  0.79014  1.0000
  C   C1021     1.0  0.55298  0.23912  0.50947  1.0000
  H   H1731     1.0  0.64678  0.26697  0.52303  1.0000
  H   H1732     1.0  0.68744  0.27345  0.95795  1.0000
  C   C1022     1.0  0.71381  0.24606  0.69966  1.0000
  Fe  Fe151     1.0  0.56413  0.28711  0.94407  1.0000
  C   C1023     1.0  0.65072  0.24995  0.56226  1.0000
  C   C1024     1.0  0.50494  0.17160  0.68217  1.0000
  H   H1733     1.0  0.49532  0.21605  0.78553  1.0000
  C   C1025     1.0  0.53956  0.26125  0.81545  1.0000
  H   H1734     1.0  0.62390  0.21097  0.56253  1.0000
  S   S294      1.0  0.69564  0.30005  0.50948  1.0000
  C   C1026     1.0  0.54897  0.16484  0.75265  1.0000
  Fe  Fe152     1.0  0.73204  0.27691  0.85557  1.0000
  H   H1735     1.0  0.55029  0.19220  0.77916  1.0000
  H   H1736     1.0  0.59849  0.23156  0.53972  1.0000
  C   C1027     1.0  0.66340  0.24402  0.65734  1.0000
  C   C1028     1.0  0.68145  0.20860  0.76762  1.0000
  S   S295      1.0  0.71892  0.24676  0.78854  1.0000
  S   S296      1.0  0.53528  0.27356  0.92566  1.0000
  H   H1737     1.0  0.68006  0.22379  0.77937  1.0000
  C   C1029     1.0  0.51998  0.20325  0.74052  1.0000
  H   H1738     1.0  0.63387  0.28868  0.58127  1.0000
  S   S297      1.0  0.71281  0.29302  0.82127  1.0000
  H   H1739     1.0  0.73326  0.31388  0.99044  1.0000
  Fe  Fe153     1.0  0.71253  0.29430  0.55053  1.0000
  H   H1740     1.0  0.60610  0.31520  0.78949  1.0000
  C   C1030     1.0  0.70151  0.28192  0.95534  1.0000
  H   H1741     1.0  0.55481  0.17337  0.73486  1.0000
  H   H1742     1.0  0.50210  0.21002  0.83213  1.0000
  H   H1743     1.0  0.62904  0.30696  0.75420  1.0000
  Fe  Fe154     1.0  0.73679  0.27576  0.79336  1.0000
  H   H1744     1.0  0.66902  0.15742  0.78083  1.0000
  Fe  Fe155     1.0  0.57296  0.31026  0.89125  1.0000
  H   H1745     1.0  0.64727  0.21036  0.58446  1.0000
  C   C1031     1.0  0.63718  0.31390  0.91973  1.0000
  S   S298      1.0  0.73889  0.26833  0.55479  1.0000
  H   H1746     1.0  0.62372  0.23587  0.52429  1.0000
  Fe  Fe156     1.0  0.52722  0.30662  0.90935  1.0000
  S   S299      1.0  0.54412  0.29995  0.86949  1.0000
  C   C1032     1.0  0.51101  0.20723  0.78927  1.0000
  H   H1747     1.0  0.65167  0.23453  0.55116  1.0000
  C   C1033     1.0  0.50287  0.08817  0.63962  1.0000
  C   C1034     1.0  0.70906  0.29382  0.97726  1.0000
  H   H1748     1.0  0.65049  0.21400  0.80400  1.0000
  C   C1035     1.0  0.72935  0.23246  0.68088  1.0000
  H   H1749     1.0  0.68640  0.31113  0.70552  1.0000
  H   H1750     1.0  0.60817  0.26847  0.62620  1.0000
  Fe  Fe157     1.0  0.55455  0.26810  0.88715  1.0000
  C   C1036     1.0  0.65737  0.26622  0.54128  1.0000
  H   H1751     1.0  0.55115  0.28235  0.55181  1.0000
  C   C1037     1.0  0.49333  0.10944  0.58546  1.0000
  H   H1752     1.0  0.53808  0.15299  0.74549  1.0000
  H   H1753     1.0  0.64409  0.26950  0.71988  1.0000
  C   C1038     1.0  0.61469  0.30908  0.85162  1.0000
  C   C1039     1.0  0.50139  0.17483  0.76300  1.0000
  H   H1754     1.0  0.61975  0.31340  0.92342  1.0000
  H   H1755     1.0  0.70661  0.29845  0.74724  1.0000
  S   S300      1.0  0.71379  0.24796  0.85568  1.0000
  C   C1040     1.0  0.55414  0.24465  0.82402  1.0000
  H   H1756     1.0  0.69167  0.21939  0.82176  1.0000
  H   H1757     1.0  0.68463  0.17159  0.81869  1.0000
  H   H1758     1.0  0.61376  0.27604  0.54450  1.0000
  S   S301      1.0  0.69469  0.28428  0.58724  1.0000
  H   H1759     1.0  0.65774  0.25781  0.66934  1.0000
  H   H1760     1.0  0.58170  0.29136  0.71668  1.0000
  H   H1761     1.0  0.51454  0.09806  0.64954  1.0000
  C   C1041     1.0  0.61168  0.28108  0.61171  1.0000
  C   C1042     1.0  0.71170  0.28150  0.92974  1.0000
  C   C1043     1.0  0.63114  0.27443  0.59351  1.0000
  H   H1762     1.0  0.60601  0.23832  0.59739  1.0000
  H   H1763     1.0  0.70022  0.19957  0.84602  1.0000
  C   C1044     1.0  0.64396  0.27801  0.82841  1.0000
  H   H1764     1.0  0.67234  0.20646  0.84124  1.0000
  C   C1045     1.0  0.67017  0.21328  0.73978  1.0000
  C   C1046     1.0  0.68089  0.24519  0.63979  1.0000
  N   N73       1.0  0.62925  0.25513  0.57538  1.0000
  H   H1765     1.0  0.64524  0.27190  0.60746  1.0000
  Fe  Fe158     1.0  0.69651  0.26270  0.81931  1.0000
  C   C1047     1.0  0.71443  0.31196  0.68069  1.0000
  C   C1048     1.0  0.55127  0.26046  0.51769  1.0000
  H   H1766     1.0  0.50793  0.26507  0.97456  1.0000
  C   C1049     1.0  0.67260  0.17087  0.76755  1.0000
  C   C1050     1.0  0.65092  0.19827  0.79340  1.0000
  C   C1051     1.0  0.64029  0.18279  0.81211  1.0000
  C   C1052     1.0  0.69334  0.16347  0.75233  1.0000
  H   H1767     1.0  0.68139  0.20968  0.72265  1.0000
  C   C1053     1.0  0.61189  0.26055  0.55457  1.0000
  H   H1768     1.0  0.56317  0.15586  0.76183  1.0000
  H   H1769     1.0  0.65584  0.20466  0.73597  1.0000
  H   H1770     1.0  0.53336  0.21361  0.74270  1.0000
  H   H1771     1.0  0.51017  0.07969  0.62167  1.0000
  H   H1772     1.0  0.62261  0.20294  0.59726  1.0000
  H   H1773     1.0  0.64962  0.17915  0.83105  1.0000
  H   H1774     1.0  0.64000  0.20104  0.77559  1.0000
  C   C1054     1.0  0.49777  0.15518  0.60553  1.0000
  C   C1055     1.0  0.61129  0.29524  0.69596  1.0000
  C   C1056     1.0  0.50060  0.21733  0.72976  1.0000
  H   H1775     1.0  0.72115  0.20270  0.71854  1.0000
  H   H1776     1.0  0.50125  0.18354  0.81877  1.0000
  C   C1057     1.0  0.59044  0.31061  0.78197  1.0000
  H   H1777     1.0  0.73670  0.27664  0.49852  1.0000
  H   H1778     1.0  0.51352  0.12831  0.62583  1.0000
  H   H1779     1.0  0.66483  0.28982  0.91921  1.0000
  H   H1780     1.0  0.52460  0.19207  0.72354  1.0000
  N   N74       1.0  0.51713  0.19144  0.76673  1.0000
  H   H1781     1.0  0.50825  0.16595  0.61631  1.0000
  H   H1782     1.0  0.63812  0.31918  0.89847  1.0000
  C   C1058     1.0  0.64723  0.29078  0.92035  1.0000
  C   C1059     1.0  0.49672  0.13497  0.62278  1.0000
  H   H1783     1.0  0.62604  0.30349  0.69878  1.0000
  C   C1060     1.0  0.73741  0.30430  0.94816  1.0000
  H   H1784     1.0  0.60056  0.25164  0.51431  1.0000
  H   H1785     1.0  0.50747  0.30231  0.96508  1.0000
  H   H1786     1.0  0.49260  0.12174  0.56926  1.0000
  H   H1787     1.0  0.49467  0.22975  0.74460  1.0000
  C   C1061     1.0  0.73733  0.29842  0.72813  1.0000
  S   S302      1.0  0.49246  0.31888  0.91443  1.0000
  C   C1062     1.0  0.73667  0.30882  0.68031  1.0000
  H   H1788     1.0  0.57983  0.31117  0.80007  1.0000
  H   H1789     1.0  0.62738  0.31701  0.97140  1.0000
  C   C1063     1.0  0.73837  0.19746  0.72011  1.0000
  H   H1790     1.0  0.67991  0.31881  0.94470  1.0000
  H   H1791     1.0  0.49194  0.08520  0.55371  1.0000
  H   H1792     1.0  0.59562  0.31330  0.72768  1.0000
  C   C1064     1.0  0.50028  0.27622  0.98996  1.0000
  C   C1065     1.0  0.50919  0.29812  0.98702  1.0000
  S   S303      1.0  0.72893  0.31870  0.57518  1.0000
  H   H1793     1.0  0.52677  0.29584  0.99025  1.0000
  S   S304      1.0  0.70021  0.32020  0.65080  1.0000
  S   S305      1.0  0.55524  0.32041  0.92950  1.0000
  C   C1066     1.0  0.64420  0.32059  0.96776  1.0000
  H   H1794     1.0  0.73710  0.36949  0.14562  1.0000
  C   C1067     1.0  0.52689  0.64853  0.32278  1.0000
  H   H1795     1.0  0.55641  0.63360  0.26515  1.0000
  H   H1796     1.0  0.52968  0.32827  0.01097  1.0000
  H   H1797     1.0  0.52699  0.63713  0.23710  1.0000
  H   H1798     1.0  0.49144  0.63748  0.36058  1.0000
  H   H1799     1.0  0.50788  0.34588  0.02131  1.0000
  C   C1068     1.0  0.52240  0.65254  0.07763  1.0000
  H   H1800     1.0  0.65159  0.32557  0.01075  1.0000
  C   C1069     1.0  0.51299  0.33397  0.00523  1.0000
  H   H1801     1.0  0.50895  0.34134  0.41103  1.0000
  H   H1802     1.0  0.49805  0.38012  0.41373  1.0000
  H   H1803     1.0  0.53101  0.64558  0.05958  1.0000
  H   H1804     1.0  0.50907  0.33022  0.33036  1.0000
  C   C1070     1.0  0.52963  0.63821  0.10196  1.0000
  H   H1805     1.0  0.54666  0.63937  0.10733  1.0000
  H   H1806     1.0  0.53211  0.61483  0.31436  1.0000
  C   C1071     1.0  0.73053  0.34050  0.48951  1.0000
  H   H1807     1.0  0.57497  0.64790  0.28402  1.0000
  C   C1072     1.0  0.49221  0.34691  0.41174  1.0000
  H   H1808     1.0  0.54297  0.64986  0.33012  1.0000
  C   C1073     1.0  0.52067  0.62864  0.31389  1.0000
  S   S306      1.0  0.49253  0.60111  0.29397  1.0000
  H   H1809     1.0  0.63886  0.34860  0.99507  1.0000
  H   H1810     1.0  0.71347  0.34038  0.48342  1.0000
  H   H1811     1.0  0.72697  0.35436  0.11835  1.0000
  H   H1812     1.0  0.50447  0.62253  0.38694  1.0000
  H   H1813     1.0  0.51953  0.64157  0.12021  1.0000
  C   C1074     1.0  0.49974  0.62646  0.30464  1.0000
  H   H1814     1.0  0.52216  0.64825  0.40610  1.0000
  C   C1075     1.0  0.56613  0.64743  0.26434  1.0000
  H   H1815     1.0  0.52794  0.62137  0.09614  1.0000
  H   H1816     1.0  0.55602  0.64683  0.21206  1.0000
  H   H1817     1.0  0.57843  0.64502  0.24822  1.0000
  H   H1818     1.0  0.50530  0.65026  0.07330  1.0000
  H   H1819     1.0  0.49413  0.32270  0.47865  1.0000
  C   C1076     1.0  0.52036  0.65359  0.24223  1.0000
  C   C1077     1.0  0.65081  0.33491  0.99160  1.0000
  H   H1820     1.0  0.73925  0.34695  0.44810  1.0000
  H   H1821     1.0  0.49397  0.62539  0.43331  1.0000
  H   H1822     1.0  0.49239  0.64172  0.22284  1.0000
  H   H1823     1.0  0.51678  0.65338  0.26440  1.0000
  H   H1824     1.0  0.51852  0.33507  0.96080  1.0000
  N   N75       1.0  0.64660  0.32920  0.93933  1.0000
  H   H1825     1.0  0.73260  0.35656  0.49795  1.0000
  H   H1826     1.0  0.66688  0.34049  0.98870  1.0000
  H   H1827     1.0  0.52466  0.62076  0.81664  1.0000
  C   C1078     1.0  0.51331  0.63458  0.81494  1.0000
  H   H1828     1.0  0.51329  0.35754  0.90319  1.0000
  C   C1079     1.0  0.67753  0.33095  0.90419  1.0000
  H   H1829     1.0  0.52957  0.63091  0.75829  1.0000
  H   H1830     1.0  0.52680  0.35729  0.97972  1.0000
  H   H1831     1.0  0.62278  0.37682  0.91177  1.0000
  H   H1832     1.0  0.69076  0.34143  0.90223  1.0000
  H   H1833     1.0  0.61654  0.34843  0.94249  1.0000
  H   H1834     1.0  0.49113  0.47258  0.87433  1.0000
  H   H1835     1.0  0.65010  0.36785  0.90684  1.0000
  C   C1080     1.0  0.63410  0.36235  0.91059  1.0000
  C   C1081     1.0  0.51424  0.34597  0.97806  1.0000
  H   H1836     1.0  0.56184  0.63879  0.75285  1.0000
  C   C1082     1.0  0.49682  0.36191  0.90850  1.0000
  H   H1837     1.0  0.66537  0.33633  0.88881  1.0000
  S   S307      1.0  0.59733  0.32770  0.86928  1.0000
  C   C1083     1.0  0.49250  0.63210  0.80551  1.0000
  H   H1838     1.0  0.49917  0.39557  0.90340  1.0000
  H   H1839     1.0  0.67469  0.34672  0.94368  1.0000
  C   C1084     1.0  0.66995  0.33167  0.93428  1.0000
  H   H1840     1.0  0.52653  0.62894  0.72130  1.0000
  H   H1841     1.0  0.62888  0.35299  0.89292  1.0000
  C   C1085     1.0  0.63360  0.35037  0.93781  1.0000
  H   H1842     1.0  0.73335  0.32844  0.50576  1.0000
  H   H1843     1.0  0.63970  0.33016  0.84782  1.0000
  H   H1844     1.0  0.63912  0.36170  0.95331  1.0000
  H   H1845     1.0  0.55074  0.65023  0.70851  1.0000
  C   C1086     1.0  0.51931  0.63549  0.74048  1.0000
  H   H1846     1.0  0.50429  0.62767  0.74332  1.0000
  H   H1847     1.0  0.58320  0.32263  0.76757  1.0000
  H   H1848     1.0  0.49906  0.35544  0.97305  1.0000
  Fe  Fe159     1.0  0.60809  0.74701  0.08059  1.0000
  S   S308      1.0  0.64318  0.74951  0.07493  1.0000
  Fe  Fe160     1.0  0.56560  0.77353  0.08691  1.0000
  S   S309      1.0  0.54750  0.74449  0.08606  1.0000
  S   S310      1.0  0.55063  0.80717  0.09369  1.0000
  Fe  Fe161     1.0  0.57331  0.72994  0.11409  1.0000
  Fe  Fe162     1.0  0.56922  0.73317  0.05156  1.0000
  S   S311      1.0  0.59004  0.75985  0.11740  1.0000
  S   S312      1.0  0.58540  0.76342  0.05033  1.0000
  S   S313      1.0  0.67535  0.76556  0.43666  1.0000
  S   S314      1.0  0.59565  0.76709  0.35558  1.0000
  H   H1849     1.0  0.50600  0.71619  0.25597  1.0000
  H   H1850     1.0  0.68659  0.75101  0.09156  1.0000
  S   S315      1.0  0.51924  0.69185  0.33334  1.0000
  H   H1851     1.0  0.68795  0.77931  0.19347  1.0000
  S   S316      1.0  0.56778  0.71495  0.37390  1.0000
  H   H1852     1.0  0.49826  0.66632  0.20853  1.0000
  C   C1087     1.0  0.67332  0.69923  0.02225  1.0000
  S   S317      1.0  0.59329  0.71594  0.07932  1.0000
  H   H1853     1.0  0.52741  0.70512  0.27677  1.0000
  H   H1854     1.0  0.72042  0.70852  0.46840  1.0000
  H   H1855     1.0  0.65109  0.74056  0.48481  1.0000
  C   C1088     1.0  0.65475  0.76536  0.41185  1.0000
  C   C1089     1.0  0.64232  0.74794  0.41042  1.0000
  C   C1090     1.0  0.62447  0.74819  0.39286  1.0000
  C   C1091     1.0  0.61865  0.76605  0.37683  1.0000
  C   C1092     1.0  0.63096  0.78356  0.37844  1.0000
  C   C1093     1.0  0.64900  0.78319  0.39578  1.0000
  H   H1856     1.0  0.64629  0.73425  0.42323  1.0000
  H   H1857     1.0  0.61495  0.73469  0.39227  1.0000
  H   H1858     1.0  0.62645  0.79753  0.36637  1.0000
  H   H1859     1.0  0.65811  0.79696  0.39729  1.0000
  C   C1094     1.0  0.52693  0.81734  0.07699  1.0000
  C   C1095     1.0  0.51582  0.80480  0.05905  1.0000
  C   C1096     1.0  0.56561  0.67061  0.06898  1.0000
  H   H1860     1.0  0.63248  0.76551  0.21239  1.0000
  H   H1861     1.0  0.72717  0.72209  0.03093  1.0000
  C   C1097     1.0  0.51885  0.83844  0.08223  1.0000
  H   H1862     1.0  0.52188  0.78856  0.05487  1.0000
  H   H1863     1.0  0.61280  0.76301  0.44960  1.0000
  H   H1864     1.0  0.54736  0.81374  0.46313  1.0000
  H   H1865     1.0  0.52742  0.84824  0.09602  1.0000
  H   H1866     1.0  0.51023  0.65728  0.43829  1.0000
  S   S318      1.0  0.73022  0.73853  0.42465  1.0000
  C   C1098     1.0  0.68811  0.70385  0.12482  1.0000
  C   C1099     1.0  0.66731  0.69860  0.11900  1.0000
  C   C1100     1.0  0.65330  0.71249  0.10363  1.0000
  C   C1101     1.0  0.66017  0.73152  0.09387  1.0000
  C   C1102     1.0  0.68114  0.73630  0.09890  1.0000
  C   C1103     1.0  0.69515  0.72234  0.11384  1.0000
  H   H1867     1.0  0.66204  0.75026  0.29501  1.0000
  H   H1868     1.0  0.70577  0.71182  0.05010  1.0000
  C   C1104     1.0  0.51137  0.66069  0.41617  1.0000
  H   H1869     1.0  0.70235  0.69264  0.45090  1.0000
  H   H1870     1.0  0.55941  0.73158  0.20319  1.0000
  H   H1871     1.0  0.56342  0.68137  0.25882  1.0000
  H   H1872     1.0  0.52510  0.71353  0.11701  1.0000
  H   H1873     1.0  0.69385  0.75663  0.30615  1.0000
  C   C1105     1.0  0.57273  0.71959  0.20432  1.0000
  H   H1874     1.0  0.69297  0.72576  0.22731  1.0000
  C   C1106     1.0  0.49716  0.97970  0.36366  1.0000
  H   H1875     1.0  0.57879  0.75184  0.41504  1.0000
  H   H1876     1.0  0.69460  0.71635  0.19309  1.0000
  H   H1877     1.0  0.60037  0.71012  0.00333  1.0000
  C   C1107     1.0  0.55015  0.80278  0.48057  1.0000
  Fe  Fe163     1.0  0.71034  0.76946  0.42784  1.0000
  C   C1108     1.0  0.58239  0.71454  0.22987  1.0000
  H   H1878     1.0  0.50365  0.71750  0.09212  1.0000
  H   H1879     1.0  0.52993  0.68225  0.18031  1.0000
  C   C1109     1.0  0.66311  0.73358  0.33539  1.0000
  Fe  Fe164     1.0  0.55389  0.69970  0.33671  1.0000
  H   H1880     1.0  0.52452  0.70387  0.05555  1.0000
  H   H1881     1.0  0.56190  0.78397  0.39767  1.0000
  S   S319      1.0  0.73001  0.74012  0.16325  1.0000
  H   H1882     1.0  0.68535  0.74498  0.38013  1.0000
  H   H1883     1.0  0.71205  0.75506  0.33349  1.0000
  H   H1884     1.0  0.54868  0.69166  0.46316  1.0000
  S   S320      1.0  0.70461  0.68844  0.14769  1.0000
  H   H1885     1.0  0.71144  0.72599  0.11676  1.0000
  H   H1886     1.0  0.63720  0.70854  0.09963  1.0000
  N   N76       1.0  0.52531  0.67589  0.08126  1.0000
  H   H1887     1.0  0.63753  0.75124  0.31259  1.0000
  C   C1110     1.0  0.51222  0.66648  0.32246  1.0000
  C   C1111     1.0  0.58158  0.79222  0.43296  1.0000
  C   C1112     1.0  0.71268  0.72632  0.04320  1.0000
  H   H1888     1.0  0.67026  0.69539  0.23911  1.0000
  C   C1113     1.0  0.49675  0.81330  0.04658  1.0000
  H   H1889     1.0  0.64178  0.74090  0.15037  1.0000
  H   H1890     1.0  0.57262  0.75144  0.47795  1.0000
  C   C1114     1.0  0.68329  0.77514  0.34087  1.0000
  C   C1115     1.0  0.66792  0.72109  0.00890  1.0000
  H   H1891     1.0  0.69730  0.75126  0.48543  1.0000
  S   S321      1.0  0.56367  0.71060  0.15038  1.0000
  H   H1892     1.0  0.69198  0.71205  0.40375  1.0000
  C   C1116     1.0  0.51124  0.68392  0.10470  1.0000
  S   S322      1.0  0.61307  0.68097  0.40685  1.0000
  N   N77       1.0  0.68696  0.73406  0.33789  1.0000
  N   N78       1.0  0.53658  0.66939  0.23700  1.0000
  H   H1893     1.0  0.71825  0.73428  0.06196  1.0000
  H   H1894     1.0  0.67448  0.70082  0.48642  1.0000
  C   C1117     1.0  0.50965  0.70814  0.11007  1.0000
  C   C1118     1.0  0.49839  0.65739  0.22780  1.0000
  C   C1119     1.0  0.57801  0.74431  0.43529  1.0000
  C   C1120     1.0  0.70676  0.69883  0.47133  1.0000
  H   H1895     1.0  0.66586  0.77628  0.33689  1.0000
  H   H1896     1.0  0.70689  0.70151  0.28338  1.0000
  H   H1897     1.0  0.68246  0.71770  0.28230  1.0000
  C   C1121     1.0  0.57371  0.79405  0.48277  1.0000
  C   C1122     1.0  0.69847  0.71559  0.32278  1.0000
  S   S323      1.0  0.73165  0.78199  0.46040  1.0000
  C   C1123     1.0  0.60614  0.68770  0.20788  1.0000
  H   H1898     1.0  0.57675  0.72298  0.24809  1.0000
  H   H1899     1.0  0.64747  0.72696  0.29625  1.0000
  C   C1124     1.0  0.60977  0.69542  0.46031  1.0000
  C   C1125     1.0  0.54799  0.67989  0.08847  1.0000
  H   H1900     1.0  0.55339  0.76357  0.45582  1.0000
  H   H1901     1.0  0.69154  0.70048  0.32786  1.0000
  C   C1126     1.0  0.68735  0.71119  0.38182  1.0000
  H   H1902     1.0  0.56793  0.68174  0.05201  1.0000
  H   H1903     1.0  0.66996  0.70937  0.38135  1.0000
  C   C1127     1.0  0.69865  0.71656  0.29131  1.0000
  H   H1904     1.0  0.59368  0.73574  0.44007  1.0000
  C   C1128     1.0  0.57958  0.70855  0.18049  1.0000
  H   H1905     1.0  0.55642  0.81032  0.40987  1.0000
  Fe  Fe165     1.0  0.58503  0.73464  0.34498  1.0000
  H   H1906     1.0  0.69633  0.69683  0.37320  1.0000
  S   S324      1.0  0.56746  0.72294  0.30807  1.0000
  Fe  Fe166     1.0  0.59564  0.69108  0.36782  1.0000
  C   C1129     1.0  0.59650  0.69272  0.18241  1.0000
  S   S325      1.0  0.58085  0.67429  0.33232  1.0000
  S   S326      1.0  0.55450  0.71908  0.01384  1.0000
  C   C1130     1.0  0.68062  0.69549  0.22093  1.0000
  H   H1907     1.0  0.68412  0.74755  0.04323  1.0000
  H   H1908     1.0  0.54872  0.66233  0.16726  1.0000
  H   H1909     1.0  0.66183  0.68416  0.12714  1.0000
  C   C1131     1.0  0.65232  0.74087  0.30814  1.0000
  C   C1132     1.0  0.55231  0.66863  0.26062  1.0000
  Fe  Fe167     1.0  0.59480  0.69801  0.30470  1.0000
  H   H1910     1.0  0.51330  0.66365  0.02428  1.0000
  H   H1911     1.0  0.71552  0.71349  0.32945  1.0000
  H   H1912     1.0  0.65495  0.74323  0.35195  1.0000
  C   C1133     1.0  0.59892  0.68846  0.43707  1.0000
  N   N79       1.0  0.58243  0.78014  0.45952  1.0000
  H   H1913     1.0  0.52503  0.65409  0.18193  1.0000
  H   H1914     1.0  0.68906  0.69141  0.01672  1.0000
  H   H1915     1.0  0.67635  0.77187  0.22476  1.0000
  C   C1134     1.0  0.57082  0.76018  0.45821  1.0000
  H   H1916     1.0  0.49563  0.97526  0.38540  1.0000
  H   H1917     1.0  0.68094  0.72300  0.46735  1.0000
  H   H1918     1.0  0.68636  0.77662  0.36308  1.0000
  C   C1135     1.0  0.59892  0.69829  0.23183  1.0000
  H   H1919     1.0  0.70793  0.72942  0.28370  1.0000
  C   C1136     1.0  0.56571  0.69292  0.46238  1.0000
  H   H1920     1.0  0.67168  0.77800  0.01898  1.0000
  H   H1921     1.0  0.54976  0.69724  0.08933  1.0000
  H   H1922     1.0  0.54621  0.78914  0.42797  1.0000
  H   H1923     1.0  0.61731  0.74424  0.22392  1.0000
  H   H1924     1.0  0.59388  0.78496  0.41869  1.0000
  C   C1137     1.0  0.66275  0.77007  0.00271  1.0000
  H   H1925     1.0  0.70024  0.75720  0.21148  1.0000
  H   H1926     1.0  0.51691  0.67658  0.12432  1.0000
  H   H1927     1.0  0.56632  0.73216  0.43350  1.0000
  C   C1138     1.0  0.52677  0.69199  0.23501  1.0000
  S   S327      1.0  0.61065  0.69022  0.26362  1.0000
  H   H1928     1.0  0.55347  0.76688  0.00182  1.0000
  C   C1139     1.0  0.56023  0.79369  0.41673  1.0000
  H   H1929     1.0  0.71051  0.73271  0.37061  1.0000
  C   C1140     1.0  0.69651  0.74196  0.02815  1.0000
  H   H1930     1.0  0.56836  0.68173  0.42061  1.0000
  H   H1931     1.0  0.65668  0.72995  0.02319  1.0000
  H   H1932     1.0  0.50630  0.96669  0.35239  1.0000
  C   C1141     1.0  0.60549  0.77325  0.46618  1.0000
  H   H1933     1.0  0.62934  0.76177  0.24761  1.0000
  S   S328      1.0  0.61311  0.71113  0.33956  1.0000
  C   C1142     1.0  0.69304  0.73175  0.36774  1.0000
  H   H1934     1.0  0.53917  0.70280  0.22982  1.0000
  H   H1935     1.0  0.63722  0.78406  0.47124  1.0000
  H   H1936     1.0  0.68963  0.78916  0.33127  1.0000
  H   H1937     1.0  0.65849  0.71722  0.33900  1.0000
  C   C1143     1.0  0.57683  0.68734  0.43822  1.0000
  C   C1144     1.0  0.57642  0.70016  0.48549  1.0000
  C   C1145     1.0  0.69480  0.75473  0.32857  1.0000
  C   C1146     1.0  0.52296  0.67734  0.02795  1.0000
  H   H1938     1.0  0.67225  0.70060  0.04488  1.0000
  H   H1939     1.0  0.69645  0.68759  0.22679  1.0000
  N   N80       1.0  0.66362  0.73194  0.20368  1.0000
  C   C1147     1.0  0.68372  0.71819  0.21097  1.0000
  C   C1148     1.0  0.67045  0.75122  0.18921  1.0000
  C   C1149     1.0  0.65034  0.71927  0.18476  1.0000
  C   C1150     1.0  0.65187  0.73753  0.22984  1.0000
  C   C1151     1.0  0.51559  0.70111  0.26098  1.0000
  C   C1152     1.0  0.68452  0.76547  0.20608  1.0000
  C   C1153     1.0  0.63389  0.73171  0.16602  1.0000
  C   C1154     1.0  0.63163  0.75302  0.22789  1.0000
  C   C1155     1.0  0.54911  0.66364  0.21145  1.0000
  H   H1940     1.0  0.50464  0.69015  0.26965  1.0000
  H   H1941     1.0  0.65667  0.76179  0.18186  1.0000
  H   H1942     1.0  0.67935  0.74622  0.17024  1.0000
  H   H1943     1.0  0.66085  0.70935  0.17072  1.0000
  H   H1944     1.0  0.64161  0.70783  0.19652  1.0000
  H   H1945     1.0  0.64650  0.72297  0.23936  1.0000
  H   H1946     1.0  0.66260  0.74375  0.24561  1.0000
  H   H1947     1.0  0.60160  0.68368  0.16438  1.0000
  H   H1948     1.0  0.67429  0.68551  0.20446  1.0000
  C   C1156     1.0  0.68720  0.71185  0.48362  1.0000
  H   H1949     1.0  0.58085  0.66807  0.08061  1.0000
  H   H1950     1.0  0.58595  0.80876  0.43650  1.0000
  C   C1157     1.0  0.62048  0.79119  0.47034  1.0000
  H   H1951     1.0  0.62208  0.74228  0.17730  1.0000
  H   H1952     1.0  0.62476  0.72017  0.15452  1.0000
  H   H1953     1.0  0.61886  0.67506  0.20913  1.0000
  S   S329      1.0  0.72703  0.78399  0.39301  1.0000
  H   H1954     1.0  0.62686  0.69623  0.45960  1.0000
  H   H1955     1.0  0.49821  0.71201  0.12693  1.0000
  H   H1956     1.0  0.61965  0.80254  0.45314  1.0000
  H   H1957     1.0  0.70534  0.75607  0.02366  1.0000
  H   H1958     1.0  0.51491  0.69405  0.21823  1.0000
  H   H1959     1.0  0.54400  0.67186  0.28037  1.0000
  H   H1960     1.0  0.71201  0.68485  0.48400  1.0000
  C   C1158     1.0  0.51788  0.68804  0.05591  1.0000
  H   H1961     1.0  0.60674  0.76327  0.48490  1.0000
  C   C1159     1.0  0.49972  0.84691  0.06985  1.0000
  H   H1962     1.0  0.56293  0.67347  0.21011  1.0000
  H   H1963     1.0  0.49363  0.86314  0.07407  1.0000
  C   C1160     1.0  0.59851  0.70159  0.48434  1.0000
  H   H1964     1.0  0.51902  0.67587  0.41449  1.0000
  H   H1965     1.0  0.49784  0.82270  0.13090  1.0000
  H   H1966     1.0  0.55239  0.67474  0.10965  1.0000
  C   C1161     1.0  0.53706  0.66586  0.18398  1.0000
  H   H1967     1.0  0.66158  0.68812  0.01520  1.0000
  N   N81       1.0  0.68621  0.73414  0.00239  1.0000
  H   H1968     1.0  0.64877  0.76327  0.01174  1.0000
  Fe  Fe168     1.0  0.73434  0.70492  0.15690  1.0000
  H   H1969     1.0  0.61747  0.79974  0.49003  1.0000
  H   H1970     1.0  0.73489  0.78637  0.05349  1.0000
  H   H1971     1.0  0.53905  0.79007  0.47993  1.0000
  H   H1972     1.0  0.50020  0.69151  0.05591  1.0000
  C   C1162     1.0  0.49129  0.66429  0.31326  1.0000
  H   H1973     1.0  0.54008  0.67228  0.02538  1.0000
  H   H1974     1.0  0.73964  0.77758  0.00422  1.0000
  H   H1975     1.0  0.71118  0.70857  0.99507  1.0000
  H   H1976     1.0  0.49462  0.67940  0.10154  1.0000
  H   H1977     1.0  0.53515  0.78996  0.99971  1.0000
  H   H1978     1.0  0.51859  0.68900  0.01152  1.0000
  H   H1979     1.0  0.58273  0.80835  0.48520  1.0000
  H   H1980     1.0  0.53757  0.98696  0.05835  1.0000
  H   H1981     1.0  0.51672  0.98523  0.03306  1.0000
  H   H1982     1.0  0.59836  0.77577  0.99250  1.0000
  H   H1983     1.0  0.49181  0.66962  0.38149  1.0000
  H   H1984     1.0  0.56290  0.65481  0.06045  1.0000
  Fe  Fe169     1.0  0.60986  0.74364  0.58187  1.0000
  S   S330      1.0  0.64497  0.74728  0.58574  1.0000
  Fe  Fe170     1.0  0.56906  0.77184  0.56944  1.0000
  S   S331      1.0  0.54876  0.74491  0.57565  1.0000
  S   S332      1.0  0.55788  0.80559  0.55741  1.0000
  Fe  Fe171     1.0  0.56973  0.73638  0.61227  1.0000
  Fe  Fe172     1.0  0.57370  0.72557  0.55101  1.0000
  S   S333      1.0  0.58806  0.76508  0.60785  1.0000
  S   S334      1.0  0.59279  0.75312  0.54285  1.0000
  S   S335      1.0  0.67718  0.76788  0.91742  1.0000
  S   S336      1.0  0.58983  0.77372  0.85030  1.0000
  C   C1163     1.0  0.70347  0.70977  0.53021  1.0000
  H   H1985     1.0  0.69006  0.74292  0.59220  1.0000
  H   H1986     1.0  0.61974  0.69758  0.96112  1.0000
  Fe  Fe173     1.0  0.57889  0.74101  0.84204  1.0000
  C   C1164     1.0  0.51280  0.80078  0.67444  1.0000
  S   S337      1.0  0.56099  0.72873  0.80595  1.0000
  C   C1165     1.0  0.72660  0.71624  0.84394  1.0000
  S   S338      1.0  0.56109  0.72227  0.87153  1.0000
  S   S339      1.0  0.70785  0.67466  0.63633  1.0000
  H   H1987     1.0  0.70417  0.67987  0.55200  1.0000
  H   H1988     1.0  0.51572  0.75480  0.62267  1.0000
  C   C1166     1.0  0.65356  0.77010  0.89743  1.0000
  C   C1167     1.0  0.63923  0.75446  0.90054  1.0000
  C   C1168     1.0  0.62003  0.75531  0.88565  1.0000
  C   C1169     1.0  0.61447  0.77232  0.86819  1.0000
  C   C1170     1.0  0.62855  0.78832  0.86546  1.0000
  C   C1171     1.0  0.64825  0.78705  0.87972  1.0000
  H   H1989     1.0  0.64305  0.74141  0.91440  1.0000
  H   H1990     1.0  0.60925  0.74302  0.88828  1.0000
  H   H1991     1.0  0.62431  0.80159  0.85207  1.0000
  H   H1992     1.0  0.65905  0.79937  0.87744  1.0000
  C   C1172     1.0  0.53046  0.81419  0.55609  1.0000
  C   C1173     1.0  0.51485  0.79981  0.55813  1.0000
  H   H1993     1.0  0.54384  0.75849  0.90652  1.0000
  C   C1174     1.0  0.70735  0.75818  0.52653  1.0000
  H   H1994     1.0  0.70606  0.71859  0.54951  1.0000
  C   C1175     1.0  0.52418  0.83598  0.55356  1.0000
  H   H1995     1.0  0.51949  0.78298  0.55956  1.0000
  H   H1996     1.0  0.67250  0.73923  0.54209  1.0000
  H   H1997     1.0  0.68805  0.74975  0.85877  1.0000
  H   H1998     1.0  0.53619  0.84719  0.55181  1.0000
  H   H1999     1.0  0.74060  0.70620  0.85194  1.0000
  H   H2000     1.0  0.55262  0.74463  0.71022  1.0000
  C   C1176     1.0  0.69059  0.69326  0.61868  1.0000
  C   C1177     1.0  0.66883  0.69030  0.61595  1.0000
  C   C1178     1.0  0.65462  0.70650  0.60499  1.0000
  C   C1179     1.0  0.66219  0.72572  0.59704  1.0000
  C   C1180     1.0  0.68404  0.72822  0.59868  1.0000
  C   C1181     1.0  0.69823  0.71189  0.60895  1.0000
  H   H2001     1.0  0.66287  0.67577  0.62312  1.0000
  H   H2002     1.0  0.63780  0.70435  0.60354  1.0000
  N   N82       1.0  0.65764  0.73990  0.68691  1.0000
  C   C1182     1.0  0.66581  0.75806  0.67125  1.0000
  C   C1183     1.0  0.63808  0.73353  0.67186  1.0000
  C   C1184     1.0  0.67503  0.72180  0.68665  1.0000
  C   C1185     1.0  0.65292  0.74748  0.71571  1.0000
  C   C1186     1.0  0.68577  0.76749  0.68333  1.0000
  H   H2003     1.0  0.62123  0.76479  0.66140  1.0000
  C   C1187     1.0  0.66847  0.69918  0.69170  1.0000
  C   C1188     1.0  0.64158  0.73252  0.73440  1.0000
  H   H2004     1.0  0.66949  0.75312  0.64971  1.0000
  H   H2005     1.0  0.69831  0.72408  0.79059  1.0000
  H   H2006     1.0  0.63242  0.71866  0.67980  1.0000
  H   H2007     1.0  0.64197  0.72986  0.65011  1.0000
  H   H2008     1.0  0.68317  0.72078  0.66649  1.0000
  H   H2009     1.0  0.68769  0.72457  0.70201  1.0000
  H   H2010     1.0  0.66799  0.75052  0.72665  1.0000
  H   H2011     1.0  0.64357  0.76328  0.71586  1.0000
  H   H2012     1.0  0.69180  0.77860  0.66832  1.0000
  H   H2013     1.0  0.68194  0.77681  0.70227  1.0000
  H   H2014     1.0  0.69898  0.75531  0.68767  1.0000
  C   C1189     1.0  0.59125  0.69626  0.93657  1.0000
  C   C1190     1.0  0.70599  0.70835  0.85563  1.0000
  Fe  Fe174     1.0  0.58811  0.70352  0.80313  1.0000
  H   H2015     1.0  0.65925  0.69333  0.67414  1.0000
  H   H2016     1.0  0.65951  0.69781  0.71080  1.0000
  H   H2017     1.0  0.68316  0.68814  0.69331  1.0000
  H   H2018     1.0  0.65333  0.72228  0.74646  1.0000
  H   H2019     1.0  0.63090  0.72235  0.72342  1.0000
  H   H2020     1.0  0.63106  0.74210  0.74885  1.0000
  H   H2021     1.0  0.56226  0.80853  0.61626  1.0000
  S   S340      1.0  0.57376  0.68053  0.83143  1.0000
  S   S341      1.0  0.56146  0.70685  0.51531  1.0000
  H   H2022     1.0  0.54770  0.83452  0.61818  1.0000
  H   H2023     1.0  0.49634  0.79613  0.67158  1.0000
  C   C1191     1.0  0.56895  0.69910  0.93668  1.0000
  H   H2024     1.0  0.59268  0.82002  0.96540  1.0000
  S   S342      1.0  0.60676  0.71698  0.83753  1.0000
  H   H2025     1.0  0.72046  0.73612  0.49643  1.0000
  H   H2026     1.0  0.66348  0.74605  0.80379  1.0000
  H   H2027     1.0  0.50973  0.69711  0.71546  1.0000
  C   C1192     1.0  0.56498  0.73171  0.70866  1.0000
  C   C1193     1.0  0.56842  0.76191  0.93735  1.0000
  S   S343      1.0  0.72892  0.72610  0.66089  1.0000
  H   H2028     1.0  0.57948  0.80161  0.92467  1.0000
  C   C1194     1.0  0.68552  0.74122  0.83908  1.0000
  H   H2029     1.0  0.53863  0.78182  0.92681  1.0000
  C   C1195     1.0  0.54564  0.77855  0.98739  1.0000
  H   H2030     1.0  0.55547  0.68747  0.75976  1.0000
  H   H2031     1.0  0.61269  0.75350  0.69321  1.0000
  C   C1196     1.0  0.69281  0.70806  0.79301  1.0000
  Fe  Fe175     1.0  0.54698  0.70621  0.83498  1.0000
  H   H2032     1.0  0.60526  0.74309  0.66084  1.0000
  H   H2033     1.0  0.53935  0.67070  0.77755  1.0000
  N   N83       1.0  0.52318  0.80532  0.64766  1.0000
  C   C1197     1.0  0.61845  0.74994  0.67217  1.0000
  C   C1198     1.0  0.72756  0.75711  0.78548  1.0000
  C   C1199     1.0  0.59056  0.79201  0.93848  1.0000
  H   H2034     1.0  0.60695  0.70698  0.50211  1.0000
  C   C1200     1.0  0.56923  0.71011  0.98465  1.0000
  H   H2035     1.0  0.55530  0.80205  0.66485  1.0000
  C   C1201     1.0  0.55681  0.82186  0.63004  1.0000
  C   C1202     1.0  0.66571  0.75237  0.82475  1.0000
  S   S344      1.0  0.60257  0.69510  0.76133  1.0000
  Fe  Fe176     1.0  0.58869  0.69787  0.86649  1.0000
  N   N84       1.0  0.57853  0.77754  0.95583  1.0000
  H   H2036     1.0  0.53997  0.66229  0.66411  1.0000
  C   C1203     1.0  0.50966  0.82222  0.63214  1.0000
  N   N85       1.0  0.53207  0.67316  0.73410  1.0000
  C   C1204     1.0  0.50515  0.67278  0.82031  1.0000
  H   H2037     1.0  0.65320  0.69316  0.89118  1.0000
  C   C1205     1.0  0.52273  0.69587  0.73109  1.0000
  S   S345      1.0  0.72571  0.73711  0.73579  1.0000
  H   H2038     1.0  0.58065  0.75272  0.92472  1.0000
  H   H2039     1.0  0.61526  0.80035  0.96852  1.0000
  H   H2040     1.0  0.66014  0.71839  0.52575  1.0000
  H   H2041     1.0  0.61233  0.81693  0.93923  1.0000
  H   H2042     1.0  0.60171  0.78267  0.92456  1.0000
  C   C1206     1.0  0.55803  0.70586  0.96058  1.0000
  C   C1207     1.0  0.57512  0.72367  0.73254  1.0000
  H   H2043     1.0  0.62216  0.74415  0.97976  1.0000
  H   H2044     1.0  0.51184  0.83832  0.64075  1.0000
  H   H2045     1.0  0.70807  0.70458  0.94667  1.0000
  H   H2046     1.0  0.72859  0.77220  0.82528  1.0000
  S   S346      1.0  0.72603  0.79191  0.95058  1.0000
  H   H2047     1.0  0.57142  0.82869  0.63784  1.0000
  S   S347      1.0  0.59273  0.71427  0.58832  1.0000
  C   C1208     1.0  0.56190  0.79089  0.97193  1.0000
  H   H2048     1.0  0.59078  0.69924  0.66167  1.0000
  H   H2049     1.0  0.68200  0.70272  0.96024  1.0000
  H   H2050     1.0  0.68313  0.70554  0.77435  1.0000
  H   H2051     1.0  0.67141  0.72473  0.88386  1.0000
  C   C1209     1.0  0.69289  0.68967  0.53868  1.0000
  C   C1210     1.0  0.51387  0.65967  0.73943  1.0000
  H   H2052     1.0  0.65356  0.77172  0.66974  1.0000
  H   H2053     1.0  0.55898  0.78055  0.90061  1.0000
  H   H2054     1.0  0.53380  0.78986  0.60993  1.0000
  S   S348      1.0  0.55522  0.73200  0.65409  1.0000
  C   C1211     1.0  0.52781  0.78562  0.63031  1.0000
  Fe  Fe177     1.0  0.73509  0.69107  0.65461  1.0000
  C   C1212     1.0  0.57040  0.72293  0.68299  1.0000
  H   H2055     1.0  0.57083  0.73084  0.75195  1.0000
  H   H2056     1.0  0.71513  0.71382  0.60953  1.0000
  C   C1213     1.0  0.59652  0.69800  0.70542  1.0000
  C   C1214     1.0  0.60251  0.69997  0.96090  1.0000
  H   H2057     1.0  0.69918  0.74469  0.82633  1.0000
  H   H2058     1.0  0.49938  0.69870  0.76491  1.0000
  H   H2059     1.0  0.50625  0.66408  0.75930  1.0000
  H   H2060     1.0  0.54078  0.70791  0.96031  1.0000
  H   H2061     1.0  0.55724  0.67678  0.70522  1.0000
  H   H2062     1.0  0.71574  0.73283  0.97982  1.0000
  C   C1215     1.0  0.58651  0.70623  0.68136  1.0000
  H   H2063     1.0  0.67839  0.69373  0.55106  1.0000
  C   C1216     1.0  0.67010  0.73177  0.52182  1.0000
  H   H2064     1.0  0.68880  0.72666  0.94319  1.0000
  H   H2065     1.0  0.72740  0.71545  0.82141  1.0000
  C   C1217     1.0  0.66803  0.71530  0.86519  1.0000
  H   H2066     1.0  0.50703  0.72328  0.75223  1.0000
  H   H2067     1.0  0.70691  0.71163  0.87805  1.0000
  C   C1218     1.0  0.59059  0.70645  0.73123  1.0000
  H   H2068     1.0  0.65201  0.72160  0.85781  1.0000
  C   C1219     1.0  0.50244  0.84343  0.55397  1.0000
  C   C1220     1.0  0.55155  0.77159  0.91689  1.0000
  H   H2069     1.0  0.66190  0.70976  0.81267  1.0000
  S   S349      1.0  0.51230  0.69847  0.82986  1.0000
  H   H2070     1.0  0.56959  0.80063  0.98768  1.0000
  H   H2071     1.0  0.66751  0.74863  0.96886  1.0000
  C   C1221     1.0  0.67895  0.70580  0.81851  1.0000
  N   N86       1.0  0.68492  0.71770  0.84393  1.0000
  H   H2072     1.0  0.65910  0.68254  0.85809  1.0000
  C   C1222     1.0  0.54355  0.66689  0.70791  1.0000
  H   H2073     1.0  0.53504  0.70601  0.72365  1.0000
  H   H2074     1.0  0.68023  0.68451  0.88343  1.0000
  H   H2075     1.0  0.70681  0.69609  0.79296  1.0000
  H   H2076     1.0  0.60861  0.68479  0.70406  1.0000
  Fe  Fe178     1.0  0.71022  0.77959  0.91278  1.0000
  H   H2077     1.0  0.67974  0.68843  0.82246  1.0000
  C   C1223     1.0  0.69460  0.71371  0.95720  1.0000
  C   C1224     1.0  0.66533  0.69243  0.87471  1.0000
  H   H2078     1.0  0.71538  0.75068  0.54466  1.0000
  S   S350      1.0  0.73444  0.75155  0.90775  1.0000
  H   H2079     1.0  0.56003  0.69557  0.91847  1.0000
  H   H2080     1.0  0.52650  0.76773  0.68061  1.0000
  C   C1225     1.0  0.54772  0.67228  0.75784  1.0000
  H   H2081     1.0  0.65089  0.75147  0.83653  1.0000
  H   H2082     1.0  0.66803  0.76954  0.82277  1.0000
  H   H2083     1.0  0.57567  0.78537  0.50249  1.0000
  S   S351      1.0  0.60518  0.68785  0.90643  1.0000
  H   H2084     1.0  0.70745  0.69071  0.85344  1.0000
  H   H2085     1.0  0.55275  0.80266  0.95858  1.0000
  H   H2086     1.0  0.69210  0.76690  0.53274  1.0000
  H   H2087     1.0  0.54138  0.77520  0.63885  1.0000
  C   C1226     1.0  0.59156  0.70710  0.98480  1.0000
  C   C1227     1.0  0.53010  0.66895  0.68140  1.0000
  C   C1228     1.0  0.60335  0.80809  0.95421  1.0000
  H   H2088     1.0  0.51482  0.82271  0.61051  1.0000
  H   H2089     1.0  0.54021  0.78746  0.69948  1.0000
  H   H2090     1.0  0.62475  0.76489  0.95585  1.0000
  H   H2091     1.0  0.56094  0.74973  0.94947  1.0000
  H   H2092     1.0  0.50105  0.66265  0.72379  1.0000
  C   C1229     1.0  0.54422  0.81415  0.65448  1.0000
  C   C1230     1.0  0.61359  0.75367  0.96347  1.0000
  H   H2093     1.0  0.54181  0.82780  0.66909  1.0000
  C   C1231     1.0  0.50923  0.77168  0.62458  1.0000
  C   C1232     1.0  0.52451  0.78310  0.69186  1.0000
  H   H2094     1.0  0.71091  0.76214  0.78194  1.0000
  C   C1233     1.0  0.56661  0.65495  0.75688  1.0000
  H   H2095     1.0  0.71980  0.70479  0.52273  1.0000
  C   C1234     1.0  0.70282  0.72236  0.98456  1.0000
  C   C1235     1.0  0.51310  0.70671  0.75714  1.0000
  H   H2096     1.0  0.60997  0.74242  0.94692  1.0000
  S   S352      1.0  0.72729  0.80046  0.88437  1.0000
  H   H2097     1.0  0.58470  0.75292  0.98608  1.0000
  H   H2098     1.0  0.57841  0.65873  0.74128  1.0000
  H   H2099     1.0  0.72870  0.73270  0.85095  1.0000
  C   C1236     1.0  0.59322  0.76528  0.97570  1.0000
  H   H2100     1.0  0.52512  0.70783  0.77366  1.0000
  H   H2101     1.0  0.51480  0.78046  0.71019  1.0000
  H   H2102     1.0  0.68889  0.67961  0.52103  1.0000
  C   C1237     1.0  0.73753  0.76281  0.80998  1.0000
  H   H2103     1.0  0.49776  0.86028  0.55255  1.0000
  H   H2104     1.0  0.50093  0.77629  0.60516  1.0000
  H   H2105     1.0  0.52554  0.68583  0.67629  1.0000
  H   H2106     1.0  0.54601  0.81244  0.49916  1.0000
  H   H2107     1.0  0.53510  0.77030  0.97329  1.0000
  H   H2108     1.0  0.51088  0.81551  0.68726  1.0000
  N   N87       1.0  0.69124  0.72384  0.50971  1.0000
  H   H2109     1.0  0.51578  0.65990  0.68221  1.0000
  H   H2110     1.0  0.64133  0.75274  0.51589  1.0000
  H   H2111     1.0  0.57513  0.65464  0.77688  1.0000
  C   C1238     1.0  0.73905  0.74491  0.76554  1.0000
  H   H2112     1.0  0.71776  0.77027  0.51925  1.0000
  H   H2113     1.0  0.69037  0.76202  0.97789  1.0000
  C   C1239     1.0  0.67724  0.75341  0.98662  1.0000
  C   C1240     1.0  0.49316  0.80725  0.55875  1.0000
  H   H2114     1.0  0.65650  0.78273  0.98840  1.0000
  H   H2115     1.0  0.53558  0.65627  0.82999  1.0000
  C   C1241     1.0  0.70426  0.74210  0.50310  1.0000
  C   C1242     1.0  0.65609  0.74776  0.50436  1.0000
  C   C1243     1.0  0.51960  0.65475  0.82238  1.0000
  H   H2116     1.0  0.66404  0.76237  0.50019  1.0000
  H   H2117     1.0  0.49741  0.77171  0.64109  1.0000
  H   H2118     1.0  0.65780  0.71868  0.99052  1.0000
  H   H2119     1.0  0.83892  0.06490  0.48461  1.0000
  H   H2120     1.0  0.92352  0.99596  0.28918  1.0000
  H   H2121     1.0  0.91269  0.03144  0.29831  1.0000
  S   S353      1.0  0.90449  0.07192  0.45404  1.0000
  Fe  Fe179     1.0  0.91128  0.09732  0.05995  1.0000
  S   S354      1.0  0.94224  0.07730  0.06338  1.0000
  S   S355      1.0  0.89234  0.11250  0.09524  1.0000
  Fe  Fe180     1.0  0.95167  0.09581  0.02688  1.0000
  N   N88       1.0  0.86915  0.01799  0.46717  1.0000
  Fe  Fe181     1.0  0.92844  0.05533  0.03266  1.0000
  H   H2122     1.0  0.88899  0.02772  0.43404  1.0000
  S   S356      1.0  0.92119  0.11718  0.02506  1.0000
  S   S357      1.0  0.89666  0.07407  0.03236  1.0000
  C   C1244     1.0  0.84510  0.02979  0.17949  1.0000
  S   S358      1.0  0.98524  0.10691  0.02790  1.0000
  C   C1245     1.0  0.87524  0.02397  0.33655  1.0000
  H   H2123     1.0  0.80291  0.13946  0.28191  1.0000
  H   H2124     1.0  0.85856  0.09617  0.14152  1.0000
  Fe  Fe182     1.0  0.85225  0.13532  0.26522  1.0000
  S   S359      1.0  0.88652  0.14092  0.27354  1.0000
  S   S360      1.0  0.83120  0.16394  0.25076  1.0000
  Fe  Fe183     1.0  0.85997  0.08835  0.27852  1.0000
  S   S361      1.0  0.89453  0.09063  0.28891  1.0000
  S   S362      1.0  0.84626  0.05645  0.27813  1.0000
  Fe  Fe184     1.0  0.88314  0.12076  0.31070  1.0000
  S   S363      1.0  0.89580  0.13259  0.35102  1.0000
  Fe  Fe185     1.0  0.89451  0.11029  0.25073  1.0000
  S   S364      1.0  0.92045  0.10236  0.21946  1.0000
  S   S365      1.0  0.84828  0.11698  0.30372  1.0000
  S   S366      1.0  0.86055  0.10631  0.23925  1.0000
  H   H2125     1.0  0.90264  0.05700  0.18546  1.0000
  H   H2126     1.0  0.87596  0.99951  0.00987  1.0000
  C   C1246     1.0  0.93969  0.02035  0.11490  1.0000
  C   C1247     1.0  0.88910  0.00909  0.22788  1.0000
  C   C1248     1.0  0.89496  0.02958  0.23308  1.0000
  C   C1249     1.0  0.88166  0.04405  0.24820  1.0000
  C   C1250     1.0  0.86246  0.03813  0.25859  1.0000
  C   C1251     1.0  0.85645  0.01754  0.25346  1.0000
  C   C1252     1.0  0.86984  0.00294  0.23813  1.0000
  H   H2127     1.0  0.90987  0.03438  0.22533  1.0000
  H   H2128     1.0  0.88624  0.05994  0.25132  1.0000
  H   H2129     1.0  0.84154  0.01288  0.26136  1.0000
  H   H2130     1.0  0.82957  0.20911  0.37222  1.0000
  C   C1253     1.0  0.92685  0.99959  0.01677  1.0000
  H   H2131     1.0  0.83562  0.06965  0.21969  1.0000
  S   S367      1.0  0.74340  0.28016  0.11408  1.0000
  H   H2132     1.0  0.87657  0.03360  0.35562  1.0000
  C   C1254     1.0  0.85432  0.07973  0.13693  1.0000
  H   H2133     1.0  0.84999  0.00614  0.31747  1.0000
  H   H2134     1.0  0.96141  0.14872  0.03309  1.0000
  C   C1255     1.0  0.91316  0.10571  0.18486  1.0000
  C   C1256     1.0  0.92441  0.09359  0.16462  1.0000
  C   C1257     1.0  0.91840  0.09565  0.13692  1.0000
  C   C1258     1.0  0.90126  0.11004  0.12939  1.0000
  C   C1259     1.0  0.89039  0.12249  0.14959  1.0000
  C   C1260     1.0  0.89623  0.12027  0.17724  1.0000
  H   H2135     1.0  0.93758  0.08237  0.17047  1.0000
  H   H2136     1.0  0.92686  0.08598  0.12152  1.0000
  H   H2137     1.0  0.87719  0.13374  0.14386  1.0000
  H   H2138     1.0  0.88760  0.12982  0.19269  1.0000
  C   C1261     1.0  0.90256  0.08910  0.42571  1.0000
  C   C1262     1.0  0.89339  0.08198  0.40135  1.0000
  C   C1263     1.0  0.89136  0.09511  0.37825  1.0000
  C   C1264     1.0  0.89839  0.11553  0.37945  1.0000
  C   C1265     1.0  0.90743  0.12270  0.40384  1.0000
  C   C1266     1.0  0.90959  0.10950  0.42692  1.0000
  H   H2139     1.0  0.88787  0.06623  0.40034  1.0000
  H   H2140     1.0  0.88432  0.08950  0.35957  1.0000
  H   H2141     1.0  0.91290  0.13848  0.40485  1.0000
  H   H2142     1.0  0.91663  0.11512  0.44560  1.0000
  H   H2143     1.0  0.85340  0.18752  0.41024  1.0000
  C   C1267     1.0  0.94450  0.14435  0.10519  1.0000
  H   H2144     1.0  0.88212  0.02603  0.01673  1.0000
  H   H2145     1.0  0.81101  0.08427  0.21248  1.0000
  C   C1268     1.0  0.81682  0.14582  0.35752  1.0000
  H   H2146     1.0  0.77494  0.24229  0.20319  1.0000
  H   H2147     1.0  0.82936  0.02320  0.18161  1.0000
  C   C1269     1.0  0.96804  0.14385  0.17875  1.0000
  C   C1270     1.0  0.85295  0.01806  0.03417  1.0000
  H   H2148     1.0  0.86493  0.05134  0.45535  1.0000
  H   H2149     1.0  0.94411  0.12950  0.15458  1.0000
  H   H2150     1.0  0.80862  0.31167  0.47403  1.0000
  C   C1271     1.0  0.79830  0.19223  0.26727  1.0000
  C   C1272     1.0  0.80692  0.17097  0.26752  1.0000
  C   C1273     1.0  0.79641  0.15589  0.28170  1.0000
  C   C1274     1.0  0.84722  0.19872  0.31320  1.0000
  C   C1275     1.0  0.86943  0.06874  0.18079  1.0000
  H   H2151     1.0  0.80650  0.20398  0.25652  1.0000
  H   H2152     1.0  0.83573  0.09762  0.18122  1.0000
  H   H2153     1.0  0.87633  0.03530  0.31940  1.0000
  H   H2154     1.0  0.81905  0.18804  0.38967  1.0000
  H   H2155     1.0  0.86661  0.06409  0.20202  1.0000
  H   H2156     1.0  0.77221  0.22391  0.16501  1.0000
  H   H2157     1.0  0.77560  0.24066  0.23947  1.0000
  H   H2158     1.0  0.96180  0.13398  0.19510  1.0000
  C   C1276     1.0  0.83633  0.08177  0.11518  1.0000
  H   H2159     1.0  0.89208  0.99232  0.10664  1.0000
  H   H2160     1.0  0.90864  0.04975  0.32673  1.0000
  H   H2161     1.0  0.83341  0.01352  0.41223  1.0000
  C   C1277     1.0  0.80245  0.19756  0.35246  1.0000
  C   C1278     1.0  0.91750  0.03473  0.31970  1.0000
  H   H2162     1.0  0.79481  0.18302  0.34677  1.0000
  C   C1279     1.0  0.86469  0.04128  0.47391  1.0000
  H   H2163     1.0  0.82492  0.17506  0.31726  1.0000
  C   C1280     1.0  0.92455  0.16036  0.10614  1.0000
  H   H2164     1.0  0.96714  0.30872  0.21188  1.0000
  H   H2165     1.0  0.84258  0.19910  0.29123  1.0000
  C   C1281     1.0  0.83139  0.08112  0.17685  1.0000
  H   H2166     1.0  0.78457  0.30963  0.40683  1.0000
  H   H2167     1.0  0.92774  0.00437  0.33721  1.0000
  H   H2168     1.0  0.83944  0.21312  0.32323  1.0000
  H   H2169     1.0  0.86481  0.19930  0.31407  1.0000
  N   N89       1.0  0.89303  0.00632  0.33510  1.0000
  S   S368      1.0  0.92607  0.02036  0.04137  1.0000
  S   S369      1.0  0.74696  0.28604  0.26060  1.0000
  C   C1282     1.0  0.84646  0.02120  0.42290  1.0000
  H   H2170     1.0  0.94420  0.00489  0.18194  1.0000
  H   H2171     1.0  0.88558  0.00628  0.29185  1.0000
  H   H2172     1.0  0.84271  0.08880  0.09649  1.0000
  H   H2173     1.0  0.97130  0.99453  0.18015  1.0000
  C   C1283     1.0  0.91550  0.99891  0.13904  1.0000
  H   H2174     1.0  0.93977  0.15685  0.15888  1.0000
  C   C1284     1.0  0.99045  0.17465  0.13379  1.0000
  H   H2175     1.0  0.87406  0.08527  0.18304  1.0000
  H   H2176     1.0  0.85678  0.01606  0.17482  1.0000
  H   H2177     1.0  0.98617  0.15647  0.47407  1.0000
  C   C1285     1.0  0.85157  0.00959  0.45009  1.0000
  H   H2178     1.0  0.87509  0.17378  0.35551  1.0000
  S   S370      1.0  0.78985  0.30297  0.07410  1.0000
  H   H2179     1.0  0.75921  0.19739  0.19100  1.0000
  H   H2180     1.0  0.94432  0.30783  0.23383  1.0000
  H   H2181     1.0  0.91497  0.02269  0.36045  1.0000
  H   H2182     1.0  0.84759  0.00968  0.35428  1.0000
  H   H2183     1.0  0.91535  0.00211  0.47700  1.0000
  H   H2184     1.0  0.75877  0.23715  0.13687  1.0000
  H   H2185     1.0  0.95637  0.18155  0.13424  1.0000
  H   H2186     1.0  0.80478  0.20670  0.33363  1.0000
  H   H2187     1.0  0.96927  0.16014  0.18705  1.0000
  H   H2188     1.0  0.88119  0.18863  0.40301  1.0000
  C   C1286     1.0  0.89174  0.99500  0.30785  1.0000
  C   C1287     1.0  0.98398  0.16973  0.04951  1.0000
  H   H2189     1.0  0.86465  0.05581  0.99238  1.0000
  H   H2190     1.0  0.81499  0.05769  0.20019  1.0000
  H   H2191     1.0  0.89091  0.99980  0.43965  1.0000
  H   H2192     1.0  0.83839  0.15401  0.38852  1.0000
  H   H2193     1.0  0.94199  0.31402  0.31631  1.0000
  C   C1288     1.0  0.97752  0.14994  0.04050  1.0000
  N   N90       1.0  0.96172  0.14760  0.12620  1.0000
  H   H2194     1.0  0.85180  0.16479  0.31775  1.0000
  H   H2195     1.0  0.85113  0.14413  0.35820  1.0000
  C   C1289     1.0  0.76976  0.23298  0.22062  1.0000
  S   S371      1.0  0.90596  0.99224  0.20738  1.0000
  H   H2196     1.0  0.77748  0.21655  0.21997  1.0000
  S   S372      1.0  0.75320  0.25173  0.32499  1.0000
  H   H2197     1.0  0.83918  0.00850  0.03051  1.0000
  H   H2198     1.0  0.88666  0.03763  0.17124  1.0000
  H   H2199     1.0  0.92739  0.29769  0.18214  1.0000
  H   H2200     1.0  0.93844  0.12840  0.10714  1.0000
  C   C1290     1.0  0.83774  0.15522  0.36588  1.0000
  H   H2201     1.0  0.82781  0.04666  0.14704  1.0000
  C   C1291     1.0  0.89498  0.00470  0.12216  1.0000
  H   H2202     1.0  0.96342  0.98854  0.07619  1.0000
  H   H2203     1.0  0.76248  0.28883  0.20654  1.0000
  C   C1292     1.0  0.91053  0.01714  0.46624  1.0000
  H   H2204     1.0  0.88995  0.00025  0.37832  1.0000
  C   C1293     1.0  0.84418  0.04616  0.15599  1.0000
  N   N91       1.0  0.84971  0.06836  0.16305  1.0000
  H   H2205     1.0  0.89483  0.05917  0.15065  1.0000
  C   C1294     1.0  0.88927  0.05474  0.17103  1.0000
  Fe  Fe186     1.0  0.90927  0.09185  0.99733  1.0000
  H   H2206     1.0  0.80313  0.15329  0.36928  1.0000
  C   C1295     1.0  0.91381  0.01628  0.33920  1.0000
  H   H2207     1.0  0.83046  0.03909  0.48398  1.0000
  H   H2208     1.0  0.84936  0.03606  0.19971  1.0000
  H   H2209     1.0  0.77302  0.21490  0.28157  1.0000
  H   H2210     1.0  0.97270  0.18365  0.04907  1.0000
  C   C1296     1.0  0.89000  0.99144  0.35846  1.0000
  H   H2211     1.0  0.96637  0.04009  0.11117  1.0000
  H   H2212     1.0  0.92842  0.17696  0.10293  1.0000
  H   H2213     1.0  0.88113  0.00549  0.13614  1.0000
  C   C1297     1.0  0.84067  0.17799  0.32595  1.0000
  C   C1298     1.0  0.88934  0.01552  0.45039  1.0000
  H   H2214     1.0  0.81814  0.12867  0.36274  1.0000
  H   H2215     1.0  0.93470  0.03757  0.31977  1.0000
  N   N92       1.0  0.93630  0.99803  0.12368  1.0000
  H   H2216     1.0  0.81351  0.14671  0.33531  1.0000
  H   H2217     1.0  0.74115  0.22642  0.24159  1.0000
  C   C1299     1.0  0.77941  0.19845  0.28147  1.0000
  C   C1300     1.0  0.96387  0.31499  0.35090  1.0000
  C   C1301     1.0  0.76886  0.18332  0.29555  1.0000
  H   H2218     1.0  0.93617  0.03197  0.13192  1.0000
  N   N93       1.0  0.84047  0.17760  0.35675  1.0000
  H   H2219     1.0  0.76728  0.30167  0.48175  1.0000
  H   H2220     1.0  0.92785  0.02576  0.09892  1.0000
  H   H2221     1.0  0.96093  0.29808  0.35444  1.0000
  H   H2222     1.0  0.76922  0.15029  0.30638  1.0000
  C   C1302     1.0  0.74533  0.23348  0.22183  1.0000
  H   H2223     1.0  0.98626  0.13472  0.09863  1.0000
  Fe  Fe187     1.0  0.75540  0.29434  0.07561  1.0000
  C   C1303     1.0  0.86898  0.01634  0.01036  1.0000
  C   C1304     1.0  0.77736  0.16204  0.29553  1.0000
  H   H2224     1.0  0.90986  0.03043  0.48120  1.0000
  C   C1305     1.0  0.98043  0.13187  0.11960  1.0000
  C   C1306     1.0  0.86673  0.18051  0.39749  1.0000
  C   C1307     1.0  0.82346  0.19322  0.36892  1.0000
  H   H2225     1.0  0.75449  0.26494  0.45547  1.0000
  C   C1308     1.0  0.86211  0.18329  0.36664  1.0000
  H   H2226     1.0  0.74710  0.19155  0.23945  1.0000
  H   H2227     1.0  0.83084  0.06619  0.10904  1.0000
  H   H2228     1.0  0.84734  0.03480  0.03889  1.0000
  H   H2229     1.0  0.86027  0.02003  0.40890  1.0000
  H   H2230     1.0  0.81713  0.08277  0.16328  1.0000
  H   H2231     1.0  0.86834  0.07176  0.12623  1.0000
  H   H2232     1.0  0.78249  0.31297  0.17074  1.0000
  H   H2233     1.0  0.79075  0.20748  0.36505  1.0000
  C   C1309     1.0  0.77443  0.31111  0.42534  1.0000
  H   H2234     1.0  0.86443  0.20018  0.36210  1.0000
  H   H2235     1.0  0.87044  0.16347  0.40258  1.0000
  C   C1310     1.0  0.74564  0.29398  0.20592  1.0000
  C   C1311     1.0  0.96180  0.02447  0.10349  1.0000
  C   C1312     1.0  0.82316  0.07235  0.20374  1.0000
  H   H2236     1.0  0.74569  0.30121  0.16319  1.0000
  C   C1313     1.0  0.85228  0.01703  0.33497  1.0000
  H   H2237     1.0  0.75768  0.31159  0.41794  1.0000
  H   H2238     1.0  0.82266  0.09285  0.12170  1.0000
  H   H2239     1.0  0.92344  0.01977  0.45162  1.0000
  S   S373      1.0  0.74324  0.27047  0.39935  1.0000
  C   C1314     1.0  0.79069  0.31211  0.15088  1.0000
  H   H2240     1.0  0.85495  0.03922  0.13965  1.0000
  H   H2241     1.0  0.91348  0.31143  0.14153  1.0000
  C   C1315     1.0  0.95534  0.31860  0.40038  1.0000
  C   C1316     1.0  0.75686  0.22587  0.15378  1.0000
  H   H2242     1.0  0.86120  0.01151  0.05282  1.0000
  H   H2243     1.0  0.80515  0.30088  0.15324  1.0000
  H   H2244     1.0  0.91555  0.15919  0.12538  1.0000
  H   H2245     1.0  0.95305  0.28570  0.21302  1.0000
  H   H2246     1.0  0.83888  0.04856  0.99817  1.0000
  C   C1317     1.0  0.74195  0.19975  0.19572  1.0000
  H   H2247     1.0  0.84099  0.03134  0.33186  1.0000
  H   H2248     1.0  0.96124  0.02524  0.08081  1.0000
  H   H2249     1.0  0.95685  0.30095  0.40141  1.0000
  H   H2250     1.0  0.90954  0.29939  0.23197  1.0000
  C   C1318     1.0  0.90217  0.31597  0.23316  1.0000
  H   H2251     1.0  0.88561  0.31507  0.24053  1.0000
  C   C1319     1.0  0.93680  0.31105  0.18871  1.0000
  H   H2252     1.0  0.97787  0.31442  0.33706  1.0000
  H   H2253     1.0  0.84073  0.03811  0.42631  1.0000
  H   H2254     1.0  0.89504  0.02041  0.11227  1.0000
  H   H2255     1.0  0.75359  0.21052  0.14400  1.0000
  H   H2256     1.0  0.96314  0.01840  0.16224  1.0000
  S   S374      1.0  0.74514  0.19038  0.31351  1.0000
  H   H2257     1.0  0.89277  0.31557  0.19160  1.0000
  H   H2258     1.0  0.92334  0.99109  0.08380  1.0000
  H   H2259     1.0  0.95100  0.14476  0.08413  1.0000
  H   H2260     1.0  0.91354  0.15642  0.08929  1.0000
  H   H2261     1.0  0.92269  0.31343  0.38688  1.0000
  H   H2262     1.0  0.97013  0.10400  0.14148  1.0000
  H   H2263     1.0  0.83632  0.00995  0.46131  1.0000
  H   H2264     1.0  0.77835  0.29662  0.43762  1.0000
  H   H2265     1.0  0.78056  0.30494  0.13523  1.0000
  C   C1320     1.0  0.95261  0.14418  0.15407  1.0000
  C   C1321     1.0  0.95083  0.30335  0.21350  1.0000
  H   H2266     1.0  0.98415  0.13627  0.17450  1.0000
  S   S375      1.0  0.94059  0.07174  0.99617  1.0000
  H   H2267     1.0  0.74607  0.16950  0.21684  1.0000
  C   C1322     1.0  0.95351  0.98882  0.14288  1.0000
  H   H2268     1.0  0.91537  0.01073  0.15603  1.0000
  C   C1323     1.0  0.93855  0.00008  0.99259  1.0000
  C   C1324     1.0  0.95804  0.00269  0.16807  1.0000
  H   H2269     1.0  0.94820  0.31325  0.17186  1.0000
  H   H2270     1.0  0.85561  0.99246  0.44509  1.0000
  C   C1325     1.0  0.96799  0.17010  0.12354  1.0000
  H   H2271     1.0  0.97496  0.01277  0.10956  1.0000
  H   H2272     1.0  0.87785  0.04690  0.48654  1.0000
  H   H2273     1.0  0.96743  0.17505  0.10173  1.0000
  H   H2274     1.0  0.96527  0.10359  0.10479  1.0000
  C   C1326     1.0  0.97624  0.10819  0.12122  1.0000
  C   C1327     1.0  0.77474  0.31640  0.48780  1.0000
  H   H2275     1.0  0.88260  0.98994  0.48812  1.0000
  H   H2276     1.0  0.98729  0.13077  0.48906  1.0000
  C   C1328     1.0  0.84413  0.04812  0.48970  1.0000
  H   H2277     1.0  0.99022  0.28654  0.39772  1.0000
  H   H2278     1.0  0.75396  0.22919  0.63223  1.0000
  N   N94       1.0  0.96850  0.12822  0.63378  1.0000
  H   H2279     1.0  0.81006  0.29416  0.65279  1.0000
  H   H2280     1.0  0.91357  0.29141  0.74459  1.0000
  Fe  Fe188     1.0  0.91451  0.09059  0.55553  1.0000
  S   S376      1.0  0.94438  0.07150  0.56854  1.0000
  S   S377      1.0  0.89220  0.10817  0.58573  1.0000
  Fe  Fe189     1.0  0.95865  0.08552  0.53161  1.0000
  C   C1329     1.0  0.83897  0.15447  0.85349  1.0000
  Fe  Fe190     1.0  0.93381  0.04596  0.54049  1.0000
  S   S378      1.0  0.92953  0.01275  0.55589  1.0000
  S   S379      1.0  0.92909  0.10609  0.51963  1.0000
  S   S380      1.0  0.90291  0.06427  0.53007  1.0000
  H   H2281     1.0  0.82432  0.05693  0.84558  1.0000
  H   H2282     1.0  0.85630  0.03996  0.58775  1.0000
  H   H2283     1.0  0.93832  0.02323  0.64953  1.0000
  H   H2284     1.0  0.80155  0.14293  0.79570  1.0000
  H   H2285     1.0  0.83250  0.02062  0.93441  1.0000
  Fe  Fe191     1.0  0.84660  0.13227  0.76392  1.0000
  S   S381      1.0  0.88139  0.13747  0.76860  1.0000
  S   S382      1.0  0.82532  0.16184  0.75275  1.0000
  Fe  Fe192     1.0  0.85500  0.08499  0.77440  1.0000
  S   S383      1.0  0.89006  0.08695  0.78065  1.0000
  S   S384      1.0  0.84270  0.05259  0.77750  1.0000
  Fe  Fe193     1.0  0.88061  0.11628  0.80512  1.0000
  S   S385      1.0  0.89912  0.12544  0.84269  1.0000
  Fe  Fe194     1.0  0.88751  0.10773  0.74362  1.0000
  S   S386      1.0  0.91358  0.10155  0.71235  1.0000
  S   S387      1.0  0.84541  0.11285  0.80220  1.0000
  S   S388      1.0  0.85287  0.10397  0.73572  1.0000
  H   H2286     1.0  0.77141  0.15795  0.82440  1.0000
  H   H2287     1.0  0.75971  0.25861  0.67704  1.0000
  H   H2288     1.0  0.80699  0.19387  0.88951  1.0000
  C   C1330     1.0  0.88398  0.00321  0.72777  1.0000
  C   C1331     1.0  0.88799  0.02467  0.72748  1.0000
  C   C1332     1.0  0.87505  0.03982  0.74220  1.0000
  C   C1333     1.0  0.85823  0.03359  0.75788  1.0000
  C   C1334     1.0  0.85436  0.01203  0.75860  1.0000
  C   C1335     1.0  0.86720  0.99682  0.74350  1.0000
  H   H2289     1.0  0.90119  0.02967  0.71585  1.0000
  H   H2290     1.0  0.87809  0.05637  0.74120  1.0000
  H   H2291     1.0  0.84137  0.00708  0.77072  1.0000
  C   C1336     1.0  0.80145  0.30909  0.66055  1.0000
  C   C1337     1.0  0.86549  0.02437  0.58461  1.0000
  H   H2292     1.0  0.95160  0.29583  0.68030  1.0000
  H   H2293     1.0  0.88040  0.03626  0.80889  1.0000
  C   C1338     1.0  0.80439  0.17206  0.77409  1.0000
  H   H2294     1.0  0.88244  0.01361  0.50805  1.0000
  C   C1339     1.0  0.85749  0.18084  0.80877  1.0000
  H   H2295     1.0  0.96706  0.13835  0.53935  1.0000
  C   C1340     1.0  0.90644  0.10271  0.67754  1.0000
  C   C1341     1.0  0.91934  0.09092  0.65870  1.0000
  C   C1342     1.0  0.91463  0.09200  0.63065  1.0000
  C   C1343     1.0  0.89738  0.10535  0.62108  1.0000
  C   C1344     1.0  0.88428  0.11697  0.63998  1.0000
  C   C1345     1.0  0.88869  0.11555  0.66820  1.0000
  H   H2296     1.0  0.93288  0.08074  0.66591  1.0000
  H   H2297     1.0  0.92438  0.08249  0.61651  1.0000
  H   H2298     1.0  0.87079  0.12726  0.63277  1.0000
  H   H2299     1.0  0.87865  0.12470  0.68265  1.0000
  C   C1346     1.0  0.88956  0.10139  0.92937  1.0000
  C   C1347     1.0  0.90815  0.11070  0.92259  1.0000
  C   C1348     1.0  0.91106  0.11758  0.89573  1.0000
  C   C1349     1.0  0.89563  0.11483  0.87539  1.0000
  C   C1350     1.0  0.87726  0.10499  0.88197  1.0000
  C   C1351     1.0  0.87418  0.09843  0.90895  1.0000
  H   H2300     1.0  0.92003  0.11312  0.93819  1.0000
  H   H2301     1.0  0.92524  0.12529  0.89076  1.0000
  H   H2302     1.0  0.86519  0.10304  0.86648  1.0000
  H   H2303     1.0  0.85968  0.09140  0.91413  1.0000
  H   H2304     1.0  0.91028  0.03163  0.86527  1.0000
  C   C1352     1.0  0.87826  0.01837  0.96247  1.0000
  S   S389      1.0  0.78986  0.29841  0.57720  1.0000
  C   C1353     1.0  0.88637  0.02252  0.60148  1.0000
  H   H2305     1.0  0.85830  0.06041  0.87074  1.0000
  H   H2306     1.0  0.76818  0.31992  0.50855  1.0000
  H   H2307     1.0  0.89651  0.03448  0.59294  1.0000
  C   C1354     1.0  0.92837  0.99130  0.53272  1.0000
  H   H2308     1.0  0.98413  0.29981  0.70325  1.0000
  H   H2309     1.0  0.94341  0.15299  0.64414  1.0000
  S   S390      1.0  0.75259  0.28883  0.75653  1.0000
  C   C1355     1.0  0.83619  0.00569  0.94566  1.0000
  C   C1356     1.0  0.94813  0.27554  0.71455  1.0000
  H   H2310     1.0  0.86610  0.01462  0.66589  1.0000
  C   C1357     1.0  0.79552  0.15939  0.79351  1.0000
  C   C1358     1.0  0.80425  0.19158  0.86734  1.0000
  H   H2311     1.0  0.83081  0.03449  0.86692  1.0000
  H   H2312     1.0  0.96303  0.10378  0.66329  1.0000
  H   H2313     1.0  0.82684  0.05367  0.95346  1.0000
  H   H2314     1.0  0.84879  0.99568  0.93473  1.0000
  H   H2315     1.0  0.80117  0.29341  0.49821  1.0000
  C   C1359     1.0  0.76136  0.24872  0.69579  1.0000
  H   H2316     1.0  0.85333  0.05031  0.93865  1.0000
  H   H2317     1.0  0.97749  0.17412  0.55327  1.0000
  H   H2318     1.0  0.87263  0.17110  0.91924  1.0000
  N   N95       1.0  0.86023  0.02272  0.98249  1.0000
  N   N96       1.0  0.75178  0.22788  0.69166  1.0000
  C   C1360     1.0  0.94210  0.14901  0.60077  1.0000
  H   H2319     1.0  0.91829  0.06708  0.85275  1.0000
  H   H2320     1.0  0.89358  0.05092  0.88292  1.0000
  H   H2321     1.0  0.82723  0.01553  0.98643  1.0000
  H   H2322     1.0  0.75238  0.25831  0.71167  1.0000
  H   H2323     1.0  0.89306  0.99055  0.82468  1.0000
  C   C1361     1.0  0.85005  0.18199  0.88708  1.0000
  H   H2324     1.0  0.98753  0.14552  0.60621  1.0000
  Fe  Fe195     1.0  0.75478  0.29229  0.58073  1.0000
  H   H2325     1.0  0.84093  0.13971  0.89433  1.0000
  H   H2326     1.0  0.85860  0.98991  0.52700  1.0000
  H   H2327     1.0  0.83432  0.03247  0.83032  1.0000
  H   H2328     1.0  0.99040  0.14301  0.96500  1.0000
  H   H2329     1.0  0.82464  0.12729  0.87014  1.0000
  H   H2330     1.0  0.95686  0.09993  0.61572  1.0000
  C   C1362     1.0  0.85317  0.99813  0.50787  1.0000
  C   C1363     1.0  0.94123  0.29618  0.69869  1.0000
  H   H2331     1.0  0.79012  0.26352  0.70711  1.0000
  H   H2332     1.0  0.77999  0.20761  0.67998  1.0000
  C   C1364     1.0  0.87289  0.00505  0.49286  1.0000
  S   S391      1.0  0.75758  0.26198  0.82764  1.0000
  H   H2333     1.0  0.82891  0.20914  0.85073  1.0000
  C   C1365     1.0  0.89637  0.04339  0.86238  1.0000
  H   H2334     1.0  0.89114  0.04946  0.95778  1.0000
  C   C1366     1.0  0.82921  0.14299  0.87751  1.0000
  H   H2335     1.0  0.95942  0.99406  0.51563  1.0000
  H   H2336     1.0  0.90959  0.02716  0.95066  1.0000
  H   H2337     1.0  0.87265  0.01958  0.94103  1.0000
  H   H2338     1.0  0.87276  0.18141  0.79767  1.0000
  C   C1367     1.0  0.96180  0.31720  0.73225  1.0000
  H   H2339     1.0  0.94727  0.01371  0.98826  1.0000
  H   H2340     1.0  0.83782  0.17783  0.90185  1.0000
  H   H2341     1.0  0.88554  0.00175  0.96462  1.0000
  H   H2342     1.0  0.90006  0.99402  0.87092  1.0000
  H   H2343     1.0  0.80312  0.20320  0.75618  1.0000
  H   H2344     1.0  0.87612  0.17087  0.84363  1.0000
  C   C1368     1.0  0.92420  0.02981  0.63762  1.0000
  C   C1369     1.0  0.79621  0.19332  0.77110  1.0000
  H   H2345     1.0  0.90327  0.01902  0.66832  1.0000
  H   H2346     1.0  0.92813  0.02751  0.61568  1.0000
  C   C1370     1.0  0.76880  0.22419  0.64362  1.0000
  H   H2347     1.0  0.77318  0.21836  0.78518  1.0000
  H   H2348     1.0  0.98515  0.28698  0.81510  1.0000
  N   N97       1.0  0.84357  0.17737  0.85802  1.0000
  H   H2349     1.0  0.84559  0.99278  0.98438  1.0000
  C   C1371     1.0  0.94669  0.13969  0.62946  1.0000
  C   C1372     1.0  0.77026  0.18917  0.80669  1.0000
  H   H2350     1.0  0.84674  0.19451  0.80147  1.0000
  H   H2351     1.0  0.76531  0.30023  0.70355  1.0000
  C   C1373     1.0  0.82455  0.19237  0.85016  1.0000
  H   H2352     1.0  0.89513  0.00697  0.59639  1.0000
  H   H2353     1.0  0.86049  0.06141  0.83459  1.0000
  C   C1374     1.0  0.86182  0.18216  0.83979  1.0000
  H   H2354     1.0  0.93728  0.26317  0.70885  1.0000
  S   S392      1.0  0.88439  0.09415  0.96326  1.0000
  H   H2355     1.0  0.96430  0.12512  0.70554  1.0000
  H   H2356     1.0  0.89199  0.07409  0.84062  1.0000
  H   H2357     1.0  0.87334  0.15373  0.89003  1.0000
  C   C1375     1.0  0.87152  0.17061  0.89656  1.0000
  H   H2358     1.0  0.85379  0.14443  0.84809  1.0000
  H   H2359     1.0  0.90241  0.00672  0.79786  1.0000
  H   H2360     1.0  0.88285  0.99003  0.89868  1.0000
  H   H2361     1.0  0.86470  0.01608  0.81820  1.0000
  H   H2362     1.0  0.86235  0.02434  0.89080  1.0000
  H   H2363     1.0  0.77868  0.23783  0.64588  1.0000
  C   C1376     1.0  0.87928  0.02370  0.82451  1.0000
  N   N98       1.0  0.87675  0.03311  0.85287  1.0000
  C   C1377     1.0  0.77928  0.20192  0.78747  1.0000
  C   C1378     1.0  0.83588  0.04280  0.84852  1.0000
  C   C1379     1.0  0.84398  0.05604  0.95668  1.0000
  C   C1380     1.0  0.77839  0.16790  0.80962  1.0000
  H   H2364     1.0  0.94075  0.13639  0.58507  1.0000
  C   C1381     1.0  0.86675  0.01300  0.64322  1.0000
  C   C1382     1.0  0.85235  0.04592  0.98364  1.0000
  H   H2365     1.0  0.86955  0.02308  0.56256  1.0000
  H   H2366     1.0  0.90896  0.00090  0.64127  1.0000
  N   N99       1.0  0.88397  0.02558  0.63196  1.0000
  H   H2367     1.0  0.89921  0.01166  0.90034  1.0000
  H   H2368     1.0  0.85123  0.19938  0.89012  1.0000
  H   H2369     1.0  0.76874  0.21009  0.72404  1.0000
  C   C1383     1.0  0.89787  0.00661  0.81979  1.0000
  H   H2370     1.0  0.92472  0.29485  0.69078  1.0000
  S   S393      1.0  0.74880  0.19925  0.82727  1.0000
  C   C1384     1.0  0.98365  0.31314  0.71814  1.0000
  H   H2371     1.0  0.78422  0.30704  0.65806  1.0000
  H   H2372     1.0  0.81471  0.15167  0.88589  1.0000
  H   H2373     1.0  0.90905  0.05372  0.82319  1.0000
  H   H2374     1.0  0.82815  0.15308  0.83556  1.0000
  H   H2375     1.0  0.86694  0.19833  0.84427  1.0000
  C   C1385     1.0  0.87106  0.01658  0.87314  1.0000
  H   H2376     1.0  0.85078  0.16577  0.80292  1.0000
  C   C1386     1.0  0.87803  0.04887  0.63752  1.0000
  C   C1387     1.0  0.87803  0.05598  0.66779  1.0000
  H   H2377     1.0  0.88868  0.05897  0.62639  1.0000
  H   H2378     1.0  0.86177  0.05370  0.62944  1.0000
  H   H2379     1.0  0.85055  0.01945  0.63642  1.0000
  H   H2380     1.0  0.87242  0.07313  0.66904  1.0000
  H   H2381     1.0  0.86696  0.04752  0.68037  1.0000
  H   H2382     1.0  0.89426  0.05440  0.67695  1.0000
  H   H2383     1.0  0.85534  0.01131  0.58910  1.0000
  H   H2384     1.0  0.83142  0.31393  0.57133  1.0000
  H   H2385     1.0  0.88519  0.17868  0.88861  1.0000
  H   H2386     1.0  0.81936  0.18938  0.82878  1.0000
  C   C1388     1.0  0.98911  0.16049  0.55428  1.0000
  H   H2387     1.0  0.84703  0.04718  0.51211  1.0000
  H   H2388     1.0  0.98748  0.11544  0.66814  1.0000
  C   C1389     1.0  0.89652  0.03319  0.96454  1.0000
  C   C1390     1.0  0.74808  0.30245  0.70400  1.0000
  C   C1391     1.0  0.84211  0.00908  0.97603  1.0000
  C   C1392     1.0  0.90473  0.01807  0.64572  1.0000
  H   H2389     1.0  0.84560  0.07341  0.95763  1.0000
  H   H2390     1.0  0.79251  0.20478  0.86085  1.0000
  H   H2391     1.0  0.92192  0.04697  0.64250  1.0000
  H   H2392     1.0  0.74747  0.22745  0.73590  1.0000
  C   C1393     1.0  0.95993  0.13282  0.68569  1.0000
  H   H2393     1.0  0.94769  0.27691  0.73706  1.0000
  C   C1394     1.0  0.85854  0.05037  0.85186  1.0000
  H   H2394     1.0  0.79642  0.17680  0.86323  1.0000
  C   C1395     1.0  0.98616  0.16336  0.64415  1.0000
  H   H2395     1.0  0.96163  0.30552  0.74892  1.0000
  C   C1396     1.0  0.90408  0.06047  0.84338  1.0000
  H   H2396     1.0  0.80509  0.32000  0.50927  1.0000
  H   H2397     1.0  0.96430  0.26897  0.70823  1.0000
  S   S394      1.0  0.95119  0.05771  0.50451  1.0000
  H   H2398     1.0  0.74510  0.31163  0.66179  1.0000
  N   N100      1.0  0.94242  0.31699  0.71385  1.0000
  H   H2399     1.0  0.79565  0.23840  0.69036  1.0000
  H   H2400     1.0  0.92635  0.15843  0.60101  1.0000
  H   H2401     1.0  0.99009  0.08151  0.60096  1.0000
  Fe  Fe196     1.0  0.92051  0.07744  0.49512  1.0000
  H   H2402     1.0  0.78699  0.23988  0.72568  1.0000
  C   C1397     1.0  0.97056  0.10983  0.61373  1.0000
  H   H2403     1.0  0.93411  0.12886  0.63369  1.0000
  H   H2404     1.0  0.75583  0.19953  0.66632  1.0000
  C   C1398     1.0  0.78491  0.24719  0.70518  1.0000
  H   H2405     1.0  0.90361  0.03397  0.98524  1.0000
  H   H2406     1.0  0.84171  0.01150  0.51389  1.0000
  C   C1399     1.0  0.98629  0.14214  0.62831  1.0000
  H   H2407     1.0  0.97010  0.17150  0.64707  1.0000
  H   H2408     1.0  0.97005  0.11548  0.59229  1.0000
  H   H2409     1.0  0.95412  0.15987  0.59468  1.0000
  H   H2410     1.0  0.77792  0.21221  0.63053  1.0000
  C   C1400     1.0  0.86922  0.98878  0.63763  1.0000
  C   C1401     1.0  0.98313  0.14021  0.54650  1.0000
  C   C1402     1.0  0.91780  0.30681  0.75323  1.0000
  H   H2411     1.0  0.94224  0.13357  0.68423  1.0000
  C   C1403     1.0  0.75218  0.21643  0.71867  1.0000
  H   H2412     1.0  0.91258  0.00968  0.83111  1.0000
  H   H2413     1.0  0.80554  0.31046  0.68253  1.0000
  C   C1404     1.0  0.76431  0.21389  0.67126  1.0000
  H   H2414     1.0  0.75122  0.31317  0.94543  1.0000
  C   C1405     1.0  0.98918  0.31785  0.79843  1.0000
  H   H2415     1.0  0.93082  0.30442  0.76854  1.0000
  H   H2416     1.0  0.85990  0.00575  0.86366  1.0000
  H   H2417     1.0  0.90357  0.31361  0.76464  1.0000
  H   H2418     1.0  0.82168  0.99679  0.94459  1.0000
  C   C1406     1.0  0.97042  0.11919  0.66232  1.0000
  S   S395      1.0  0.74180  0.29469  0.89368  1.0000
  C   C1407     1.0  0.79878  0.31043  0.49240  1.0000
  H   H2419     1.0  0.96518  0.14907  0.68658  1.0000
  C   C1408     1.0  0.88958  0.00242  0.88617  1.0000
  S   S396      1.0  0.74134  0.28000  0.61953  1.0000
  H   H2420     1.0  0.74104  0.18966  0.74029  1.0000
  H   H2421     1.0  0.74274  0.18533  0.70415  1.0000
  H   H2422     1.0  0.82350  0.32028  0.98351  1.0000
  H   H2423     1.0  0.81431  0.32056  0.94808  1.0000
  C   C1409     1.0  0.94312  0.57562  0.30902  1.0000
  S   S397      1.0  0.89546  0.56333  0.24411  1.0000
  S   S398      1.0  0.89275  0.56562  0.17692  1.0000
  Fe  Fe197     1.0  0.88146  0.58626  0.21243  1.0000
  S   S399      1.0  0.84743  0.60046  0.21772  1.0000
  Fe  Fe198     1.0  0.90974  0.54475  0.20859  1.0000
  S   S400      1.0  0.91096  0.50941  0.20282  1.0000
  H   H2424     1.0  0.84740  0.35556  0.99688  1.0000
  S   S401      1.0  0.90152  0.41125  0.29836  1.0000
  C   C1410     1.0  0.93771  0.54268  0.33239  1.0000
  Fe  Fe199     1.0  0.91344  0.38264  0.32257  1.0000
  S   S402      1.0  0.89673  0.37156  0.35986  1.0000
  Fe  Fe200     1.0  0.90625  0.39065  0.26091  1.0000
  S   S403      1.0  0.88100  0.39037  0.22749  1.0000
  H   H2425     1.0  0.92831  0.44389  0.00027  1.0000
  H   H2426     1.0  0.85362  0.60871  0.02610  1.0000
  Fe  Fe201     1.0  0.88639  0.40603  0.07007  1.0000
  S   S404      1.0  0.85454  0.42447  0.07422  1.0000
  S   S405      1.0  0.90871  0.39442  0.10406  1.0000
  H   H2427     1.0  0.90709  0.57514  0.34768  1.0000
  H   H2428     1.0  0.88295  0.43800  0.39685  1.0000
  C   C1411     1.0  0.87850  0.61295  0.28857  1.0000
  Fe  Fe202     1.0  0.86717  0.44781  0.04509  1.0000
  H   H2429     1.0  0.76827  0.37844  0.16638  1.0000
  Fe  Fe203     1.0  0.84583  0.40635  0.03645  1.0000
  S   S406      1.0  0.81352  0.39310  0.03134  1.0000
  S   S407      1.0  0.89956  0.43041  0.04375  1.0000
  S   S408      1.0  0.87698  0.38617  0.03433  1.0000
  H   H2430     1.0  0.94316  0.47602  0.41298  1.0000
  H   H2431     1.0  0.96774  0.38019  0.39494  1.0000
  H   H2432     1.0  0.98763  0.51849  0.33426  1.0000
  H   H2433     1.0  0.89211  0.62303  0.28782  1.0000
  C   C1412     1.0  0.97044  0.36304  0.40000  1.0000
  C   C1413     1.0  0.80981  0.65140  0.18995  1.0000
  C   C1414     1.0  0.85901  0.61635  0.37834  1.0000
  H   H2434     1.0  0.96027  0.51250  0.29646  1.0000
  H   H2435     1.0  0.86254  0.62484  0.06725  1.0000
  C   C1415     1.0  0.89992  0.39591  0.13802  1.0000
  C   C1416     1.0  0.87900  0.39221  0.14475  1.0000
  C   C1417     1.0  0.87315  0.39120  0.17236  1.0000
  C   C1418     1.0  0.88811  0.39411  0.19325  1.0000
  C   C1419     1.0  0.90868  0.39890  0.18639  1.0000
  C   C1420     1.0  0.91465  0.39947  0.15887  1.0000
  H   H2436     1.0  0.86760  0.38937  0.12872  1.0000
  H   H2437     1.0  0.92018  0.40161  0.20225  1.0000
  H   H2438     1.0  0.93083  0.40246  0.15371  1.0000
  C   C1421     1.0  0.90100  0.38383  0.39172  1.0000
  C   C1422     1.0  0.88662  0.38158  0.41308  1.0000
  C   C1423     1.0  0.88986  0.39091  0.43886  1.0000
  C   C1424     1.0  0.90780  0.40211  0.44353  1.0000
  C   C1425     1.0  0.92232  0.40412  0.42225  1.0000
  C   C1426     1.0  0.91883  0.39520  0.39634  1.0000
  H   H2439     1.0  0.87284  0.37272  0.40962  1.0000
  H   H2440     1.0  0.87862  0.38924  0.45517  1.0000
  H   H2441     1.0  0.93628  0.41268  0.42583  1.0000
  H   H2442     1.0  0.93000  0.39696  0.38002  1.0000
  C   C1427     1.0  0.91850  0.49319  0.23081  1.0000
  C   C1428     1.0  0.92293  0.47135  0.22627  1.0000
  C   C1429     1.0  0.94591  0.55075  0.35680  1.0000
  H   H2443     1.0  0.98945  0.49079  0.22506  1.0000
  H   H2444     1.0  0.92144  0.46479  0.20592  1.0000
  S   S409      1.0  0.97021  0.34052  0.26822  1.0000
  S   S410      1.0  0.91279  0.41383  0.47555  1.0000
  C   C1430     1.0  0.78109  0.34197  0.04889  1.0000
  C   C1431     1.0  0.78658  0.36195  0.04005  1.0000
  C   C1432     1.0  0.80742  0.36801  0.04357  1.0000
  C   C1433     1.0  0.82285  0.35379  0.05580  1.0000
  C   C1434     1.0  0.76017  0.34483  0.12794  1.0000
  H   H2445     1.0  0.84934  0.60041  0.34146  1.0000
  H   H2446     1.0  0.77459  0.37274  0.03035  1.0000
  H   H2447     1.0  0.83900  0.35818  0.05842  1.0000
  C   C1435     1.0  0.85632  0.50473  0.00957  1.0000
  H   H2448     1.0  0.97699  0.35466  0.35781  1.0000
  H   H2449     1.0  0.96035  0.52683  0.25259  1.0000
  H   H2450     1.0  0.91664  0.48899  0.46503  1.0000
  C   C1436     1.0  0.83858  0.62412  0.20054  1.0000
  C   C1437     1.0  0.97822  0.63842  0.44071  1.0000
  H   H2451     1.0  0.82323  0.36249  0.12383  1.0000
  C   C1438     1.0  0.95147  0.55811  0.06116  1.0000
  H   H2452     1.0  0.86886  0.62852  0.18222  1.0000
  H   H2453     1.0  0.92057  0.36154  0.21363  1.0000
  Fe  Fe204     1.0  0.94868  0.36920  0.28207  1.0000
  H   H2454     1.0  0.83768  0.60483  0.08697  1.0000
  N   N101      1.0  0.90877  0.47620  0.40895  1.0000
  C   C1439     1.0  0.90740  0.50010  0.41170  1.0000
  C   C1440     1.0  0.93107  0.46872  0.39996  1.0000
  C   C1441     1.0  0.90441  0.46584  0.43573  1.0000
  C   C1442     1.0  0.89226  0.47024  0.38842  1.0000
  C   C1443     1.0  0.88665  0.51072  0.42420  1.0000
  C   C1444     1.0  0.93651  0.47368  0.37011  1.0000
  C   C1445     1.0  0.91854  0.47177  0.46008  1.0000
  C   C1446     1.0  0.89220  0.44628  0.38159  1.0000
  H   H2455     1.0  0.92099  0.50531  0.42403  1.0000
  H   H2456     1.0  0.90903  0.50758  0.39141  1.0000
  H   H2457     1.0  0.93453  0.45130  0.40297  1.0000
  H   H2458     1.0  0.92215  0.60635  0.37455  1.0000
  H   H2459     1.0  0.88742  0.46916  0.44179  1.0000
  H   H2460     1.0  0.90662  0.44823  0.43363  1.0000
  H   H2461     1.0  0.87593  0.47508  0.39603  1.0000
  H   H2462     1.0  0.89307  0.47922  0.36901  1.0000
  H   H2463     1.0  0.88811  0.52810  0.42620  1.0000
  H   H2464     1.0  0.87257  0.50871  0.41096  1.0000
  H   H2465     1.0  0.88372  0.50494  0.44501  1.0000
  H   H2466     1.0  0.91038  0.32516  0.24877  1.0000
  H   H2467     1.0  0.75729  0.36137  0.20413  1.0000
  H   H2468     1.0  0.93003  0.32780  0.34510  1.0000
  H   H2469     1.0  0.88232  0.62579  0.11421  1.0000
  N   N102      1.0  0.98934  0.51716  0.27505  1.0000
  H   H2470     1.0  0.89159  0.64133  0.08738  1.0000
  H   H2471     1.0  0.80843  0.35018  0.48621  1.0000
  H   H2472     1.0  0.90838  0.43807  0.38027  1.0000
  C   C1447     1.0  0.94504  0.32493  0.33359  1.0000
  C   C1448     1.0  0.85254  0.60094  0.12604  1.0000
  H   H2473     1.0  0.93560  0.46663  0.45660  1.0000
  H   H2474     1.0  0.90622  0.61694  0.09572  1.0000
  H   H2475     1.0  0.91314  0.47395  0.02982  1.0000
  C   C1449     1.0  0.94731  0.54747  0.08543  1.0000
  H   H2476     1.0  0.95920  0.57756  0.37588  1.0000
  H   H2477     1.0  0.82936  0.32285  0.07405  1.0000
  N   N103      1.0  0.78044  0.35211  0.14019  1.0000
  C   C1450     1.0  0.79641  0.32780  0.06137  1.0000
  H   H2478     1.0  0.96084  0.36435  0.21526  1.0000
  C   C1451     1.0  0.88235  0.59472  0.30938  1.0000
  H   H2479     1.0  0.81095  0.33772  0.15490  1.0000
  H   H2480     1.0  0.93473  0.49096  0.36593  1.0000
  H   H2481     1.0  0.85770  0.62575  0.33671  1.0000
  C   C1452     1.0  0.90017  0.61752  0.34140  1.0000
  C   C1453     1.0  0.79748  0.33374  0.14140  1.0000
  C   C1454     1.0  0.87644  0.56342  0.35410  1.0000
  C   C1455     1.0  0.94218  0.55898  0.10972  1.0000
  H   H2482     1.0  0.96718  0.48623  0.00483  1.0000
  C   C1456     1.0  0.78807  0.36857  0.12114  1.0000
  H   H2483     1.0  0.93234  0.34496  0.15474  1.0000
  H   H2484     1.0  0.97432  0.49485  0.33689  1.0000
  C   C1457     1.0  0.96271  0.44312  0.99839  1.0000
  H   H2485     1.0  0.92066  0.63419  0.36886  1.0000
  S   S411      1.0  0.86824  0.48266  0.05679  1.0000
  N   N104      1.0  0.76836  0.33449  0.46866  1.0000
  H   H2486     1.0  0.80645  0.62422  0.21556  1.0000
  H   H2487     1.0  0.88317  0.55054  0.36779  1.0000
  S   S412      1.0  0.94134  0.59194  0.27985  1.0000
  H   H2488     1.0  0.89036  0.46922  0.99828  1.0000
  H   H2489     1.0  0.89397  0.58517  0.37698  1.0000
  N   N105      1.0  0.87313  0.47113  0.15242  1.0000
  C   C1458     1.0  0.87953  0.49279  0.14455  1.0000
  C   C1459     1.0  0.89145  0.45512  0.14526  1.0000
  C   C1460     1.0  0.86925  0.47108  0.18292  1.0000
  C   C1461     1.0  0.85306  0.46734  0.13673  1.0000
  C   C1462     1.0  0.86505  0.51214  0.15497  1.0000
  C   C1463     1.0  0.89834  0.45438  0.11508  1.0000
  C   C1464     1.0  0.87212  0.44947  0.19769  1.0000
  C   C1465     1.0  0.84354  0.44599  0.14123  1.0000
  H   H2490     1.0  0.89603  0.49497  0.15191  1.0000
  H   H2491     1.0  0.87999  0.49440  0.12190  1.0000
  H   H2492     1.0  0.88801  0.43877  0.15049  1.0000
  H   H2493     1.0  0.90580  0.45822  0.15776  1.0000
  H   H2494     1.0  0.88045  0.48101  0.19377  1.0000
  H   H2495     1.0  0.85298  0.47844  0.18774  1.0000
  H   H2496     1.0  0.84004  0.47959  0.14225  1.0000
  H   H2497     1.0  0.85484  0.46966  0.11435  1.0000
  H   H2498     1.0  0.86439  0.51305  0.17761  1.0000
  H   H2499     1.0  0.87192  0.52684  0.14832  1.0000
  H   H2500     1.0  0.85716  0.38764  0.17757  1.0000
  H   H2501     1.0  0.90508  0.46923  0.10873  1.0000
  H   H2502     1.0  0.91118  0.44136  0.11231  1.0000
  H   H2503     1.0  0.88508  0.45088  0.10123  1.0000
  H   H2504     1.0  0.88917  0.44325  0.19850  1.0000
  H   H2505     1.0  0.86261  0.43725  0.18862  1.0000
  H   H2506     1.0  0.86699  0.45173  0.21927  1.0000
  H   H2507     1.0  0.83407  0.44633  0.16030  1.0000
  H   H2508     1.0  0.85570  0.43232  0.14133  1.0000
  H   H2509     1.0  0.83285  0.44284  0.12374  1.0000
  N   N106      1.0  0.88386  0.60129  0.33911  1.0000
  Fe  Fe205     1.0  0.93621  0.41607  0.29387  1.0000
  H   H2510     1.0  0.92465  0.32574  0.42014  1.0000
  C   C1466     1.0  0.87672  0.61366  0.07206  1.0000
  H   H2511     1.0  0.87705  0.60597  0.26778  1.0000
  H   H2512     1.0  0.88509  0.44426  0.36095  1.0000
  H   H2513     1.0  0.76501  0.33754  0.04589  1.0000
  C   C1467     1.0  0.88531  0.51762  0.03591  1.0000
  H   H2514     1.0  0.93718  0.47624  0.06821  1.0000
  C   C1468     1.0  0.95165  0.58351  0.33330  1.0000
  C   C1469     1.0  0.85021  0.59349  0.09608  1.0000
  H   H2515     1.0  0.94997  0.35552  0.36705  1.0000
  H   H2516     1.0  0.83229  0.59668  0.04354  1.0000
  C   C1470     1.0  0.93607  0.55517  0.30862  1.0000
  C   C1471     1.0  0.93279  0.46637  0.27397  1.0000
  H   H2517     1.0  0.89470  0.58601  0.10991  1.0000
  C   C1472     1.0  0.88827  0.57839  0.09148  1.0000
  H   H2518     1.0  0.77333  0.34527  0.42757  1.0000
  H   H2519     1.0  0.87026  0.55666  0.11558  1.0000
  C   C1473     1.0  0.93218  0.34752  0.21011  1.0000
  C   C1474     1.0  0.81726  0.63248  0.20323  1.0000
  Fe  Fe206     1.0  0.95566  0.55649  0.48844  1.0000
  H   H2520     1.0  0.85845  0.56549  0.05535  1.0000
  H   H2521     1.0  0.86839  0.59676  0.13530  1.0000
  H   H2522     1.0  0.89859  0.54556  0.02042  1.0000
  H   H2523     1.0  0.81208  0.38267  0.14760  1.0000
  C   C1475     1.0  0.91092  0.62032  0.36956  1.0000
  C   C1476     1.0  0.77321  0.35556  0.48113  1.0000
  H   H2524     1.0  0.87557  0.55629  0.33336  1.0000
  H   H2525     1.0  0.77770  0.33971  0.20194  1.0000
  S   S413      1.0  0.94721  0.53514  0.38656  1.0000
  Fe  Fe207     1.0  0.94556  0.55352  0.42671  1.0000
  H   H2526     1.0  0.86022  0.56855  0.36161  1.0000
  H   H2527     1.0  0.84123  0.59303  0.13907  1.0000
  C   C1477     1.0  0.86210  0.61070  0.34780  1.0000
  H   H2528     1.0  0.94539  0.45375  0.04761  1.0000
  C   C1478     1.0  0.88983  0.62477  0.09389  1.0000
  C   C1479     1.0  0.95067  0.58032  0.06151  1.0000
  S   S414      1.0  0.94033  0.39720  0.25472  1.0000
  H   H2529     1.0  0.95428  0.58870  0.04318  1.0000
  S   S415      1.0  0.87636  0.56412  0.47814  1.0000
  C   C1480     1.0  0.89125  0.58167  0.35508  1.0000
  H   H2530     1.0  0.88864  0.32719  0.14928  1.0000
  Fe  Fe208     1.0  0.88744  0.41242  0.00814  1.0000
  H   H2531     1.0  0.75345  0.34033  0.18167  1.0000
  H   H2532     1.0  0.84196  0.61546  0.38364  1.0000
  H   H2533     1.0  0.84864  0.61839  0.12786  1.0000
  S   S416      1.0  0.85564  0.43148  0.00732  1.0000
  H   H2534     1.0  0.89307  0.63350  0.33505  1.0000
  C   C1481     1.0  0.90124  0.32652  0.20491  1.0000
  H   H2535     1.0  0.91363  0.61343  0.32707  1.0000
  H   H2536     1.0  0.97647  0.56170  0.25814  1.0000
  H   H2537     1.0  0.81387  0.38816  0.11199  1.0000
  C   C1482     1.0  0.74451  0.33515  0.46414  1.0000
  C   C1483     1.0  0.77709  0.36242  0.16794  1.0000
  H   H2538     1.0  0.95715  0.59929  0.33376  1.0000
  H   H2539     1.0  0.93594  0.34170  0.23092  1.0000
  S   S417      1.0  0.97115  0.56865  0.45072  1.0000
  H   H2540     1.0  0.79265  0.36590  0.17719  1.0000
  H   H2541     1.0  0.77704  0.38332  0.12129  1.0000
  C   C1484     1.0  0.85242  0.63482  0.18446  1.0000
  H   H2542     1.0  0.76333  0.33801  0.10712  1.0000
  H   H2543     1.0  0.89767  0.54800  0.11043  1.0000
  H   H2544     1.0  0.95345  0.46809  0.36624  1.0000
  C   C1485     1.0  0.87216  0.53696  0.99554  1.0000
  C   C1486     1.0  0.95272  0.35582  0.19876  1.0000
  S   S418      1.0  0.91469  0.36139  0.28559  1.0000
  H   H2545     1.0  0.78806  0.36269  0.09964  1.0000
  C   C1487     1.0  0.85698  0.52208  0.99174  1.0000
  C   C1488     1.0  0.97682  0.50493  0.29481  1.0000
  H   H2546     1.0  0.80453  0.33054  0.12080  1.0000
  H   H2547     1.0  0.84445  0.49347  0.00658  1.0000
  H   H2548     1.0  0.96621  0.48633  0.24500  1.0000
  H   H2549     1.0  0.89047  0.34148  0.20662  1.0000
  H   H2550     1.0  0.87931  0.57797  0.03931  1.0000
  S   S419      1.0  0.95815  0.54353  0.03080  1.0000
  C   C1489     1.0  0.88668  0.53433  0.01735  1.0000
  H   H2551     1.0  0.91695  0.51841  0.26086  1.0000
  C   C1490     1.0  0.92064  0.50160  0.25717  1.0000
  H   H2552     1.0  0.94799  0.53029  0.08541  1.0000
  S   S420      1.0  0.92157  0.58173  0.42904  1.0000
  C   C1491     1.0  0.93001  0.45799  0.24777  1.0000
  C   C1492     1.0  0.84796  0.59362  0.03347  1.0000
  H   H2553     1.0  0.90202  0.57649  0.07716  1.0000
  H   H2554     1.0  0.88679  0.61289  0.05332  1.0000
  H   H2555     1.0  0.84870  0.51257  0.14628  1.0000
  C   C1493     1.0  0.92765  0.48813  0.27879  1.0000
  H   H2556     1.0  0.93397  0.44131  0.24380  1.0000
  C   C1494     1.0  0.81736  0.33375  0.06457  1.0000
  C   C1495     1.0  0.86467  0.58123  0.05190  1.0000
  H   H2557     1.0  0.87938  0.54579  0.08285  1.0000
  Fe  Fe209     1.0  0.92220  0.58323  0.17858  1.0000
  S   S421      1.0  0.90967  0.60560  0.21215  1.0000
  C   C1496     1.0  0.88327  0.55599  0.10040  1.0000
  H   H2558     1.0  0.94573  0.60891  0.08586  1.0000
  H   H2559     1.0  0.92949  0.54894  0.29001  1.0000
  H   H2560     1.0  0.92914  0.49452  0.29922  1.0000
  H   H2561     1.0  0.84522  0.58382  0.01498  1.0000
  Fe  Fe210     1.0  0.92461  0.58126  0.24146  1.0000
  Fe  Fe211     1.0  0.94639  0.59641  0.45482  1.0000
  S   S422      1.0  0.95226  0.63100  0.44732  1.0000
  N   N107      1.0  0.86997  0.59188  0.07865  1.0000
  S   S423      1.0  0.93500  0.59664  0.13969  1.0000
  H   H2562     1.0  0.93224  0.52688  0.33203  1.0000
  S   S424      1.0  0.94805  0.38870  0.32093  1.0000
  S   S425      1.0  0.94397  0.45004  0.30022  1.0000
  C   C1497     1.0  0.94596  0.59176  0.08581  1.0000
  C   C1498     1.0  0.95281  0.57123  0.35718  1.0000
  H   H2563     1.0  0.84257  0.57819  0.09620  1.0000
  Fe  Fe212     1.0  0.91089  0.56719  0.46778  1.0000
  C   C1499     1.0  0.81062  0.37566  0.12690  1.0000
  S   S426      1.0  0.94015  0.56092  0.20795  1.0000
  N   N108      1.0  0.92226  0.33114  0.19260  1.0000
  S   S427      1.0  0.93317  0.53806  0.46377  1.0000
  C   C1500     1.0  0.94157  0.58122  0.11000  1.0000
  H   H2564     1.0  0.75413  0.33163  0.13945  1.0000
  C   C1501     1.0  0.87031  0.50261  0.03197  1.0000
  H   H2565     1.0  0.86919  0.58423  0.30597  1.0000
  C   C1502     1.0  0.97665  0.51904  0.24866  1.0000
  H   H2566     1.0  0.96134  0.32350  0.42078  1.0000
  H   H2567     1.0  0.96358  0.50168  0.21476  1.0000
  H   H2568     1.0  0.86343  0.62289  0.29228  1.0000
  H   H2569     1.0  0.92704  0.34121  0.39109  1.0000
  H   H2570     1.0  0.93890  0.55066  0.12825  1.0000
  C   C1503     1.0  0.76594  0.34995  0.18984  1.0000
  C   C1504     1.0  0.92855  0.48050  0.02558  1.0000
  H   H2571     1.0  0.96423  0.34286  0.19130  1.0000
  H   H2572     1.0  0.92682  0.46517  0.35523  1.0000
  H   H2573     1.0  0.92587  0.49792  0.02966  1.0000
  H   H2574     1.0  0.89721  0.58516  0.30296  1.0000
  S   S428      1.0  0.92365  0.58822  0.99640  1.0000
  H   H2575     1.0  0.95981  0.47770  0.04701  1.0000
  C   C1505     1.0  0.97403  0.49810  0.23289  1.0000
  C   C1506     1.0  0.94394  0.47138  0.04796  1.0000
  H   H2576     1.0  0.89946  0.62329  0.38641  1.0000
  H   H2577     1.0  0.76279  0.36882  0.47186  1.0000
  H   H2578     1.0  0.89599  0.51629  0.05338  1.0000
  C   C1507     1.0  0.91745  0.34109  0.16501  1.0000
  H   H2579     1.0  0.90594  0.33558  0.12380  1.0000
  H   H2580     1.0  0.94902  0.36748  0.18220  1.0000
  H   H2581     1.0  0.86332  0.63275  0.38276  1.0000
  H   H2582     1.0  0.91366  0.46327  0.47851  1.0000
  H   H2583     1.0  0.90760  0.35643  0.16744  1.0000
  C   C1508     1.0  0.96621  0.34981  0.37417  1.0000
  H   H2584     1.0  0.86780  0.60513  0.39245  1.0000
  H   H2585     1.0  0.94912  0.34000  0.32430  1.0000
  H   H2586     1.0  0.79976  0.36604  0.45685  1.0000
  H   H2587     1.0  0.97535  0.48836  0.28758  1.0000
  H   H2588     1.0  0.98387  0.52938  0.23375  1.0000
  C   C1509     1.0  0.98580  0.50290  0.32428  1.0000
  H   H2589     1.0  0.95922  0.36011  0.41666  1.0000
  H   H2590     1.0  0.97194  0.45262  0.01248  1.0000
  H   H2591     1.0  0.79626  0.33195  0.44222  1.0000
  C   C1510     1.0  0.79616  0.36215  0.47830  1.0000
  H   H2592     1.0  0.97674  0.65180  0.30349  1.0000
  C   C1511     1.0  0.74130  0.36200  0.12560  1.0000
  N   N109      1.0  0.93526  0.47659  0.99628  1.0000
  H   H2593     1.0  0.98716  0.36039  0.40734  1.0000
  C   C1512     1.0  0.77870  0.33164  0.44101  1.0000
  H   H2594     1.0  0.79765  0.37693  0.49042  1.0000
  H   H2595     1.0  0.97847  0.54379  0.30151  1.0000
  N   N110      1.0  0.96879  0.32598  0.37754  1.0000
  H   H2596     1.0  0.94882  0.50692  0.99462  1.0000
  H   H2597     1.0  0.74434  0.37426  0.11037  1.0000
  H   H2598     1.0  0.96100  0.42770  0.00862  1.0000
  C   C1513     1.0  0.93116  0.32508  0.39908  1.0000
  C   C1514     1.0  0.90571  0.32774  0.14406  1.0000
  C   C1515     1.0  0.84498  0.65372  0.17121  1.0000
  Fe  Fe213     1.0  0.94791  0.56047  0.99156  1.0000
  H   H2599     1.0  0.98514  0.65345  0.03085  1.0000
  H   H2600     1.0  0.86430  0.62982  0.72960  1.0000
  S   S429      1.0  0.88464  0.54601  0.72157  1.0000
  S   S430      1.0  0.90004  0.54757  0.65782  1.0000
  Fe  Fe214     1.0  0.87805  0.56738  0.68543  1.0000
  S   S431      1.0  0.84471  0.57785  0.67005  1.0000
  Fe  Fe215     1.0  0.90928  0.52846  0.69505  1.0000
  S   S432      1.0  0.91099  0.49308  0.68888  1.0000
  S   S433      1.0  0.90988  0.35944  0.79321  1.0000
  S   S434      1.0  0.90797  0.40999  0.78026  1.0000
  H   H2601     1.0  0.93227  0.50357  0.89567  1.0000
  Fe  Fe216     1.0  0.90932  0.38964  0.81769  1.0000
  S   S435      1.0  0.88427  0.39856  0.84981  1.0000
  Fe  Fe217     1.0  0.91160  0.37965  0.75602  1.0000
  S   S436      1.0  0.89091  0.37263  0.71948  1.0000
  C   C1516     1.0  0.86875  0.54092  0.49420  1.0000
  H   H2602     1.0  0.81557  0.38339  0.70300  1.0000
  Fe  Fe218     1.0  0.88855  0.41809  0.57241  1.0000
  S   S437      1.0  0.85384  0.42922  0.57378  1.0000
  S   S438      1.0  0.91062  0.41865  0.60915  1.0000
  C   C1517     1.0  0.76260  0.34451  0.62975  1.0000
  C   C1518     1.0  0.91668  0.48494  0.97844  1.0000
  H   H2603     1.0  0.98861  0.63587  0.89425  1.0000
  Fe  Fe219     1.0  0.86073  0.45071  0.53919  1.0000
  C   C1519     1.0  0.83738  0.35235  0.92809  1.0000
  Fe  Fe220     1.0  0.84966  0.40434  0.54143  1.0000
  S   S439      1.0  0.81811  0.38902  0.54297  1.0000
  S   S440      1.0  0.89568  0.44153  0.54033  1.0000
  S   S441      1.0  0.88433  0.39137  0.54247  1.0000
  C   C1520     1.0  0.88298  0.52290  0.49885  1.0000
  C   C1521     1.0  0.85508  0.50542  0.52184  1.0000
  H   H2604     1.0  0.81804  0.60975  0.76089  1.0000
  H   H2605     1.0  0.85100  0.63002  0.82748  1.0000
  C   C1522     1.0  0.97030  0.48773  0.66607  1.0000
  C   C1523     1.0  0.84372  0.64196  0.67929  1.0000
  C   C1524     1.0  0.81434  0.61195  0.66981  1.0000
  S   S442      1.0  0.87202  0.55929  0.97385  1.0000
  C   C1525     1.0  0.85082  0.62039  0.67625  1.0000
  C   C1526     1.0  0.90466  0.40560  0.63942  1.0000
  C   C1527     1.0  0.91847  0.40677  0.66191  1.0000
  C   C1528     1.0  0.91424  0.39688  0.68660  1.0000
  C   C1529     1.0  0.89614  0.38568  0.68893  1.0000
  C   C1530     1.0  0.88234  0.38433  0.66638  1.0000
  C   C1531     1.0  0.88651  0.39437  0.64165  1.0000
  H   H2606     1.0  0.93249  0.41537  0.66021  1.0000
  H   H2607     1.0  0.86846  0.37546  0.66807  1.0000
  H   H2608     1.0  0.87583  0.39333  0.62432  1.0000
  C   C1532     1.0  0.89173  0.39968  0.88454  1.0000
  C   C1533     1.0  0.87642  0.40693  0.90396  1.0000
  C   C1534     1.0  0.88224  0.40929  0.93157  1.0000
  C   C1535     1.0  0.90337  0.40426  0.93985  1.0000
  C   C1536     1.0  0.91867  0.39713  0.92043  1.0000
  C   C1537     1.0  0.91287  0.39479  0.89285  1.0000
  H   H2609     1.0  0.86011  0.41107  0.89751  1.0000
  H   H2610     1.0  0.87052  0.41532  0.94636  1.0000
  H   H2611     1.0  0.93506  0.39324  0.92675  1.0000
  H   H2612     1.0  0.92478  0.38924  0.87805  1.0000
  C   C1538     1.0  0.92431  0.47777  0.71452  1.0000
  H   H2613     1.0  0.91308  0.44856  0.69925  1.0000
  H   H2614     1.0  0.98390  0.45429  0.61151  1.0000
  H   H2615     1.0  0.92507  0.39776  0.70374  1.0000
  H   H2616     1.0  0.93092  0.48211  0.58561  1.0000
  H   H2617     1.0  0.93506  0.45734  0.60283  1.0000
  H   H2618     1.0  0.80469  0.34395  0.69524  1.0000
  C   C1539     1.0  0.78279  0.34021  0.56037  1.0000
  C   C1540     1.0  0.78944  0.36012  0.55326  1.0000
  C   C1541     1.0  0.81119  0.36352  0.55239  1.0000
  C   C1542     1.0  0.82634  0.34679  0.55897  1.0000
  H   H2619     1.0  0.97925  0.51614  0.64360  1.0000
  S   S443      1.0  0.96190  0.32646  0.80275  1.0000
  H   H2620     1.0  0.77762  0.37304  0.54847  1.0000
  H   H2621     1.0  0.84316  0.34920  0.55834  1.0000
  H   H2622     1.0  0.82992  0.61853  0.73068  1.0000
  H   H2623     1.0  0.93745  0.54137  0.78759  1.0000
  C   C1543     1.0  0.94840  0.48444  0.62398  1.0000
  H   H2624     1.0  0.95530  0.52291  0.57664  1.0000
  C   C1544     1.0  0.83616  0.60523  0.67199  1.0000
  C   C1545     1.0  0.87299  0.36024  0.96911  1.0000
  H   H2625     1.0  0.95667  0.46823  0.58464  1.0000
  H   H2626     1.0  0.80288  0.60034  0.66634  1.0000
  H   H2627     1.0  0.86765  0.61555  0.67733  1.0000
  H   H2628     1.0  0.94877  0.42858  0.86759  1.0000
  Fe  Fe221     1.0  0.90468  0.57030  0.96642  1.0000
  H   H2629     1.0  0.76867  0.36688  0.66139  1.0000
  H   H2630     1.0  0.89440  0.47859  0.89974  1.0000
  H   H2631     1.0  0.93281  0.42604  0.73365  1.0000
  H   H2632     1.0  0.76754  0.32825  0.62219  1.0000
  H   H2633     1.0  0.96441  0.58781  0.81836  1.0000
  H   H2634     1.0  0.97242  0.45148  0.69377  1.0000
  N   N111      1.0  0.85689  0.47745  0.63630  1.0000
  C   C1546     1.0  0.87337  0.46035  0.64622  1.0000
  C   C1547     1.0  0.86383  0.48421  0.60848  1.0000
  C   C1548     1.0  0.83571  0.46778  0.63425  1.0000
  C   C1549     1.0  0.85583  0.49548  0.65678  1.0000
  C   C1550     1.0  0.86844  0.44968  0.67349  1.0000
  C   C1551     1.0  0.88482  0.49509  0.60764  1.0000
  C   C1552     1.0  0.81892  0.47795  0.61406  1.0000
  C   C1553     1.0  0.84143  0.51565  0.64956  1.0000
  H   H2635     1.0  0.87581  0.44742  0.63060  1.0000
  H   H2636     1.0  0.88921  0.46661  0.64926  1.0000
  H   H2637     1.0  0.85171  0.49539  0.59852  1.0000
  H   H2638     1.0  0.86562  0.47024  0.59438  1.0000
  H   H2639     1.0  0.83809  0.45076  0.62776  1.0000
  H   H2640     1.0  0.82797  0.46771  0.65464  1.0000
  H   H2641     1.0  0.84996  0.49021  0.67677  1.0000
  H   H2642     1.0  0.87196  0.50036  0.66190  1.0000
  H   H2643     1.0  0.85306  0.44234  0.67303  1.0000
  H   H2644     1.0  0.88098  0.43659  0.67745  1.0000
  H   H2645     1.0  0.86900  0.46089  0.69103  1.0000
  H   H2646     1.0  0.88405  0.50987  0.62013  1.0000
  H   H2647     1.0  0.89862  0.48422  0.61403  1.0000
  H   H2648     1.0  0.88778  0.49957  0.58616  1.0000
  H   H2649     1.0  0.81587  0.49532  0.61680  1.0000
  H   H2650     1.0  0.80353  0.47090  0.61717  1.0000
  H   H2651     1.0  0.82475  0.51426  0.65613  1.0000
  H   H2652     1.0  0.84161  0.51974  0.62770  1.0000
  H   H2653     1.0  0.84757  0.52953  0.66027  1.0000
  H   H2654     1.0  0.94202  0.62451  0.89517  1.0000
  H   H2655     1.0  0.76600  0.33797  0.56082  1.0000
  H   H2656     1.0  0.84739  0.53679  0.57717  1.0000
  C   C1554     1.0  0.92587  0.33674  0.67128  1.0000
  H   H2657     1.0  0.95232  0.49761  0.94667  1.0000
  C   C1555     1.0  0.83360  0.61006  0.75022  1.0000
  H   H2658     1.0  0.93847  0.45006  0.96793  1.0000
  C   C1556     1.0  0.94603  0.63501  0.87824  1.0000
  H   H2659     1.0  0.91488  0.46439  0.79144  1.0000
  H   H2660     1.0  0.96640  0.58589  0.88012  1.0000
  H   H2661     1.0  0.98410  0.49710  0.60103  1.0000
  H   H2662     1.0  0.79410  0.38053  0.63211  1.0000
  C   C1557     1.0  0.94367  0.33462  0.69333  1.0000
  H   H2663     1.0  0.95844  0.48607  0.68246  1.0000
  H   H2664     1.0  0.95571  0.44185  0.63565  1.0000
  S   S444      1.0  0.94743  0.37747  0.75548  1.0000
  C   C1558     1.0  0.98593  0.46763  0.62613  1.0000
  H   H2665     1.0  0.87902  0.35566  0.94848  1.0000
  C   C1559     1.0  0.86359  0.61923  0.81763  1.0000
  C   C1560     1.0  0.80214  0.37760  0.69090  1.0000
  H   H2666     1.0  0.95921  0.63291  0.83743  1.0000
  C   C1561     1.0  0.95863  0.62244  0.85554  1.0000
  H   H2667     1.0  0.90984  0.34083  0.67993  1.0000
  C   C1562     1.0  0.92228  0.48665  0.85939  1.0000
  H   H2668     1.0  0.91889  0.56307  0.55682  1.0000
  H   H2669     1.0  0.86654  0.55537  0.61360  1.0000
  H   H2670     1.0  0.84564  0.52403  0.97501  1.0000
  H   H2671     1.0  0.94119  0.45700  0.66105  1.0000
  H   H2672     1.0  0.88178  0.58859  0.54064  1.0000
  N   N112      1.0  0.98062  0.61302  0.86341  1.0000
  C   C1563     1.0  0.92284  0.45578  0.71441  1.0000
  H   H2673     1.0  0.87271  0.37770  0.97181  1.0000
  H   H2674     1.0  0.85166  0.35939  0.91998  1.0000
  C   C1564     1.0  0.81964  0.32682  0.56626  1.0000
  H   H2675     1.0  0.89928  0.52269  0.49224  1.0000
  H   H2676     1.0  0.80348  0.35596  0.91384  1.0000
  H   H2677     1.0  0.83612  0.38984  0.97888  1.0000
  C   C1565     1.0  0.93407  0.44299  0.73381  1.0000
  C   C1566     1.0  0.89701  0.47174  0.97784  1.0000
  H   H2678     1.0  0.86688  0.59460  0.78701  1.0000
  H   H2679     1.0  0.87733  0.60815  0.74629  1.0000
  H   H2680     1.0  0.81015  0.35820  0.98934  1.0000
  C   C1567     1.0  0.83152  0.38427  0.95813  1.0000
  H   H2681     1.0  0.97237  0.43911  0.97987  1.0000
  H   H2682     1.0  0.87922  0.65157  0.77436  1.0000
  H   H2683     1.0  0.94423  0.54007  0.62105  1.0000
  C   C1568     1.0  0.81271  0.35224  0.96808  1.0000
  H   H2684     1.0  0.95302  0.51877  0.65891  1.0000
  H   H2685     1.0  0.85524  0.58597  0.72918  1.0000
  H   H2686     1.0  0.77090  0.34034  0.67261  1.0000
  C   C1569     1.0  0.80720  0.63363  0.67278  1.0000
  H   H2687     1.0  0.90058  0.45607  0.96766  1.0000
  H   H2688     1.0  0.83248  0.37950  0.64644  1.0000
  H   H2689     1.0  0.82482  0.52392  0.52464  1.0000
  H   H2690     1.0  0.96358  0.42738  0.68089  1.0000
  C   C1570     1.0  0.96267  0.48810  0.96130  1.0000
  C   C1571     1.0  0.82759  0.37027  0.62839  1.0000
  N   N113      1.0  0.83278  0.36024  0.95681  1.0000
  H   H2691     1.0  0.84356  0.57636  0.75997  1.0000
  H   H2692     1.0  0.93060  0.64191  0.86962  1.0000
  S   S445      1.0  0.91141  0.40716  0.97411  1.0000
  N   N114      1.0  0.96576  0.47374  0.64179  1.0000
  H   H2693     1.0  0.94845  0.60976  0.84897  1.0000
  C   C1572     1.0  0.84106  0.52349  0.51738  1.0000
  H   H2694     1.0  0.93353  0.48783  0.63603  1.0000
  N   N115      1.0  0.84920  0.62147  0.76745  1.0000
  H   H2695     1.0  0.79835  0.39447  0.96909  1.0000
  H   H2696     1.0  0.79033  0.63864  0.67165  1.0000
  Fe  Fe222     1.0  0.94367  0.40632  0.78288  1.0000
  H   H2697     1.0  0.76392  0.35605  0.61303  1.0000
  H   H2698     1.0  0.82949  0.38031  0.61015  1.0000
  H   H2699     1.0  0.82360  0.47430  0.59257  1.0000
  H   H2700     1.0  0.87621  0.46333  0.88008  1.0000
  H   H2701     1.0  0.88878  0.45266  0.91024  1.0000
  S   S446      1.0  0.84578  0.48458  0.54101  1.0000
  C   C1573     1.0  0.93724  0.48695  0.73399  1.0000
  C   C1574     1.0  0.94717  0.45202  0.75307  1.0000
  H   H2702     1.0  0.89778  0.62806  0.77438  1.0000
  H   H2703     1.0  0.88410  0.48043  0.96572  1.0000
  C   C1575     1.0  0.89130  0.46255  0.89207  1.0000
  S   S447      1.0  0.94748  0.63599  0.95477  1.0000
  H   H2704     1.0  0.94378  0.35034  0.70393  1.0000
  H   H2705     1.0  0.88500  0.47637  0.83969  1.0000
  H   H2706     1.0  0.90747  0.49712  0.86356  1.0000
  C   C1576     1.0  0.84169  0.55326  0.58323  1.0000
  Fe  Fe223     1.0  0.92510  0.56823  0.67200  1.0000
  S   S448      1.0  0.90257  0.58934  0.69769  1.0000
  S   S449      1.0  0.91706  0.58724  0.93023  1.0000
  H   H2707     1.0  0.93853  0.50391  0.73410  1.0000
  H   H2708     1.0  0.78805  0.37714  0.70437  1.0000
  H   H2709     1.0  0.92144  0.48577  0.95672  1.0000
  H   H2710     1.0  0.87705  0.54109  0.55528  1.0000
  C   C1577     1.0  0.85487  0.60799  0.79229  1.0000
  S   S450      1.0  0.94498  0.38816  0.82230  1.0000
  C   C1578     1.0  0.94889  0.47402  0.75307  1.0000
  H   H2711     1.0  0.92891  0.35005  0.65752  1.0000
  H   H2712     1.0  0.84061  0.60040  0.79963  1.0000
  Fe  Fe224     1.0  0.94568  0.35931  0.79464  1.0000
  Fe  Fe225     1.0  0.91104  0.56664  0.73223  1.0000
  H   H2713     1.0  0.89277  0.45023  0.82755  1.0000
  S   S451      1.0  0.96073  0.43588  0.77768  1.0000
  H   H2714     1.0  0.83857  0.35573  0.62577  1.0000
  C   C1579     1.0  0.89879  0.46616  0.83142  1.0000
  C   C1580     1.0  0.80967  0.39640  0.95215  1.0000
  S   S452      1.0  0.93635  0.54766  0.70764  1.0000
  Fe  Fe226     1.0  0.93969  0.60153  0.95989  1.0000
  H   H2715     1.0  0.90892  0.59637  0.82982  1.0000
  C   C1581     1.0  0.90351  0.47530  0.80312  1.0000
  H   H2716     1.0  0.79586  0.32424  0.97556  1.0000
  H   H2717     1.0  0.79980  0.35905  0.60974  1.0000
  H   H2718     1.0  0.84316  0.39047  0.94389  1.0000
  S   S453      1.0  0.94406  0.58400  0.64011  1.0000
  C   C1582     1.0  0.95046  0.57141  0.60844  1.0000
  H   H2719     1.0  0.95897  0.48106  0.76806  1.0000
  H   H2720     1.0  0.88851  0.47691  0.79088  1.0000
  H   H2721     1.0  0.84347  0.60780  0.54142  1.0000
  C   C1583     1.0  0.95750  0.45361  0.65245  1.0000
  C   C1584     1.0  0.91019  0.45199  0.87561  1.0000
  C   C1585     1.0  0.94952  0.54951  0.60460  1.0000
  C   C1586     1.0  0.95674  0.58370  0.58665  1.0000
  H   H2722     1.0  0.92331  0.33832  0.74046  1.0000
  H   H2723     1.0  0.95743  0.60065  0.58942  1.0000
  H   H2724     1.0  0.90950  0.49128  0.80450  1.0000
  C   C1587     1.0  0.85957  0.56529  0.59650  1.0000
  N   N116      1.0  0.91719  0.46444  0.85162  1.0000
  C   C1588     1.0  0.96218  0.57420  0.56126  1.0000
  H   H2725     1.0  0.90569  0.43624  0.86839  1.0000
  H   H2726     1.0  0.96700  0.58383  0.54460  1.0000
  H   H2727     1.0  0.95444  0.64841  0.88654  1.0000
  H   H2728     1.0  0.92940  0.49450  0.84180  1.0000
  H   H2729     1.0  0.85146  0.57942  0.60679  1.0000
  C   C1589     1.0  0.81982  0.35729  0.90635  1.0000
  H   H2730     1.0  0.84217  0.33496  0.92750  1.0000
  H   H2731     1.0  0.92333  0.58217  0.87369  1.0000
  C   C1590     1.0  0.94267  0.47205  0.59795  1.0000
  H   H2732     1.0  0.82601  0.32679  0.64421  1.0000
  H   H2733     1.0  0.79821  0.35857  0.95686  1.0000
  H   H2734     1.0  0.92322  0.44806  0.89052  1.0000
  C   C1591     1.0  0.93774  0.48911  0.88371  1.0000
  H   H2735     1.0  0.85974  0.57379  0.53877  1.0000
  H   H2736     1.0  0.84355  0.60330  0.57676  1.0000
  H   H2737     1.0  0.82100  0.37328  0.89746  1.0000
  S   S454      1.0  0.92848  0.54234  0.96230  1.0000
  C   C1592     1.0  0.96201  0.55220  0.55770  1.0000
  N   N117      1.0  0.87699  0.57108  0.57760  1.0000
  C   C1593     1.0  0.88816  0.55051  0.56712  1.0000
  C   C1594     1.0  0.85430  0.60435  0.55919  1.0000
  H   H2738     1.0  0.89414  0.54031  0.58450  1.0000
  C   C1595     1.0  0.97126  0.44180  0.67485  1.0000
  H   H2739     1.0  0.93860  0.47606  0.89859  1.0000
  H   H2740     1.0  0.79831  0.38970  0.67501  1.0000
  C   C1596     1.0  0.91813  0.58112  0.83017  1.0000
  C   C1597     1.0  0.93591  0.45238  0.83769  1.0000
  C   C1598     1.0  0.86843  0.58370  0.55329  1.0000
  H   H2741     1.0  0.89836  0.60791  0.62277  1.0000
  H   H2742     1.0  0.82182  0.34525  0.88963  1.0000
  C   C1599     1.0  0.92631  0.57306  0.85518  1.0000
  H   H2743     1.0  0.94346  0.46281  0.82301  1.0000
  H   H2744     1.0  0.93039  0.43896  0.82523  1.0000
  H   H2745     1.0  0.90195  0.55903  0.52783  1.0000
  Fe  Fe227     1.0  0.94226  0.56009  0.92808  1.0000
  H   H2746     1.0  0.95409  0.49115  0.87628  1.0000
  C   C1600     1.0  0.77524  0.35057  0.65545  1.0000
  C   C1601     1.0  0.89329  0.58294  0.59312  1.0000
  H   H2747     1.0  0.86423  0.61793  0.56224  1.0000
  H   H2748     1.0  0.87920  0.59061  0.63338  1.0000
  C   C1602     1.0  0.88494  0.59895  0.61536  1.0000
  H   H2749     1.0  0.90499  0.57162  0.60390  1.0000
  S   S455      1.0  0.91225  0.58173  0.77472  1.0000
  C   C1603     1.0  0.90722  0.55276  0.54805  1.0000
  H   H2750     1.0  0.87222  0.61067  0.60793  1.0000
  H   H2751     1.0  0.95244  0.52730  0.83180  1.0000
  C   C1604     1.0  0.87610  0.50505  0.51240  1.0000
  H   H2752     1.0  0.81178  0.41367  0.95101  1.0000
  H   H2753     1.0  0.95234  0.50024  0.61700  1.0000
  C   C1605     1.0  0.95576  0.53986  0.57951  1.0000
  H   H2754     1.0  0.90298  0.59179  0.57888  1.0000
  C   C1606     1.0  0.92203  0.56983  0.80561  1.0000
  H   H2755     1.0  0.91570  0.53684  0.54431  1.0000
  C   C1607     1.0  0.80409  0.36520  0.63021  1.0000
  C   C1608     1.0  0.98067  0.58338  0.82648  1.0000
  Fe  Fe228     1.0  0.88881  0.41590  0.51009  1.0000
  H   H2756     1.0  0.96722  0.43567  0.84267  1.0000
  S   S456      1.0  0.96538  0.57468  0.95688  1.0000
  H   H2757     1.0  0.96526  0.47149  0.95380  1.0000
  C   C1609     1.0  0.80893  0.35523  0.67924  1.0000
  C   C1610     1.0  0.93880  0.55367  0.85604  1.0000
  C   C1611     1.0  0.85110  0.35185  0.97497  1.0000
  C   C1612     1.0  0.93418  0.55019  0.80637  1.0000
  H   H2758     1.0  0.88713  0.49124  0.51602  1.0000
  C   C1613     1.0  0.84081  0.58690  0.74206  1.0000
  H   H2759     1.0  0.83418  0.56179  0.56546  1.0000
  C   C1614     1.0  0.81193  0.32790  0.96862  1.0000
  H   H2760     1.0  0.96182  0.33277  0.74313  1.0000
  S   S457      1.0  0.85395  0.42690  0.50664  1.0000
  S   S458      1.0  0.96943  0.53986  0.52625  1.0000
  C   C1615     1.0  0.86869  0.62393  0.75040  1.0000
  H   H2761     1.0  0.82670  0.35299  0.67876  1.0000
  C   C1616     1.0  0.94264  0.54223  0.83148  1.0000
  C   C1617     1.0  0.97357  0.64315  0.94791  1.0000
  C   C1618     1.0  0.95399  0.44226  0.85601  1.0000
  S   S459      1.0  0.95082  0.54403  0.88709  1.0000
  H   H2762     1.0  0.96075  0.45380  0.86999  1.0000
  H   H2763     1.0  0.74538  0.34489  0.63488  1.0000
  H   H2764     1.0  0.86884  0.60701  0.83304  1.0000
  N   N118      1.0  0.79910  0.34975  0.65216  1.0000
  H   H2765     1.0  0.82890  0.55194  0.59849  1.0000
  H   H2766     1.0  0.83660  0.55471  0.49989  1.0000
  H   H2767     1.0  0.82801  0.58040  0.72952  1.0000
  S   S460      1.0  0.93266  0.58523  0.49408  1.0000
  H   H2768     1.0  0.98955  0.61249  0.95686  1.0000
  H   H2769     1.0  0.97836  0.49498  0.96117  1.0000
  H   H2770     1.0  0.80252  0.39166  0.93256  1.0000
  H   H2771     1.0  0.85371  0.33423  0.97347  1.0000
  C   C1619     1.0  0.96975  0.51187  0.66130  1.0000
  C   C1620     1.0  0.80826  0.32785  0.64362  1.0000
  H   H2772     1.0  0.80416  0.32444  0.62204  1.0000
  H   H2773     1.0  0.82340  0.63991  0.78789  1.0000
  H   H2774     1.0  0.89406  0.64477  0.74489  1.0000
  C   C1621     1.0  0.84775  0.54096  0.50336  1.0000
  H   H2775     1.0  0.97632  0.51960  0.67966  1.0000
  H   H2776     1.0  0.91109  0.50155  0.98446  1.0000
  H   H2777     1.0  0.95878  0.33254  0.68165  1.0000
  C   C1622     1.0  0.88570  0.63779  0.76212  1.0000
  C   C1623     1.0  0.82190  0.64864  0.67792  1.0000
  H   H2778     1.0  0.87759  0.62799  0.81312  1.0000
  C   C1624     1.0  0.83794  0.64254  0.77592  1.0000
  H   H2779     1.0  0.76943  0.35605  0.50328  1.0000
  H   H2780     1.0  0.98012  0.57031  0.84135  1.0000
  H   H2781     1.0  0.92565  0.32226  0.65831  1.0000
  H   H2782     1.0  0.98608  0.48262  0.67548  1.0000
  H   H2783     1.0  0.97253  0.60501  0.90484  1.0000
  H   H2784     1.0  0.81786  0.65185  0.73992  1.0000
  C   C1625     1.0  0.97855  0.59701  0.88571  1.0000
  H   H2785     1.0  0.90807  0.32374  0.71751  1.0000
  C   C1626     1.0  0.92262  0.32243  0.73058  1.0000
  H   H2786     1.0  0.85519  0.65352  0.68303  1.0000
  C   C1627     1.0  0.95362  0.48978  0.99057  1.0000
  C   C1628     1.0  0.79781  0.32344  0.56699  1.0000
  H   H2787     1.0  0.88493  0.35314  0.98398  1.0000
  H   H2788     1.0  0.98744  0.43636  0.66752  1.0000
  H   H2789     1.0  0.84776  0.65157  0.79000  1.0000
  H   H2790     1.0  0.98819  0.32770  0.70794  1.0000
  C   C1629     1.0  0.94026  0.45322  0.99026  1.0000
  H   H2791     1.0  0.99029  0.57682  0.80894  1.0000
  C   C1630     1.0  0.79207  0.80437  0.99475  1.0000
  H   H2792     1.0  0.88002  0.98276  0.30860  1.0000
  H   H2793     1.0  0.96901  0.98539  0.13256  1.0000
  Fe  Fe229     1.0  0.78240  0.70371  0.16149  1.0000
  S   S461      1.0  0.78156  0.73926  0.16726  1.0000
  C   C1631     1.0  0.96394  0.67904  0.01571  1.0000
  C   C1632     1.0  0.76987  0.73574  0.03155  1.0000
  H   H2794     1.0  0.81984  0.83869  0.35878  1.0000
  Fe  Fe230     1.0  0.75026  0.79415  0.42546  1.0000
  C   C1633     1.0  0.75005  0.76535  0.28720  1.0000
  C   C1634     1.0  0.81697  0.87944  0.33217  1.0000
  S   S462      1.0  0.75987  0.70604  0.12537  1.0000
  H   H2795     1.0  0.97113  0.85013  0.12147  1.0000
  Fe  Fe231     1.0  0.75467  0.73524  0.19612  1.0000
  C   C1635     1.0  0.85564  0.92345  0.05887  1.0000
  H   H2796     1.0  0.75740  0.70599  0.30719  1.0000
  H   H2797     1.0  0.77066  0.82810  0.05306  1.0000
  C   C1636     1.0  0.91620  0.96461  0.00375  1.0000
  H   H2798     1.0  0.95748  0.91601  0.12732  1.0000
  S   S463      1.0  0.75987  0.82818  0.42755  1.0000
  H   H2799     1.0  0.97310  0.87844  0.12530  1.0000
  S   S464      1.0  0.77284  0.76461  0.42166  1.0000
  H   H2800     1.0  0.82550  0.81814  0.03247  1.0000
  N   N119      1.0  0.82633  0.87194  0.35926  1.0000
  H   H2801     1.0  0.86311  0.97333  0.08141  1.0000
  C   C1637     1.0  0.85977  0.91242  0.08345  1.0000
  H   H2802     1.0  0.95900  0.96111  0.48741  1.0000
  C   C1638     1.0  0.79733  0.79296  0.04175  1.0000
  H   H2803     1.0  0.84362  0.89208  0.31053  1.0000
  H   H2804     1.0  0.97095  0.67965  0.30790  1.0000
  H   H2805     1.0  0.85822  0.71661  0.18140  1.0000
  H   H2806     1.0  0.86517  0.98712  0.23404  1.0000
  H   H2807     1.0  0.78660  0.78043  0.03638  1.0000
  Fe  Fe232     1.0  0.86013  0.89052  0.45965  1.0000
  S   S465      1.0  0.85268  0.85598  0.45577  1.0000
  Fe  Fe233     1.0  0.85893  0.93223  0.42976  1.0000
  S   S466      1.0  0.87181  0.94941  0.46579  1.0000
  H   H2808     1.0  0.95026  0.96607  0.06600  1.0000
  S   S467      1.0  0.88379  0.90470  0.43237  1.0000
  C   C1639     1.0  0.82370  0.66213  0.17397  1.0000
  Fe  Fe234     1.0  0.93051  0.91550  0.20084  1.0000
  S   S468      1.0  0.90219  0.89654  0.20385  1.0000
  S   S469      1.0  0.96444  0.90230  0.19179  1.0000
  Fe  Fe235     1.0  0.89161  0.91883  0.23834  1.0000
  S   S470      1.0  0.88228  0.90456  0.27845  1.0000
  Fe  Fe236     1.0  0.88570  0.92092  0.17580  1.0000
  S   S471      1.0  0.86972  0.90845  0.13782  1.0000
  S   S472      1.0  0.92136  0.93608  0.23730  1.0000
  S   S473      1.0  0.91469  0.93862  0.17097  1.0000
  C   C1640     1.0  0.85661  0.94548  0.05806  1.0000
  C   C1641     1.0  0.79570  0.79672  0.07291  1.0000
  C   C1642     1.0  0.85400  0.71054  0.20173  1.0000
  C   C1643     1.0  0.86554  0.92315  0.10730  1.0000
  C   C1644     1.0  0.86724  0.94512  0.10635  1.0000
  C   C1645     1.0  0.86247  0.95628  0.08187  1.0000
  H   H2809     1.0  0.87152  0.95356  0.12465  1.0000
  C   C1646     1.0  0.86231  0.93842  0.35864  1.0000
  C   C1647     1.0  0.87563  0.91955  0.35854  1.0000
  C   C1648     1.0  0.88265  0.91009  0.33378  1.0000
  C   C1649     1.0  0.87675  0.91950  0.30870  1.0000
  C   C1650     1.0  0.86414  0.93888  0.30864  1.0000
  H   H2810     1.0  0.88017  0.91185  0.37745  1.0000
  H   H2811     1.0  0.89233  0.89508  0.33402  1.0000
  H   H2812     1.0  0.82827  0.83885  0.99542  1.0000
  H   H2813     1.0  0.75885  0.81062  0.02979  1.0000
  H   H2814     1.0  0.82176  0.72375  0.19478  1.0000
  C   C1651     1.0  0.97063  0.87459  0.18839  1.0000
  C   C1652     1.0  0.95520  0.86028  0.19253  1.0000
  C   C1653     1.0  0.96040  0.83835  0.18897  1.0000
  C   C1654     1.0  0.75472  0.75906  0.06739  1.0000
  H   H2815     1.0  0.79403  0.76393  0.25526  1.0000
  H   H2816     1.0  0.93926  0.86608  0.19848  1.0000
  H   H2817     1.0  0.94836  0.82738  0.19223  1.0000
  H   H2818     1.0  0.85089  0.91500  0.04079  1.0000
  C   C1655     1.0  0.75107  0.74963  0.26667  1.0000
  H   H2819     1.0  0.94948  0.97303  0.15046  1.0000
  H   H2820     1.0  0.90736  0.95108  0.00818  1.0000
  S   S474      1.0  0.85182  0.94967  0.38963  1.0000
  C   C1656     1.0  0.80975  0.82731  0.02929  1.0000
  H   H2821     1.0  0.97317  0.80771  0.27078  1.0000
  C   C1657     1.0  0.78998  0.85593  0.36702  1.0000
  S   S475      1.0  0.84949  0.95981  0.02790  1.0000
  H   H2822     1.0  0.85182  0.69349  0.19866  1.0000
  C   C1658     1.0  0.78562  0.83541  0.43662  1.0000
  C   C1659     1.0  0.78894  0.85710  0.43907  1.0000
  C   C1660     1.0  0.80933  0.86361  0.44516  1.0000
  C   C1661     1.0  0.82666  0.84848  0.44880  1.0000
  C   C1662     1.0  0.82331  0.82680  0.44665  1.0000
  C   C1663     1.0  0.80289  0.82027  0.44063  1.0000
  H   H2823     1.0  0.77565  0.86891  0.43605  1.0000
  H   H2824     1.0  0.81156  0.88032  0.44703  1.0000
  H   H2825     1.0  0.83662  0.81496  0.44943  1.0000
  H   H2826     1.0  0.80057  0.80353  0.43873  1.0000
  H   H2827     1.0  0.78357  0.84234  0.37754  1.0000
  C   C1664     1.0  0.80563  0.90334  0.38564  1.0000
  C   C1665     1.0  0.74733  0.76726  0.01946  1.0000
  H   H2828     1.0  0.80949  0.91955  0.39199  1.0000
  H   H2829     1.0  0.81374  0.78547  0.03817  1.0000
  H   H2830     1.0  0.90465  0.84461  0.15266  1.0000
  H   H2831     1.0  0.84638  0.96274  0.33329  1.0000
  Fe  Fe237     1.0  0.75270  0.75190  0.45448  1.0000
  C   C1666     1.0  0.76011  0.74909  0.01148  1.0000
  Fe  Fe238     1.0  0.74842  0.75354  0.39197  1.0000
  C   C1667     1.0  0.81342  0.84367  0.00683  1.0000
  H   H2832     1.0  0.86777  0.71263  0.21551  1.0000
  H   H2833     1.0  0.87761  0.84710  0.37231  1.0000
  C   C1668     1.0  0.75177  0.75975  0.31489  1.0000
  C   C1669     1.0  0.75363  0.72822  0.27390  1.0000
  H   H2834     1.0  0.78788  0.69340  0.25925  1.0000
  C   C1670     1.0  0.97135  0.86537  0.11039  1.0000
  H   H2835     1.0  0.82895  0.68247  0.22724  1.0000
  S   S476      1.0  0.74925  0.75753  0.23232  1.0000
  H   H2836     1.0  0.97457  0.66318  0.33716  1.0000
  H   H2837     1.0  0.79522  0.90592  0.36752  1.0000
  S   S477      1.0  0.87200  0.94134  0.21061  1.0000
  S   S478      1.0  0.83469  0.91752  0.45588  1.0000
  H   H2838     1.0  0.81754  0.86595  0.31723  1.0000
  N   N120      1.0  0.82394  0.71623  0.23781  1.0000
  C   C1671     1.0  0.80459  0.73134  0.24393  1.0000
  C   C1672     1.0  0.81602  0.69458  0.23306  1.0000
  C   C1673     1.0  0.83368  0.72348  0.21178  1.0000
  C   C1674     1.0  0.83944  0.71679  0.26151  1.0000
  C   C1675     1.0  0.80833  0.75515  0.24611  1.0000
  C   C1676     1.0  0.80421  0.68546  0.25721  1.0000
  C   C1677     1.0  0.82665  0.88956  0.38031  1.0000
  C   C1678     1.0  0.85574  0.69716  0.26517  1.0000
  H   H2839     1.0  0.79186  0.72985  0.22817  1.0000
  H   H2840     1.0  0.79737  0.72733  0.26370  1.0000
  H   H2841     1.0  0.81479  0.77587  0.99332  1.0000
  H   H2842     1.0  0.77504  0.73048  0.07476  1.0000
  S   S479      1.0  0.76453  0.72863  0.48719  1.0000
  H   H2843     1.0  0.83832  0.74001  0.21389  1.0000
  H   H2844     1.0  0.84863  0.73107  0.26020  1.0000
  H   H2845     1.0  0.83055  0.71858  0.28113  1.0000
  H   H2846     1.0  0.82213  0.75813  0.25939  1.0000
  Fe  Fe239     1.0  0.89520  0.92113  0.47011  1.0000
  S   S480      1.0  0.75695  0.69952  0.19282  1.0000
  H   H2847     1.0  0.81290  0.68663  0.27685  1.0000
  S   S481      1.0  0.92813  0.93011  0.48122  1.0000
  C   C1679     1.0  0.74466  0.77222  0.04736  1.0000
  H   H2848     1.0  0.95523  0.67326  0.99760  1.0000
  H   H2849     1.0  0.80549  0.80948  0.08014  1.0000
  C   C1680     1.0  0.91589  0.98169  0.02232  1.0000
  H   H2850     1.0  0.85898  0.68727  0.24670  1.0000
  H   H2851     1.0  0.85582  0.66195  0.15889  1.0000
  H   H2852     1.0  0.92131  0.97288  0.31009  1.0000
  H   H2853     1.0  0.80483  0.69505  0.21525  1.0000
  C   C1681     1.0  0.75545  0.72260  0.30161  1.0000
  H   H2854     1.0  0.77973  0.72162  0.02551  1.0000
  H   H2855     1.0  0.78472  0.85491  0.34537  1.0000
  C   C1682     1.0  0.84915  0.86343  0.35417  1.0000
  H   H2856     1.0  0.77890  0.80019  0.07942  1.0000
  H   H2857     1.0  0.83181  0.88298  0.40055  1.0000
  C   C1683     1.0  0.93424  0.98336  0.09942  1.0000
  H   H2858     1.0  0.90394  0.96016  0.34456  1.0000
  H   H2859     1.0  0.98929  0.83722  0.24431  1.0000
  H   H2860     1.0  0.79981  0.88486  0.33365  1.0000
  H   H2861     1.0  0.98975  0.65983  0.99641  1.0000
  H   H2862     1.0  0.90865  0.97495  0.27741  1.0000
  H   H2863     1.0  0.82901  0.91141  0.33267  1.0000
  H   H2864     1.0  0.83911  0.90049  0.37572  1.0000
  C   C1684     1.0  0.77092  0.82249  0.03145  1.0000
  H   H2865     1.0  0.97172  0.80528  0.23465  1.0000
  H   H2866     1.0  0.98671  0.69577  0.48129  1.0000
  C   C1685     1.0  0.86143  0.85336  0.37898  1.0000
  H   H2867     1.0  0.98432  0.68182  0.37815  1.0000
  H   H2868     1.0  0.75099  0.77196  0.33061  1.0000
  H   H2869     1.0  0.95444  0.67495  0.03366  1.0000
  H   H2870     1.0  0.85369  0.83976  0.38756  1.0000
  H   H2871     1.0  0.85882  0.87622  0.34709  1.0000
  H   H2872     1.0  0.84991  0.85129  0.33742  1.0000
  H   H2873     1.0  0.85821  0.89550  0.08403  1.0000
  C   C1686     1.0  0.85682  0.94822  0.33355  1.0000
  H   H2874     1.0  0.85912  0.94607  0.28939  1.0000
  H   H2875     1.0  0.92303  0.97611  0.36180  1.0000
  N   N121      1.0  0.93080  0.87561  0.10615  1.0000
  C   C1687     1.0  0.92619  0.85664  0.12312  1.0000
  C   C1688     1.0  0.95156  0.86957  0.09166  1.0000
  C   C1689     1.0  0.91301  0.87920  0.08539  1.0000
  C   C1690     1.0  0.93170  0.89466  0.12485  1.0000
  C   C1691     1.0  0.90480  0.85828  0.13853  1.0000
  H   H2876     1.0  0.98593  0.70718  0.04316  1.0000
  C   C1692     1.0  0.91428  0.89789  0.06559  1.0000
  C   C1693     1.0  0.94332  0.91365  0.11423  1.0000
  H   H2877     1.0  0.92664  0.84193  0.11026  1.0000
  H   H2878     1.0  0.93867  0.85345  0.13911  1.0000
  H   H2879     1.0  0.95549  0.88158  0.07667  1.0000
  H   H2880     1.0  0.95024  0.85496  0.07897  1.0000
  H   H2881     1.0  0.91164  0.86456  0.07280  1.0000
  H   H2882     1.0  0.89739  0.88253  0.09569  1.0000
  H   H2883     1.0  0.91530  0.90100  0.13057  1.0000
  H   H2884     1.0  0.93951  0.88984  0.14460  1.0000
  H   H2885     1.0  0.90258  0.87286  0.15125  1.0000
  Fe  Fe240     1.0  0.90253  0.95720  0.20767  1.0000
  H   H2886     1.0  0.81617  0.85920  0.01655  1.0000
  H   H2887     1.0  0.90667  0.98113  0.04082  1.0000
  H   H2888     1.0  0.79652  0.89663  0.40235  1.0000
  H   H2889     1.0  0.89095  0.85735  0.12451  1.0000
  H   H2890     1.0  0.91209  0.91341  0.07645  1.0000
  H   H2891     1.0  0.90080  0.89780  0.05075  1.0000
  H   H2892     1.0  0.92903  0.89676  0.05331  1.0000
  H   H2893     1.0  0.93256  0.92846  0.11602  1.0000
  H   H2894     1.0  0.94842  0.91260  0.09274  1.0000
  H   H2895     1.0  0.90335  0.96375  0.38051  1.0000
  H   H2896     1.0  0.75412  0.71605  0.25817  1.0000
  H   H2897     1.0  0.81798  0.90354  0.30079  1.0000
  S   S482      1.0  0.98690  0.80282  0.17776  1.0000
  S   S483      1.0  0.81559  0.68663  0.15828  1.0000
  S   S484      1.0  0.75573  0.73057  0.35662  1.0000
  C   C1694     1.0  0.75440  0.73834  0.32216  1.0000
  H   H2898     1.0  0.96755  0.67146  0.43505  1.0000
  H   H2899     1.0  0.80648  0.83632  0.04869  1.0000
  H   H2900     1.0  0.81016  0.76213  0.22560  1.0000
  H   H2901     1.0  0.81835  0.85076  0.39157  1.0000
  C   C1695     1.0  0.81453  0.85379  0.36968  1.0000
  H   H2902     1.0  0.98595  0.86395  0.09766  1.0000
  S   S485      1.0  0.75262  0.76680  0.10194  1.0000
  N   N122      1.0  0.79268  0.81228  0.02394  1.0000
  H   H2903     1.0  0.80160  0.78186  0.08355  1.0000
  C   C1696     1.0  0.82771  0.89768  0.31866  1.0000
  H   H2904     1.0  0.87131  0.70265  0.27183  1.0000
  C   C1697     1.0  0.98054  0.66560  0.31638  1.0000
  Fe  Fe241     1.0  0.75692  0.74107  0.13380  1.0000
  C   C1698     1.0  0.76714  0.74066  0.05944  1.0000
  C   C1699     1.0  0.98303  0.80480  0.25224  1.0000
  H   H2905     1.0  0.86379  0.86523  0.39534  1.0000
  H   H2906     1.0  0.78254  0.87056  0.37668  1.0000
  H   H2907     1.0  0.92674  0.96878  0.10569  1.0000
  H   H2908     1.0  0.79336  0.65768  0.19212  1.0000
  C   C1700     1.0  0.98119  0.65981  0.43525  1.0000
  C   C1701     1.0  0.98106  0.83052  0.18134  1.0000
  H   H2909     1.0  0.96343  0.69647  0.01391  1.0000
  H   H2910     1.0  0.77164  0.85581  0.01868  1.0000
  C   C1702     1.0  0.76227  0.84198  0.01479  1.0000
  H   H2911     1.0  0.77893  0.79371  0.99187  1.0000
  H   H2912     1.0  0.85079  0.68697  0.28196  1.0000
  C   C1703     1.0  0.95478  0.97544  0.08418  1.0000
  H   H2913     1.0  0.80235  0.66835  0.25311  1.0000
  C   C1704     1.0  0.91264  0.98416  0.29597  1.0000
  H   H2914     1.0  0.98251  0.69986  0.34924  1.0000
  C   C1705     1.0  0.90629  0.97195  0.36105  1.0000
  H   H2915     1.0  0.96548  0.96453  0.09678  1.0000
  H   H2916     1.0  0.91343  0.98334  0.14880  1.0000
  H   H2917     1.0  0.74805  0.78196  0.28165  1.0000
  H   H2918     1.0  0.98761  0.83828  0.29345  1.0000
  H   H2919     1.0  0.87429  0.98470  0.35698  1.0000
  H   H2920     1.0  0.98498  0.69779  0.08944  1.0000
  C   C1706     1.0  0.98648  0.66711  0.01686  1.0000
  H   H2921     1.0  0.98000  0.67349  0.07222  1.0000
  H   H2922     1.0  0.74576  0.84690  0.02161  1.0000
  H   H2923     1.0  0.76105  0.83863  0.99260  1.0000
  H   H2924     1.0  0.80016  0.84685  0.99219  1.0000
  H   H2925     1.0  0.78437  0.84381  0.79938  1.0000
  H   H2926     1.0  0.87020  0.72073  0.56832  1.0000
  C   C1707     1.0  0.83007  0.73387  0.63675  1.0000
  H   H2927     1.0  0.86400  0.98026  0.74385  1.0000
  S   S486      1.0  0.77709  0.72625  0.68438  1.0000
  C   C1708     1.0  0.95231  0.93325  0.79891  1.0000
  H   H2928     1.0  0.75010  0.82805  0.84560  1.0000
  H   H2929     1.0  0.81794  0.68574  0.56431  1.0000
  Fe  Fe242     1.0  0.76115  0.72808  0.64311  1.0000
  S   S487      1.0  0.76665  0.75363  0.61247  1.0000
  S   S488      1.0  0.87509  0.90326  0.49769  1.0000
  N   N123      1.0  0.82663  0.70900  0.59458  1.0000
  H   H2930     1.0  0.79260  0.84891  0.57339  1.0000
  H   H2931     1.0  0.81145  0.82881  0.56105  1.0000
  H   H2932     1.0  0.86051  0.73476  0.59881  1.0000
  H   H2933     1.0  0.92214  0.95961  0.86933  1.0000
  H   H2934     1.0  0.77889  0.81335  0.82534  1.0000
  H   H2935     1.0  0.95549  0.94796  0.78788  1.0000
  H   H2936     1.0  0.94774  0.90791  0.53064  1.0000
  S   S489      1.0  0.75439  0.84356  0.93081  1.0000
  C   C1709     1.0  0.75908  0.75642  0.81455  1.0000
  S   S490      1.0  0.77164  0.78365  0.91811  1.0000
  C   C1710     1.0  0.82039  0.72757  0.57613  1.0000
  H   H2937     1.0  0.95358  0.88991  0.57615  1.0000
  C   C1711     1.0  0.91509  0.95581  0.59722  1.0000
  H   H2938     1.0  0.86138  0.88353  0.58613  1.0000
  S   S491      1.0  0.83905  0.94668  0.53193  1.0000
  S   S492      1.0  0.76650  0.69320  0.63401  1.0000
  C   C1712     1.0  0.76266  0.73652  0.52171  1.0000
  H   H2939     1.0  0.92603  0.90079  0.79821  1.0000
  H   H2940     1.0  0.75895  0.70472  0.53540  1.0000
  S   S493      1.0  0.81396  0.67572  0.68409  1.0000
  Fe  Fe243     1.0  0.89615  0.93043  0.95633  1.0000
  Fe  Fe244     1.0  0.85897  0.90160  0.95351  1.0000
  S   S494      1.0  0.85019  0.86753  0.94812  1.0000
  Fe  Fe245     1.0  0.85529  0.94358  0.92449  1.0000
  C   C1713     1.0  0.82427  0.85172  0.58841  1.0000
  C   C1714     1.0  0.94693  0.81255  0.74359  1.0000
  S   S495      1.0  0.87922  0.91547  0.92145  1.0000
  H   H2941     1.0  0.93485  0.81074  0.72719  1.0000
  Fe  Fe246     1.0  0.92217  0.90747  0.71560  1.0000
  S   S496      1.0  0.89303  0.88953  0.71325  1.0000
  S   S497      1.0  0.95610  0.89255  0.72091  1.0000
  Fe  Fe247     1.0  0.87820  0.91452  0.74206  1.0000
  S   S498      1.0  0.86135  0.90347  0.77955  1.0000
  Fe  Fe248     1.0  0.88207  0.91213  0.67954  1.0000
  S   S499      1.0  0.87109  0.89756  0.63971  1.0000
  S   S500      1.0  0.90828  0.93093  0.74692  1.0000
  S   S501      1.0  0.91230  0.92851  0.68026  1.0000
  C   C1715     1.0  0.84851  0.93347  0.56203  1.0000
  C   C1716     1.0  0.85209  0.91134  0.56221  1.0000
  C   C1717     1.0  0.85884  0.90069  0.58622  1.0000
  C   C1718     1.0  0.86249  0.91205  0.61032  1.0000
  C   C1719     1.0  0.85920  0.93427  0.61026  1.0000
  C   C1720     1.0  0.85198  0.94494  0.58621  1.0000
  C   C1721     1.0  0.93409  0.94185  0.58489  1.0000
  C   C1722     1.0  0.85089  0.94610  0.85568  1.0000
  C   C1723     1.0  0.84955  0.92413  0.85705  1.0000
  C   C1724     1.0  0.85227  0.91143  0.83341  1.0000
  C   C1725     1.0  0.85695  0.92043  0.80828  1.0000
  H   H2942     1.0  0.83559  0.82525  0.50895  1.0000
  H   H2943     1.0  0.84606  0.91693  0.87630  1.0000
  H   H2944     1.0  0.85105  0.89448  0.83468  1.0000
  H   H2945     1.0  0.82771  0.80626  0.83166  1.0000
  H   H2946     1.0  0.95487  0.88838  0.62632  1.0000
  H   H2947     1.0  0.76800  0.84407  0.54113  1.0000
  C   C1726     1.0  0.96446  0.86834  0.70416  1.0000
  C   C1727     1.0  0.94978  0.85589  0.69154  1.0000
  C   C1728     1.0  0.95672  0.83602  0.68003  1.0000
  C   C1729     1.0  0.82312  0.72328  0.54521  1.0000
  H   H2948     1.0  0.77592  0.84101  0.87840  1.0000
  H   H2949     1.0  0.93301  0.86135  0.69119  1.0000
  H   H2950     1.0  0.94516  0.82627  0.67089  1.0000
  H   H2951     1.0  0.89700  0.88810  0.54892  1.0000
  H   H2952     1.0  0.82182  0.73867  0.53422  1.0000
  H   H2953     1.0  0.93064  0.88636  0.64440  1.0000
  H   H2954     1.0  0.92092  0.94767  0.80826  1.0000
  S   S502      1.0  0.74929  0.68516  0.69655  1.0000
  H   H2955     1.0  0.95136  0.80137  0.81833  1.0000
  C   C1730     1.0  0.91553  0.90630  0.81530  1.0000
  H   H2956     1.0  0.82270  0.73693  0.65713  1.0000
  C   C1731     1.0  0.84410  0.83433  0.52447  1.0000
  C   C1732     1.0  0.91042  0.96053  0.51713  1.0000
  C   C1733     1.0  0.78115  0.85007  0.93501  1.0000
  C   C1734     1.0  0.78512  0.87100  0.94205  1.0000
  C   C1735     1.0  0.80616  0.87668  0.94578  1.0000
  C   C1736     1.0  0.82348  0.86144  0.94255  1.0000
  C   C1737     1.0  0.81950  0.84054  0.93537  1.0000
  C   C1738     1.0  0.79849  0.83492  0.93143  1.0000
  H   H2957     1.0  0.77186  0.88288  0.94481  1.0000
  H   H2958     1.0  0.80891  0.89278  0.95151  1.0000
  H   H2959     1.0  0.83277  0.82862  0.93289  1.0000
  H   H2960     1.0  0.79580  0.81883  0.92577  1.0000
  H   H2961     1.0  0.95316  0.92081  0.86266  1.0000
  Fe  Fe249     1.0  0.75089  0.76495  0.94395  1.0000
  H   H2962     1.0  0.97046  0.82020  0.78802  1.0000
  H   H2963     1.0  0.92446  0.88018  0.55484  1.0000
  H   H2964     1.0  0.94821  0.92173  0.78292  1.0000
  C   C1739     1.0  0.95938  0.89296  0.83706  1.0000
  H   H2965     1.0  0.76705  0.77910  0.56405  1.0000
  H   H2966     1.0  0.89333  0.88997  0.84115  1.0000
  C   C1740     1.0  0.79336  0.81655  0.83740  1.0000
  H   H2967     1.0  0.97089  0.77861  0.81859  1.0000
  H   H2968     1.0  0.84441  0.66104  0.73904  1.0000
  C   C1741     1.0  0.76274  0.74739  0.57768  1.0000
  H   H2969     1.0  0.85507  0.69213  0.61160  1.0000
  C   C1742     1.0  0.75357  0.84497  0.84492  1.0000
  C   C1743     1.0  0.82008  0.71485  0.62347  1.0000
  H   H2970     1.0  0.82909  0.74162  0.58113  1.0000
  C   C1744     1.0  0.76067  0.73880  0.76993  1.0000
  H   H2971     1.0  0.83428  0.86506  0.50876  1.0000
  C   C1745     1.0  0.81387  0.69088  0.58557  1.0000
  C   C1746     1.0  0.80899  0.84625  0.56495  1.0000
  H   H2972     1.0  0.94874  0.98286  0.95585  1.0000
  Fe  Fe250     1.0  0.74571  0.80990  0.92190  1.0000
  S   S503      1.0  0.83412  0.92941  0.95518  1.0000
  N   N124      1.0  0.93242  0.91812  0.58540  1.0000
  H   H2973     1.0  0.95410  0.82766  0.73975  1.0000
  H   H2974     1.0  0.89874  0.92094  0.57501  1.0000
  H   H2975     1.0  0.97998  0.65862  0.85292  1.0000
  S   S504      1.0  0.77202  0.76297  0.84514  1.0000
  C   C1747     1.0  0.81689  0.67041  0.60278  1.0000
  H   H2976     1.0  0.91121  0.91383  0.61940  1.0000
  C   C1748     1.0  0.83095  0.65779  0.75241  1.0000
  H   H2977     1.0  0.94084  0.95050  0.83378  1.0000
  C   C1749     1.0  0.76478  0.76296  0.55779  1.0000
  N   N125      1.0  0.81072  0.85850  0.53886  1.0000
  C   C1750     1.0  0.96173  0.79038  0.80531  1.0000
  C   C1751     1.0  0.77552  0.84840  0.85782  1.0000
  H   H2978     1.0  0.83879  0.71483  0.54030  1.0000
  H   H2979     1.0  0.93279  0.87658  0.61016  1.0000
  H   H2980     1.0  0.91575  0.91992  0.54642  1.0000
  C   C1752     1.0  0.92858  0.91194  0.61468  1.0000
  H   H2981     1.0  0.84571  0.82527  0.54376  1.0000
  S   S505      1.0  0.86429  0.93548  0.70810  1.0000
  H   H2982     1.0  0.76964  0.72945  0.75461  1.0000
  C   C1753     1.0  0.97704  0.80326  0.78889  1.0000
  H   H2983     1.0  0.84907  0.96207  0.58633  1.0000
  H   H2984     1.0  0.90122  0.87636  0.81058  1.0000
  H   H2985     1.0  0.84129  0.84824  0.58303  1.0000
  H   H2986     1.0  0.80537  0.87046  0.88631  1.0000
  H   H2987     1.0  0.83387  0.66432  0.60488  1.0000
  H   H2988     1.0  0.81156  0.78989  0.96197  1.0000
  H   H2989     1.0  0.81166  0.80809  0.80028  1.0000
  H   H2990     1.0  0.96746  0.92768  0.80927  1.0000
  C   C1754     1.0  0.93944  0.98258  0.97432  1.0000
  H   H2991     1.0  0.84911  0.90238  0.54395  1.0000
  H   H2992     1.0  0.90171  0.95027  0.88960  1.0000
  C   C1755     1.0  0.76030  0.72106  0.54157  1.0000
  H   H2993     1.0  0.90101  0.91747  0.86480  1.0000
  H   H2994     1.0  0.86048  0.83550  0.51657  1.0000
  H   H2995     1.0  0.75208  0.85084  0.82365  1.0000
  C   C1756     1.0  0.97838  0.82848  0.68073  1.0000
  H   H2996     1.0  0.89602  0.93914  0.84226  1.0000
  S   S506      1.0  0.76441  0.74268  0.97676  1.0000
  H   H2997     1.0  0.80970  0.67261  0.62330  1.0000
  H   H2998     1.0  0.78739  0.73977  0.79774  1.0000
  C   C1757     1.0  0.91591  0.94498  0.87713  1.0000
  H   H2999     1.0  0.80245  0.71844  0.62448  1.0000
  C   C1758     1.0  0.81437  0.84354  0.85864  1.0000
  C   C1759     1.0  0.79686  0.84916  0.51735  1.0000
  H   H3000     1.0  0.96833  0.79086  0.72107  1.0000
  H   H3001     1.0  0.95511  0.77881  0.74745  1.0000
  C   C1760     1.0  0.81630  0.85384  0.80078  1.0000
  H   H3002     1.0  0.82612  0.83861  0.79841  1.0000
  H   H3003     1.0  0.82680  0.74875  0.62506  1.0000
  C   C1761     1.0  0.91085  0.97897  0.53342  1.0000
  C   C1762     1.0  0.76445  0.75760  0.52981  1.0000
  C   C1763     1.0  0.92818  0.96481  0.97982  1.0000
  C   C1764     1.0  0.93430  0.93881  0.81961  1.0000
  H   H3004     1.0  0.94876  0.94603  0.59597  1.0000
  H   H3005     1.0  0.93621  0.92277  0.62920  1.0000
  H   H3006     1.0  0.90181  0.91531  0.80493  1.0000
  Fe  Fe251     1.0  0.89555  0.95023  0.71125  1.0000
  H   H3007     1.0  0.91201  0.95198  0.61883  1.0000
  C   C1765     1.0  0.77068  0.74463  0.79435  1.0000
  C   C1766     1.0  0.94544  0.96616  0.50004  1.0000
  C   C1767     1.0  0.79455  0.85162  0.81454  1.0000
  H   H3008     1.0  0.96662  0.91168  0.58915  1.0000
  Fe  Fe252     1.0  0.74497  0.72074  0.70147  1.0000
  C   C1768     1.0  0.83339  0.85701  0.52877  1.0000
  C   C1769     1.0  0.85839  0.94242  0.80682  1.0000
  H   H3009     1.0  0.82452  0.67331  0.76116  1.0000
  C   C1770     1.0  0.94352  0.90913  0.85208  1.0000
  H   H3010     1.0  0.79984  0.85578  0.49698  1.0000
  S   S507      1.0  0.92862  0.94301  0.95673  1.0000
  H   H3011     1.0  0.80965  0.78693  0.82342  1.0000
  C   C1771     1.0  0.75986  0.72657  0.56941  1.0000
  S   S508      1.0  0.84811  0.96207  0.88554  1.0000
  H   H3012     1.0  0.86184  0.94309  0.62884  1.0000
  H   H3013     1.0  0.78780  0.88327  0.55449  1.0000
  C   C1772     1.0  0.85500  0.95527  0.83039  1.0000
  S   S509      1.0  0.87329  0.95915  0.95742  1.0000
  H   H3014     1.0  0.86181  0.94954  0.78748  1.0000
  H   H3015     1.0  0.93571  0.94753  0.56366  1.0000
  Fe  Fe253     1.0  0.78044  0.69085  0.67641  1.0000
  C   C1773     1.0  0.81273  0.79205  0.98448  1.0000
  C   C1774     1.0  0.91040  0.88955  0.56353  1.0000
  C   C1775     1.0  0.86585  0.71903  0.59011  1.0000
  H   H3016     1.0  0.96279  0.67555  0.93806  1.0000
  S   S510      1.0  0.87919  0.91308  0.98834  1.0000
  C   C1776     1.0  0.95335  0.90749  0.57539  1.0000
  C   C1777     1.0  0.95962  0.91266  0.54589  1.0000
  H   H3017     1.0  0.82408  0.70138  0.63756  1.0000
  C   C1778     1.0  0.96358  0.79312  0.74285  1.0000
  Fe  Fe254     1.0  0.75254  0.77311  0.88230  1.0000
  H   H3018     1.0  0.85588  0.97226  0.82908  1.0000
  C   C1779     1.0  0.91400  0.91319  0.56715  1.0000
  H   H3019     1.0  0.90028  0.95489  0.58497  1.0000
  H   H3020     1.0  0.81342  0.86041  0.77994  1.0000
  H   H3021     1.0  0.89762  0.98357  0.54681  1.0000
  C   C1780     1.0  0.97651  0.66410  0.94002  1.0000
  H   H3022     1.0  0.98294  0.76154  0.77251  1.0000
  H   H3023     1.0  0.84738  0.73025  0.64058  1.0000
  H   H3024     1.0  0.82134  0.84173  0.60634  1.0000
  H   H3025     1.0  0.95848  0.87680  0.84555  1.0000
  H   H3026     1.0  0.93637  0.90031  0.86888  1.0000
  H   H3027     1.0  0.88102  0.71374  0.60079  1.0000
  H   H3028     1.0  0.84377  0.86556  0.54282  1.0000
  C   C1781     1.0  0.81192  0.80418  0.82233  1.0000
  H   H3029     1.0  0.95080  0.78177  0.79229  1.0000
  H   H3030     1.0  0.91968  0.87622  0.83859  1.0000
  C   C1782     1.0  0.92781  0.95395  0.50052  1.0000
  C   C1783     1.0  0.90714  0.88618  0.82755  1.0000
  N   N126      1.0  0.79483  0.84014  0.84155  1.0000
  H   H3031     1.0  0.78700  0.86818  0.81669  1.0000
  C   C1784     1.0  0.80364  0.88157  0.54436  1.0000
  H   H3032     1.0  0.76633  0.76960  0.51456  1.0000
  C   C1785     1.0  0.98620  0.86100  0.70440  1.0000
  H   H3033     1.0  0.93827  0.81375  0.76326  1.0000
  S   S511      1.0  0.98581  0.80247  0.66844  1.0000
  H   H3034     1.0  0.77537  0.86585  0.86147  1.0000
  H   H3035     1.0  0.79647  0.69608  0.58513  1.0000
  H   H3036     1.0  0.82578  0.86527  0.81188  1.0000
  H   H3037     1.0  0.81495  0.83321  0.87701  1.0000
  H   H3038     1.0  0.81268  0.87852  0.85267  1.0000
  H   H3039     1.0  0.83268  0.86816  0.87661  1.0000
  N   N127      1.0  0.98299  0.79458  0.76097  1.0000
  H   H3040     1.0  0.82930  0.83864  0.84754  1.0000
  N   N128      1.0  0.92612  0.92065  0.83514  1.0000
  H   H3041     1.0  0.81846  0.89768  0.51032  1.0000
  H   H3042     1.0  0.95717  0.89188  0.81470  1.0000
  H   H3043     1.0  0.80092  0.83174  0.51509  1.0000
  H   H3044     1.0  0.76630  0.86895  0.52258  1.0000
  H   H3045     1.0  0.76439  0.84439  0.50493  1.0000
  C   C1786     1.0  0.81621  0.86656  0.86888  1.0000
  C   C1787     1.0  0.93723  0.88946  0.62394  1.0000
  H   H3046     1.0  0.81009  0.71416  0.53695  1.0000
  H   H3047     1.0  0.90554  0.88260  0.58297  1.0000
  H   H3048     1.0  0.79166  0.80862  0.85749  1.0000
  H   H3049     1.0  0.79655  0.91259  0.52587  1.0000
  H   H3050     1.0  0.80343  0.73323  0.57936  1.0000
  C   C1788     1.0  0.85009  0.70166  0.59320  1.0000
  C   C1789     1.0  0.90888  0.93009  0.85410  1.0000
  H   H3051     1.0  0.85306  0.69078  0.57529  1.0000
  H   H3052     1.0  0.89688  0.95109  0.51809  1.0000
  H   H3053     1.0  0.81463  0.88862  0.55911  1.0000
  H   H3054     1.0  0.92764  0.93676  0.89136  1.0000
  C   C1790     1.0  0.80251  0.89628  0.51923  1.0000
  H   H3055     1.0  0.75797  0.71452  0.58444  1.0000
  H   H3056     1.0  0.82145  0.86850  0.59534  1.0000
  H   H3057     1.0  0.91890  0.97268  0.59686  1.0000
  H   H3058     1.0  0.96239  0.92963  0.54326  1.0000
  H   H3059     1.0  0.97598  0.89714  0.84076  1.0000
  H   H3060     1.0  0.98894  0.82553  0.74552  1.0000
  H   H3061     1.0  0.97492  0.90339  0.54089  1.0000
  Fe  Fe255     1.0  0.85119  0.93117  0.49245  1.0000
  H   H3062     1.0  0.98866  0.66777  0.51112  1.0000
  C   C1791     1.0  0.77258  0.85201  0.52222  1.0000
  H   H3063     1.0  0.74094  0.85394  0.85716  1.0000
  H   H3064     1.0  0.79141  0.89127  0.50317  1.0000
  H   H3065     1.0  0.80841  0.65776  0.59250  1.0000
  H   H3066     1.0  0.87866  0.98034  0.65413  1.0000
  H   H3067     1.0  0.78812  0.81735  0.98015  1.0000
  S   S512      1.0  0.89999  0.98508  0.70760  1.0000
  H   H3068     1.0  0.87677  0.98435  0.61786  1.0000
  H   H3069     1.0  0.85316  0.98270  0.63668  1.0000
  C   C1792     1.0  0.94563  0.98490  0.51587  1.0000
  H   H3070     1.0  0.84488  0.98636  0.49567  1.0000
  Fe  Fe256     1.0  0.85557  0.94164  0.98812  1.0000
  H   H3071     1.0  0.98445  0.70312  0.97899  1.0000
  H   H3072     1.0  0.82706  0.80063  0.98877  1.0000
