data_image0
_chemical_formula_structural       FeS2FeS2FeSFeHS2HCFeCSFeS2FeSCFeS2FeSFeCSH2CFeCFeS2FeHFeS3CH2C3H4C2H3C3H3C2SC3SH7FeSC7H4C6H4C6H5SC3HCNC8H24C2SCH2C2HCH4CH4SH3SNCH2CHCHCHCHCFeCHCHCHCHCHSCH2NHFeH2CH7CNCHCSH7SH2CH3SCHFeH3C2H2C2H8C3HC2H5NC2HFeCHCNHNHSHC2HSCHCHC3HC2H6C2H3CH2CHCH6SHCH2CH2CHCSH2C2H5SC2HCFeSH8FeHSH2CH2SNH9C4H2CHSCH4S2C6H5SFeS2FeS2FeS2CFeH2CSHFeHFeS2FeCHSC3H2SHCFeH2C2H2SH2C6H6C5SH3CH3CH5C2HCHSC2H2SCHFeHCHCH2CHC2H2FeNHNC7H9CSFeH2C3HCH7CHSH2CH2C3H2CH4NH2C3FeCHFeCHNHCHC6H2CH2C2H4SH2FeCHNC4H5CH7CHC2H2C2H2CH3C3HSHCHFeH4CHCH2CHNH5S2CHCHC3HNH2CH2S2H5C2HFeS2FeS2FeSFeS5H2SH2SHSCSHFeHSFeHSH2CSCHCHC2FeC2HC6H4CNHCH2NH2CH4C3H4CH2CHCSC2HFeC2H3C6H4C2HSCFeCFeCH2C2SCH2CHSHFeH6CFeSH2NH5CH4SHSCH2NHSCH2C2FeH3C4H6CHC3HC2H3C2H3FeHCH2CH3CSHCH4C2HCH4CH2CHCH4C2HCH2CSH2CH3CH2C2H3C3H2CH3CH6CNHNCH2CH4SC4HCH2CH2C2NH2C4H6C2FeH5NH2CFeCS3CHC2HS2H5C2HCHCH3NC6H12CHCH3CH3CH2CH2C3SH2C2FeH2CH2CHCHC4H3NH3CH7NCH3C2H2NH6C5FeH5CH4SH3SHCH9FeHCH3FeSH3SH3CH2FeHC2SC7H3FeH3FeCSHCSH4SHSFeHSC5SH2C2H4C2H2SCH4C3SNH3CH4CHNCHCHSC2HS2HCH5CH2C2H2CH2FeH2FeSHC2HC2H3CHSHCHC2H6SH10SC2H3FeSHFeH2C4H2SH2CH2CH3C2NHCHCHC6H6CH3C2NC2HSH2SHSH2CHC2SH4SCH3CHSC3H12NH4CH8CSHSH3CH2CH5CH4S2HCFeH2FeH3SH2CH2CH2NH5CH3C2SC2H2C2HCH3SC2H3FeHSH11SH3CSCH2CFeCHC2HSCHC2H2C2H3CS2C2HCHCHC2HNH2C2H3CH3SH2C2H3CH3CH2C2HCSH2NHCFeSH2SHCH3CH2C2H3SHFeHCHCH5C2S2CSCHCHC2H4C3HCHFeH3FeCHNHC2H4FeH3CHS2H3CH2NC6HCH5SH2C2HCH5CSH2C2HC2SH2CH5CH2CHCSH2CHSCFeNHSHCHS2H2C2HSCH5CHCFeH3FeH2CH2CHCH2C3H2FeC2NC2FeCHCHCH2SH2SH3SHCH2CH2CH4CSHSHCH2CH2C2H5CHCNH3CNH4CH2CH4CH3C3H2CH6CH7CHCHCHSH2SCHC2H2CHSH3SH3CHCSH2C2SHSHCFeS2FeS2FeSFeS2HCHFeS2C6H5FeH2CHC4H5C4FeH3CHCHC5SH6C2HN2C2H2C3HCHCH2SHFeH4NH2C3HC2HCH3C3H2NH3C2H3CH4CH5CSH2CHFeH2CHCH2C3HCHCH2CHCSC2HC2HC2HCH3CH2NH4SH3FeHSH5CNCH2CH4FeC2HNC2HSHCHCHC2HCH3CH9CH3SHCHFeH3CHCSHFeCHFe2CH2CHC2H2C3H6CH3C2HCSH4CSCSHCH4CHCNC3HSHCH11C3H3FeSFeSHS2H2FeS2FeS2H2C4H4C3H2C6H4CH4C2H2NH2CHCSHCHC2SH3SHSHCHCSHFeS2FeS2C6H4C3H2C4HCH2NC3FeCHFeH3CH2FeH9SH2CHNCH2CH2CHC2H2C2H2SH4CH2C2HSH4CHCH3C3H2CH2SCH3FeH5SFeH5CNC8H10C2SCH7CHC2FeHSCHC3H4SH3NC8H10FeH10NHFeHSHSC2H2CFeCHCHC2NH5FeH2NHCH2C2HCSHCNSH3CH6CSHCHCFeSHFeHFeSHSHSCSHFeS2FeS2FeHFeS3HSHFeS2C6H4FeHFeHSFeC5H3C7H4C6H5C3H2C3H7CFeHCH5C3HC2HNC6H6SH7NC8H11CSFeH5CSCH2CFeC5H3NC4HSHCH3SN2FeH2CH3CH2C2HSCHC2HSH2C2HCH5SH2C2HCHFeH2CHCS3FeH3FeCH2CH4CH3CH2CH2SHC4H4C2H3C2HFeSCHCH2CHSH2C2HC2HC2HC2SH2C2H6CH3CSHNH4CH3C
_chemical_formula_sum              "Fe128 S256 H1536 C896 N64"
_cell_length_a       44.4481
_cell_length_b       43.9714
_cell_length_c       49.294
_cell_angle_alpha    90.4314
_cell_angle_beta     89.8339
_cell_angle_gamma    86.6689

_space_group_name_H-M_alt    "P 1"
_space_group_IT_number       1

loop_
  _space_group_symop_operation_xyz
  'x, y, z'

loop_
  _atom_site_type_symbol
  _atom_site_label
  _atom_site_symmetry_multiplicity
  _atom_site_fract_x
  _atom_site_fract_y
  _atom_site_fract_z
  _atom_site_occupancy
  Fe  Fe1       1.0  0.31166  0.14811  0.23758  1.0000
  S   S1        1.0  0.33309  0.19240  0.24325  1.0000
  S   S2        1.0  0.33901  0.10408  0.22757  1.0000
  Fe  Fe2       1.0  0.24766  0.17823  0.24364  1.0000
  S   S3        1.0  0.26521  0.22466  0.25082  1.0000
  S   S4        1.0  0.19655  0.17522  0.24365  1.0000
  Fe  Fe3       1.0  0.29655  0.21205  0.21637  1.0000
  S   S5        1.0  0.30772  0.24562  0.18395  1.0000
  Fe  Fe4       1.0  0.29992  0.20067  0.27745  1.0000
  H   H1        1.0  0.28444  0.39202  0.98743  1.0000
  S   S6        1.0  0.27736  0.16694  0.20775  1.0000
  S   S7        1.0  0.28010  0.15491  0.27339  1.0000
  H   H2        1.0  0.43361  0.14081  0.07628  1.0000
  C   C1        1.0  0.39545  0.12709  0.23350  1.0000
  Fe  Fe5       1.0  0.33557  0.26858  0.00884  1.0000
  C   C2        1.0  0.02669  0.39067  0.17455  1.0000
  S   S8        1.0  0.33591  0.32029  0.01183  1.0000
  Fe  Fe6       1.0  0.30798  0.21376  0.03341  1.0000
  S   S9        1.0  0.27926  0.19616  0.06697  1.0000
  S   S10       1.0  0.35276  0.23404  0.03930  1.0000
  Fe  Fe7       1.0  0.02128  0.20406  0.09833  1.0000
  S   S11       1.0  0.04273  0.15667  0.09666  1.0000
  C   C3        1.0  0.41762  0.51958  0.04203  1.0000
  Fe  Fe8       1.0  0.01425  0.20256  0.15965  1.0000
  S   S12       1.0  0.03447  0.15466  0.16307  1.0000
  S   S13       1.0  0.04947  0.47550  0.99293  1.0000
  Fe  Fe9       1.0  0.06891  0.17048  0.13359  1.0000
  S   S14       1.0  0.11967  0.16025  0.13548  1.0000
  Fe  Fe10      1.0  0.00640  0.14520  0.12624  1.0000
  C   C4        1.0  0.00356  0.46495  0.14102  1.0000
  S   S15       1.0  0.05030  0.21910  0.13254  1.0000
  H   H3        1.0  0.39771  0.19354  0.15627  1.0000
  H   H4        1.0  0.21891  0.52307  0.06930  1.0000
  C   C5        1.0  0.41874  0.07229  0.29802  1.0000
  Fe  Fe11      1.0  0.37552  0.50980  0.12123  1.0000
  C   C6        1.0  0.45598  0.09756  0.06433  1.0000
  Fe  Fe12      1.0  0.34996  0.44649  0.12203  1.0000
  S   S16       1.0  0.30221  0.46554  0.12713  1.0000
  S   S17       1.0  0.36025  0.39531  0.12004  1.0000
  Fe  Fe13      1.0  0.31488  0.49909  0.09571  1.0000
  H   H5        1.0  0.40681  0.51116  0.06055  1.0000
  Fe  Fe14      1.0  0.32140  0.49786  0.15719  1.0000
  S   S18       1.0  0.41238  0.17785  0.00256  1.0000
  S   S19       1.0  0.36133  0.47793  0.08845  1.0000
  S   S20       1.0  0.36850  0.47636  0.15487  1.0000
  C   C7        1.0  0.30928  0.48578  0.28112  1.0000
  H   H6        1.0  0.21896  0.16428  0.05492  1.0000
  H   H7        1.0  0.18441  0.21634  0.30154  1.0000
  C   C8        1.0  0.30045  0.50389  0.22687  1.0000
  C   C9        1.0  0.32065  0.47933  0.23284  1.0000
  C   C10       1.0  0.43888  0.12183  0.98908  1.0000
  H   H8        1.0  0.36492  0.15324  0.18502  1.0000
  H   H9        1.0  0.38024  0.50750  0.01712  1.0000
  H   H10       1.0  0.43972  0.14447  0.23685  1.0000
  H   H11       1.0  0.16707  0.11265  0.29375  1.0000
  C   C11       1.0  0.31571  0.47882  0.02675  1.0000
  C   C12       1.0  0.29341  0.50225  0.03019  1.0000
  H   H12       1.0  0.34346  0.45257  0.99821  1.0000
  H   H13       1.0  0.32543  0.46730  0.04413  1.0000
  H   H14       1.0  0.46397  0.10143  0.27946  1.0000
  C   C13       1.0  0.14980  0.21963  0.06440  1.0000
  C   C14       1.0  0.04235  0.20405  0.02498  1.0000
  C   C15       1.0  0.01890  0.22590  0.03017  1.0000
  H   H15       1.0  0.01568  0.11955  0.02913  1.0000
  H   H16       1.0  0.05359  0.19231  0.04164  1.0000
  H   H17       1.0  0.33299  0.46744  0.21663  1.0000
  C   C16       1.0  0.01084  0.22373  0.22582  1.0000
  C   C17       1.0  0.34797  0.15509  0.11674  1.0000
  S   S21       1.0  0.48233  0.09603  0.22152  1.0000
  C   C18       1.0  0.03160  0.20777  0.27785  1.0000
  C   C19       1.0  0.04449  0.19326  0.25487  1.0000
  C   C20       1.0  0.03417  0.20130  0.22886  1.0000
  S   S22       1.0  0.28315  0.51559  0.06274  1.0000
  H   H18       1.0  0.26240  0.53394  0.00992  1.0000
  H   H19       1.0  0.06205  0.17537  0.25716  1.0000
  H   H20       1.0  0.04410  0.18990  0.21126  1.0000
  H   H21       1.0  0.19740  0.25819  0.07929  1.0000
  H   H22       1.0  0.20893  0.48116  0.01714  1.0000
  H   H23       1.0  0.19074  0.24605  0.03128  1.0000
  H   H24       1.0  0.22324  0.22643  0.08405  1.0000
  Fe  Fe15      1.0  0.01645  0.49514  0.02389  1.0000
  S   S23       1.0  0.04354  0.50589  0.31114  1.0000
  C   C21       1.0  0.42711  0.12486  0.23185  1.0000
  C   C22       1.0  0.35326  0.37473  0.08984  1.0000
  C   C23       1.0  0.35965  0.34303  0.08900  1.0000
  C   C24       1.0  0.35383  0.32594  0.06549  1.0000
  C   C25       1.0  0.34219  0.34053  0.04234  1.0000
  C   C26       1.0  0.33602  0.37226  0.04310  1.0000
  C   C27       1.0  0.34126  0.38926  0.06680  1.0000
  H   H25       1.0  0.36942  0.33161  0.10649  1.0000
  H   H26       1.0  0.35897  0.30159  0.06506  1.0000
  H   H27       1.0  0.32716  0.38378  0.02528  1.0000
  H   H28       1.0  0.33630  0.41362  0.06713  1.0000
  C   C28       1.0  0.17553  0.17169  0.21322  1.0000
  C   C29       1.0  0.18960  0.16440  0.18838  1.0000
  C   C30       1.0  0.17219  0.16067  0.16485  1.0000
  C   C31       1.0  0.14060  0.16487  0.16570  1.0000
  C   C32       1.0  0.12651  0.17255  0.19041  1.0000
  C   C33       1.0  0.14387  0.17562  0.21406  1.0000
  H   H29       1.0  0.21384  0.16097  0.18739  1.0000
  H   H30       1.0  0.18329  0.15425  0.14596  1.0000
  H   H31       1.0  0.10221  0.17569  0.19140  1.0000
  H   H32       1.0  0.13253  0.18099  0.23301  1.0000
  C   C34       1.0  0.29748  0.23407  0.15124  1.0000
  C   C35       1.0  0.27640  0.21206  0.14759  1.0000
  C   C36       1.0  0.27063  0.20083  0.12158  1.0000
  C   C37       1.0  0.28517  0.21231  0.09898  1.0000
  C   C38       1.0  0.30485  0.23570  0.10242  1.0000
  C   C39       1.0  0.31130  0.24628  0.12855  1.0000
  H   H33       1.0  0.26442  0.20370  0.16474  1.0000
  H   H34       1.0  0.25537  0.18277  0.11908  1.0000
  H   H35       1.0  0.31560  0.24524  0.08506  1.0000
  H   H36       1.0  0.32768  0.26326  0.13112  1.0000
  H   H37       1.0  0.06920  0.28136  0.16720  1.0000
  S   S24       1.0  0.28969  0.24998  0.00534  1.0000
  C   C40       1.0  0.02993  0.47960  0.14672  1.0000
  C   C41       1.0  0.37888  0.10202  0.22683  1.0000
  C   C42       1.0  0.39433  0.07460  0.21888  1.0000
  H   H38       1.0  0.40816  0.15778  0.12764  1.0000
  C   C43       1.0  0.44049  0.08981  0.98728  1.0000
  N   N1        1.0  0.30559  0.34152  0.17441  1.0000
  C   C44       1.0  0.28393  0.32654  0.15564  1.0000
  C   C45       1.0  0.29776  0.33312  0.20311  1.0000
  C   C46       1.0  0.33722  0.32921  0.16743  1.0000
  C   C47       1.0  0.30201  0.37545  0.16995  1.0000
  C   C48       1.0  0.29081  0.32835  0.12492  1.0000
  C   C49       1.0  0.26535  0.34208  0.21266  1.0000
  C   C50       1.0  0.36072  0.32754  0.19050  1.0000
  C   C51       1.0  0.32122  0.39549  0.18787  1.0000
  H   H39       1.0  0.28287  0.30195  0.16060  1.0000
  H   H40       1.0  0.26060  0.33673  0.15828  1.0000
  H   H41       1.0  0.31288  0.34338  0.21804  1.0000
  H   H42       1.0  0.30132  0.30800  0.20582  1.0000
  H   H43       1.0  0.33706  0.30529  0.15984  1.0000
  H   H44       1.0  0.34672  0.34239  0.15060  1.0000
  H   H45       1.0  0.30776  0.38112  0.14874  1.0000
  H   H46       1.0  0.27809  0.38380  0.17257  1.0000
  H   H47       1.0  0.31305  0.31732  0.11944  1.0000
  H   H48       1.0  0.27380  0.31583  0.11357  1.0000
  H   H49       1.0  0.28940  0.35206  0.11734  1.0000
  H   H50       1.0  0.26323  0.33584  0.23436  1.0000
  H   H51       1.0  0.25993  0.36695  0.21139  1.0000
  H   H52       1.0  0.24841  0.32932  0.20153  1.0000
  H   H53       1.0  0.35631  0.30869  0.20461  1.0000
  H   H54       1.0  0.36174  0.34895  0.20223  1.0000
  H   H55       1.0  0.38343  0.32230  0.18157  1.0000
  H   H56       1.0  0.31681  0.39262  0.20980  1.0000
  H   H57       1.0  0.31545  0.41982  0.18313  1.0000
  H   H58       1.0  0.34554  0.39144  0.18327  1.0000
  H   H59       1.0  0.17673  0.48249  0.09969  1.0000
  H   H60       1.0  0.21389  0.21087  0.03432  1.0000
  H   H61       1.0  0.99820  0.34122  0.15078  1.0000
  H   H62       1.0  0.46852  0.04987  0.26349  1.0000
  C   C52       1.0  0.04496  0.32356  0.17988  1.0000
  C   C53       1.0  0.05115  0.19728  0.99808  1.0000
  S   S25       1.0  0.29476  0.51668  0.19342  1.0000
  C   C54       1.0  0.13064  0.19712  0.29418  1.0000
  H   H63       1.0  0.41581  0.14061  0.17655  1.0000
  H   H64       1.0  0.04877  0.38392  0.16513  1.0000
  C   C55       1.0  0.21669  0.43798  0.03647  1.0000
  C   C56       1.0  0.14188  0.46444  0.28899  1.0000
  H   H65       1.0  0.34565  0.53079  0.05016  1.0000
  C   C57       1.0  0.00425  0.24082  0.00840  1.0000
  H   H66       1.0  0.43323  0.50063  0.03467  1.0000
  H   H67       1.0  0.20838  0.24582  0.12682  1.0000
  H   H68       1.0  0.24347  0.46993  0.08525  1.0000
  H   H69       1.0  0.04806  0.27741  0.19763  1.0000
  C   C58       1.0  0.03715  0.48794  0.09823  1.0000
  H   H70       1.0  0.15523  0.45725  0.04649  1.0000
  H   H71       1.0  0.49053  0.10024  0.02200  1.0000
  H   H72       1.0  0.23653  0.48100  0.04238  1.0000
  H   H73       1.0  0.05435  0.31906  0.23341  1.0000
  S   S26       1.0  0.32368  0.18217  0.99974  1.0000
  H   H74       1.0  0.41615  0.08070  0.27685  1.0000
  H   H75       1.0  0.46728  0.14522  0.05781  1.0000
  H   H76       1.0  0.36885  0.13329  0.01645  1.0000
  S   S27       1.0  0.11888  0.52323  0.99224  1.0000
  N   N2        1.0  0.17650  0.21507  0.08307  1.0000
  C   C59       1.0  0.19456  0.16364  0.05980  1.0000
  H   H77       1.0  0.38170  0.05506  0.21373  1.0000
  H   H78       1.0  0.20746  0.17965  0.09852  1.0000
  C   C60       1.0  0.12189  0.20210  0.07184  1.0000
  H   H79       1.0  0.14247  0.24427  0.06344  1.0000
  C   C61       1.0  0.48816  0.06831  0.11371  1.0000
  H   H80       1.0  0.37043  0.19837  0.11074  1.0000
  C   C62       1.0  0.20194  0.23376  0.07361  1.0000
  H   H81       1.0  0.18117  0.17090  0.04193  1.0000
  C   C63       1.0  0.38879  0.12132  0.00821  1.0000
  H   H82       1.0  0.11132  0.21038  0.09113  1.0000
  C   C64       1.0  0.41642  0.07341  0.99634  1.0000
  Fe  Fe16      1.0  0.06774  0.52216  0.99210  1.0000
  C   C65       1.0  0.38785  0.52038  0.29062  1.0000
  H   H83       1.0  0.00880  0.39125  0.15892  1.0000
  C   C66       1.0  0.18679  0.18195  0.08595  1.0000
  H   H84       1.0  0.12735  0.44828  0.29915  1.0000
  C   C67       1.0  0.41298  0.13774  0.99940  1.0000
  H   H85       1.0  0.19714  0.51095  0.29537  1.0000
  C   C68       1.0  0.00928  0.23121  0.27468  1.0000
  H   H86       1.0  0.22562  0.42785  0.05557  1.0000
  C   C69       1.0  0.35230  0.11302  0.14886  1.0000
  H   H87       1.0  0.10460  0.20592  0.05582  1.0000
  S   S28       1.0  0.41807  0.53519  0.11508  1.0000
  C   C70       1.0  0.46918  0.09086  0.29951  1.0000
  H   H88       1.0  0.31032  0.12799  0.17018  1.0000
  H   H89       1.0  0.31172  0.08978  0.15824  1.0000
  N   N3        1.0  0.36464  0.14323  0.14157  1.0000
  H   H90       1.0  0.36385  0.39203  0.98089  1.0000
  Fe  Fe17      1.0  0.36725  0.20496  0.00322  1.0000
  H   H91       1.0  0.34052  0.45114  0.26448  1.0000
  H   H92       1.0  0.22719  0.45300  0.11351  1.0000
  C   C71       1.0  0.39057  0.08928  0.00679  1.0000
  H   H93       1.0  0.47703  0.04832  0.02924  1.0000
  H   H94       1.0  0.43755  0.05124  0.21080  1.0000
  H   H95       1.0  0.14969  0.21243  0.11986  1.0000
  H   H96       1.0  0.02714  0.34106  0.25368  1.0000
  H   H97       1.0  0.18670  0.44741  0.08433  1.0000
  H   H98       1.0  0.03797  0.37233  0.21368  1.0000
  H   H99       1.0  0.32553  0.16573  0.12250  1.0000
  C   C72       1.0  0.27974  0.51584  0.00739  1.0000
  N   N4        1.0  0.01581  0.33707  0.19179  1.0000
  C   C73       1.0  0.19573  0.51995  0.06172  1.0000
  H   H100      1.0  0.18942  0.13949  0.06293  1.0000
  C   C74       1.0  0.31785  0.11316  0.15297  1.0000
  S   S29       1.0  0.04266  0.19525  0.31024  1.0000
  H   H101      1.0  0.38316  0.16766  0.08790  1.0000
  H   H102      1.0  0.44151  0.12371  0.15222  1.0000
  H   H103      1.0  0.37180  0.07681  0.01378  1.0000
  H   H104      1.0  0.14823  0.51204  0.28589  1.0000
  H   H105      1.0  0.13106  0.49149  0.08282  1.0000
  H   H106      1.0  0.18135  0.23662  0.15188  1.0000
  H   H107      1.0  0.18193  0.51036  0.98146  1.0000
  S   S30       1.0  0.00161  0.51957  0.24320  1.0000
  H   H108      1.0  0.09668  0.23056  0.27972  1.0000
  H   H109      1.0  0.30508  0.11984  0.13444  1.0000
  C   C75       1.0  0.35923  0.16462  0.16542  1.0000
  H   H110      1.0  0.12714  0.17717  0.07289  1.0000
  H   H111      1.0  0.99465  0.17328  0.00593  1.0000
  H   H112      1.0  0.14458  0.19863  0.27550  1.0000
  S   S31       1.0  0.32986  0.53324  0.12591  1.0000
  C   C76       1.0  0.15983  0.48184  0.04655  1.0000
  H   H113      1.0  0.22963  0.24647  0.03969  1.0000
  Fe  Fe18      1.0  0.01363  0.48894  0.27819  1.0000
  H   H114      1.0  0.37776  0.20301  0.18619  1.0000
  H   H115      1.0  0.36929  0.50445  0.28958  1.0000
  H   H116      1.0  0.36079  0.21280  0.15419  1.0000
  C   C77       1.0  0.48159  0.04809  0.05149  1.0000
  C   C78       1.0  0.19177  0.22898  0.13228  1.0000
  H   H117      1.0  0.38394  0.14826  0.23984  1.0000
  H   H118      1.0  0.34744  0.18694  0.08337  1.0000
  C   C79       1.0  0.01954  0.37009  0.19866  1.0000
  C   C80       1.0  0.16817  0.15795  0.31155  1.0000
  H   H119      1.0  0.18884  0.16197  0.29953  1.0000
  H   H120      1.0  0.35833  0.09548  0.13300  1.0000
  H   H121      1.0  0.15529  0.25011  0.10924  1.0000
  H   H122      1.0  0.99523  0.53036  0.13119  1.0000
  H   H123      1.0  0.19503  0.42821  0.03118  1.0000
  H   H124      1.0  0.15550  0.21322  0.04315  1.0000
  H   H125      1.0  0.44054  0.08669  0.07845  1.0000
  H   H126      1.0  0.04841  0.33233  0.15903  1.0000
  C   C81       1.0  0.22414  0.47250  0.09940  1.0000
  C   C82       1.0  0.04765  0.28852  0.17748  1.0000
  C   C83       1.0  0.42601  0.07236  0.21727  1.0000
  H   H127      1.0  0.20367  0.20664  0.13618  1.0000
  C   C84       1.0  0.99873  0.23899  0.24874  1.0000
  C   C85       1.0  0.32558  0.47016  0.00067  1.0000
  H   H128      1.0  0.49277  0.04340  0.11642  1.0000
  H   H129      1.0  0.13581  0.46403  0.26713  1.0000
  H   H130      1.0  0.17025  0.16922  0.09772  1.0000
  H   H131      1.0  0.36231  0.10409  0.16808  1.0000
  H   H132      1.0  0.00119  0.29714  0.21314  1.0000
  N   N5        1.0  0.19070  0.48660  0.05790  1.0000
  C   C86       1.0  0.01090  0.47309  0.09251  1.0000
  C   C87       1.0  0.32487  0.47018  0.25991  1.0000
  H   H133      1.0  0.14779  0.14115  0.27395  1.0000
  Fe  Fe19      1.0  0.01255  0.47834  0.21704  1.0000
  C   C88       1.0  0.20898  0.23386  0.04294  1.0000
  H   H134      1.0  0.23313  0.43104  0.02022  1.0000
  C   C89       1.0  0.03073  0.32051  0.24053  1.0000
  N   N6        1.0  0.48604  0.07998  0.06176  1.0000
  H   H135      1.0  0.20881  0.53270  0.02029  1.0000
  N   N7        1.0  0.45137  0.06297  0.30347  1.0000
  H   H136      1.0  0.27684  0.52236  0.29131  1.0000
  S   S32       1.0  0.04222  0.48498  0.18031  1.0000
  H   H137      1.0  0.06934  0.18038  0.99410  1.0000
  C   C90       1.0  0.44254  0.09757  0.22360  1.0000
  C   C91       1.0  0.41751  0.12512  0.15871  1.0000
  H   H138      1.0  0.05012  0.49692  0.08183  1.0000
  S   S33       1.0  0.02875  0.44916  0.25189  1.0000
  C   C92       1.0  0.13297  0.49855  0.06139  1.0000
  H   H139      1.0  0.02927  0.27970  0.16508  1.0000
  C   C93       1.0  0.00740  0.32089  0.21732  1.0000
  H   H140      1.0  0.06719  0.50226  0.12955  1.0000
  C   C94       1.0  0.37477  0.19507  0.16495  1.0000
  C   C95       1.0  0.28451  0.51917  0.24805  1.0000
  C   C96       1.0  0.19326  0.47145  0.08518  1.0000
  H   H141      1.0  0.12687  0.24744  0.29666  1.0000
  C   C97       1.0  0.21382  0.47306  0.03809  1.0000
  C   C98       1.0  0.16667  0.22692  0.11079  1.0000
  H   H142      1.0  0.11178  0.49271  0.05115  1.0000
  H   H143      1.0  0.99913  0.38039  0.20896  1.0000
  H   H144      1.0  0.15855  0.48855  0.02488  1.0000
  H   H145      1.0  0.22583  0.49412  0.11098  1.0000
  H   H146      1.0  0.03909  0.40434  0.00292  1.0000
  H   H147      1.0  0.46888  0.13333  0.09313  1.0000
  C   C99       1.0  0.39766  0.13716  0.13508  1.0000
  C   C100      1.0  0.45704  0.13107  0.07352  1.0000
  H   H148      1.0  0.13371  0.52366  0.06020  1.0000
  H   H149      1.0  0.45765  0.13439  0.98218  1.0000
  H   H150      1.0  0.33474  0.17102  0.16770  1.0000
  C   C101      1.0  0.04680  0.49086  0.12524  1.0000
  H   H151      1.0  0.02829  0.29989  0.25308  1.0000
  H   H152      1.0  0.37977  0.09998  0.31232  1.0000
  C   C102      1.0  0.28907  0.51032  0.27513  1.0000
  H   H153      1.0  0.34322  0.13603  0.10262  1.0000
  C   C103      1.0  0.36356  0.17838  0.09910  1.0000
  H   H154      1.0  0.06478  0.33083  0.19147  1.0000
  H   H155      1.0  0.41212  0.10182  0.16473  1.0000
  H   H156      1.0  0.46364  0.07376  0.11460  1.0000
  H   H157      1.0  0.40048  0.12045  0.11802  1.0000
  H   H158      1.0  0.44397  0.09752  0.04455  1.0000
  H   H159      1.0  0.03389  0.36454  0.00020  1.0000
  S   S34       1.0  0.00660  0.23447  0.06345  1.0000
  H   H160      1.0  0.00010  0.24337  0.29218  1.0000
  C   C104      1.0  0.15203  0.13369  0.29516  1.0000
  H   H161      1.0  0.16592  0.45639  0.29039  1.0000
  H   H162      1.0  0.37747  0.51107  0.23615  1.0000
  C   C105      1.0  0.28920  0.50677  0.98122  1.0000
  H   H163      1.0  0.18062  0.53028  0.07777  1.0000
  H   H164      1.0  0.40433  0.51150  0.27521  1.0000
  C   C106      1.0  0.13618  0.49725  0.29989  1.0000
  H   H165      1.0  0.00703  0.10728  0.06249  1.0000
  C   C107      1.0  0.03673  0.38538  0.98817  1.0000
  S   S35       1.0  0.99808  0.46862  0.05894  1.0000
  H   H166      1.0  0.11411  0.17997  0.28934  1.0000
  H   H167      1.0  0.00191  0.13166  0.28557  1.0000
  C   C108      1.0  0.11229  0.22784  0.29722  1.0000
  C   C109      1.0  0.01268  0.23363  0.98151  1.0000
  H   H168      1.0  0.11171  0.50354  0.29693  1.0000
  H   H169      1.0  0.02818  0.41441  0.18215  1.0000
  H   H170      1.0  0.40744  0.52915  0.00069  1.0000
  H   H171      1.0  0.40413  0.05277  0.29898  1.0000
  H   H172      1.0  0.13077  0.12735  0.30463  1.0000
  S   S36       1.0  0.99570  0.23242  0.19380  1.0000
  C   C110      1.0  0.39419  0.52763  0.01977  1.0000
  C   C111      1.0  0.99675  0.11532  0.04310  1.0000
  H   H173      1.0  0.43337  0.04104  0.05749  1.0000
  C   C112      1.0  0.46264  0.03908  0.28305  1.0000
  Fe  Fe20      1.0  0.29999  0.21782  0.47250  1.0000
  S   S37       1.0  0.27242  0.20745  0.43522  1.0000
  H   H174      1.0  0.38069  0.40605  0.46133  1.0000
  H   H175      1.0  0.26701  0.19523  0.33642  1.0000
  H   H176      1.0  0.00361  0.36592  0.39658  1.0000
  H   H177      1.0  0.40890  0.10033  0.60042  1.0000
  H   H178      1.0  0.05999  0.34916  0.45895  1.0000
  H   H179      1.0  0.01351  0.12084  0.52755  1.0000
  H   H180      1.0  0.05066  0.39549  0.38761  1.0000
  H   H181      1.0  0.26085  0.40858  0.46901  1.0000
  Fe  Fe21      1.0  0.30894  0.50717  0.41163  1.0000
  H   H182      1.0  0.29644  0.42454  0.46339  1.0000
  S   S38       1.0  0.32880  0.47866  0.44550  1.0000
  H   H183      1.0  0.05194  0.50324  0.58242  1.0000
  H   H184      1.0  0.38758  0.18063  0.44360  1.0000
  C   C113      1.0  0.30655  0.37106  0.39025  1.0000
  H   H185      1.0  0.32661  0.38419  0.38613  1.0000
  H   H186      1.0  0.22355  0.49399  0.55193  1.0000
  S   S39       1.0  0.27303  0.49002  0.38462  1.0000
  N   N8        1.0  0.01823  0.34939  0.43588  1.0000
  H   H187      1.0  0.33068  0.16155  0.36887  1.0000
  H   H188      1.0  0.25873  0.52990  0.51063  1.0000
  H   H189      1.0  0.28909  0.37860  0.37526  1.0000
  H   H190      1.0  0.09811  0.22891  0.31575  1.0000
  H   H191      1.0  0.14843  0.17853  0.36072  1.0000
  H   H192      1.0  0.05542  0.35491  0.38513  1.0000
  H   H193      1.0  0.11699  0.14004  0.35094  1.0000
  H   H194      1.0  0.10318  0.48251  0.34042  1.0000
  H   H195      1.0  0.31198  0.34646  0.38642  1.0000
  C   C114      1.0  0.40101  0.16986  0.42675  1.0000
  C   C115      1.0  0.31352  0.48638  0.47782  1.0000
  C   C116      1.0  0.32732  0.47242  0.50035  1.0000
  C   C117      1.0  0.03848  0.49435  0.59852  1.0000
  H   H196      1.0  0.34676  0.45674  0.49762  1.0000
  H   H197      1.0  0.19552  0.14301  0.57710  1.0000
  C   C118      1.0  0.17786  0.49547  0.33400  1.0000
  H   H198      1.0  0.42269  0.10748  0.40463  1.0000
  S   S40       1.0  0.02445  0.24284  0.37705  1.0000
  C   C119      1.0  0.02752  0.29146  0.44405  1.0000
  H   H199      1.0  0.01173  0.39509  0.41949  1.0000
  H   H200      1.0  0.31771  0.28981  0.43649  1.0000
  H   H201      1.0  0.17648  0.14689  0.33058  1.0000
  H   H202      1.0  0.46296  0.10872  0.31494  1.0000
  S   S41       1.0  0.33970  0.51775  0.37734  1.0000
  S   S42       1.0  0.99587  0.17593  0.37333  1.0000
  C   C120      1.0  0.30663  0.21771  0.34810  1.0000
  C   C121      1.0  0.27964  0.20397  0.35318  1.0000
  C   C122      1.0  0.26919  0.20142  0.38001  1.0000
  C   C123      1.0  0.28588  0.21215  0.40189  1.0000
  C   C124      1.0  0.31300  0.22568  0.39683  1.0000
  C   C125      1.0  0.32322  0.22862  0.36999  1.0000
  H   H203      1.0  0.36978  0.36976  0.47293  1.0000
  H   H204      1.0  0.24834  0.19070  0.38390  1.0000
  H   H205      1.0  0.32602  0.23398  0.41353  1.0000
  H   H206      1.0  0.34416  0.23924  0.36614  1.0000
  H   H207      1.0  0.29309  0.31101  0.45892  1.0000
  S   S43       1.0  0.30973  0.17902  0.50115  1.0000
  Fe  Fe22      1.0  0.32931  0.26352  0.51003  1.0000
  S   S44       1.0  0.28169  0.24972  0.50521  1.0000
  S   S45       1.0  0.33734  0.31406  0.51272  1.0000
  Fe  Fe23      1.0  0.29564  0.21245  0.53402  1.0000
  S   S46       1.0  0.26463  0.19844  0.56728  1.0000
  S   S47       1.0  0.34223  0.22806  0.54111  1.0000
  Fe  Fe24      1.0  0.02343  0.20386  0.59983  1.0000
  S   S48       1.0  0.04406  0.15615  0.59890  1.0000
  S   S49       1.0  0.41181  0.52662  0.62404  1.0000
  C   C126      1.0  0.01829  0.46641  0.34666  1.0000
  Fe  Fe25      1.0  0.07017  0.17003  0.63577  1.0000
  H   H208      1.0  0.18642  0.51799  0.48247  1.0000
  H   H209      1.0  0.33068  0.17493  0.58300  1.0000
  C   C127      1.0  0.04833  0.49549  0.62562  1.0000
  S   S50       1.0  0.05247  0.21889  0.63410  1.0000
  H   H210      1.0  0.05508  0.50277  0.40920  1.0000
  Fe  Fe26      1.0  0.36857  0.50169  0.62689  1.0000
  H   H211      1.0  0.41769  0.15264  0.43500  1.0000
  Fe  Fe27      1.0  0.34081  0.43934  0.62501  1.0000
  S   S51       1.0  0.29353  0.46029  0.62743  1.0000
  S   S52       1.0  0.34708  0.38770  0.62409  1.0000
  Fe  Fe28      1.0  0.30983  0.49359  0.59733  1.0000
  C   C128      1.0  0.20260  0.48352  0.54607  1.0000
  H   H212      1.0  0.99760  0.43721  0.37541  1.0000
  S   S53       1.0  0.35601  0.47074  0.59273  1.0000
  C   C129      1.0  0.03613  0.35832  0.46046  1.0000
  C   C130      1.0  0.31651  0.47918  0.52654  1.0000
  C   C131      1.0  0.29224  0.50040  0.53039  1.0000
  H   H213      1.0  0.39767  0.07937  0.39193  1.0000
  H   H214      1.0  0.32718  0.46808  0.54367  1.0000
  S   S54       1.0  0.32339  0.52670  0.62909  1.0000
  H   H215      1.0  0.44793  0.03858  0.52614  1.0000
  C   C132      1.0  0.03482  0.19551  0.52417  1.0000
  Fe  Fe29      1.0  0.01881  0.50252  0.52273  1.0000
  H   H216      1.0  0.04206  0.27173  0.43655  1.0000
  H   H217      1.0  0.04645  0.18295  0.54016  1.0000
  C   C133      1.0  0.12835  0.48698  0.37743  1.0000
  C   C134      1.0  0.17152  0.53083  0.55384  1.0000
  H   H218      1.0  0.15150  0.48465  0.38572  1.0000
  H   H219      1.0  0.13938  0.15823  0.57737  1.0000
  S   S55       1.0  0.12282  0.52870  0.49283  1.0000
  H   H220      1.0  0.28925  0.31505  0.42235  1.0000
  H   H221      1.0  0.28757  0.41191  0.49630  1.0000
  C   C135      1.0  0.34325  0.36748  0.59315  1.0000
  C   C136      1.0  0.34181  0.33560  0.59343  1.0000
  C   C137      1.0  0.33944  0.31893  0.56903  1.0000
  C   C138      1.0  0.33902  0.33400  0.54410  1.0000
  C   C139      1.0  0.34045  0.36586  0.54391  1.0000
  C   C140      1.0  0.34224  0.38254  0.56827  1.0000
  H   H222      1.0  0.34270  0.32369  0.61255  1.0000
  H   H223      1.0  0.33845  0.29443  0.56951  1.0000
  H   H224      1.0  0.34047  0.37779  0.52490  1.0000
  H   H225      1.0  0.34348  0.40702  0.56774  1.0000
  H   H226      1.0  0.22339  0.50525  0.32241  1.0000
  H   H227      1.0  0.19760  0.15600  0.54238  1.0000
  C   C141      1.0  0.19998  0.51373  0.31755  1.0000
  C   C142      1.0  0.26091  0.20286  0.62248  1.0000
  C   C143      1.0  0.27288  0.21477  0.59880  1.0000
  C   C144      1.0  0.29185  0.23901  0.60063  1.0000
  C   C145      1.0  0.29980  0.25042  0.62613  1.0000
  S   S56       1.0  0.01138  0.23437  0.56420  1.0000
  H   H228      1.0  0.24637  0.18402  0.62134  1.0000
  H   H229      1.0  0.30046  0.24897  0.58244  1.0000
  H   H230      1.0  0.31507  0.26866  0.62743  1.0000
  C   C146      1.0  0.37412  0.08123  0.49506  1.0000
  H   H231      1.0  0.35201  0.12444  0.50681  1.0000
  H   H232      1.0  0.35371  0.06902  0.49613  1.0000
  H   H233      1.0  0.31013  0.13250  0.63909  1.0000
  C   C147      1.0  0.27776  0.51369  0.50781  1.0000
  H   H234      1.0  0.14260  0.17148  0.54347  1.0000
  H   H235      1.0  0.34539  0.53385  0.51425  1.0000
  H   H236      1.0  0.14969  0.45746  0.55613  1.0000
  H   H237      1.0  0.17470  0.12557  0.55105  1.0000
  H   H238      1.0  0.20724  0.44160  0.57078  1.0000
  C   C148      1.0  0.39920  0.08493  0.58527  1.0000
  C   C149      1.0  0.12737  0.48145  0.34640  1.0000
  H   H239      1.0  0.32212  0.11107  0.46169  1.0000
  C   C150      1.0  0.34608  0.17884  0.62453  1.0000
  H   H240      1.0  0.31281  0.36631  0.48578  1.0000
  S   S57       1.0  0.39892  0.16830  0.50505  1.0000
  C   C151      1.0  0.13557  0.53512  0.33741  1.0000
  C   C152      1.0  0.02490  0.46944  0.39558  1.0000
  H   H241      1.0  0.06908  0.37458  0.41462  1.0000
  H   H242      1.0  0.40635  0.09080  0.33862  1.0000
  S   S58       1.0  0.02961  0.18996  0.44220  1.0000
  C   C153      1.0  0.01630  0.22138  0.53049  1.0000
  H   H243      1.0  0.34934  0.15263  0.45183  1.0000
  Fe  Fe30      1.0  0.07190  0.52590  0.49097  1.0000
  H   H244      1.0  0.47213  0.07851  0.59109  1.0000
  C   C154      1.0  0.03111  0.31897  0.42533  1.0000
  H   H245      1.0  0.11516  0.46964  0.38764  1.0000
  C   C155      1.0  0.03868  0.18615  0.49698  1.0000
  H   H246      1.0  0.10060  0.20047  0.54934  1.0000
  H   H247      1.0  0.32211  0.18131  0.63102  1.0000
  C   C156      1.0  0.17620  0.52690  0.46411  1.0000
  H   H248      1.0  0.06389  0.52300  0.36355  1.0000
  C   C157      1.0  0.17997  0.19693  0.59922  1.0000
  C   C158      1.0  0.37310  0.11263  0.50110  1.0000
  H   H249      1.0  0.02086  0.31328  0.40547  1.0000
  H   H250      1.0  0.41817  0.52147  0.55716  1.0000
  Fe  Fe31      1.0  0.00730  0.14578  0.62844  1.0000
  N   N9        1.0  0.14471  0.50267  0.32908  1.0000
  H   H251      1.0  0.34837  0.40444  0.48253  1.0000
  N   N10       1.0  0.31561  0.36975  0.44190  1.0000
  C   C159      1.0  0.32844  0.33725  0.43999  1.0000
  C   C160      1.0  0.34151  0.39043  0.44014  1.0000
  C   C161      1.0  0.29399  0.37718  0.41910  1.0000
  C   C162      1.0  0.29870  0.37402  0.46832  1.0000
  C   C163      1.0  0.30537  0.31232  0.43937  1.0000
  C   C164      1.0  0.36102  0.39244  0.46585  1.0000
  C   C165      1.0  0.28514  0.40658  0.47435  1.0000
  H   H252      1.0  0.34320  0.33377  0.42183  1.0000
  H   H253      1.0  0.34354  0.33182  0.45743  1.0000
  H   H254      1.0  0.33367  0.41406  0.43468  1.0000
  H   H255      1.0  0.35715  0.38309  0.42334  1.0000
  H   H256      1.0  0.27306  0.36468  0.42131  1.0000
  H   H257      1.0  0.28620  0.40173  0.41987  1.0000
  H   H258      1.0  0.27946  0.35900  0.46911  1.0000
  H   H259      1.0  0.44705  0.12512  0.49123  1.0000
  H   H260      1.0  0.18908  0.20498  0.36338  1.0000
  C   C166      1.0  0.40134  0.06564  0.48742  1.0000
  S   S59       1.0  0.34667  0.23454  0.47459  1.0000
  Fe  Fe32      1.0  0.35526  0.19763  0.50558  1.0000
  H   H261      1.0  0.03414  0.29615  0.46528  1.0000
  H   H262      1.0  0.37971  0.09723  0.57531  1.0000
  C   C167      1.0  0.17756  0.21748  0.55246  1.0000
  C   C168      1.0  0.37952  0.10622  0.42695  1.0000
  C   C169      1.0  0.45374  0.05004  0.62165  1.0000
  H   H263      1.0  0.44866  0.07002  0.48026  1.0000
  C   C170      1.0  0.00127  0.23745  0.50954  1.0000
  H   H264      1.0  0.05343  0.16640  0.49212  1.0000
  H   H265      1.0  0.36929  0.16284  0.58678  1.0000
  H   H266      1.0  0.41077  0.07256  0.54392  1.0000
  H   H267      1.0  0.23161  0.44218  0.54187  1.0000
  H   H268      1.0  0.04874  0.39577  0.48648  1.0000
  H   H269      1.0  0.19264  0.43608  0.53692  1.0000
  H   H270      1.0  0.36688  0.17637  0.39651  1.0000
  C   C171      1.0  0.00314  0.47234  0.64057  1.0000
  H   H271      1.0  0.48054  0.04347  0.33461  1.0000
  S   S60       1.0  0.05464  0.47916  0.49645  1.0000
  H   H272      1.0  0.05202  0.40388  0.45132  1.0000
  H   H273      1.0  0.19975  0.20534  0.54824  1.0000
  C   C172      1.0  0.40424  0.09711  0.31697  1.0000
  H   H274      1.0  0.17397  0.17621  0.61030  1.0000
  H   H275      1.0  0.48597  0.03986  0.59065  1.0000
  C   C173      1.0  0.46244  0.04098  0.54427  1.0000
  C   C174      1.0  0.10799  0.16293  0.34447  1.0000
  C   C175      1.0  0.46492  0.05471  0.59237  1.0000
  H   H276      1.0  0.99878  0.13632  0.55869  1.0000
  H   H277      1.0  0.43577  0.09573  0.55995  1.0000
  C   C176      1.0  0.39935  0.12862  0.49952  1.0000
  H   H278      1.0  0.13570  0.45734  0.34319  1.0000
  H   H279      1.0  0.18269  0.24510  0.61250  1.0000
  H   H280      1.0  0.02724  0.34781  0.47912  1.0000
  H   H281      1.0  0.05570  0.31968  0.42121  1.0000
  N   N11       1.0  0.36137  0.13156  0.41317  1.0000
  H   H282      1.0  0.11912  0.20420  0.59686  1.0000
  H   H283      1.0  0.00402  0.28423  0.44344  1.0000
  C   C177      1.0  0.33823  0.14472  0.43307  1.0000
  C   C178      1.0  0.05067  0.37414  0.39955  1.0000
  C   C179      1.0  0.31444  0.12298  0.44294  1.0000
  Fe  Fe33      1.0  0.30194  0.50501  0.35027  1.0000
  C   C180      1.0  0.14832  0.48202  0.55073  1.0000
  H   H284      1.0  0.30226  0.14351  0.38859  1.0000
  Fe  Fe34      1.0  0.01136  0.21067  0.34428  1.0000
  C   C181      1.0  0.19808  0.20559  0.34240  1.0000
  H   H285      1.0  0.06958  0.50510  0.63030  1.0000
  N   N12       1.0  0.44371  0.04795  0.56944  1.0000
  H   H286      1.0  0.32643  0.16587  0.42527  1.0000
  C   C182      1.0  0.01101  0.48198  0.59239  1.0000
  H   H287      1.0  0.99933  0.14100  0.32062  1.0000
  C   C183      1.0  0.17802  0.22260  0.62079  1.0000
  C   C184      1.0  0.10853  0.22223  0.55733  1.0000
  C   C185      1.0  0.04424  0.49301  0.39200  1.0000
  C   C186      1.0  0.04973  0.50404  0.36600  1.0000
  C   C187      1.0  0.32209  0.13952  0.37505  1.0000
  C   C188      1.0  0.38097  0.15669  0.40450  1.0000
  H   H288      1.0  0.31403  0.12837  0.35634  1.0000
  H   H289      1.0  0.21969  0.47278  0.60839  1.0000
  C   C189      1.0  0.20851  0.44883  0.54936  1.0000
  H   H290      1.0  0.41407  0.18811  0.41779  1.0000
  H   H291      1.0  0.43196  0.06238  0.62620  1.0000
  C   C190      1.0  0.42762  0.08160  0.48628  1.0000
  C   C191      1.0  0.42666  0.11288  0.49252  1.0000
  H   H292      1.0  0.29301  0.13644  0.44737  1.0000
  H   H293      1.0  0.39600  0.14917  0.38734  1.0000
  H   H294      1.0  0.18829  0.26265  0.53932  1.0000
  H   H295      1.0  0.15578  0.22375  0.63121  1.0000
  S   S61       1.0  0.01483  0.45817  0.42831  1.0000
  H   H296      1.0  0.16601  0.21684  0.53248  1.0000
  H   H297      1.0  0.30869  0.10569  0.42776  1.0000
  Fe  Fe35      1.0  0.02460  0.49188  0.46145  1.0000
  C   C192      1.0  0.01236  0.45571  0.37283  1.0000
  H   H298      1.0  0.40395  0.18851  0.63280  1.0000
  N   N13       1.0  0.16083  0.20114  0.57407  1.0000
  C   C193      1.0  0.42277  0.07526  0.56346  1.0000
  C   C194      1.0  0.03667  0.49092  0.34330  1.0000
  C   C195      1.0  0.34695  0.11879  0.38821  1.0000
  C   C196      1.0  0.02358  0.20218  0.47603  1.0000
  H   H299      1.0  0.09983  0.47910  0.55502  1.0000
  H   H300      1.0  0.47055  0.05857  0.63609  1.0000
  H   H301      1.0  0.33739  0.09644  0.39233  1.0000
  H   H302      1.0  0.36413  0.11369  0.37210  1.0000
  H   H303      1.0  0.21845  0.52577  0.44198  1.0000
  C   C197      1.0  0.34689  0.16250  0.59669  1.0000
  H   H304      1.0  0.38946  0.06561  0.59566  1.0000
  H   H305      1.0  0.36485  0.08769  0.43300  1.0000
  H   H306      1.0  0.41760  0.07332  0.42295  1.0000
  H   H307      1.0  0.20057  0.48809  0.52390  1.0000
  H   H308      1.0  0.08809  0.23548  0.56488  1.0000
  H   H309      1.0  0.38897  0.11440  0.44622  1.0000
  H   H310      1.0  0.01564  0.40524  0.46740  1.0000
  C   C198      1.0  0.40578  0.09107  0.41027  1.0000
  H   H311      1.0  0.33963  0.13888  0.59787  1.0000
  C   C199      1.0  0.15459  0.16988  0.56323  1.0000
  C   C200      1.0  0.13311  0.18565  0.34386  1.0000
  H   H312      1.0  0.09617  0.16069  0.32501  1.0000
  H   H313      1.0  0.47474  0.08738  0.53277  1.0000
  C   C201      1.0  0.03789  0.39272  0.46644  1.0000
  C   C202      1.0  0.18247  0.14777  0.55830  1.0000
  H   H314      1.0  0.09013  0.17128  0.35900  1.0000
  H   H315      1.0  0.11772  0.50944  0.38345  1.0000
  C   C203      1.0  0.18518  0.25052  0.55873  1.0000
  H   H316      1.0  0.11810  0.23554  0.54073  1.0000
  H   H317      1.0  0.20642  0.25099  0.57056  1.0000
  H   H318      1.0  0.13337  0.23987  0.59036  1.0000
  C   C204      1.0  0.40352  0.51574  0.31826  1.0000
  C   C205      1.0  0.13081  0.21718  0.58105  1.0000
  C   C206      1.0  0.00445  0.22757  0.48244  1.0000
  H   H319      1.0  0.16695  0.26396  0.56939  1.0000
  S   S62       1.0  0.28062  0.51177  0.56317  1.0000
  H   H320      1.0  0.20412  0.19284  0.59361  1.0000
  C   C207      1.0  0.28829  0.50654  0.48150  1.0000
  H   H321      1.0  0.18358  0.49944  0.35561  1.0000
  Fe  Fe36      1.0  0.00445  0.21019  0.40601  1.0000
  H   H322      1.0  0.18386  0.47091  0.33025  1.0000
  H   H323      1.0  0.17007  0.47051  0.59703  1.0000
  H   H324      1.0  0.00854  0.45581  0.32917  1.0000
  H   H325      1.0  0.19513  0.21727  0.63672  1.0000
  C   C208      1.0  0.01949  0.37182  0.41298  1.0000
  H   H326      1.0  0.14748  0.48257  0.52813  1.0000
  C   C209      1.0  0.48554  0.06453  0.53676  1.0000
  H   H327      1.0  0.45432  0.07103  0.34713  1.0000
  H   H328      1.0  0.35251  0.20252  0.62077  1.0000
  C   C210      1.0  0.39797  0.16509  0.63832  1.0000
  H   H329      1.0  0.38931  0.51276  0.53365  1.0000
  N   N14       1.0  0.17556  0.49756  0.56109  1.0000
  H   H330      1.0  0.40239  0.15191  0.61928  1.0000
  H   H331      1.0  0.12344  0.20833  0.35075  1.0000
  H   H332      1.0  0.36582  0.11709  0.63284  1.0000
  H   H333      1.0  0.38014  0.52406  0.56833  1.0000
  H   H334      1.0  0.22467  0.50962  0.59368  1.0000
  S   S63       1.0  0.12062  0.15859  0.63784  1.0000
  S   S64       1.0  0.31612  0.47434  0.31484  1.0000
  C   C211      1.0  0.45669  0.05201  0.33209  1.0000
  H   H335      1.0  0.27719  0.51700  0.46415  1.0000
  C   C212      1.0  0.19444  0.53136  0.44117  1.0000
  H   H336      1.0  0.38767  0.51972  0.33543  1.0000
  C   C213      1.0  0.20884  0.49577  0.60472  1.0000
  C   C214      1.0  0.39478  0.52809  0.55067  1.0000
  C   C215      1.0  0.17747  0.49344  0.59147  1.0000
  H   H337      1.0  0.16839  0.53334  0.53156  1.0000
  N   N15       1.0  0.15061  0.18774  0.31776  1.0000
  H   H338      1.0  0.16145  0.23416  0.32753  1.0000
  H   H339      1.0  0.42303  0.53014  0.32059  1.0000
  C   C216      1.0  0.11732  0.49476  0.56135  1.0000
  H   H340      1.0  0.21188  0.18432  0.33792  1.0000
  H   H341      1.0  0.41231  0.49164  0.31974  1.0000
  S   S65       1.0  0.99693  0.48114  0.55899  1.0000
  S   S66       1.0  0.32086  0.22103  0.31490  1.0000
  H   H342      1.0  0.21366  0.22446  0.34190  1.0000
  H   H343      1.0  0.11064  0.51714  0.55223  1.0000
  H   H344      1.0  0.16154  0.51015  0.60199  1.0000
  H   H345      1.0  0.11644  0.49648  0.58378  1.0000
  H   H346      1.0  0.20590  0.50640  0.62515  1.0000
  C   C217      1.0  0.14490  0.53385  0.46333  1.0000
  C   C218      1.0  0.17297  0.21208  0.32126  1.0000
  H   H347      1.0  0.41357  0.11960  0.31344  1.0000
  Fe  Fe37      1.0  0.31115  0.15630  0.73993  1.0000
  S   S67       1.0  0.33033  0.20206  0.74322  1.0000
  S   S68       1.0  0.33951  0.11295  0.72990  1.0000
  Fe  Fe38      1.0  0.24599  0.18325  0.74544  1.0000
  S   S69       1.0  0.26097  0.23102  0.74985  1.0000
  S   S70       1.0  0.19534  0.17810  0.74635  1.0000
  Fe  Fe39      1.0  0.29258  0.21794  0.71580  1.0000
  S   S71       1.0  0.30117  0.25005  0.68158  1.0000
  Fe  Fe40      1.0  0.29699  0.21073  0.77726  1.0000
  S   S72       1.0  0.31409  0.23717  0.81321  1.0000
  S   S73       1.0  0.27567  0.17142  0.70972  1.0000
  S   S74       1.0  0.27975  0.16360  0.77586  1.0000
  S   S75       1.0  0.03185  0.51842  0.81084  1.0000
  S   S76       1.0  0.28060  0.20865  0.93555  1.0000
  H   H348      1.0  0.25778  0.35050  0.67001  1.0000
  H   H349      1.0  0.44106  0.15210  0.73778  1.0000
  S   S77       1.0  0.03528  0.15526  0.66530  1.0000
  H   H350      1.0  0.31725  0.31088  0.66617  1.0000
  H   H351      1.0  0.36439  0.22437  0.69390  1.0000
  S   S78       1.0  0.03714  0.25049  0.87621  1.0000
  H   H352      1.0  0.26750  0.31986  0.64711  1.0000
  S   S79       1.0  0.05251  0.20135  0.81036  1.0000
  C   C219      1.0  0.13333  0.21045  0.79448  1.0000
  S   S80       1.0  0.04706  0.20189  0.94289  1.0000
  H   H353      1.0  0.28451  0.35978  0.94431  1.0000
  Fe  Fe41      1.0  0.30633  0.50168  0.91129  1.0000
  H   H354      1.0  0.18466  0.46092  0.82413  1.0000
  S   S81       1.0  0.32694  0.47455  0.94566  1.0000
  Fe  Fe42      1.0  0.29764  0.49621  0.85036  1.0000
  H   H355      1.0  0.11678  0.50193  0.76290  1.0000
  S   S82       1.0  0.31024  0.46391  0.81567  1.0000
  H   H356      1.0  0.10847  0.20534  0.84017  1.0000
  H   H357      1.0  0.33409  0.18566  0.67572  1.0000
  C   C220      1.0  0.00925  0.39324  0.96997  1.0000
  S   S83       1.0  0.26952  0.48341  0.88601  1.0000
  C   C221      1.0  0.27446  0.50815  0.75018  1.0000
  H   H358      1.0  0.27873  0.51747  0.96372  1.0000
  C   C222      1.0  0.31054  0.32204  0.71906  1.0000
  H   H359      1.0  0.26764  0.50980  0.79359  1.0000
  C   C223      1.0  0.27167  0.32889  0.66780  1.0000
  C   C224      1.0  0.11321  0.52886  0.84104  1.0000
  Fe  Fe43      1.0  0.02241  0.21705  0.84523  1.0000
  C   C225      1.0  0.37936  0.50282  0.80728  1.0000
  C   C226      1.0  0.32507  0.12574  0.65624  1.0000
  H   H360      1.0  0.22087  0.23246  0.83780  1.0000
  C   C227      1.0  0.04972  0.32502  0.68826  1.0000
  C   C228      1.0  0.39634  0.13560  0.73464  1.0000
  C   C229      1.0  0.30194  0.47546  0.78223  1.0000
  C   C230      1.0  0.31781  0.46122  0.76047  1.0000
  C   C231      1.0  0.31242  0.47080  0.73365  1.0000
  C   C232      1.0  0.29072  0.49434  0.72846  1.0000
  H   H361      1.0  0.31017  0.33835  0.90404  1.0000
  H   H362      1.0  0.11355  0.19623  0.79320  1.0000
  H   H363      1.0  0.33464  0.44304  0.76442  1.0000
  H   H364      1.0  0.32503  0.46004  0.71703  1.0000
  C   C233      1.0  0.99654  0.33282  0.67609  1.0000
  N   N16       1.0  0.44898  0.07385  0.81869  1.0000
  H   H365      1.0  0.21448  0.51851  0.94146  1.0000
  C   C234      1.0  0.02976  0.39131  0.67864  1.0000
  H   H366      1.0  0.00052  0.38216  0.71219  1.0000
  H   H367      1.0  0.10668  0.25145  0.80931  1.0000
  N   N17       1.0  0.12928  0.49889  0.83330  1.0000
  H   H368      1.0  0.46040  0.07794  0.97896  1.0000
  H   H369      1.0  0.00097  0.46504  0.82702  1.0000
  C   C235      1.0  0.35884  0.18156  0.67262  1.0000
  H   H370      1.0  0.38352  0.08713  0.81971  1.0000
  H   H371      1.0  0.09047  0.53109  0.83173  1.0000
  H   H372      1.0  0.19183  0.22656  0.86165  1.0000
  H   H373      1.0  0.39357  0.06294  0.79056  1.0000
  C   C236      1.0  0.03964  0.21289  0.77816  1.0000
  C   C237      1.0  0.05226  0.19879  0.75486  1.0000
  C   C238      1.0  0.04009  0.20561  0.72919  1.0000
  H   H374      1.0  0.31513  0.35374  0.96630  1.0000
  H   H375      1.0  0.28605  0.31916  0.72194  1.0000
  H   H376      1.0  0.07093  0.18200  0.75666  1.0000
  H   H377      1.0  0.04965  0.19436  0.71134  1.0000
  C   C239      1.0  0.14078  0.19427  0.87103  1.0000
  H   H378      1.0  0.02318  0.34549  0.91467  1.0000
  H   H379      1.0  0.36682  0.31401  0.66978  1.0000
  C   C240      1.0  0.26838  0.21468  0.64790  1.0000
  H   H380      1.0  0.13525  0.20991  0.88839  1.0000
  C   C241      1.0  0.37053  0.32411  0.69010  1.0000
  S   S84       1.0  0.35804  0.46792  0.65936  1.0000
  C   C242      1.0  0.17487  0.17335  0.71588  1.0000
  C   C243      1.0  0.18934  0.16373  0.69182  1.0000
  H   H381      1.0  0.39455  0.37543  0.96213  1.0000
  Fe  Fe44      1.0  0.01593  0.20337  0.66124  1.0000
  C   C244      1.0  0.12648  0.17435  0.69212  1.0000
  C   C245      1.0  0.14330  0.17842  0.71593  1.0000
  H   H382      1.0  0.21349  0.15920  0.69156  1.0000
  H   H383      1.0  0.10226  0.17847  0.69241  1.0000
  H   H384      1.0  0.13168  0.18549  0.73437  1.0000
  C   C246      1.0  0.30557  0.22774  0.84707  1.0000
  C   C247      1.0  0.32084  0.24156  0.86838  1.0000
  C   C248      1.0  0.31397  0.23529  0.89561  1.0000
  C   C249      1.0  0.29135  0.21559  0.90170  1.0000
  C   C250      1.0  0.27608  0.20178  0.88038  1.0000
  C   C251      1.0  0.28339  0.20754  0.85315  1.0000
  H   H385      1.0  0.33810  0.25711  0.86380  1.0000
  H   H386      1.0  0.32587  0.24593  0.91188  1.0000
  H   H387      1.0  0.25862  0.18645  0.88498  1.0000
  H   H388      1.0  0.27167  0.19666  0.83689  1.0000
  C   C252      1.0  0.37927  0.11106  0.72740  1.0000
  C   C253      1.0  0.39409  0.08404  0.71779  1.0000
  H   H389      1.0  0.38105  0.06493  0.71221  1.0000
  S   S85       1.0  0.33630  0.51002  0.87587  1.0000
  C   C254      1.0  0.14098  0.16441  0.66816  1.0000
  Fe  Fe45      1.0  0.30949  0.22039  0.97167  1.0000
  C   C255      1.0  0.36194  0.53420  0.80758  1.0000
  Fe  Fe46      1.0  0.25106  0.53212  0.88573  1.0000
  C   C256      1.0  0.10448  0.46762  0.87080  1.0000
  H   H390      1.0  0.34984  0.41217  0.88647  1.0000
  H   H391      1.0  0.42813  0.11843  0.80997  1.0000
  C   C257      1.0  0.03120  0.32512  0.74801  1.0000
  C   C258      1.0  0.44872  0.04101  0.80971  1.0000
  S   S86       1.0  0.35431  0.24157  0.97273  1.0000
  C   C259      1.0  0.10908  0.47361  0.84016  1.0000
  H   H392      1.0  0.02700  0.34681  0.75949  1.0000
  H   H393      1.0  0.34718  0.29823  0.91453  1.0000
  C   C260      1.0  0.48065  0.08473  0.81833  1.0000
  H   H394      1.0  0.15506  0.49987  0.87066  1.0000
  S   S87       1.0  0.99755  0.52510  0.73937  1.0000
  H   H395      1.0  0.11844  0.44725  0.87730  1.0000
  Fe  Fe47      1.0  0.01926  0.21883  0.90711  1.0000
  H   H396      1.0  0.33776  0.52970  0.81068  1.0000
  H   H397      1.0  0.37009  0.32228  0.93348  1.0000
  H   H398      1.0  0.44703  0.05137  0.76546  1.0000
  H   H399      1.0  0.00689  0.24687  0.79319  1.0000
  H   H400      1.0  0.03917  0.37567  0.71904  1.0000
  H   H401      1.0  0.03980  0.51481  0.90913  1.0000
  C   C261      1.0  0.01586  0.23488  0.77556  1.0000
  Fe  Fe48      1.0  0.31168  0.49112  0.65920  1.0000
  S   S88       1.0  0.99759  0.23318  0.69549  1.0000
  H   H402      1.0  0.28346  0.42027  0.69180  1.0000
  H   H403      1.0  0.14558  0.47449  0.79733  1.0000
  N   N18       1.0  0.01946  0.33837  0.69783  1.0000
  H   H404      1.0  0.37450  0.49078  0.82639  1.0000
  H   H405      1.0  0.02811  0.39935  0.90175  1.0000
  H   H406      1.0  0.44730  0.06283  0.88942  1.0000
  H   H407      1.0  0.10517  0.24478  0.77369  1.0000
  H   H408      1.0  0.33337  0.31237  0.94626  1.0000
  C   C262      1.0  0.44278  0.10598  0.72245  1.0000
  H   H409      1.0  0.05119  0.40564  0.93130  1.0000
  H   H410      1.0  0.38281  0.10227  0.78644  1.0000
  H   H411      1.0  0.01394  0.14292  0.82880  1.0000
  H   H412      1.0  0.36391  0.35287  0.96952  1.0000
  S   S89       1.0  0.02568  0.45622  0.75341  1.0000
  H   H413      1.0  0.41393  0.15541  0.68023  1.0000
  S   S90       1.0  0.04339  0.48706  0.68051  1.0000
  C   C263      1.0  0.33177  0.34586  0.91259  1.0000
  H   H414      1.0  0.43473  0.10017  0.85439  1.0000
  H   H415      1.0  0.99585  0.30763  0.92977  1.0000
  N   N19       1.0  0.32629  0.37534  0.92822  1.0000
  H   H416      1.0  0.36633  0.16811  0.69065  1.0000
  S   S91       1.0  0.28360  0.50770  0.69534  1.0000
  C   C264      1.0  0.34858  0.35199  0.69567  1.0000
  H   H417      1.0  0.10884  0.53019  0.86321  1.0000
  H   H418      1.0  0.12843  0.14644  0.79439  1.0000
  C   C265      1.0  0.35838  0.13139  0.65057  1.0000
  C   C266      1.0  0.34638  0.31856  0.92811  1.0000
  Fe  Fe49      1.0  0.01713  0.49435  0.96173  1.0000
  H   H419      1.0  0.17165  0.24707  0.81905  1.0000
  H   H420      1.0  0.13835  0.25954  0.78744  1.0000
  H   H421      1.0  0.17594  0.16276  0.83568  1.0000
  C   C267      1.0  0.30525  0.37031  0.95164  1.0000
  C   C268      1.0  0.03627  0.51623  0.86584  1.0000
  C   C269      1.0  0.12045  0.24363  0.79152  1.0000
  C   C270      1.0  0.42115  0.15166  0.65896  1.0000
  H   H422      1.0  0.43663  0.06070  0.70747  1.0000
  H   H423      1.0  0.08629  0.47818  0.83125  1.0000
  H   H424      1.0  0.31376  0.35021  0.75631  1.0000
  H   H425      1.0  0.36943  0.30635  0.70584  1.0000
  H   H426      1.0  0.31422  0.41281  0.97367  1.0000
  H   H427      1.0  0.32015  0.29924  0.71257  1.0000
  C   C271      1.0  0.00346  0.24139  0.75002  1.0000
  H   H428      1.0  0.16479  0.18680  0.87314  1.0000
  C   C272      1.0  0.42833  0.09465  0.80192  1.0000
  C   C273      1.0  0.04355  0.38830  0.91684  1.0000
  C   C274      1.0  0.31015  0.39789  0.90945  1.0000
  H   H429      1.0  0.17409  0.51315  0.84197  1.0000
  C   C275      1.0  0.42565  0.08152  0.71523  1.0000
  C   C276      1.0  0.05339  0.28991  0.68741  1.0000
  H   H430      1.0  0.34824  0.32835  0.74740  1.0000
  H   H431      1.0  0.01739  0.13076  0.79467  1.0000
  H   H432      1.0  0.30714  0.38471  0.72417  1.0000
  C   C277      1.0  0.16203  0.17002  0.81806  1.0000
  C   C278      1.0  0.02526  0.50236  0.84257  1.0000
  H   H433      1.0  0.25845  0.20583  0.66593  1.0000
  H   H434      1.0  0.41512  0.06646  0.84954  1.0000
  H   H435      1.0  0.14694  0.20482  0.77600  1.0000
  Fe  Fe50      1.0  0.00709  0.49722  0.77655  1.0000
  H   H436      1.0  0.34691  0.34894  0.89496  1.0000
  C   C279      1.0  0.35565  0.38804  0.93698  1.0000
  H   H437      1.0  0.10869  0.48707  0.88438  1.0000
  H   H438      1.0  0.48263  0.10415  0.83279  1.0000
  C   C280      1.0  0.13218  0.21089  0.84433  1.0000
  H   H439      1.0  0.12657  0.17459  0.87407  1.0000
  H   H440      1.0  0.11797  0.45180  0.83074  1.0000
  H   H441      1.0  0.43636  0.09638  0.78075  1.0000
  C   C281      1.0  0.42799  0.13305  0.73213  1.0000
  S   S92       1.0  0.00903  0.18325  0.87617  1.0000
  H   H442      1.0  0.48140  0.11815  0.78517  1.0000
  C   C282      1.0  0.39532  0.08580  0.79988  1.0000
  H   H443      1.0  0.17736  0.16580  0.80034  1.0000
  H   H444      1.0  0.37304  0.38433  0.92080  1.0000
  H   H445      1.0  0.05527  0.32271  0.74230  1.0000
  H   H446      1.0  0.09105  0.48834  0.78714  1.0000
  C   C283      1.0  0.00912  0.47614  0.84497  1.0000
  C   C284      1.0  0.29803  0.37474  0.70531  1.0000
  H   H447      1.0  0.31714  0.31001  0.76139  1.0000
  C   C285      1.0  0.17865  0.22241  0.81879  1.0000
  H   H448      1.0  0.00479  0.33960  0.65579  1.0000
  H   H449      1.0  0.08077  0.46188  0.87431  1.0000
  H   H450      1.0  0.32288  0.10102  0.65963  1.0000
  H   H451      1.0  0.31422  0.42420  0.87252  1.0000
  C   C286      1.0  0.32671  0.40493  0.88282  1.0000
  H   H452      1.0  0.36838  0.51708  0.75240  1.0000
  H   H453      1.0  0.30579  0.42033  0.91971  1.0000
  C   C287      1.0  0.20154  0.21824  0.84204  1.0000
  H   H454      1.0  0.38523  0.15645  0.74231  1.0000
  C   C288      1.0  0.02929  0.36145  0.93111  1.0000
  H   H455      1.0  0.33174  0.52707  0.76356  1.0000
  H   H456      1.0  0.13133  0.23584  0.84857  1.0000
  H   H457      1.0  0.11765  0.15310  0.82946  1.0000
  H   H458      1.0  0.00407  0.29948  0.72017  1.0000
  C   C289      1.0  0.29509  0.39902  0.96821  1.0000
  C   C290      1.0  0.00959  0.32358  0.72359  1.0000
  H   H459      1.0  0.48064  0.06766  0.87026  1.0000
  C   C291      1.0  0.03081  0.50421  0.89148  1.0000
  H   H460      1.0  0.06376  0.37937  0.90538  1.0000
  H   H461      1.0  0.28755  0.39010  0.90381  1.0000
  C   C292      1.0  0.43770  0.07590  0.84765  1.0000
  S   S93       1.0  0.48254  0.10360  0.71946  1.0000
  H   H462      1.0  0.35253  0.41318  0.93972  1.0000
  H   H463      1.0  0.03670  0.27996  0.67380  1.0000
  C   C293      1.0  0.15861  0.49562  0.84858  1.0000
  H   H464      1.0  0.00110  0.24493  0.96482  1.0000
  H   H465      1.0  0.07607  0.28282  0.67925  1.0000
  H   H466      1.0  0.02756  0.30575  0.76177  1.0000
  C   C294      1.0  0.31262  0.48439  0.97788  1.0000
  H   H467      1.0  0.19726  0.46528  0.85813  1.0000
  H   H468      1.0  0.27421  0.37035  0.71019  1.0000
  C   C295      1.0  0.13683  0.14742  0.81557  1.0000
  C   C296      1.0  0.17203  0.51994  0.96327  1.0000
  H   H469      1.0  0.06837  0.33345  0.70074  1.0000
  H   H470      1.0  0.31701  0.13754  0.67500  1.0000
  H   H471      1.0  0.32055  0.40880  0.68079  1.0000
  C   C297      1.0  0.10904  0.50447  0.78430  1.0000
  C   C298      1.0  0.02179  0.37192  0.70332  1.0000
  C   C299      1.0  0.32330  0.32849  0.74749  1.0000
  H   H472      1.0  0.31236  0.34824  0.65380  1.0000
  H   H473      1.0  0.35239  0.36813  0.67896  1.0000
  C   C300      1.0  0.01370  0.47872  0.89407  1.0000
  H   H474      1.0  0.21113  0.19451  0.84374  1.0000
  H   H475      1.0  0.15395  0.51323  0.79794  1.0000
  H   H476      1.0  0.39741  0.21092  0.67602  1.0000
  C   C301      1.0  0.17675  0.46483  0.84529  1.0000
  H   H477      1.0  0.40408  0.50470  0.80635  1.0000
  H   H478      1.0  0.28819  0.39371  0.66439  1.0000
  H   H479      1.0  0.14613  0.12413  0.82051  1.0000
  H   H480      1.0  0.19136  0.21814  0.79942  1.0000
  H   H481      1.0  0.35622  0.36371  0.71430  1.0000
  H   H482      1.0  0.36528  0.22816  0.65792  1.0000
  C   C302      1.0  0.28017  0.49889  0.77700  1.0000
  N   N20       1.0  0.31569  0.34557  0.69767  1.0000
  H   H483      1.0  0.05460  0.33279  0.66734  1.0000
  N   N21       1.0  0.15157  0.20326  0.81970  1.0000
  C   C303      1.0  0.17245  0.15886  0.66823  1.0000
  H   H484      1.0  0.32721  0.38545  0.86837  1.0000
  H   H485      1.0  0.16408  0.44535  0.85216  1.0000
  C   C304      1.0  0.01519  0.22637  0.72685  1.0000
  H   H486      1.0  0.39393  0.33171  0.69008  1.0000
  H   H487      1.0  0.37136  0.12153  0.66805  1.0000
  H   H488      1.0  0.05190  0.27978  0.70788  1.0000
  H   H489      1.0  0.27794  0.41347  0.95717  1.0000
  S   S94       1.0  0.00399  0.46537  0.92621  1.0000
  C   C305      1.0  0.37247  0.21297  0.67484  1.0000
  C   C306      1.0  0.03059  0.48470  0.64673  1.0000
  C   C307      1.0  0.14089  0.52771  0.96253  1.0000
  C   C308      1.0  0.13610  0.49755  0.80330  1.0000
  H   H490      1.0  0.01267  0.41556  0.96043  1.0000
  C   C309      1.0  0.29777  0.40047  0.68411  1.0000
  H   H491      1.0  0.37195  0.48816  0.79047  1.0000
  H   H492      1.0  0.03008  0.41556  0.68517  1.0000
  C   C310      1.0  0.19055  0.52450  0.94056  1.0000
  H   H493      1.0  0.05252  0.38472  0.67053  1.0000
  H   H494      1.0  0.04742  0.34881  0.94268  1.0000
  C   C311      1.0  0.00071  0.13571  0.81107  1.0000
  C   C312      1.0  0.36960  0.37603  0.96386  1.0000
  N   N22       1.0  0.00234  0.36957  0.94897  1.0000
  H   H495      1.0  0.26391  0.31175  0.68222  1.0000
  H   H496      1.0  0.25759  0.52631  0.74625  1.0000
  C   C313      1.0  0.00316  0.46443  0.87074  1.0000
  C   C314      1.0  0.30567  0.33344  0.67067  1.0000
  C   C315      1.0  0.49280  0.09606  0.79110  1.0000
  C   C316      1.0  0.28855  0.23781  0.64983  1.0000
  H   H497      1.0  0.44261  0.16323  0.65700  1.0000
  H   H498      1.0  0.18392  0.15035  0.65014  1.0000
  H   H499      1.0  0.99490  0.17259  0.75409  1.0000
  H   H500      1.0  0.01284  0.39040  0.66223  1.0000
  H   H501      1.0  0.49104  0.07943  0.77442  1.0000
  H   H502      1.0  0.01398  0.32953  0.97304  1.0000
  C   C317      1.0  0.45771  0.05904  0.86906  1.0000
  C   C318      1.0  0.03617  0.21185  0.97629  1.0000
  Fe  Fe51      1.0  0.01159  0.48253  0.71612  1.0000
  H   H503      1.0  0.42563  0.12677  0.65567  1.0000
  H   H504      1.0  0.37396  0.53564  0.96600  1.0000
  H   H505      1.0  0.05801  0.38305  0.97637  1.0000
  H   H506      1.0  0.99464  0.13288  0.75559  1.0000
  H   H507      1.0  0.09938  0.52817  0.78663  1.0000
  N   N23       1.0  0.36536  0.16418  0.64651  1.0000
  H   H508      1.0  0.33621  0.57873  0.00307  1.0000
  H   H509      1.0  0.48297  0.66378  0.25688  1.0000
  C   C319      1.0  0.36240  0.92483  0.02753  1.0000
  Fe  Fe52      1.0  0.45949  0.70189  0.08872  1.0000
  C   C320      1.0  0.44498  0.62197  0.19485  1.0000
  S   S95       1.0  0.41612  0.67735  0.09196  1.0000
  S   S96       1.0  0.03701  0.54057  0.02590  1.0000
  S   S97       1.0  0.48036  0.97127  0.00837  1.0000
  C   C321      1.0  0.33408  0.57797  0.05883  1.0000
  H   H510      1.0  0.49139  0.75988  0.22550  1.0000
  C   C322      1.0  0.49218  0.89124  0.17686  1.0000
  C   C323      1.0  0.40248  0.96104  0.03557  1.0000
  H   H511      1.0  0.45659  0.03003  0.08644  1.0000
  S   S98       1.0  0.47093  0.73003  0.05249  1.0000
  S   S99       1.0  0.47127  0.73790  0.11910  1.0000
  H   H512      1.0  0.42803  0.58046  0.25199  1.0000
  H   H513      1.0  0.33738  0.53890  0.00194  1.0000
  H   H514      1.0  0.45369  0.99607  0.26345  1.0000
  H   H515      1.0  0.26880  0.53816  0.24348  1.0000
  H   H516      1.0  0.32232  0.57108  0.07749  1.0000
  C   C324      1.0  0.36919  0.96748  0.99656  1.0000
  C   C325      1.0  0.48169  0.83583  0.05049  1.0000
  H   H517      1.0  0.45571  0.60270  0.20655  1.0000
  C   C326      1.0  0.42934  0.56969  0.27228  1.0000
  H   H518      1.0  0.46943  0.82817  0.98259  1.0000
  C   C327      1.0  0.44780  0.87070  0.13344  1.0000
  H   H519      1.0  0.44284  0.89327  0.14314  1.0000
  H   H520      1.0  0.47739  0.64659  0.00777  1.0000
  H   H521      1.0  0.00995  0.54814  0.18984  1.0000
  N   N24       1.0  0.37432  0.55629  0.02444  1.0000
  C   C328      1.0  0.41663  0.57434  0.10704  1.0000
  C   C329      1.0  0.44303  0.58747  0.09838  1.0000
  C   C330      1.0  0.44311  0.61892  0.09330  1.0000
  C   C331      1.0  0.41675  0.63752  0.09685  1.0000
  C   C332      1.0  0.39016  0.62423  0.10474  1.0000
  C   C333      1.0  0.39010  0.59281  0.10993  1.0000
  H   H522      1.0  0.46364  0.57333  0.09605  1.0000
  H   H523      1.0  0.46361  0.62870  0.08680  1.0000
  H   H524      1.0  0.36963  0.63842  0.10744  1.0000
  H   H525      1.0  0.36968  0.58308  0.11676  1.0000
  H   H526      1.0  0.37333  0.55016  0.06808  1.0000
  H   H527      1.0  0.49202  0.80789  0.18711  1.0000
  H   H528      1.0  0.45516  0.87361  0.11212  1.0000
  H   H529      1.0  0.34492  0.59927  0.06412  1.0000
  H   H530      1.0  0.45921  0.84333  0.16793  1.0000
  H   H531      1.0  0.44074  0.60961  0.15090  1.0000
  H   H532      1.0  0.15827  0.55947  0.30423  1.0000
  H   H533      1.0  0.35922  0.57808  0.24968  1.0000
  C   C334      1.0  0.35208  0.55848  0.00135  1.0000
  H   H534      1.0  0.31620  0.58196  0.04346  1.0000
  C   C335      1.0  0.35753  0.55236  0.05069  1.0000
  H   H535      1.0  0.19590  0.56371  0.04153  1.0000
  H   H536      1.0  0.35432  0.61748  0.02302  1.0000
  H   H537      1.0  0.44382  0.66963  0.01352  1.0000
  C   C336      1.0  0.33306  0.59111  0.30053  1.0000
  H   H538      1.0  0.42258  0.02351  0.26213  1.0000
  H   H539      1.0  0.49106  0.87823  0.07014  1.0000
  H   H540      1.0  0.47624  0.68272  0.16209  1.0000
  C   C337      1.0  0.37890  0.61493  0.01968  1.0000
  H   H541      1.0  0.99487  0.56868  0.12074  1.0000
  H   H542      1.0  0.38415  0.62158  0.99859  1.0000
  C   C338      1.0  0.40743  0.92577  0.99651  1.0000
  H   H543      1.0  0.47220  0.79771  0.02489  1.0000
  H   H544      1.0  0.36151  0.88736  0.05622  1.0000
  C   C339      1.0  0.45452  0.65222  0.99952  1.0000
  C   C340      1.0  0.47125  0.66453  0.21406  1.0000
  C   C341      1.0  0.48648  0.86714  0.05108  1.0000
  S   S100      1.0  0.48168  0.81556  0.08143  1.0000
  H   H545      1.0  0.40561  0.61876  0.16818  1.0000
  H   H546      1.0  0.39044  0.59843  0.28154  1.0000
  C   C342      1.0  0.42879  0.60820  0.17034  1.0000
  C   C343      1.0  0.19200  0.53970  0.03610  1.0000
  Fe  Fe53      1.0  0.00426  0.55377  0.99251  1.0000
  H   H547      1.0  0.36743  0.87499  0.02233  1.0000
  H   H548      1.0  0.34747  0.61070  0.30286  1.0000
  C   C344      1.0  0.42204  0.94178  0.05551  1.0000
  H   H549      1.0  0.41324  0.57982  0.01179  1.0000
  H   H550      1.0  0.44774  0.57980  0.28396  1.0000
  C   C345      1.0  0.45566  0.03108  0.06411  1.0000
  H   H551      1.0  0.38683  0.97536  0.04864  1.0000
  C   C346      1.0  0.45817  0.66676  0.16623  1.0000
  H   H552      1.0  0.38892  0.63220  0.03299  1.0000
  C   C347      1.0  0.37359  0.89266  0.03722  1.0000
  C   C348      1.0  0.39946  0.57550  0.28796  1.0000
  C   C349      1.0  0.42871  0.68629  0.17123  1.0000
  C   C350      1.0  0.36228  0.55403  0.25653  1.0000
  H   H553      1.0  0.36123  0.00865  0.02206  1.0000
  H   H554      1.0  0.40413  0.58465  0.04674  1.0000
  H   H555      1.0  0.44918  0.67524  0.22086  1.0000
  N   N25       1.0  0.38541  0.94405  0.01444  1.0000
  H   H556      1.0  0.32117  0.59213  0.28079  1.0000
  H   H557      1.0  0.48777  0.59037  0.15707  1.0000
  H   H558      1.0  0.40799  0.92890  0.06947  1.0000
  C   C351      1.0  0.39393  0.58317  0.02617  1.0000
  H   H559      1.0  0.42668  0.63221  0.20812  1.0000
  H   H560      1.0  0.16902  0.53954  0.02752  1.0000
  H   H561      1.0  0.42600  0.58358  0.17389  1.0000
  H   H562      1.0  0.42637  0.85892  0.13247  1.0000
  H   H563      1.0  0.43214  0.70495  0.18599  1.0000
  H   H564      1.0  0.42147  0.69730  0.15190  1.0000
  H   H565      1.0  0.41010  0.67253  0.17814  1.0000
  N   N26       1.0  0.46769  0.64530  0.18884  1.0000
  C   C352      1.0  0.35091  0.56031  0.30481  1.0000
  H   H566      1.0  0.44084  0.63203  0.00026  1.0000
  H   H567      1.0  0.43145  0.00297  0.29305  1.0000
  H   H568      1.0  0.47376  0.88485  0.19071  1.0000
  C   C353      1.0  0.47445  0.83911  0.00164  1.0000
  C   C354      1.0  0.47120  0.85078  0.14950  1.0000
  H   H569      1.0  0.11795  0.55825  0.30083  1.0000
  H   H570      1.0  0.43665  0.54538  0.27001  1.0000
  N   N27       1.0  0.37589  0.55244  0.28461  1.0000
  H   H571      1.0  0.45533  0.65483  0.14665  1.0000
  H   H572      1.0  0.43480  0.95729  0.06846  1.0000
  H   H573      1.0  0.33465  0.00459  0.99568  1.0000
  H   H574      1.0  0.43906  0.92641  0.04519  1.0000
  H   H575      1.0  0.40497  0.57909  0.30970  1.0000
  H   H576      1.0  0.48306  0.91185  0.16595  1.0000
  C   C355      1.0  0.01077  0.56829  0.17659  1.0000
  C   C356      1.0  0.48566  0.88426  0.02705  1.0000
  C   C357      1.0  0.47600  0.82178  0.02560  1.0000
  C   C358      1.0  0.44104  0.01418  0.27534  1.0000
  C   C359      1.0  0.47920  0.87044  0.00228  1.0000
  Fe  Fe54      1.0  0.48732  0.76378  0.08282  1.0000
  H   H577      1.0  0.45728  0.00719  0.05663  1.0000
  H   H578      1.0  0.48390  0.02719  0.29010  1.0000
  H   H579      1.0  0.02556  0.56244  0.15893  1.0000
  H   H580      1.0  0.47291  0.62744  0.24439  1.0000
  H   H581      1.0  0.41738  0.97711  0.02559  1.0000
  C   C360      1.0  0.48487  0.64802  0.23912  1.0000
  H   H582      1.0  0.35161  0.93712  0.04520  1.0000
  H   H583      1.0  0.39788  0.88957  0.04176  1.0000
  H   H584      1.0  0.02184  0.58601  0.18852  1.0000
  H   H585      1.0  0.33423  0.54233  0.30492  1.0000
  S   S101      1.0  0.48902  0.00680  0.21264  1.0000
  H   H586      1.0  0.33219  0.98133  0.02516  1.0000
  H   H587      1.0  0.33926  0.54532  0.25676  1.0000
  H   H588      1.0  0.47627  0.82959  0.13737  1.0000
  S   S102      1.0  0.41837  0.03314  0.99614  1.0000
  H   H589      1.0  0.48552  0.68379  0.20973  1.0000
  C   C361      1.0  0.34818  0.99163  0.01113  1.0000
  H   H590      1.0  0.42086  0.90816  0.00782  1.0000
  H   H591      1.0  0.34374  0.92108  0.01304  1.0000
  H   H592      1.0  0.48984  0.90818  0.02779  1.0000
  H   H593      1.0  0.42456  0.94071  0.98814  1.0000
  H   H594      1.0  0.40293  0.54140  0.23164  1.0000
  H   H595      1.0  0.49438  0.62444  0.13743  1.0000
  H   H596      1.0  0.38563  0.98003  0.98443  1.0000
  H   H597      1.0  0.36791  0.54170  0.21395  1.0000
  H   H598      1.0  0.43150  0.53887  0.04738  1.0000
  Fe  Fe55      1.0  0.46043  0.00707  0.98062  1.0000
  H   H599      1.0  0.35486  0.95634  0.98139  1.0000
  C   C362      1.0  0.37909  0.53599  0.23358  1.0000
  H   H600      1.0  0.39044  0.55889  0.37542  1.0000
  H   H601      1.0  0.43397  0.80202  0.40387  1.0000
  H   H602      1.0  0.36013  0.62895  0.56392  1.0000
  Fe  Fe56      1.0  0.31666  0.56423  0.37862  1.0000
  S   S103      1.0  0.34234  0.60714  0.37332  1.0000
  H   H603      1.0  0.34345  0.58876  0.47560  1.0000
  H   H604      1.0  0.36448  0.63072  0.62501  1.0000
  H   H605      1.0  0.45612  0.90470  0.62190  1.0000
  S   S104      1.0  0.45325  0.96482  0.43794  1.0000
  H   H606      1.0  0.48251  0.59588  0.42713  1.0000
  H   H607      1.0  0.41574  0.00302  0.53479  1.0000
  H   H608      1.0  0.47529  0.01864  0.54619  1.0000
  C   C363      1.0  0.30821  0.58730  0.54943  1.0000
  H   H609      1.0  0.39936  0.57457  0.56134  1.0000
  H   H610      1.0  0.43705  0.84192  0.40818  1.0000
  Fe  Fe57      1.0  0.44554  0.99846  0.47243  1.0000
  H   H611      1.0  0.46888  0.64067  0.47225  1.0000
  C   C364      1.0  0.47284  0.81285  0.52417  1.0000
  C   C365      1.0  0.47130  0.87676  0.52622  1.0000
  S   S105      1.0  0.28853  0.55496  0.41550  1.0000
  C   C366      1.0  0.15040  0.55078  0.41681  1.0000
  C   C367      1.0  0.38132  0.60615  0.36571  1.0000
  C   C368      1.0  0.39985  0.57953  0.36839  1.0000
  C   C369      1.0  0.43077  0.57965  0.36211  1.0000
  C   C370      1.0  0.44351  0.60639  0.35337  1.0000
  C   C371      1.0  0.42507  0.63310  0.35100  1.0000
  C   C372      1.0  0.39411  0.63293  0.35713  1.0000
  H   H612      1.0  0.38444  0.60747  0.50743  1.0000
  H   H613      1.0  0.43738  0.60640  0.45241  1.0000
  H   H614      1.0  0.46572  0.64090  0.39570  1.0000
  Fe  Fe58      1.0  0.47552  0.93394  0.46952  1.0000
  H   H615      1.0  0.37466  0.65263  0.53839  1.0000
  H   H616      1.0  0.31545  0.59407  0.31649  1.0000
  H   H617      1.0  0.19864  0.55382  0.58424  1.0000
  Fe  Fe59      1.0  0.45134  0.69451  0.59613  1.0000
  C   C373      1.0  0.47693  0.81725  0.38965  1.0000
  S   S106      1.0  0.40938  0.66994  0.60673  1.0000
  H   H618      1.0  0.47323  0.81821  0.48075  1.0000
  C   C374      1.0  0.33987  0.57215  0.55431  1.0000
  S   S107      1.0  0.46982  0.80737  0.58020  1.0000
  H   H619      1.0  0.47112  0.67843  0.46088  1.0000
  H   H620      1.0  0.38593  0.63876  0.45678  1.0000
  H   H621      1.0  0.48378  0.79257  0.38839  1.0000
  H   H622      1.0  0.44338  0.00005  0.57896  1.0000
  S   S108      1.0  0.46634  0.73309  0.62218  1.0000
  H   H623      1.0  0.40438  0.68106  0.43374  1.0000
  S   S109      1.0  0.04377  0.53720  0.45442  1.0000
  Fe  Fe60      1.0  0.25418  0.53859  0.38610  1.0000
  H   H624      1.0  0.45666  0.81515  0.43079  1.0000
  S   S110      1.0  0.03814  0.54860  0.52033  1.0000
  C   C375      1.0  0.41051  0.56631  0.61852  1.0000
  C   C376      1.0  0.43627  0.57969  0.60868  1.0000
  C   C377      1.0  0.43612  0.61133  0.60450  1.0000
  C   C378      1.0  0.41034  0.62994  0.61061  1.0000
  C   C379      1.0  0.38455  0.61652  0.62028  1.0000
  S   S111      1.0  0.48238  0.60532  0.34539  1.0000
  H   H625      1.0  0.45640  0.56549  0.60418  1.0000
  H   H626      1.0  0.45599  0.62122  0.59663  1.0000
  C   C380      1.0  0.47200  0.86197  0.50097  1.0000
  C   C381      1.0  0.47082  0.85971  0.55028  1.0000
  H   H627      1.0  0.39924  0.62412  0.55312  1.0000
  H   H628      1.0  0.48368  0.80217  0.64254  1.0000
  H   H629      1.0  0.41438  0.02731  0.33508  1.0000
  H   H630      1.0  0.39258  0.99051  0.56139  1.0000
  C   C382      1.0  0.44989  0.81958  0.40949  1.0000
  C   C383      1.0  0.45328  0.89332  0.64170  1.0000
  H   H631      1.0  0.48190  0.87590  0.37870  1.0000
  H   H632      1.0  0.37995  0.65365  0.35509  1.0000
  S   S112      1.0  0.20349  0.54949  0.38795  1.0000
  C   C384      1.0  0.39297  0.56204  0.54276  1.0000
  H   H633      1.0  0.21911  0.54359  0.55301  1.0000
  H   H634      1.0  0.43638  0.02711  0.36465  1.0000
  H   H635      1.0  0.45730  0.70394  0.40107  1.0000
  H   H636      1.0  0.30816  0.60927  0.53877  1.0000
  C   C385      1.0  0.47185  0.86256  0.64258  1.0000
  C   C386      1.0  0.18160  0.54343  0.41740  1.0000
  C   C387      1.0  0.38459  0.58486  0.62418  1.0000
  S   S113      1.0  0.46340  0.96573  0.50416  1.0000
  N   N28       1.0  0.36296  0.57449  0.53203  1.0000
  H   H637      1.0  0.44234  0.67703  0.50233  1.0000
  H   H638      1.0  0.34824  0.58050  0.57413  1.0000
  H   H639      1.0  0.42231  0.72310  0.40976  1.0000
  C   C388      1.0  0.39358  0.62440  0.43934  1.0000
  H   H640      1.0  0.10817  0.55161  0.43873  1.0000
  H   H641      1.0  0.31145  0.57827  0.49566  1.0000
  H   H642      1.0  0.19165  0.57452  0.55388  1.0000
  H   H643      1.0  0.41650  0.65167  0.48858  1.0000
  C   C389      1.0  0.47236  0.64474  0.41713  1.0000
  H   H644      1.0  0.44920  0.71549  0.43596  1.0000
  N   N29       1.0  0.44478  0.65062  0.43480  1.0000
  C   C390      1.0  0.47149  0.82771  0.54938  1.0000
  H   H645      1.0  0.15090  0.54165  0.56346  1.0000
  C   C391      1.0  0.19703  0.55130  0.56191  1.0000
  H   H646      1.0  0.14935  0.54235  0.35485  1.0000
  S   S114      1.0  0.28034  0.55233  0.34919  1.0000
  C   C392      1.0  0.42518  0.67557  0.42175  1.0000
  C   C393      1.0  0.35515  0.55533  0.50769  1.0000
  H   H647      1.0  0.34625  0.61748  0.51420  1.0000
  S   S115      1.0  0.45768  0.71967  0.55702  1.0000
  S   S116      1.0  0.47115  0.88264  0.47017  1.0000
  H   H648      1.0  0.46960  0.87141  0.56965  1.0000
  C   C394      1.0  0.33325  0.57005  0.48668  1.0000
  H   H649      1.0  0.38256  0.63349  0.42064  1.0000
  H   H650      1.0  0.47055  0.90135  0.52722  1.0000
  H   H651      1.0  0.41127  0.56521  0.52771  1.0000
  H   H652      1.0  0.43458  0.65381  0.34419  1.0000
  H   H653      1.0  0.41730  0.66774  0.40158  1.0000
  C   C395      1.0  0.36689  0.60694  0.52359  1.0000
  H   H654      1.0  0.44896  0.00343  0.33647  1.0000
  H   H655      1.0  0.29751  0.59287  0.56940  1.0000
  C   C396      1.0  0.13208  0.54563  0.43948  1.0000
  C   C397      1.0  0.37571  0.62900  0.54632  1.0000
  H   H656      1.0  0.29373  0.57162  0.53843  1.0000
  H   H657      1.0  0.38516  0.60135  0.44230  1.0000
  C   C398      1.0  0.43977  0.70606  0.41712  1.0000
  H   H658      1.0  0.41741  0.69066  0.47639  1.0000
  H   H659      1.0  0.49231  0.75622  0.46243  1.0000
  Fe  Fe61      1.0  0.47748  0.75594  0.58283  1.0000
  H   H660      1.0  0.43179  0.60799  0.41682  1.0000
  H   H661      1.0  0.44494  0.55893  0.36418  1.0000
  Fe  Fe62      1.0  0.00814  0.55543  0.48372  1.0000
  S   S117      1.0  0.48899  0.69551  0.34242  1.0000
  H   H662      1.0  0.48775  0.93706  0.32292  1.0000
  C   C399      1.0  0.43106  0.67029  0.48327  1.0000
  C   C400      1.0  0.45546  0.65976  0.46255  1.0000
  H   H663      1.0  0.42896  0.88908  0.64356  1.0000
  C   C401      1.0  0.42823  0.62147  0.43596  1.0000
  C   C402      1.0  0.47286  0.82993  0.50009  1.0000
  H   H664      1.0  0.13364  0.58274  0.32543  1.0000
  H   H665      1.0  0.36474  0.57495  0.63208  1.0000
  H   H666      1.0  0.48637  0.66489  0.41674  1.0000
  C   C403      1.0  0.42702  0.01988  0.57566  1.0000
  H   H667      1.0  0.14028  0.56091  0.39889  1.0000
  S   S118      1.0  0.40154  0.02648  0.47918  1.0000
  H   H668      1.0  0.47323  0.78824  0.52322  1.0000
  C   C404      1.0  0.40438  0.01043  0.55394  1.0000
  H   H669      1.0  0.46816  0.82354  0.36914  1.0000
  C   C405      1.0  0.13673  0.55999  0.31550  1.0000
  C   C406      1.0  0.43796  0.02591  0.34215  1.0000
  H   H670      1.0  0.32833  0.55267  0.47108  1.0000
  H   H671      1.0  0.37583  0.54802  0.49593  1.0000
  H   H672      1.0  0.47413  0.87221  0.41379  1.0000
  H   H673      1.0  0.48959  0.95410  0.37117  1.0000
  H   H674      1.0  0.19828  0.53815  0.32342  1.0000
  H   H675      1.0  0.00032  0.56815  0.38425  1.0000
  S   S119      1.0  0.48940  0.01985  0.46654  1.0000
  H   H676      1.0  0.46577  0.85050  0.62359  1.0000
  H   H677      1.0  0.41414  0.02218  0.59490  1.0000
  H   H678      1.0  0.38686  0.02875  0.54974  1.0000
  H   H679      1.0  0.35974  0.56112  0.32584  1.0000
  H   H680      1.0  0.45220  0.02545  0.62614  1.0000
  H   H681      1.0  0.46394  0.64578  0.64467  1.0000
  H   H682      1.0  0.48167  0.94519  0.59463  1.0000
  H   H683      1.0  0.33602  0.54784  0.55848  1.0000
  H   H684      1.0  0.11173  0.53699  0.34460  1.0000
  H   H685      1.0  0.99570  0.56401  0.42051  1.0000
  S   S120      1.0  0.49361  0.97296  0.64586  1.0000
  C   C407      1.0  0.49225  0.86868  0.39838  1.0000
  C   C408      1.0  0.49391  0.61753  0.42545  1.0000
  H   H686      1.0  0.45266  0.69922  0.89687  1.0000
  H   H687      1.0  0.02397  0.55516  0.68012  1.0000
  H   H688      1.0  0.45710  0.70957  0.93150  1.0000
  Fe  Fe63      1.0  0.31365  0.55670  0.87574  1.0000
  S   S121      1.0  0.33926  0.59893  0.86724  1.0000
  H   H689      1.0  0.40800  0.59384  0.80709  1.0000
  Fe  Fe64      1.0  0.48624  0.94169  0.97150  1.0000
  H   H690      1.0  0.39600  0.61170  0.93473  1.0000
  H   H691      1.0  0.11502  0.57807  0.83974  1.0000
  C   C409      1.0  0.12963  0.55772  0.83384  1.0000
  C   C410      1.0  0.36586  0.55893  0.97261  1.0000
  C   C411      1.0  0.47632  0.64643  0.66424  1.0000
  C   C412      1.0  0.14694  0.54485  0.91610  1.0000
  H   H692      1.0  0.40663  0.60188  0.70433  1.0000
  H   H693      1.0  0.43953  0.58830  0.72400  1.0000
  S   S122      1.0  0.48425  0.01427  0.71501  1.0000
  H   H694      1.0  0.40720  0.70246  0.68916  1.0000
  H   H695      1.0  0.40925  0.64305  0.91693  1.0000
  C   C413      1.0  0.41669  0.57073  0.80083  1.0000
  H   H696      1.0  0.40086  0.57402  0.76000  1.0000
  H   H697      1.0  0.44041  0.57281  0.79427  1.0000
  C   C414      1.0  0.17810  0.53724  0.91692  1.0000
  H   H698      1.0  0.10451  0.54626  0.93789  1.0000
  H   H699      1.0  0.34811  0.56663  0.95792  1.0000
  H   H700      1.0  0.30499  0.56257  0.78515  1.0000
  C   C415      1.0  0.44978  0.69114  0.91794  1.0000
  C   C416      1.0  0.42996  0.69101  0.68645  1.0000
  N   N30       1.0  0.46512  0.64400  0.94798  1.0000
  H   H701      1.0  0.44974  0.60449  0.92676  1.0000
  C   C417      1.0  0.42924  0.58993  0.70357  1.0000
  H   H702      1.0  0.41069  0.53637  0.77028  1.0000
  C   C418      1.0  0.45614  0.66584  0.97080  1.0000
  H   H703      1.0  0.43164  0.63659  0.73946  1.0000
  C   C419      1.0  0.37908  0.59868  0.86735  1.0000
  C   C420      1.0  0.39317  0.62490  0.85916  1.0000
  C   C421      1.0  0.42481  0.62518  0.85791  1.0000
  C   C422      1.0  0.44264  0.59918  0.86488  1.0000
  C   C423      1.0  0.42856  0.57320  0.87370  1.0000
  C   C424      1.0  0.39693  0.57291  0.87492  1.0000
  H   H704      1.0  0.37952  0.64498  0.85337  1.0000
  H   H705      1.0  0.43533  0.64533  0.85110  1.0000
  H   H706      1.0  0.41028  0.89245  0.96350  1.0000
  H   H707      1.0  0.48497  0.85536  0.92619  1.0000
  H   H708      1.0  0.41544  0.65098  0.66621  1.0000
  H   H709      1.0  0.43892  0.69940  0.66706  1.0000
  C   C425      1.0  0.46961  0.66144  0.92200  1.0000
  H   H710      1.0  0.46651  0.64669  0.90387  1.0000
  H   H711      1.0  0.35838  0.59500  0.80601  1.0000
  H   H712      1.0  0.38640  0.55267  0.88147  1.0000
  C   C426      1.0  0.45049  0.60413  0.68319  1.0000
  C   C427      1.0  0.45379  0.64667  0.73982  1.0000
  N   N31       1.0  0.36580  0.55331  0.78270  1.0000
  C   C428      1.0  0.42724  0.65624  0.68546  1.0000
  C   C429      1.0  0.45592  0.03382  0.77969  1.0000
  H   H713      1.0  0.47173  0.58951  0.68399  1.0000
  S   S123      1.0  0.03704  0.53999  0.95913  1.0000
  H   H714      1.0  0.13409  0.55950  0.81181  1.0000
  H   H715      1.0  0.47246  0.68414  0.97204  1.0000
  S   S124      1.0  0.28633  0.54977  0.91356  1.0000
  H   H716      1.0  0.47505  0.81900  0.91628  1.0000
  S   S125      1.0  0.47582  0.89180  0.97199  1.0000
  H   H717      1.0  0.35424  0.60012  0.77095  1.0000
  H   H718      1.0  0.41109  0.65089  0.70158  1.0000
  C   C430      1.0  0.44257  0.62005  0.94381  1.0000
  H   H719      1.0  0.44092  0.60065  0.66263  1.0000
  C   C431      1.0  0.41020  0.63156  0.93684  1.0000
  C   C432      1.0  0.46154  0.85479  0.88841  1.0000
  S   S126      1.0  0.48241  0.59789  0.86249  1.0000
  H   H720      1.0  0.48634  0.66257  0.71225  1.0000
  H   H721      1.0  0.45090  0.67129  0.74514  1.0000
  H   H722      1.0  0.43391  0.67780  0.96703  1.0000
  H   H723      1.0  0.30363  0.60257  0.77992  1.0000
  S   S127      1.0  0.48732  0.68572  0.84605  1.0000
  C   C433      1.0  0.31505  0.58382  0.79168  1.0000
  H   H724      1.0  0.34087  0.54128  0.71604  1.0000
  H   H725      1.0  0.48386  0.89742  0.69781  1.0000
  H   H726      1.0  0.46258  0.84917  0.65944  1.0000
  C   C434      1.0  0.39858  0.55798  0.77710  1.0000
  H   H727      1.0  0.00537  0.59198  0.68249  1.0000
  S   S128      1.0  0.46195  0.97593  0.94411  1.0000
  C   C435      1.0  0.34958  0.58394  0.78750  1.0000
  C   C436      1.0  0.39341  0.90949  0.97217  1.0000
  C   C437      1.0  0.47306  0.64198  0.71374  1.0000
  H   H728      1.0  0.42699  0.03098  0.81479  1.0000
  H   H729      1.0  0.39982  0.64659  0.95284  1.0000
  H   H730      1.0  0.32920  0.57396  0.73574  1.0000
  H   H731      1.0  0.13721  0.55521  0.89812  1.0000
  H   H732      1.0  0.44495  0.01276  0.77361  1.0000
  H   H733      1.0  0.45943  0.03406  0.86561  1.0000
  H   H734      1.0  0.42548  0.68850  0.92112  1.0000
  H   H735      1.0  0.38444  0.57453  0.97116  1.0000
  H   H736      1.0  0.49107  0.94414  0.82784  1.0000
  H   H737      1.0  0.48258  0.67042  0.66666  1.0000
  H   H738      1.0  0.30930  0.58761  0.81343  1.0000
  H   H739      1.0  0.01626  0.57556  0.64961  1.0000
  N   N32       1.0  0.45653  0.63724  0.68743  1.0000
  H   H740      1.0  0.44153  0.86408  0.89999  1.0000
  H   H741      1.0  0.44220  0.55301  0.87921  1.0000
  H   H742      1.0  0.46645  0.63619  0.75714  1.0000
  H   H743      1.0  0.44418  0.69818  0.70346  1.0000
  C   C438      1.0  0.48467  0.84010  0.90838  1.0000
  H   H744      1.0  0.45873  0.90913  0.65826  1.0000
  H   H745      1.0  0.49396  0.75715  0.95853  1.0000
  H   H746      1.0  0.44150  0.60529  0.96194  1.0000
  H   H747      1.0  0.49416  0.73481  0.67798  1.0000
  H   H748      1.0  0.49318  0.66860  0.92040  1.0000
  H   H749      1.0  0.42569  0.56620  0.69686  1.0000
  H   H750      1.0  0.37336  0.89717  0.97794  1.0000
  H   H751      1.0  0.47062  0.87386  0.87701  1.0000
  C   C439      1.0  0.00711  0.57088  0.66998  1.0000
  S   S129      1.0  0.27650  0.54359  0.84771  1.0000
  H   H752      1.0  0.45345  0.83763  0.87393  1.0000
  S   S130      1.0  0.20049  0.54391  0.88792  1.0000
  H   H753      1.0  0.38742  0.92582  0.95571  1.0000
  H   H754      1.0  0.49278  0.61439  0.97431  1.0000
  H   H755      1.0  0.47727  0.74024  0.72587  1.0000
  C   C440      1.0  0.34787  0.55638  0.73280  1.0000
  H   H756      1.0  0.46553  0.02673  0.82137  1.0000
  H   H757      1.0  0.15093  0.55919  0.84533  1.0000
  C   C441      1.0  0.12835  0.53986  0.93868  1.0000
  H   H758      1.0  0.36847  0.56710  0.72600  1.0000
  H   H759      1.0  0.41747  0.55540  0.81856  1.0000
  H   H760      1.0  0.36825  0.54663  0.82628  1.0000
  H   H761      1.0  0.48057  0.02986  0.77657  1.0000
  H   H762      1.0  0.48993  0.62273  0.71739  1.0000
  C   C442      1.0  0.35328  0.53708  0.75850  1.0000
  H   H763      1.0  0.04872  0.53654  0.86415  1.0000
  H   H764      1.0  0.98964  0.39781  0.98383  1.0000
  H   H765      1.0  0.82322  0.07218  0.17132  1.0000
  H   H766      1.0  0.88238  0.15197  0.25508  1.0000
  S   S131      1.0  0.83978  0.10246  0.10145  1.0000
  S   S132      1.0  0.69921  0.04627  0.09727  1.0000
  H   H767      1.0  0.97574  0.51870  0.17279  1.0000
  C   C443      1.0  0.92334  0.08039  0.18243  1.0000
  Fe  Fe65      1.0  0.95566  0.50184  0.24694  1.0000
  H   H768      1.0  0.97090  0.32247  0.27229  1.0000
  H   H769      1.0  0.93025  0.08735  0.20299  1.0000
  Fe  Fe66      1.0  0.98077  0.43620  0.25575  1.0000
  H   H770      1.0  0.54980  0.07457  0.04851  1.0000
  H   H771      1.0  0.94358  0.11381  0.00543  1.0000
  H   H772      1.0  0.93038  0.09200  0.04520  1.0000
  S   S133      1.0  0.96567  0.46222  0.21835  1.0000
  H   H773      1.0  0.96944  0.15786  0.20435  1.0000
  H   H774      1.0  0.91961  0.12722  0.06246  1.0000
  C   C444      1.0  0.53398  0.07914  0.03150  1.0000
  H   H775      1.0  0.84660  0.10390  0.16751  1.0000
  H   H776      1.0  0.94263  0.05449  0.10662  1.0000
  C   C445      1.0  0.90409  0.20062  0.29251  1.0000
  H   H777      1.0  0.54548  0.09369  0.01685  1.0000
  H   H778      1.0  0.95061  0.34281  0.19703  1.0000
  N   N33       1.0  0.94352  0.16085  0.27242  1.0000
  H   H779      1.0  0.98596  0.16525  0.25112  1.0000
  H   H780      1.0  0.85222  0.04291  0.01065  1.0000
  H   H781      1.0  0.90553  0.06514  0.23601  1.0000
  H   H782      1.0  0.91431  0.14310  0.00711  1.0000
  H   H783      1.0  0.87050  0.09364  0.20780  1.0000
  C   C446      1.0  0.96049  0.35046  0.17775  1.0000
  H   H784      1.0  0.97411  0.11486  0.30708  1.0000
  H   H785      1.0  0.94427  0.34539  0.16146  1.0000
  H   H786      1.0  0.91233  0.13725  0.29738  1.0000
  C   C447      1.0  0.98568  0.13589  0.30249  1.0000
  C   C448      1.0  0.86084  0.07249  0.20002  1.0000
  S   S134      1.0  0.78077  0.04881  0.13035  1.0000
  C   C449      1.0  0.87902  0.10168  0.10746  1.0000
  C   C450      1.0  0.89226  0.12884  0.11462  1.0000
  H   H787      1.0  0.87825  0.14969  0.11678  1.0000
  H   H788      1.0  0.95277  0.19160  0.21950  1.0000
  C   C451      1.0  0.97227  0.36678  0.29118  1.0000
  C   C452      1.0  0.89730  0.07484  0.10484  1.0000
  H   H789      1.0  0.49731  0.08006  0.13168  1.0000
  C   C453      1.0  0.92590  0.19100  0.26918  1.0000
  H   H790      1.0  0.97812  0.34652  0.98057  1.0000
  H   H791      1.0  0.64009  0.04645  0.99251  1.0000
  H   H792      1.0  0.85454  0.05413  0.25465  1.0000
  S   S135      1.0  0.98207  0.50945  0.99243  1.0000
  C   C454      1.0  0.97164  0.33486  0.29125  1.0000
  C   C455      1.0  0.50380  0.08579  0.30116  1.0000
  H   H793      1.0  0.88415  0.11247  0.26281  1.0000
  H   H794      1.0  0.91195  0.19135  0.25055  1.0000
  H   H795      1.0  0.76528  0.04331  0.22438  1.0000
  Fe  Fe67      1.0  0.51001  0.05174  0.21391  1.0000
  H   H796      1.0  0.88741  0.05381  0.09927  1.0000
  S   S136      1.0  0.91247  0.53153  0.24217  1.0000
  H   H797      1.0  0.82679  0.06588  0.99075  1.0000
  H   H798      1.0  0.63551  0.05098  0.10884  1.0000
  H   H799      1.0  0.86340  0.07934  0.99981  1.0000
  H   H800      1.0  0.70167  0.05862  0.27608  1.0000
  H   H801      1.0  0.53006  0.05759  0.02066  1.0000
  H   H802      1.0  0.89127  0.22208  0.28688  1.0000
  H   H803      1.0  0.98606  0.25772  0.01236  1.0000
  H   H804      1.0  0.92562  0.19368  0.01641  1.0000
  H   H805      1.0  0.92933  0.49206  0.17162  1.0000
  H   H806      1.0  0.94166  0.20962  0.26657  1.0000
  H   H807      1.0  0.93518  0.18095  0.07729  1.0000
  S   S137      1.0  0.78100  0.05161  0.06379  1.0000
  H   H808      1.0  0.93340  0.15030  0.12446  1.0000
  H   H809      1.0  0.91003  0.52118  0.15259  1.0000
  H   H810      1.0  0.51413  0.10766  0.29683  1.0000
  C   C456      1.0  0.84685  0.07911  0.17182  1.0000
  S   S138      1.0  0.98340  0.19173  0.12548  1.0000
  C   C457      1.0  0.97703  0.14477  0.04853  1.0000
  H   H811      1.0  0.84143  0.06918  0.21379  1.0000
  H   H812      1.0  0.97004  0.12968  0.24593  1.0000
  C   C458      1.0  0.91932  0.11514  0.04288  1.0000
  Fe  Fe68      1.0  0.81384  0.05955  0.09766  1.0000
  C   C459      1.0  0.67870  0.04099  0.12760  1.0000
  H   H813      1.0  0.90709  0.12528  0.23598  1.0000
  C   C460      1.0  0.93264  0.51020  0.15652  1.0000
  C   C461      1.0  0.93322  0.13203  0.01890  1.0000
  H   H814      1.0  0.94404  0.07905  0.16967  1.0000
  S   S139      1.0  0.97186  0.38602  0.25969  1.0000
  C   C462      1.0  0.94118  0.18558  0.03280  1.0000
  H   H815      1.0  0.93651  0.11277  0.27744  1.0000
  C   C463      1.0  0.97567  0.15894  0.00095  1.0000
  C   C464      1.0  0.94190  0.10255  0.11574  1.0000
  H   H816      1.0  0.90781  0.09827  0.17349  1.0000
  H   H817      1.0  0.91438  0.21201  0.06233  1.0000
  C   C465      1.0  0.64705  0.04449  0.12737  1.0000
  C   C466      1.0  0.87301  0.03624  0.25241  1.0000
  H   H818      1.0  0.88735  0.18350  0.29663  1.0000
  H   H819      1.0  0.98093  0.25665  0.24649  1.0000
  H   H820      1.0  0.85895  0.06739  0.15477  1.0000
  C   C467      1.0  0.89794  0.13141  0.25626  1.0000
  S   S140      1.0  0.54622  0.03635  0.24352  1.0000
  S   S141      1.0  0.98136  0.10200  0.12045  1.0000
  C   C468      1.0  0.99426  0.46147  0.11397  1.0000
  C   C469      1.0  0.90946  0.04906  0.18212  1.0000
  H   H821      1.0  0.97650  0.18386  0.29599  1.0000
  C   C470      1.0  0.92860  0.07531  0.10894  1.0000
  H   H822      1.0  0.98652  0.30913  0.16851  1.0000
  C   C471      1.0  0.92216  0.18779  0.05898  1.0000
  H   H823      1.0  0.63916  0.04893  0.02863  1.0000
  C   C472      1.0  0.85106  0.05928  0.99353  1.0000
  C   C473      1.0  0.92355  0.12928  0.11887  1.0000
  H   H824      1.0  0.89526  0.11156  0.03850  1.0000
  N   N34       1.0  0.95622  0.15487  0.02573  1.0000
  H   H825      1.0  0.51027  0.11869  0.04807  1.0000
  H   H826      1.0  0.99042  0.45620  0.15740  1.0000
  C   C474      1.0  0.92325  0.13501  0.27704  1.0000
  C   C475      1.0  0.95314  0.16634  0.22022  1.0000
  H   H827      1.0  0.90153  0.17493  0.05719  1.0000
  H   H828      1.0  0.98637  0.13676  0.99387  1.0000
  H   H829      1.0  0.98357  0.09669  0.03499  1.0000
  C   C476      1.0  0.96314  0.16330  0.29721  1.0000
  H   H830      1.0  0.97395  0.44993  0.10964  1.0000
  H   H831      1.0  0.96192  0.37555  0.17828  1.0000
  H   H832      1.0  0.60581  0.04208  0.15053  1.0000
  S   S142      1.0  0.96650  0.47434  0.28448  1.0000
  H   H833      1.0  0.91618  0.20565  0.31142  1.0000
  H   H834      1.0  0.95839  0.20294  0.03461  1.0000
  C   C477      1.0  0.63014  0.03953  0.15100  1.0000
  C   C478      1.0  0.96406  0.15452  0.24816  1.0000
  H   H835      1.0  0.52457  0.06425  0.08562  1.0000
  H   H836      1.0  0.96482  0.14118  0.06773  1.0000
  H   H837      1.0  0.94187  0.49864  0.13807  1.0000
  C   C479      1.0  0.89574  0.04347  0.22989  1.0000
  H   H838      1.0  0.93075  0.15893  0.21440  1.0000
  H   H839      1.0  0.99253  0.16307  0.05353  1.0000
  H   H840      1.0  0.51285  0.06924  0.28577  1.0000
  C   C480      1.0  0.99115  0.33360  0.17121  1.0000
  H   H841      1.0  0.67480  0.04388  0.01064  1.0000
  H   H842      1.0  0.51261  0.10202  0.09251  1.0000
  C   C481      1.0  0.95459  0.53253  0.16837  1.0000
  C   C482      1.0  0.50376  0.07938  0.08786  1.0000
  H   H843      1.0  0.94597  0.52615  0.10252  1.0000
  C   C483      1.0  0.50413  0.09590  0.04068  1.0000
  S   S143      1.0  0.53945  0.04218  0.17712  1.0000
  H   H844      1.0  0.90315  0.04404  0.16078  1.0000
  H   H845      1.0  0.98642  0.33177  0.22620  1.0000
  N   N35       1.0  0.88343  0.04564  0.20141  1.0000
  H   H846      1.0  0.97978  0.53350  0.08492  1.0000
  C   C484      1.0  0.65106  0.03742  0.01125  1.0000
  Fe  Fe69      1.0  0.74995  0.03617  0.09675  1.0000
  S   S144      1.0  0.90787  0.17472  0.36305  1.0000
  H   H847      1.0  0.86191  0.07915  0.34035  1.0000
  H   H848      1.0  0.90403  0.06395  0.42116  1.0000
  S   S145      1.0  0.95775  0.23269  0.40434  1.0000
  H   H849      1.0  0.97511  0.52452  0.32964  1.0000
  C   C485      1.0  0.90927  0.13505  0.35652  1.0000
  H   H850      1.0  0.98696  0.51933  0.37729  1.0000
  H   H851      1.0  0.80095  0.08711  0.45757  1.0000
  H   H852      1.0  0.95552  0.49857  0.36876  1.0000
  C   C486      1.0  0.92919  0.07654  0.61055  1.0000
  H   H853      1.0  0.87875  0.15033  0.62180  1.0000
  H   H854      1.0  0.93910  0.09219  0.51694  1.0000
  C   C487      1.0  0.94243  0.10335  0.61874  1.0000
  C   C488      1.0  0.93597  0.08519  0.35501  1.0000
  H   H855      1.0  0.94533  0.19457  0.48675  1.0000
  H   H856      1.0  0.96496  0.19030  0.55611  1.0000
  H   H857      1.0  0.90179  0.17865  0.57943  1.0000
  S   S146      1.0  0.96523  0.23264  0.33795  1.0000
  H   H858      1.0  0.91518  0.49081  0.42582  1.0000
  Fe  Fe70      1.0  0.81435  0.06112  0.59953  1.0000
  H   H859      1.0  0.94898  0.47847  0.44281  1.0000
  C   C489      1.0  0.88261  0.08949  0.34551  1.0000
  H   H860      1.0  0.95663  0.12714  0.36447  1.0000
  C   C490      1.0  0.88266  0.12123  0.34947  1.0000
  H   H861      1.0  0.98418  0.10216  0.54439  1.0000
  H   H862      1.0  0.92783  0.20450  0.59246  1.0000
  H   H863      1.0  0.98130  0.16499  0.51661  1.0000
  H   H864      1.0  0.86683  0.04318  0.49518  1.0000
  H   H865      1.0  0.98367  0.32895  0.45985  1.0000
  C   C491      1.0  0.94007  0.48916  0.42388  1.0000
  C   C492      1.0  0.63326  0.05085  0.54570  1.0000
  S   S147      1.0  0.84027  0.10386  0.60487  1.0000
  S   S148      1.0  0.96998  0.31467  0.37183  1.0000
  C   C493      1.0  0.90922  0.07126  0.34865  1.0000
  S   S149      1.0  0.78298  0.05379  0.56450  1.0000
  C   C494      1.0  0.88814  0.12253  0.42478  1.0000
  H   H866      1.0  0.98680  0.25741  0.51436  1.0000
  C   C495      1.0  0.79906  0.08242  0.43557  1.0000
  H   H867      1.0  0.51145  0.07858  0.32164  1.0000
  C   C496      1.0  0.89283  0.12969  0.61852  1.0000
  C   C497      1.0  0.97141  0.33434  0.34059  1.0000
  H   H868      1.0  0.96806  0.39396  0.43913  1.0000
  H   H869      1.0  0.61482  0.06822  0.55051  1.0000
  H   H870      1.0  0.91187  0.21123  0.55982  1.0000
  H   H871      1.0  0.90845  0.08282  0.53809  1.0000
  C   C498      1.0  0.87961  0.10295  0.61014  1.0000
  C   C499      1.0  0.86231  0.07571  0.46195  1.0000
  C   C500      1.0  0.96735  0.37456  0.45327  1.0000
  H   H872      1.0  0.85126  0.09691  0.47086  1.0000
  C   C501      1.0  0.89793  0.07635  0.60613  1.0000
  H   H873      1.0  0.97801  0.51698  0.42282  1.0000
  Fe  Fe71      1.0  0.97705  0.26302  0.37250  1.0000
  H   H874      1.0  0.50335  0.06612  0.55234  1.0000
  H   H875      1.0  0.97115  0.37876  0.35956  1.0000
  H   H876      1.0  0.64682  0.05932  0.52868  1.0000
  Fe  Fe72      1.0  0.95049  0.20008  0.36965  1.0000
  C   C502      1.0  0.97263  0.38246  0.31598  1.0000
  H   H877      1.0  0.90640  0.11215  0.41177  1.0000
  N   N36       1.0  0.85706  0.07495  0.43168  1.0000
  H   H878      1.0  0.89544  0.12274  0.44624  1.0000
  C   C503      1.0  0.91846  0.10188  0.52720  1.0000
  C   C504      1.0  0.82675  0.06378  0.42408  1.0000
  H   H879      1.0  0.79491  0.10411  0.42447  1.0000
  H   H880      1.0  0.94329  0.36921  0.45494  1.0000
  H   H881      1.0  0.91219  0.21570  0.49993  1.0000
  H   H882      1.0  0.77873  0.06919  0.43257  1.0000
  Fe  Fe73      1.0  0.75037  0.03826  0.59620  1.0000
  H   H883      1.0  0.86188  0.13510  0.34742  1.0000
  H   H884      1.0  0.88682  0.07673  0.46627  1.0000
  H   H885      1.0  0.88808  0.05569  0.59944  1.0000
  C   C505      1.0  0.97180  0.36632  0.34056  1.0000
  H   H886      1.0  0.97224  0.46119  0.60883  1.0000
  S   S150      1.0  0.98190  0.10273  0.62298  1.0000
  S   S151      1.0  0.98508  0.19268  0.62699  1.0000
  H   H887      1.0  0.88497  0.14667  0.41828  1.0000
  H   H888      1.0  0.82913  0.05636  0.48931  1.0000
  H   H889      1.0  0.82421  0.06307  0.40158  1.0000
  C   C506      1.0  0.93601  0.11692  0.35893  1.0000
  H   H890      1.0  0.63816  0.06758  0.61102  1.0000
  H   H891      1.0  0.97333  0.33656  0.42571  1.0000
  N   N37       1.0  0.94053  0.15403  0.53744  1.0000
  C   C507      1.0  0.92525  0.12680  0.54813  1.0000
  C   C508      1.0  0.94751  0.17415  0.56130  1.0000
  C   C509      1.0  0.99352  0.47079  0.61348  1.0000
  C   C510      1.0  0.91988  0.17045  0.51751  1.0000
  C   C511      1.0  0.64789  0.05399  0.62732  1.0000
  C   C512      1.0  0.92042  0.19300  0.57369  1.0000
  H   H892      1.0  0.90536  0.51348  0.38373  1.0000
  C   C513      1.0  0.93157  0.19981  0.50526  1.0000
  H   H893      1.0  0.93888  0.11553  0.56445  1.0000
  H   H894      1.0  0.90336  0.13394  0.55792  1.0000
  H   H895      1.0  0.95777  0.16035  0.57811  1.0000
  H   H896      1.0  0.97285  0.40705  0.31622  1.0000
  H   H897      1.0  0.94527  0.21256  0.51961  1.0000
  S   S152      1.0  0.70031  0.05207  0.59708  1.0000
  H   H898      1.0  0.91572  0.15552  0.49977  1.0000
  H   H899      1.0  0.89695  0.17559  0.52619  1.0000
  C   C514      1.0  0.97163  0.31870  0.31578  1.0000
  C   C515      1.0  0.67846  0.04377  0.62602  1.0000
  H   H900      1.0  0.95667  0.07128  0.35748  1.0000
  C   C516      1.0  0.88135  0.05551  0.41731  1.0000
  H   H901      1.0  0.84067  0.12246  0.43068  1.0000
  H   H902      1.0  0.94327  0.05592  0.60723  1.0000
  H   H903      1.0  0.90160  0.11015  0.51204  1.0000
  H   H904      1.0  0.85293  0.10742  0.39874  1.0000
  H   H905      1.0  0.97433  0.38126  0.47394  1.0000
  C   C517      1.0  0.85817  0.10694  0.42084  1.0000
  S   S153      1.0  0.98690  0.51090  0.48789  1.0000
  H   H906      1.0  0.94705  0.47355  0.40696  1.0000
  H   H907      1.0  0.94934  0.16626  0.31598  1.0000
  C   C518      1.0  0.92410  0.12993  0.62281  1.0000
  C   C519      1.0  0.98565  0.34579  0.44331  1.0000
  H   H908      1.0  0.64709  0.04955  0.56419  1.0000
  C   C520      1.0  0.95312  0.52073  0.42089  1.0000
  C   C521      1.0  0.96955  0.14456  0.52302  1.0000
  S   S154      1.0  0.77990  0.05014  0.63088  1.0000
  H   H909      1.0  0.93397  0.15065  0.62932  1.0000
  H   H910      1.0  0.95578  0.53202  0.60488  1.0000
  C   C522      1.0  0.96269  0.52212  0.37212  1.0000
  H   H911      1.0  0.82442  0.04004  0.43030  1.0000
  H   H912      1.0  0.94130  0.50893  0.64046  1.0000
  H   H913      1.0  0.97114  0.29418  0.31543  1.0000
  H   H914      1.0  0.96526  0.13224  0.50374  1.0000
  H   H915      1.0  0.49726  0.05696  0.51775  1.0000
  C   C523      1.0  0.85054  0.04921  0.47875  1.0000
  H   H916      1.0  0.87787  0.05667  0.39500  1.0000
  H   H917      1.0  0.99224  0.23959  0.46650  1.0000
  C   C524      1.0  0.99250  0.12481  0.53965  1.0000
  H   H918      1.0  0.94638  0.53448  0.43918  1.0000
  C   C525      1.0  0.83461  0.08350  0.68091  1.0000
  S   S155      1.0  0.92047  0.18160  0.87097  1.0000
  H   H919      1.0  0.97069  0.30148  0.81786  1.0000
  H   H920      1.0  0.81407  0.10773  0.90845  1.0000
  C   C526      1.0  0.97360  0.32569  0.81743  1.0000
  H   H921      1.0  0.51712  0.10010  0.79330  1.0000
  S   S156      1.0  0.53498  0.04465  0.67573  1.0000
  C   C527      1.0  0.97942  0.15363  0.75455  1.0000
  Fe  Fe74      1.0  0.95195  0.50626  0.74123  1.0000
  N   N38       1.0  0.95871  0.15722  0.77883  1.0000
  H   H922      1.0  0.98790  0.33460  0.73087  1.0000
  S   S157      1.0  0.54507  0.04153  0.74196  1.0000
  H   H923      1.0  0.84659  0.10487  0.67982  1.0000
  C   C528      1.0  0.92854  0.49157  0.91484  1.0000
  H   H924      1.0  0.96550  0.37400  0.68023  1.0000
  S   S158      1.0  0.96521  0.46514  0.71534  1.0000
  S   S159      1.0  0.96014  0.48147  0.78054  1.0000
  H   H925      1.0  0.96896  0.07814  0.86431  1.0000
  H   H926      1.0  0.91031  0.07478  0.96397  1.0000
  C   C529      1.0  0.97988  0.31668  0.94558  1.0000
  C   C530      1.0  0.62981  0.04701  0.64975  1.0000
  H   H927      1.0  0.97453  0.29712  0.95851  1.0000
  S   S160      1.0  0.92259  0.03860  0.84981  1.0000
  C   C531      1.0  0.92183  0.07860  0.85414  1.0000
  H   H928      1.0  0.97270  0.36726  0.91385  1.0000
  H   H929      1.0  0.94599  0.06232  0.67075  1.0000
  H   H930      1.0  0.93554  0.51265  0.67654  1.0000
  H   H931      1.0  0.87489  0.08698  0.84456  1.0000
  H   H932      1.0  0.90387  0.49069  0.91214  1.0000
  C   C532      1.0  0.94836  0.12375  0.86661  1.0000
  H   H933      1.0  0.98961  0.18282  0.80241  1.0000
  C   C533      1.0  0.93523  0.07267  0.68927  1.0000
  Fe  Fe75      1.0  0.98948  0.27031  0.87361  1.0000
  H   H934      1.0  0.82188  0.06234  0.93466  1.0000
  H   H935      1.0  0.95627  0.17635  0.72022  1.0000
  H   H936      1.0  0.89732  0.08966  0.66678  1.0000
  Fe  Fe76      1.0  0.50802  0.05769  0.71334  1.0000
  H   H937      1.0  0.91832  0.13444  0.76898  1.0000
  H   H938      1.0  0.93236  0.49890  0.85735  1.0000
  C   C534      1.0  0.83937  0.07931  0.93709  1.0000
  H   H939      1.0  0.85855  0.05927  0.64861  1.0000
  H   H940      1.0  0.88286  0.05505  0.90136  1.0000
  C   C535      1.0  0.93925  0.18619  0.77484  1.0000
  H   H941      1.0  0.92972  0.13043  0.80336  1.0000
  C   C536      1.0  0.89532  0.12858  0.85579  1.0000
  H   H942      1.0  0.87466  0.14259  0.85352  1.0000
  H   H943      1.0  0.68984  0.09563  0.73372  1.0000
  C   C537      1.0  0.98038  0.38871  0.81578  1.0000
  C   C538      1.0  0.91737  0.19550  0.79822  1.0000
  C   C539      1.0  0.86484  0.04334  0.96798  1.0000
  H   H944      1.0  0.91360  0.12415  0.93205  1.0000
  H   H945      1.0  0.94446  0.13821  0.72653  1.0000
  Fe  Fe77      1.0  0.97797  0.44196  0.75477  1.0000
  C   C540      1.0  0.92176  0.14207  0.86388  1.0000
  C   C541      1.0  0.90070  0.07681  0.68604  1.0000
  N   N39       1.0  0.88318  0.04832  0.68556  1.0000
  C   C542      1.0  0.92673  0.51979  0.65637  1.0000
  C   C543      1.0  0.94837  0.09219  0.86173  1.0000
  Fe  Fe78      1.0  0.96334  0.20714  0.87410  1.0000
  C   C544      1.0  0.93936  0.52134  0.85065  1.0000
  H   H946      1.0  0.96881  0.13374  0.87301  1.0000
  C   C545      1.0  0.93821  0.52404  0.92038  1.0000
  H   H947      1.0  0.88194  0.10499  0.96321  1.0000
  C   C546      1.0  0.95222  0.09868  0.77525  1.0000
  H   H948      1.0  0.93232  0.08845  0.92443  1.0000
  H   H949      1.0  0.77398  0.05049  0.72480  1.0000
  S   S161      1.0  0.97577  0.23861  0.84063  1.0000
  H   H950      1.0  0.98362  0.40365  0.92139  1.0000
  H   H951      1.0  0.70810  0.08476  0.78136  1.0000
  S   S162      1.0  0.97243  0.24104  0.90728  1.0000
  H   H952      1.0  0.95351  0.20583  0.77110  1.0000
  H   H953      1.0  0.93460  0.47725  0.93272  1.0000
  H   H954      1.0  0.94672  0.41527  0.95339  1.0000
  S   S163      1.0  0.96857  0.39214  0.76047  1.0000
  H   H955      1.0  0.89772  0.10027  0.90762  1.0000
  C   C547      1.0  0.89537  0.09701  0.85079  1.0000
  H   H956      1.0  0.97563  0.17159  0.95836  1.0000
  H   H957      1.0  0.98849  0.38500  0.85886  1.0000
  C   C548      1.0  0.83787  0.09939  0.91161  1.0000
  H   H958      1.0  0.60641  0.05525  0.65063  1.0000
  H   H959      1.0  0.61578  0.04120  0.76094  1.0000
  C   C549      1.0  0.93853  0.13099  0.78218  1.0000
  H   H960      1.0  0.94548  0.09171  0.75456  1.0000
  H   H961      1.0  0.97690  0.09543  0.77735  1.0000
  H   H962      1.0  0.86370  0.05833  0.72518  1.0000
  H   H963      1.0  0.98942  0.46378  0.65663  1.0000
  C   C550      1.0  0.95977  0.17325  0.97589  1.0000
  S   S164      1.0  0.98326  0.32199  0.87281  1.0000
  H   H964      1.0  0.96282  0.52169  0.92460  1.0000
  S   S165      1.0  0.83442  0.03833  0.84602  1.0000
  H   H965      1.0  0.99011  0.44452  0.87256  1.0000
  C   C551      1.0  0.96381  0.15297  0.72666  1.0000
  H   H966      1.0  0.90323  0.17681  0.80448  1.0000
  H   H967      1.0  0.94230  0.37640  0.96323  1.0000
  C   C552      1.0  0.89252  0.08589  0.95089  1.0000
  H   H968      1.0  0.84476  0.08678  0.89287  1.0000
  H   H969      1.0  0.89222  0.09266  0.70243  1.0000
  C   C553      1.0  0.71268  0.08521  0.73785  1.0000
  C   C554      1.0  0.97334  0.37321  0.79193  1.0000
  H   H970      1.0  0.95390  0.34144  0.69909  1.0000
  H   H971      1.0  0.92481  0.18443  0.75657  1.0000
  H   H972      1.0  0.92949  0.20399  0.81605  1.0000
  H   H973      1.0  0.85090  0.11995  0.91422  1.0000
  H   H974      1.0  0.66074  0.05213  0.73690  1.0000
  C   C555      1.0  0.90960  0.10001  0.92715  1.0000
  H   H975      1.0  0.72811  0.10417  0.73896  1.0000
  C   C556      1.0  0.85407  0.05550  0.67052  1.0000
  N   N40       1.0  0.86941  0.06332  0.94364  1.0000
  H   H976      1.0  0.90189  0.21470  0.79151  1.0000
  H   H977      1.0  0.81458  0.08692  0.66765  1.0000
  H   H978      1.0  0.98974  0.11489  0.81737  1.0000
  C   C557      1.0  0.97709  0.38244  0.93137  1.0000
  N   N41       1.0  0.69495  0.04066  0.76705  1.0000
  H   H979      1.0  0.94459  0.09543  0.69156  1.0000
  H   H980      1.0  0.94084  0.48090  0.89738  1.0000
  H   H981      1.0  0.82597  0.08016  0.70174  1.0000
  H   H982      1.0  0.93944  0.16137  0.97004  1.0000
  C   C558      1.0  0.98014  0.34120  0.84136  1.0000
  H   H983      1.0  0.94210  0.05911  0.70722  1.0000
  H   H984      1.0  0.95029  0.34255  0.66315  1.0000
  C   C559      1.0  0.94704  0.39131  0.94598  1.0000
  H   H985      1.0  0.97364  0.52991  0.88006  1.0000
  H   H986      1.0  0.98030  0.14411  0.71110  1.0000
  H   H987      1.0  0.95844  0.32509  0.93605  1.0000
  H   H988      1.0  0.92037  0.53353  0.83999  1.0000
  C   C560      1.0  0.96986  0.34167  0.79294  1.0000
  H   H989      1.0  0.95747  0.51702  0.83529  1.0000
  H   H990      1.0  0.94241  0.08211  0.78924  1.0000
  H   H991      1.0  0.96269  0.16466  0.82223  1.0000
  C   C561      1.0  0.71418  0.06780  0.76502  1.0000
  C   C562      1.0  0.97729  0.16158  0.80398  1.0000
  C   C563      1.0  0.99384  0.34111  0.96338  1.0000
  H   H992      1.0  0.83148  0.09468  0.95398  1.0000
  H   H993      1.0  0.96400  0.32950  0.77476  1.0000
  C   C564      1.0  0.96497  0.34882  0.68027  1.0000
  H   H994      1.0  0.49707  0.06647  0.82543  1.0000
  H   H995      1.0  0.73838  0.06093  0.76817  1.0000
  H   H996      1.0  0.72032  0.07071  0.72038  1.0000
  H   H997      1.0  0.98301  0.41299  0.81528  1.0000
  H   H998      1.0  0.92763  0.53176  0.93994  1.0000
  H   H999      1.0  0.92813  0.38892  0.93156  1.0000
  C   C565      1.0  0.98348  0.37279  0.84045  1.0000
  H   H1000     1.0  0.89232  0.52649  0.88158  1.0000
  H   H1001     1.0  0.98441  0.25774  0.74832  1.0000
  H   H1002     1.0  0.90414  0.51042  0.65447  1.0000
  H   H1003     1.0  0.65754  0.07470  0.76688  1.0000
  H   H1004     1.0  0.74199  0.03955  0.80936  1.0000
  H   H1005     1.0  0.91110  0.04637  0.74333  1.0000
  H   H1006     1.0  0.98228  0.53217  0.66032  1.0000
  C   C566      1.0  0.66309  0.05104  0.75937  1.0000
  H   H1007     1.0  0.99296  0.30803  0.67417  1.0000
  C   C567      1.0  0.87905  0.04249  0.92031  1.0000
  H   H1008     1.0  0.68648  0.04877  0.80976  1.0000
  C   C568      1.0  0.87514  0.03891  0.71391  1.0000
  H   H1009     1.0  0.95400  0.19793  0.97903  1.0000
  S   S166      1.0  0.90932  0.53524  0.73216  1.0000
  H   H1010     1.0  0.76837  0.03767  0.95701  1.0000
  H   H1011     1.0  0.54595  0.03647  0.84797  1.0000
  S   S167      1.0  0.78233  0.02259  0.27714  1.0000
  C   C569      1.0  0.89633  0.63554  0.05199  1.0000
  H   H1012     1.0  0.67454  0.65774  0.99917  1.0000
  C   C570      1.0  0.68409  0.68158  0.29844  1.0000
  C   C571      1.0  0.89133  0.69674  0.02313  1.0000
  H   H1013     1.0  0.91383  0.58999  0.06224  1.0000
  H   H1014     1.0  0.64579  0.61108  0.01019  1.0000
  C   C572      1.0  0.84521  0.65294  0.03603  1.0000
  H   H1015     1.0  0.88715  0.68606  0.10837  1.0000
  S   S168      1.0  0.55718  0.97515  0.20554  1.0000
  H   H1016     1.0  0.67083  0.97807  0.22295  1.0000
  H   H1017     1.0  0.67033  0.97890  0.09476  1.0000
  H   H1018     1.0  0.91181  0.68263  0.01719  1.0000
  S   S169      1.0  0.55987  0.99717  0.02856  1.0000
  H   H1019     1.0  0.51527  0.85897  0.11555  1.0000
  H   H1020     1.0  0.52466  0.60308  0.15280  1.0000
  H   H1021     1.0  0.70978  0.99879  0.99955  1.0000
  C   C573      1.0  0.86769  0.01743  0.19381  1.0000
  H   H1022     1.0  0.73588  0.94919  0.22212  1.0000
  C   C574      1.0  0.83924  0.88700  0.16489  1.0000
  S   S170      1.0  0.76737  0.98728  0.09418  1.0000
  H   H1023     1.0  0.64613  0.65436  0.28715  1.0000
  H   H1024     1.0  0.77529  0.89474  0.09961  1.0000
  C   C575      1.0  0.50799  0.74152  0.22111  1.0000
  C   C576      1.0  0.88971  0.57682  0.98227  1.0000
  S   S171      1.0  0.81612  0.97384  0.02823  1.0000
  H   H1025     1.0  0.62431  0.99847  0.00941  1.0000
  S   S172      1.0  0.81139  0.96857  0.16045  1.0000
  H   H1026     1.0  0.85500  0.64638  0.01590  1.0000
  C   C577      1.0  0.62776  0.94118  0.02915  1.0000
  Fe  Fe79      1.0  0.83348  0.76864  0.21562  1.0000
  S   S173      1.0  0.78698  0.75188  0.21005  1.0000
  S   S174      1.0  0.83769  0.82008  0.21585  1.0000
  Fe  Fe80      1.0  0.86251  0.70351  0.21943  1.0000
  S   S175      1.0  0.81815  0.68262  0.21480  1.0000
  S   S176      1.0  0.90646  0.67539  0.22644  1.0000
  Fe  Fe81      1.0  0.80913  0.71691  0.18183  1.0000
  S   S177      1.0  0.78598  0.69790  0.14505  1.0000
  Fe  Fe82      1.0  0.80023  0.71935  0.24322  1.0000
  S   S178      1.0  0.85492  0.73596  0.18444  1.0000
  S   S179      1.0  0.84539  0.73800  0.25061  1.0000
  H   H1027     1.0  0.61054  0.95325  0.04213  1.0000
  C   C578      1.0  0.78545  0.88625  0.15456  1.0000
  H   H1028     1.0  0.86104  0.61830  0.29763  1.0000
  Fe  Fe83      1.0  0.79430  0.71187  0.98904  1.0000
  S   S180      1.0  0.80748  0.74116  0.02458  1.0000
  S   S181      1.0  0.77248  0.66719  0.99028  1.0000
  C   C579      1.0  0.80030  0.72983  0.05807  1.0000
  C   C580      1.0  0.81362  0.74496  0.07976  1.0000
  C   C581      1.0  0.80933  0.73556  0.10664  1.0000
  C   C582      1.0  0.79128  0.71126  0.11193  1.0000
  C   C583      1.0  0.77762  0.69647  0.09027  1.0000
  C   C584      1.0  0.78229  0.70556  0.06340  1.0000
  H   H1029     1.0  0.82762  0.76373  0.07570  1.0000
  H   H1030     1.0  0.81996  0.74701  0.12325  1.0000
  H   H1031     1.0  0.76366  0.67764  0.09430  1.0000
  H   H1032     1.0  0.77194  0.69382  0.04686  1.0000
  H   H1033     1.0  0.92186  0.60801  0.17750  1.0000
  Fe  Fe84      1.0  0.80005  0.00072  0.12598  1.0000
  H   H1034     1.0  0.83135  0.67447  0.03242  1.0000
  H   H1035     1.0  0.56725  0.67567  0.20540  1.0000
  C   C585      1.0  0.52238  0.97517  0.11188  1.0000
  H   H1036     1.0  0.91671  0.64231  0.06308  1.0000
  C   C586      1.0  0.88358  0.58731  0.23343  1.0000
  C   C587      1.0  0.88180  0.61901  0.22944  1.0000
  C   C588      1.0  0.90776  0.63544  0.23104  1.0000
  C   C589      1.0  0.93550  0.61978  0.23660  1.0000
  H   H1037     1.0  0.66491  0.95094  0.28149  1.0000
  H   H1038     1.0  0.86336  0.57481  0.23203  1.0000
  H   H1039     1.0  0.86035  0.63066  0.22505  1.0000
  H   H1040     1.0  0.95570  0.63232  0.23796  1.0000
  H   H1041     1.0  0.49813  0.94115  0.09087  1.0000
  C   C590      1.0  0.84009  0.88833  0.27233  1.0000
  C   C591      1.0  0.83790  0.87206  0.24770  1.0000
  C   C592      1.0  0.84040  0.83999  0.24716  1.0000
  C   C593      1.0  0.84555  0.82443  0.27148  1.0000
  Fe  Fe85      1.0  0.52492  0.70406  0.31156  1.0000
  H   H1042     1.0  0.83440  0.88447  0.22907  1.0000
  H   H1043     1.0  0.88153  0.59049  0.04036  1.0000
  H   H1044     1.0  0.67909  0.02425  0.24337  1.0000
  C   C594      1.0  0.80873  0.98500  0.99447  1.0000
  H   H1045     1.0  0.77876  0.02354  0.00487  1.0000
  C   C595      1.0  0.92088  0.57481  0.98743  1.0000
  H   H1046     1.0  0.80872  0.62442  0.02488  1.0000
  C   C596      1.0  0.78951  0.00652  0.24499  1.0000
  C   C597      1.0  0.80561  0.97840  0.24195  1.0000
  C   C598      1.0  0.81112  0.96609  0.21592  1.0000
  C   C599      1.0  0.80064  0.98196  0.19292  1.0000
  C   C600      1.0  0.78360  0.00944  0.19616  1.0000
  S   S182      1.0  0.50450  0.96884  0.14296  1.0000
  H   H1047     1.0  0.81384  0.96616  0.25962  1.0000
  H   H1048     1.0  0.82424  0.94472  0.21368  1.0000
  H   H1049     1.0  0.67191  0.98413  0.30034  1.0000
  H   H1050     1.0  0.67206  0.94556  0.01390  1.0000
  H   H1051     1.0  0.57223  0.02058  0.08197  1.0000
  H   H1052     1.0  0.62023  0.94299  0.00772  1.0000
  C   C601      1.0  0.55068  0.69408  0.20974  1.0000
  C   C602      1.0  0.61296  0.73333  0.00376  1.0000
  H   H1053     1.0  0.55361  0.68850  0.25320  1.0000
  N   N42       1.0  0.86983  0.65804  0.05642  1.0000
  N   N43       1.0  0.81673  0.87734  0.14401  1.0000
  C   C603      1.0  0.51322  0.87744  0.13122  1.0000
  C   C604      1.0  0.69152  0.73430  0.31063  1.0000
  H   H1054     1.0  0.88571  0.89705  0.17268  1.0000
  H   H1055     1.0  0.51537  0.64759  0.18075  1.0000
  C   C605      1.0  0.54395  0.99696  0.10942  1.0000
  C   C606      1.0  0.55637  0.00296  0.08392  1.0000
  C   C607      1.0  0.54743  0.98695  0.06092  1.0000
  H   H1056     1.0  0.66930  0.70805  0.24856  1.0000
  C   C608      1.0  0.64867  0.00257  0.01185  1.0000
  H   H1057     1.0  0.90368  0.63569  0.03043  1.0000
  C   C609      1.0  0.62729  0.70073  0.00125  1.0000
  H   H1058     1.0  0.81685  0.83159  0.15988  1.0000
  H   H1059     1.0  0.85760  0.84265  0.11113  1.0000
  S   S183      1.0  0.76820  0.70783  0.27666  1.0000
  H   H1060     1.0  0.50252  0.03330  0.05410  1.0000
  Fe  Fe86      1.0  0.52672  0.99063  0.24003  1.0000
  H   H1061     1.0  0.54442  0.00851  0.30007  1.0000
  H   H1062     1.0  0.87344  0.69427  0.00785  1.0000
  H   H1063     1.0  0.54293  0.84976  0.17477  1.0000
  H   H1064     1.0  0.63851  0.66960  0.06372  1.0000
  N   N44       1.0  0.69442  0.98105  0.26120  1.0000
  H   H1065     1.0  0.50441  0.74645  0.17755  1.0000
  H   H1066     1.0  0.68014  0.75645  0.23277  1.0000
  C   C610      1.0  0.64266  0.99795  0.06109  1.0000
  C   C611      1.0  0.67649  0.02917  0.17562  1.0000
  C   C612      1.0  0.65964  0.95298  0.03265  1.0000
  H   H1067     1.0  0.62567  0.63837  0.98960  1.0000
  C   C613      1.0  0.64687  0.97896  0.08716  1.0000
  C   C614      1.0  0.52157  0.72500  0.24258  1.0000
  H   H1068     1.0  0.52165  0.95033  0.04641  1.0000
  C   C615      1.0  0.61864  0.71449  0.27442  1.0000
  H   H1069     1.0  0.62018  0.73811  0.05763  1.0000
  H   H1070     1.0  0.77452  0.02131  0.17878  1.0000
  H   H1071     1.0  0.56201  0.87468  0.14100  1.0000
  C   C616      1.0  0.78937  0.01024  0.98856  1.0000
  C   C617      1.0  0.51437  0.95841  0.08905  1.0000
  C   C618      1.0  0.50910  0.82402  0.19330  1.0000
  H   H1072     1.0  0.67173  0.93981  0.04892  1.0000
  H   H1073     1.0  0.67266  0.64722  0.03379  1.0000
  N   N45       1.0  0.66108  0.98683  0.03683  1.0000
  H   H1074     1.0  0.63566  0.74444  0.30413  1.0000
  H   H1075     1.0  0.63206  0.98939  0.10330  1.0000
  H   H1076     1.0  0.64000  0.95532  0.08451  1.0000
  C   C619      1.0  0.83231  0.65649  0.28602  1.0000
  C   C620      1.0  0.52721  0.96400  0.06372  1.0000
  H   H1077     1.0  0.89329  0.98216  0.21757  1.0000
  H   H1078     1.0  0.65802  0.76611  0.26254  1.0000
  H   H1079     1.0  0.88018  0.64723  0.28152  1.0000
  C   C621      1.0  0.64484  0.03199  0.17530  1.0000
  H   H1080     1.0  0.84701  0.01580  0.20622  1.0000
  H   H1081     1.0  0.79967  0.83507  0.12831  1.0000
  H   H1082     1.0  0.89970  0.64591  0.10712  1.0000
  H   H1083     1.0  0.83299  0.60703  0.04949  1.0000
  C   C622      1.0  0.91135  0.57159  0.23862  1.0000
  H   H1084     1.0  0.82707  0.64420  0.26701  1.0000
  H   H1085     1.0  0.69511  0.01854  0.04660  1.0000
  H   H1086     1.0  0.92822  0.03194  0.18654  1.0000
  H   H1087     1.0  0.55141  0.89758  0.11263  1.0000
  H   H1088     1.0  0.51565  0.89105  0.21616  1.0000
  C   C623      1.0  0.87109  0.89353  0.15480  1.0000
  S   S184      1.0  0.54547  0.68693  0.02261  1.0000
  H   H1089     1.0  0.86334  0.01379  0.24939  1.0000
  H   H1090     1.0  0.84374  0.80691  0.11789  1.0000
  C   C624      1.0  0.64074  0.72031  0.29781  1.0000
  H   H1091     1.0  0.60162  0.73930  0.98428  1.0000
  Fe  Fe87      1.0  0.52117  0.99560  0.17845  1.0000
  H   H1092     1.0  0.86837  0.65904  0.12775  1.0000
  H   H1093     1.0  0.78131  0.91152  0.15450  1.0000
  C   C625      1.0  0.54300  0.70129  0.23682  1.0000
  H   H1094     1.0  0.84791  0.79987  0.27144  1.0000
  C   C626      1.0  0.68259  0.72084  0.26332  1.0000
  H   H1095     1.0  0.69060  0.68871  0.06477  1.0000
  H   H1096     1.0  0.76793  0.87712  0.14118  1.0000
  C   C627      1.0  0.65900  0.65748  0.01694  1.0000
  C   C628      1.0  0.53788  0.70246  0.99048  1.0000
  C   C629      1.0  0.86271  0.64344  0.29711  1.0000
  H   H1097     1.0  0.90687  0.98637  0.18306  1.0000
  C   C630      1.0  0.79885  0.88693  0.09471  1.0000
  H   H1098     1.0  0.79242  0.88577  0.19907  1.0000
  C   C631      1.0  0.71690  0.96423  0.21455  1.0000
  H   H1099     1.0  0.61819  0.99972  0.05638  1.0000
  H   H1100     1.0  0.86577  0.82477  0.14355  1.0000
  C   C632      1.0  0.93734  0.58798  0.24030  1.0000
  H   H1101     1.0  0.84717  0.63537  0.08937  1.0000
  C   C633      1.0  0.53665  0.71014  0.18825  1.0000
  S   S185      1.0  0.85622  0.97932  0.30453  1.0000
  C   C634      1.0  0.69340  0.99399  0.04173  1.0000
  C   C635      1.0  0.77808  0.87555  0.18352  1.0000
  H   H1102     1.0  0.93160  0.55365  0.99439  1.0000
  C   C636      1.0  0.85736  0.65719  0.08490  1.0000
  C   C637      1.0  0.82073  0.89419  0.11778  1.0000
  H   H1103     1.0  0.80636  0.63795  0.05910  1.0000
  C   C638      1.0  0.89161  0.60184  0.05807  1.0000
  C   C639      1.0  0.80046  0.74186  0.31194  1.0000
  H   H1104     1.0  0.91483  0.02598  0.23110  1.0000
  C   C640      1.0  0.82233  0.62910  0.04313  1.0000
  H   H1105     1.0  0.72509  0.98699  0.21028  1.0000
  H   H1106     1.0  0.62179  0.69148  0.26538  1.0000
  H   H1107     1.0  0.70991  0.95461  0.19480  1.0000
  C   C641      1.0  0.84842  0.82903  0.12761  1.0000
  H   H1108     1.0  0.88295  0.73040  0.30438  1.0000
  H   H1109     1.0  0.60574  0.68268  0.04631  1.0000
  N   N46       1.0  0.96096  0.55976  0.15123  1.0000
  H   H1110     1.0  0.70249  0.98179  0.05990  1.0000
  H   H1111     1.0  0.91836  0.56327  0.12951  1.0000
  H   H1112     1.0  0.80680  0.75487  0.29456  1.0000
  H   H1113     1.0  0.89732  0.72090  0.02245  1.0000
  S   S186      1.0  0.53461  0.74272  0.08484  1.0000
  H   H1114     1.0  0.95258  0.56409  0.09100  1.0000
  H   H1115     1.0  0.84371  0.89014  0.10925  1.0000
  H   H1116     1.0  0.96701  0.58690  0.18768  1.0000
  Fe  Fe88      1.0  0.80953  0.00047  0.31065  1.0000
  H   H1117     1.0  0.66699  0.73260  0.03281  1.0000
  S   S187      1.0  0.54568  0.69891  0.15466  1.0000
  H   H1118     1.0  0.61141  0.71425  0.08521  1.0000
  H   H1119     1.0  0.88574  0.69735  0.28308  1.0000
  H   H1120     1.0  0.54312  0.91241  0.14544  1.0000
  H   H1121     1.0  0.87064  0.91491  0.14291  1.0000
  H   H1122     1.0  0.80517  0.89961  0.07630  1.0000
  C   C642      1.0  0.87987  0.66236  0.10801  1.0000
  N   N47       1.0  0.67403  0.71414  0.29221  1.0000
  C   C643      1.0  0.62786  0.71725  0.06853  1.0000
  H   H1123     1.0  0.69870  0.76710  0.26317  1.0000
  H   H1124     1.0  0.77979  0.85041  0.18540  1.0000
  C   C644      1.0  0.51763  0.90123  0.19572  1.0000
  H   H1125     1.0  0.71590  0.73264  0.30527  1.0000
  H   H1126     1.0  0.83090  0.90835  0.17539  1.0000
  H   H1127     1.0  0.90487  0.57146  0.17941  1.0000
  H   H1128     1.0  0.87797  0.59841  0.07643  1.0000
  Fe  Fe89      1.0  0.52502  0.98831  0.99672  1.0000
  C   C645      1.0  0.81900  0.84322  0.14009  1.0000
  C   C646      1.0  0.97891  0.58083  0.16833  1.0000
  H   H1129     1.0  0.95884  0.57620  0.24444  1.0000
  N   N48       1.0  0.64714  0.68943  0.02426  1.0000
  C   C647      1.0  0.78072  0.71847  0.30892  1.0000
  C   C648      1.0  0.67381  0.70904  0.02621  1.0000
  H   H1130     1.0  0.93807  0.59715  0.12999  1.0000
  S   S188      1.0  0.51086  0.73439  0.27623  1.0000
  H   H1131     1.0  0.55072  0.00956  0.12703  1.0000
  C   C649      1.0  0.69929  0.69719  0.04531  1.0000
  H   H1132     1.0  0.71840  0.96144  0.01416  1.0000
  C   C650      1.0  0.51586  0.97175  0.30818  1.0000
  H   H1133     1.0  0.73839  0.99327  0.02459  1.0000
  C   C651      1.0  0.77819  0.02179  0.22210  1.0000
  C   C652      1.0  0.84550  0.87264  0.29660  1.0000
  H   H1134     1.0  0.59494  0.73468  0.01941  1.0000
  C   C653      1.0  0.88056  0.68963  0.05209  1.0000
  H   H1135     1.0  0.89980  0.69411  0.06563  1.0000
  H   H1136     1.0  0.86239  0.70723  0.05737  1.0000
  H   H1137     1.0  0.62994  0.97923  0.25051  1.0000
  C   C654      1.0  0.67945  0.75470  0.25524  1.0000
  H   H1138     1.0  0.83845  0.67470  0.08731  1.0000
  H   H1139     1.0  0.98158  0.60278  0.15763  1.0000
  H   H1140     1.0  0.68224  0.94234  0.23672  1.0000
  H   H1141     1.0  0.84208  0.86973  0.18115  1.0000
  H   H1142     1.0  0.67257  0.65970  0.25933  1.0000
  H   H1143     1.0  0.70644  0.71282  0.25924  1.0000
  H   H1144     1.0  0.62001  0.73161  0.25814  1.0000
  H   H1145     1.0  0.83809  0.91295  0.27248  1.0000
  H   H1146     1.0  0.51443  0.92621  0.19916  1.0000
  C   C655      1.0  0.52114  0.84096  0.16857  1.0000
  H   H1147     1.0  0.62795  0.91700  0.03555  1.0000
  H   H1148     1.0  0.71351  0.67873  0.03530  1.0000
  H   H1149     1.0  0.68408  0.75870  0.30801  1.0000
  S   S189      1.0  0.51374  0.95949  0.27407  1.0000
  H   H1150     1.0  0.75445  0.88318  0.18854  1.0000
  C   C656      1.0  0.91159  0.58975  0.16570  1.0000
  H   H1151     1.0  0.88184  0.87456  0.14277  1.0000
  Fe  Fe90      1.0  0.80091  0.00347  0.06413  1.0000
  H   H1152     1.0  0.61641  0.63527  0.02534  1.0000
  H   H1153     1.0  0.59521  0.71672  0.28246  1.0000
  H   H1154     1.0  0.80024  0.86239  0.08923  1.0000
  C   C657      1.0  0.68960  0.96590  0.23411  1.0000
  H   H1155     1.0  0.50595  0.61430  0.19841  1.0000
  C   C658      1.0  0.88666  0.98707  0.19632  1.0000
  S   S190      1.0  0.83557  0.01232  0.09597  1.0000
  H   H1156     1.0  0.81839  0.91925  0.12150  1.0000
  Fe  Fe91      1.0  0.51726  0.70738  0.05689  1.0000
  C   C659      1.0  0.62940  0.68834  0.05045  1.0000
  H   H1157     1.0  0.64983  0.72091  0.07825  1.0000
  Fe  Fe92      1.0  0.51740  0.71438  0.11864  1.0000
  Fe  Fe93      1.0  0.57389  0.02242  0.20650  1.0000
  C   C660      1.0  0.51531  0.73397  0.19398  1.0000
  H   H1158     1.0  0.74299  0.97372  0.26291  1.0000
  H   H1159     1.0  0.81335  0.65351  0.30020  1.0000
  C   C661      1.0  0.51736  0.72749  0.98717  1.0000
  H   H1160     1.0  0.68423  0.71166  0.00579  1.0000
  C   C662      1.0  0.66793  0.97574  0.27936  1.0000
  C   C663      1.0  0.96314  0.54308  0.10004  1.0000
  H   H1161     1.0  0.65964  0.99286  0.99313  1.0000
  H   H1162     1.0  0.87282  0.96820  0.18956  1.0000
  C   C664      1.0  0.63501  0.63453  0.01026  1.0000
  C   C665      1.0  0.97981  0.55036  0.12656  1.0000
  C   C666      1.0  0.63714  0.98974  0.26978  1.0000
  H   H1163     1.0  0.52723  0.82342  0.15269  1.0000
  H   H1164     1.0  0.72195  0.92015  0.26014  1.0000
  H   H1165     1.0  0.85950  0.01859  0.17248  1.0000
  H   H1166     1.0  0.50670  0.73846  0.00466  1.0000
  H   H1167     1.0  0.64795  0.02162  0.06665  1.0000
  H   H1168     1.0  0.68184  0.63435  0.28639  1.0000
  C   C667      1.0  0.54425  0.89107  0.13331  1.0000
  H   H1169     1.0  0.54080  0.89693  0.18795  1.0000
  H   H1170     1.0  0.89052  0.60020  0.15684  1.0000
  H   H1171     1.0  0.71426  0.71593  0.04993  1.0000
  C   C668      1.0  0.93243  0.57732  0.14262  1.0000
  C   C669      1.0  0.84845  0.84066  0.29594  1.0000
  H   H1172     1.0  0.70908  0.67820  0.29635  1.0000
  C   C670      1.0  0.67005  0.65659  0.28146  1.0000
  S   S191      1.0  0.62472  0.02632  0.20578  1.0000
  H   H1173     1.0  0.91356  0.70296  0.30905  1.0000
  H   H1174     1.0  0.62964  0.75062  0.00741  1.0000
  H   H1175     1.0  0.68808  0.02408  0.19436  1.0000
  H   H1176     1.0  0.64011  0.69925  0.98181  1.0000
  C   C671      1.0  0.49818  0.63018  0.18209  1.0000
  S   S192      1.0  0.54337  0.65538  0.31008  1.0000
  C   C672      1.0  0.71578  0.98624  0.01837  1.0000
  S   S193      1.0  0.50456  0.67682  0.09070  1.0000
  H   H1177     1.0  0.60795  0.68617  0.99856  1.0000
  C   C673      1.0  0.88924  0.70556  0.30404  1.0000
  H   H1178     1.0  0.94550  0.53999  0.18858  1.0000
  H   H1179     1.0  0.83318  0.68085  0.28072  1.0000
  H   H1180     1.0  0.71769  0.03071  0.15239  1.0000
  H   H1181     1.0  0.50932  0.64210  0.23639  1.0000
  C   C674      1.0  0.72273  0.96807  0.27462  1.0000
  H   H1182     1.0  0.52791  0.81008  0.20270  1.0000
  C   C675      1.0  0.93788  0.60032  0.98410  1.0000
  N   N49       1.0  0.49993  0.86557  0.15701  1.0000
  C   C676      1.0  0.69335  0.03318  0.15184  1.0000
  C   C677      1.0  0.50070  0.61113  0.15574  1.0000
  C   C678      1.0  0.72469  0.93331  0.27912  1.0000
  H   H1183     1.0  0.87670  0.55702  0.98511  1.0000
  S   S194      1.0  0.97697  0.59900  0.99073  1.0000
  H   H1184     1.0  0.71870  0.01849  0.24546  1.0000
  C   C679      1.0  0.69749  0.01462  0.25659  1.0000
  H   H1185     1.0  0.72571  0.97857  0.29495  1.0000
  H   H1186     1.0  0.49944  0.83984  0.20906  1.0000
  H   H1187     1.0  0.49817  0.89591  0.12245  1.0000
  H   H1188     1.0  0.61970  0.98521  0.28519  1.0000
  H   H1189     1.0  0.63692  0.01479  0.26741  1.0000
  H   H1190     1.0  0.74744  0.92652  0.28716  1.0000
  H   H1191     1.0  0.90564  0.59826  0.31182  1.0000
  H   H1192     1.0  0.67613  0.03565  0.29336  1.0000
  H   H1193     1.0  0.70815  0.92655  0.29450  1.0000
  H   H1194     1.0  0.88498  0.03513  0.27220  1.0000
  H   H1195     1.0  0.71648  0.02791  0.29623  1.0000
  C   C680      1.0  0.69789  0.03490  0.28228  1.0000
  C   C681      1.0  0.52604  0.83150  0.37406  1.0000
  C   C682      1.0  0.69388  0.00469  0.53530  1.0000
  H   H1196     1.0  0.52358  0.88875  0.42698  1.0000
  H   H1197     1.0  0.90643  0.54990  0.37018  1.0000
  H   H1198     1.0  0.51578  0.83980  0.35466  1.0000
  Fe  Fe94      1.0  0.80952  0.98934  0.37160  1.0000
  S   S195      1.0  0.77946  0.99919  0.40821  1.0000
  Fe  Fe95      1.0  0.84084  0.94322  0.33258  1.0000
  S   S196      1.0  0.84904  0.89194  0.32807  1.0000
  H   H1199     1.0  0.77084  0.01274  0.50675  1.0000
  S   S197      1.0  0.79312  0.96271  0.33601  1.0000
  S   S198      1.0  0.62398  0.65566  0.34615  1.0000
  H   H1200     1.0  0.79348  0.90190  0.61750  1.0000
  H   H1201     1.0  0.94103  0.58073  0.41648  1.0000
  Fe  Fe96      1.0  0.74931  0.68858  0.45421  1.0000
  S   S199      1.0  0.76838  0.73486  0.45372  1.0000
  S   S200      1.0  0.69810  0.68822  0.45209  1.0000
  Fe  Fe97      1.0  0.80399  0.71242  0.42694  1.0000
  S   S201      1.0  0.82161  0.73822  0.39152  1.0000
  S   S202      1.0  0.78353  0.66687  0.42520  1.0000
  H   H1202     1.0  0.50586  0.91089  0.63245  1.0000
  H   H1203     1.0  0.62983  0.94331  0.54440  1.0000
  C   C683      1.0  0.81236  0.74829  0.33753  1.0000
  C   C684      1.0  0.80413  0.73172  0.36027  1.0000
  C   C685      1.0  0.78320  0.70936  0.35745  1.0000
  C   C686      1.0  0.77160  0.70266  0.33179  1.0000
  H   H1204     1.0  0.69831  0.74729  0.35287  1.0000
  H   H1205     1.0  0.82866  0.76548  0.33949  1.0000
  H   H1206     1.0  0.77634  0.69682  0.37489  1.0000
  H   H1207     1.0  0.75615  0.68468  0.32960  1.0000
  C   C687      1.0  0.94131  0.60167  0.47167  1.0000
  C   C688      1.0  0.92651  0.62832  0.46161  1.0000
  C   C689      1.0  0.89483  0.63151  0.46081  1.0000
  H   H1208     1.0  0.93963  0.64672  0.45462  1.0000
  H   H1209     1.0  0.88377  0.65215  0.45304  1.0000
  C   C690      1.0  0.67830  0.68003  0.42194  1.0000
  C   C691      1.0  0.69248  0.66497  0.39985  1.0000
  C   C692      1.0  0.67558  0.65734  0.37687  1.0000
  C   C693      1.0  0.64450  0.66523  0.37551  1.0000
  C   C694      1.0  0.63044  0.68077  0.39739  1.0000
  C   C695      1.0  0.64723  0.68792  0.42053  1.0000
  H   H1210     1.0  0.71632  0.65853  0.40074  1.0000
  H   H1211     1.0  0.68662  0.64496  0.36024  1.0000
  H   H1212     1.0  0.60655  0.68701  0.39660  1.0000
  H   H1213     1.0  0.63604  0.69973  0.43733  1.0000
  C   C696      1.0  0.49848  0.96165  0.59153  1.0000
  H   H1214     1.0  0.97832  0.59414  0.62246  1.0000
  H   H1215     1.0  0.51143  0.61360  0.40952  1.0000
  H   H1216     1.0  0.60459  0.97380  0.59169  1.0000
  H   H1217     1.0  0.63036  0.98948  0.61473  1.0000
  C   C697      1.0  0.79134  0.99238  0.44187  1.0000
  C   C698      1.0  0.81743  0.97432  0.44761  1.0000
  H   H1218     1.0  0.84280  0.66941  0.62167  1.0000
  H   H1219     1.0  0.83079  0.96409  0.43124  1.0000
  N   N50       1.0  0.63800  0.99154  0.54374  1.0000
  H   H1220     1.0  0.52007  0.78428  0.63693  1.0000
  H   H1221     1.0  0.60923  0.75766  0.48503  1.0000
  C   C699      1.0  0.51837  0.99063  0.36296  1.0000
  H   H1222     1.0  0.85844  0.88639  0.59752  1.0000
  C   C700      1.0  0.98655  0.57551  0.40216  1.0000
  S   S203      1.0  0.98111  0.59913  0.47299  1.0000
  H   H1223     1.0  0.62433  0.62905  0.48489  1.0000
  C   C701      1.0  0.60152  0.67560  0.55902  1.0000
  H   H1224     1.0  0.77499  0.91094  0.38363  1.0000
  C   C702      1.0  0.61877  0.96519  0.53722  1.0000
  C   C703      1.0  0.85943  0.64987  0.37555  1.0000
  S   S204      1.0  0.54044  0.99865  0.52788  1.0000
  H   H1225     1.0  0.63136  0.95446  0.49446  1.0000
  H   H1226     1.0  0.51658  0.83195  0.61180  1.0000
  H   H1227     1.0  0.64713  0.71854  0.48249  1.0000
  S   S205      1.0  0.52166  0.95115  0.46267  1.0000
  H   H1228     1.0  0.56349  0.80997  0.42928  1.0000
  S   S206      1.0  0.76722  0.98911  0.59363  1.0000
  H   H1229     1.0  0.55587  0.91272  0.61556  1.0000
  C   C704      1.0  0.80363  0.84494  0.63444  1.0000
  H   H1230     1.0  0.49785  0.73146  0.50743  1.0000
  C   C705      1.0  0.53521  0.69298  0.44372  1.0000
  S   S207      1.0  0.54180  0.65707  0.37659  1.0000
  H   H1231     1.0  0.59843  0.98053  0.49821  1.0000
  Fe  Fe98      1.0  0.81185  0.65640  0.46225  1.0000
  S   S208      1.0  0.83496  0.70017  0.46147  1.0000
  S   S209      1.0  0.83783  0.61128  0.47010  1.0000
  Fe  Fe99      1.0  0.79732  0.71842  0.48851  1.0000
  S   S210      1.0  0.81114  0.74893  0.52305  1.0000
  S   S211      1.0  0.77561  0.67380  0.49154  1.0000
  C   C706      1.0  0.80343  0.73925  0.55692  1.0000
  C   C707      1.0  0.78195  0.71835  0.56309  1.0000
  C   C708      1.0  0.77693  0.71033  0.59022  1.0000
  C   C709      1.0  0.79346  0.72293  0.61134  1.0000
  C   C710      1.0  0.81480  0.74403  0.60522  1.0000
  C   C711      1.0  0.81961  0.75231  0.57807  1.0000
  H   H1232     1.0  0.76923  0.70835  0.54699  1.0000
  H   H1233     1.0  0.76035  0.69404  0.59486  1.0000
  H   H1234     1.0  0.82763  0.75382  0.62137  1.0000
  H   H1235     1.0  0.83622  0.76853  0.57338  1.0000
  C   C712      1.0  0.87766  0.60802  0.47010  1.0000
  C   C713      1.0  0.89246  0.58120  0.47982  1.0000
  C   C714      1.0  0.92414  0.57801  0.48061  1.0000
  H   H1236     1.0  0.87933  0.56289  0.48700  1.0000
  H   H1237     1.0  0.93522  0.55746  0.48859  1.0000
  C   C715      1.0  0.77451  0.00605  0.46331  1.0000
  C   C716      1.0  0.78378  0.00190  0.49036  1.0000
  C   C717      1.0  0.80962  0.98347  0.49612  1.0000
  C   C718      1.0  0.82628  0.96953  0.47468  1.0000
  H   H1238     1.0  0.50412  0.91517  0.40547  1.0000
  C   C719      1.0  0.53774  0.67868  0.46893  1.0000
  H   H1239     1.0  0.54671  0.02509  0.34818  1.0000
  H   H1240     1.0  0.61423  0.02244  0.51609  1.0000
  N   N51       1.0  0.50571  0.86352  0.64496  1.0000
  C   C720      1.0  0.54107  0.00487  0.58303  1.0000
  C   C721      1.0  0.52981  0.98904  0.56089  1.0000
  C   C722      1.0  0.53873  0.79853  0.36891  1.0000
  Fe  Fe100     1.0  0.79870  0.00191  0.62670  1.0000
  C   C723      1.0  0.53108  0.99908  0.60941  1.0000
  H   H1241     1.0  0.57371  0.71514  0.52089  1.0000
  Fe  Fe101     1.0  0.51241  0.70996  0.61876  1.0000
  H   H1242     1.0  0.86788  0.91628  0.41879  1.0000
  H   H1243     1.0  0.91267  0.65514  0.34850  1.0000
  H   H1244     1.0  0.81175  0.81972  0.34708  1.0000
  C   C724      1.0  0.54882  0.83127  0.43070  1.0000
  H   H1245     1.0  0.59674  0.96768  0.54802  1.0000
  H   H1246     1.0  0.50589  0.62228  0.44459  1.0000
  Fe  Fe102     1.0  0.52400  0.70566  0.37341  1.0000
  H   H1247     1.0  0.67884  0.67596  0.31978  1.0000
  H   H1248     1.0  0.54455  0.83214  0.63738  1.0000
  H   H1249     1.0  0.90820  0.56062  0.63712  1.0000
  H   H1250     1.0  0.98930  0.60026  0.40522  1.0000
  H   H1251     1.0  0.54709  0.78728  0.38767  1.0000
  H   H1252     1.0  0.86827  0.54021  0.40943  1.0000
  H   H1253     1.0  0.60852  0.66985  0.58007  1.0000
  H   H1254     1.0  0.54563  0.84557  0.37687  1.0000
  H   H1255     1.0  0.97927  0.55610  0.58672  1.0000
  S   S212      1.0  0.83561  0.01374  0.59823  1.0000
  H   H1256     1.0  0.54996  0.83884  0.45223  1.0000
  H   H1257     1.0  0.51440  0.79963  0.42555  1.0000
  C   C725      1.0  0.64685  0.98872  0.57320  1.0000
  H   H1258     1.0  0.56969  0.75870  0.49184  1.0000
  N   N52       1.0  0.62101  0.70140  0.51602  1.0000
  C   C726      1.0  0.61949  0.02062  0.53806  1.0000
  H   H1259     1.0  0.66817  0.69568  0.50515  1.0000
  H   H1260     1.0  0.59608  0.94121  0.50519  1.0000
  C   C727      1.0  0.51975  0.83367  0.63418  1.0000
  H   H1261     1.0  0.88673  0.57586  0.40848  1.0000
  H   H1262     1.0  0.55872  0.84913  0.41853  1.0000
  C   C728      1.0  0.59024  0.74323  0.48961  1.0000
  H   H1263     1.0  0.64363  0.75703  0.52795  1.0000
  C   C729      1.0  0.50817  0.72062  0.48967  1.0000
  C   C730      1.0  0.83362  0.88877  0.59525  1.0000
  H   H1264     1.0  0.83040  0.63835  0.60213  1.0000
  H   H1265     1.0  0.66031  0.99711  0.50501  1.0000
  C   C731      1.0  0.62083  0.99182  0.59397  1.0000
  C   C732      1.0  0.51826  0.72052  0.44110  1.0000
  H   H1266     1.0  0.65594  0.65175  0.48787  1.0000
  H   H1267     1.0  0.82877  0.90797  0.58105  1.0000
  S   S213      1.0  0.52497  0.73540  0.58137  1.0000
  H   H1268     1.0  0.67376  0.75501  0.50441  1.0000
  H   H1269     1.0  0.82549  0.86804  0.58545  1.0000
  H   H1270     1.0  0.78050  0.85219  0.62755  1.0000
  H   H1271     1.0  0.60893  0.01466  0.59313  1.0000
  C   C733      1.0  0.81756  0.89631  0.62249  1.0000
  H   H1272     1.0  0.50116  0.95370  0.54847  1.0000
  H   H1273     1.0  0.67353  0.96423  0.52325  1.0000
  C   C734      1.0  0.63424  0.64686  0.49762  1.0000
  C   C735      1.0  0.53370  0.00593  0.34271  1.0000
  H   H1274     1.0  0.63223  0.71136  0.55772  1.0000
  S   S214      1.0  0.90983  0.03105  0.34605  1.0000
  H   H1275     1.0  0.99361  0.53858  0.61670  1.0000
  H   H1276     1.0  0.58628  0.72801  0.47212  1.0000
  H   H1277     1.0  0.71125  0.00280  0.51901  1.0000
  H   H1278     1.0  0.70421  0.99352  0.55343  1.0000
  C   C736      1.0  0.85075  0.64419  0.34568  1.0000
  H   H1279     1.0  0.88091  0.63750  0.38119  1.0000
  C   C737      1.0  0.95281  0.57026  0.39843  1.0000
  H   H1280     1.0  0.67726  0.73395  0.53570  1.0000
  H   H1281     1.0  0.85335  0.82824  0.31435  1.0000
  H   H1282     1.0  0.55025  0.65692  0.47056  1.0000
  C   C738      1.0  0.66150  0.74134  0.51924  1.0000
  C   C739      1.0  0.61202  0.67515  0.49853  1.0000
  C   C740      1.0  0.52402  0.69230  0.49188  1.0000
  H   H1283     1.0  0.66276  0.00590  0.57927  1.0000
  H   H1284     1.0  0.84801  0.61932  0.34319  1.0000
  C   C741      1.0  0.68913  0.72810  0.34137  1.0000
  H   H1285     1.0  0.59771  0.74231  0.53290  1.0000
  H   H1286     1.0  0.82354  0.80445  0.37892  1.0000
  S   S215      1.0  0.52708  0.67324  0.52290  1.0000
  C   C742      1.0  0.59534  0.72544  0.51624  1.0000
  H   H1287     1.0  0.63830  0.63681  0.51791  1.0000
  H   H1288     1.0  0.60889  0.68239  0.47712  1.0000
  H   H1289     1.0  0.84171  0.64127  0.38896  1.0000
  Fe  Fe103     1.0  0.80233  0.00539  0.56505  1.0000
  H   H1290     1.0  0.82771  0.65516  0.34320  1.0000
  H   H1291     1.0  0.91002  0.60760  0.53175  1.0000
  H   H1292     1.0  0.87659  0.69865  0.34519  1.0000
  H   H1293     1.0  0.53968  0.01158  0.62632  1.0000
  H   H1294     1.0  0.75438  0.02018  0.45898  1.0000
  S   S216      1.0  0.85626  0.96722  0.37037  1.0000
  Fe  Fe104     1.0  0.86703  0.00553  0.34235  1.0000
  H   H1295     1.0  0.64797  0.67601  0.54580  1.0000
  H   H1296     1.0  0.58977  0.66735  0.50489  1.0000
  H   H1297     1.0  0.65945  0.96646  0.57674  1.0000
  H   H1298     1.0  0.86979  0.63983  0.61130  1.0000
  H   H1299     1.0  0.96944  0.56104  0.34496  1.0000
  C   C743      1.0  0.90997  0.60974  0.33145  1.0000
  N   N53       1.0  0.86729  0.65410  0.55479  1.0000
  C   C744      1.0  0.90021  0.64609  0.56002  1.0000
  C   C745      1.0  0.85482  0.67194  0.57901  1.0000
  C   C746      1.0  0.86293  0.67335  0.52978  1.0000
  C   C747      1.0  0.85137  0.62514  0.55047  1.0000
  C   C748      1.0  0.91806  0.63043  0.53642  1.0000
  C   C749      1.0  0.84938  0.65340  0.60481  1.0000
  C   C750      1.0  0.88039  0.70264  0.52930  1.0000
  C   C751      1.0  0.81683  0.62895  0.54650  1.0000
  H   H1300     1.0  0.91220  0.66666  0.56593  1.0000
  H   H1301     1.0  0.90292  0.63049  0.57760  1.0000
  H   H1302     1.0  0.83328  0.68445  0.57406  1.0000
  H   H1303     1.0  0.86991  0.69021  0.58490  1.0000
  H   H1304     1.0  0.86884  0.65996  0.51107  1.0000
  H   H1305     1.0  0.83869  0.68066  0.52716  1.0000
  H   H1306     1.0  0.86019  0.61289  0.53199  1.0000
  H   H1307     1.0  0.85626  0.60862  0.56712  1.0000
  H   H1308     1.0  0.91765  0.64449  0.51788  1.0000
  H   H1309     1.0  0.94210  0.62686  0.54233  1.0000
  C   C752      1.0  0.97291  0.54905  0.60747  1.0000
  C   C753      1.0  0.53238  0.99662  0.31543  1.0000
  S   S217      1.0  0.51193  0.73671  0.40900  1.0000
  C   C754      1.0  0.91198  0.53688  0.38890  1.0000
  H   H1310     1.0  0.87463  0.71530  0.51041  1.0000
  H   H1311     1.0  0.90512  0.69774  0.52906  1.0000
  H   H1312     1.0  0.87386  0.71815  0.54643  1.0000
  H   H1313     1.0  0.81116  0.62705  0.52465  1.0000
  H   H1314     1.0  0.80644  0.65083  0.55414  1.0000
  H   H1315     1.0  0.80570  0.61072  0.55752  1.0000
  H   H1316     1.0  0.84639  0.95538  0.47905  1.0000
  C   C755      1.0  0.51686  0.88842  0.62731  1.0000
  H   H1317     1.0  0.87434  0.90534  0.64138  1.0000
  C   C756      1.0  0.62725  0.69144  0.54474  1.0000
  C   C757      1.0  0.66570  0.98865  0.52579  1.0000
  Fe  Fe105     1.0  0.50933  0.64772  0.34308  1.0000
  H   H1318     1.0  0.94448  0.58423  0.38104  1.0000
  S   S218      1.0  0.52054  0.00385  0.39674  1.0000
  C   C758      1.0  0.55100  0.89277  0.62824  1.0000
  H   H1319     1.0  0.58069  0.69065  0.56063  1.0000
  C   C759      1.0  0.64935  0.71346  0.50450  1.0000
  C   C760      1.0  0.50914  0.96681  0.56528  1.0000
  C   C761      1.0  0.61107  0.96049  0.50695  1.0000
  H   H1320     1.0  0.59635  0.65394  0.54888  1.0000
  H   H1321     1.0  0.66555  0.72593  0.34815  1.0000
  H   H1322     1.0  0.52178  0.78443  0.35921  1.0000
  H   H1323     1.0  0.94127  0.58701  0.61191  1.0000
  S   S219      1.0  0.55813  0.71870  0.34269  1.0000
  H   H1324     1.0  0.51058  0.88448  0.60572  1.0000
  H   H1325     1.0  0.93419  0.60483  0.33596  1.0000
  H   H1326     1.0  0.92210  0.62891  0.63350  1.0000
  N   N54       1.0  0.81415  0.86353  0.40683  1.0000
  C   C762      1.0  0.80254  0.85137  0.38039  1.0000
  C   C763      1.0  0.78947  0.88399  0.41954  1.0000
  C   C764      1.0  0.82278  0.83813  0.42616  1.0000
  C   C765      1.0  0.84177  0.88075  0.40098  1.0000
  C   C766      1.0  0.82221  0.82554  0.36674  1.0000
  C   C767      1.0  0.78211  0.91442  0.40491  1.0000
  C   C768      1.0  0.79763  0.81660  0.43302  1.0000
  C   C769      1.0  0.85649  0.89584  0.42565  1.0000
  H   H1327     1.0  0.77960  0.84286  0.38290  1.0000
  H   H1328     1.0  0.79994  0.86988  0.36513  1.0000
  H   H1329     1.0  0.79442  0.88928  0.44111  1.0000
  H   H1330     1.0  0.76800  0.87220  0.42039  1.0000
  H   H1331     1.0  0.84257  0.82393  0.41838  1.0000
  H   H1332     1.0  0.83036  0.84751  0.44588  1.0000
  H   H1333     1.0  0.85984  0.86539  0.39181  1.0000
  H   H1334     1.0  0.83752  0.89823  0.38503  1.0000
  H   H1335     1.0  0.82615  0.91800  0.63010  1.0000
  H   H1336     1.0  0.84524  0.83237  0.36216  1.0000
  Fe  Fe106     1.0  0.49860  0.98449  0.43397  1.0000
  H   H1337     1.0  0.81485  0.83401  0.61636  1.0000
  H   H1338     1.0  0.76317  0.92710  0.41558  1.0000
  H   H1339     1.0  0.80132  0.92936  0.40529  1.0000
  H   H1340     1.0  0.80707  0.79822  0.44643  1.0000
  H   H1341     1.0  0.78882  0.80518  0.41482  1.0000
  H   H1342     1.0  0.77880  0.82861  0.44428  1.0000
  H   H1343     1.0  0.87341  0.87976  0.43525  1.0000
  H   H1344     1.0  0.84015  0.90424  0.44131  1.0000
  H   H1345     1.0  0.54651  0.68261  0.42640  1.0000
  H   H1346     1.0  0.90176  0.01007  0.41124  1.0000
  N   N55       1.0  0.82037  0.87196  0.64389  1.0000
  H   H1347     1.0  0.84614  0.69850  0.32248  1.0000
  Fe  Fe107     1.0  0.57398  0.66932  0.34402  1.0000
  H   H1348     1.0  0.55803  0.79878  0.35456  1.0000
  S   S220      1.0  0.82136  0.02922  0.34634  1.0000
  H   H1349     1.0  0.86064  0.67443  0.38039  1.0000
  S   S221      1.0  0.82192  0.97737  0.52972  1.0000
  C   C770      1.0  0.50521  0.73469  0.46423  1.0000
  C   C771      1.0  0.50171  0.96581  0.35575  1.0000
  H   H1350     1.0  0.89674  0.59965  0.34780  1.0000
  H   H1351     1.0  0.70305  0.70738  0.34712  1.0000
  C   C772      1.0  0.90404  0.64455  0.32969  1.0000
  Fe  Fe108     1.0  0.50815  0.98474  0.49550  1.0000
  C   C773      1.0  0.96077  0.57712  0.62362  1.0000
  H   H1352     1.0  0.56436  0.87289  0.61966  1.0000
  C   C774      1.0  0.50913  0.97808  0.61360  1.0000
  H   H1353     1.0  0.59685  0.02058  0.54766  1.0000
  C   C775      1.0  0.51579  0.82475  0.42394  1.0000
  C   C776      1.0  0.50062  0.95630  0.32843  1.0000
  N   N56       1.0  0.87187  0.65547  0.32443  1.0000
  H   H1354     1.0  0.86260  0.84943  0.63033  1.0000
  H   H1355     1.0  0.63364  0.70680  0.31541  1.0000
  H   H1356     1.0  0.55666  0.02245  0.57980  1.0000
  H   H1357     1.0  0.89215  0.01804  0.44572  1.0000
  H   H1358     1.0  0.86333  0.00974  0.42086  1.0000
  Fe  Fe109     1.0  0.50451  0.69770  0.55825  1.0000
  H   H1359     1.0  0.52058  0.63886  0.64551  1.0000
  H   H1360     1.0  0.68940  0.02922  0.53954  1.0000
  N   N57       1.0  0.50350  0.83565  0.39694  1.0000
  H   H1361     1.0  0.84746  0.02803  0.46732  1.0000
  C   C777      1.0  0.86981  0.68977  0.32509  1.0000
  H   H1362     1.0  0.93751  0.53891  0.33595  1.0000
  H   H1363     1.0  0.50148  0.83448  0.44074  1.0000
  C   C778      1.0  0.89032  0.55079  0.41086  1.0000
  C   C779      1.0  0.96064  0.53800  0.34433  1.0000
  H   H1364     1.0  0.53450  0.89212  0.39139  1.0000
  C   C780      1.0  0.51545  0.89198  0.40589  1.0000
  S   S222      1.0  0.49677  0.67003  0.59526  1.0000
  H   H1365     1.0  0.89823  0.54611  0.43172  1.0000
  C   C781      1.0  0.88427  0.02150  0.42459  1.0000
  N   N58       1.0  0.94510  0.53753  0.39508  1.0000
  S   S223      1.0  0.78715  0.71088  0.64481  1.0000
  H   H1366     1.0  0.78755  0.80102  0.64605  1.0000
  H   H1367     1.0  0.91902  0.65190  0.31311  1.0000
  H   H1368     1.0  0.90339  0.00282  0.93881  1.0000
  C   C782      1.0  0.67283  0.01981  0.66992  1.0000
  H   H1369     1.0  0.90093  0.97563  0.65779  1.0000
  H   H1370     1.0  0.55259  0.77964  0.87340  1.0000
  H   H1371     1.0  0.49613  0.96185  0.87567  1.0000
  H   H1372     1.0  0.91772  0.59720  0.83410  1.0000
  H   H1373     1.0  0.63435  0.70332  0.81832  1.0000
  H   H1374     1.0  0.78883  0.82687  0.67399  1.0000
  C   C783      1.0  0.92343  0.62778  0.97548  1.0000
  S   S224      1.0  0.54993  0.97831  0.70596  1.0000
  H   H1375     1.0  0.76682  0.90282  0.69054  1.0000
  C   C784      1.0  0.89876  0.54857  0.89022  1.0000
  H   H1376     1.0  0.87767  0.98401  0.68679  1.0000
  C   C785      1.0  0.94597  0.60283  0.66591  1.0000
  Fe  Fe110     1.0  0.82338  0.00994  0.80995  1.0000
  S   S225      1.0  0.86993  0.98793  0.80540  1.0000
  H   H1377     1.0  0.71014  0.96769  0.74028  1.0000
  Fe  Fe111     1.0  0.82046  0.99904  0.87087  1.0000
  H   H1378     1.0  0.86066  0.02725  0.91510  1.0000
  Fe  Fe112     1.0  0.85249  0.95224  0.83287  1.0000
  S   S226      1.0  0.86144  0.90094  0.82859  1.0000
  H   H1379     1.0  0.91625  0.64385  0.66694  1.0000
  S   S227      1.0  0.80491  0.97272  0.83473  1.0000
  H   H1380     1.0  0.64828  0.64756  0.78600  1.0000
  S   S228      1.0  0.80873  0.96979  0.66146  1.0000
  C   C786      1.0  0.90877  0.57541  0.73238  1.0000
  S   S229      1.0  0.62270  0.64897  0.84481  1.0000
  H   H1381     1.0  0.56837  0.66984  0.97008  1.0000
  Fe  Fe113     1.0  0.83844  0.77493  0.71811  1.0000
  S   S230      1.0  0.79123  0.76040  0.71180  1.0000
  S   S231      1.0  0.84465  0.82594  0.71887  1.0000
  Fe  Fe114     1.0  0.86482  0.70899  0.71945  1.0000
  S   S232      1.0  0.81965  0.68999  0.71379  1.0000
  S   S233      1.0  0.90777  0.67963  0.72680  1.0000
  Fe  Fe115     1.0  0.81202  0.72618  0.68216  1.0000
  H   H1382     1.0  0.52421  0.79466  0.92376  1.0000
  Fe  Fe116     1.0  0.80304  0.72579  0.74372  1.0000
  S   S234      1.0  0.77011  0.71376  0.77638  1.0000
  S   S235      1.0  0.85861  0.74317  0.68567  1.0000
  S   S236      1.0  0.84897  0.74233  0.75201  1.0000
  H   H1383     1.0  0.97390  0.60598  0.92421  1.0000
  S   S237      1.0  0.86678  0.97593  0.87126  1.0000
  H   H1384     1.0  0.93644  0.64760  0.97274  1.0000
  Fe  Fe117     1.0  0.80239  0.70818  0.92747  1.0000
  S   S238      1.0  0.82227  0.73455  0.89360  1.0000
  S   S239      1.0  0.78194  0.66279  0.92389  1.0000
  C   C787      1.0  0.78300  0.72115  0.80926  1.0000
  C   C788      1.0  0.80473  0.74234  0.81365  1.0000
  C   C789      1.0  0.81639  0.74654  0.83969  1.0000
  C   C790      1.0  0.80584  0.73009  0.86160  1.0000
  C   C791      1.0  0.78318  0.70977  0.85747  1.0000
  C   C792      1.0  0.77192  0.70516  0.83128  1.0000
  H   H1385     1.0  0.81251  0.75564  0.79702  1.0000
  H   H1386     1.0  0.83389  0.76230  0.84273  1.0000
  H   H1387     1.0  0.77468  0.69725  0.87431  1.0000
  H   H1388     1.0  0.75509  0.68872  0.82802  1.0000
  Fe  Fe118     1.0  0.52260  0.99711  0.74132  1.0000
  H   H1389     1.0  0.88212  0.81126  0.89619  1.0000
  Fe  Fe119     1.0  0.50868  0.63889  0.85120  1.0000
  H   H1390     1.0  0.50837  0.91730  0.67557  1.0000
  S   S240      1.0  0.83240  0.69468  0.96221  1.0000
  Fe  Fe120     1.0  0.87971  0.01377  0.84370  1.0000
  C   C793      1.0  0.88320  0.59199  0.72254  1.0000
  C   C794      1.0  0.88246  0.62395  0.72104  1.0000
  C   C795      1.0  0.90729  0.63963  0.72948  1.0000
  C   C796      1.0  0.93265  0.62312  0.73988  1.0000
  C   C797      1.0  0.93339  0.59111  0.74140  1.0000
  H   H1391     1.0  0.86402  0.58000  0.71563  1.0000
  H   H1392     1.0  0.86286  0.63635  0.71290  1.0000
  H   H1393     1.0  0.95195  0.63511  0.74648  1.0000
  C   C798      1.0  0.84155  0.65124  0.80786  1.0000
  C   C799      1.0  0.67647  0.67502  0.92038  1.0000
  C   C800      1.0  0.69074  0.65889  0.89890  1.0000
  C   C801      1.0  0.67403  0.65071  0.87596  1.0000
  C   C802      1.0  0.64310  0.65909  0.87405  1.0000
  C   C803      1.0  0.62900  0.67570  0.89529  1.0000
  C   C804      1.0  0.64555  0.68341  0.91839  1.0000
  H   H1394     1.0  0.71445  0.65204  0.90026  1.0000
  H   H1395     1.0  0.68508  0.63748  0.85983  1.0000
  H   H1396     1.0  0.60527  0.68245  0.89402  1.0000
  H   H1397     1.0  0.63422  0.69604  0.93469  1.0000
  C   C805      1.0  0.85615  0.88072  0.79782  1.0000
  C   C806      1.0  0.84864  0.89560  0.77355  1.0000
  C   C807      1.0  0.84507  0.87857  0.74951  1.0000
  C   C808      1.0  0.84837  0.84654  0.74964  1.0000
  C   C809      1.0  0.85538  0.83170  0.77399  1.0000
  C   C810      1.0  0.85960  0.84874  0.79783  1.0000
  H   H1398     1.0  0.84601  0.92020  0.77322  1.0000
  H   H1399     1.0  0.83977  0.89030  0.73078  1.0000
  H   H1400     1.0  0.85830  0.80713  0.77433  1.0000
  H   H1401     1.0  0.86586  0.83702  0.81631  1.0000
  H   H1402     1.0  0.60324  0.71941  0.76890  1.0000
  C   C811      1.0  0.79763  0.00154  0.94005  1.0000
  C   C812      1.0  0.54183  0.79761  0.86033  1.0000
  C   C813      1.0  0.67266  0.64989  0.78247  1.0000
  H   H1403     1.0  0.68656  0.97786  0.76786  1.0000
  H   H1404     1.0  0.76764  0.91257  0.65560  1.0000
  C   C814      1.0  0.81528  0.98609  0.74209  1.0000
  C   C815      1.0  0.81729  0.97191  0.71644  1.0000
  C   C816      1.0  0.80382  0.98623  0.69385  1.0000
  H   H1405     1.0  0.49859  0.79216  0.87893  1.0000
  H   H1406     1.0  0.70573  0.02465  0.72642  1.0000
  H   H1407     1.0  0.82583  0.97510  0.75946  1.0000
  H   H1408     1.0  0.82969  0.95013  0.71408  1.0000
  H   H1409     1.0  0.81152  0.66077  0.77393  1.0000
  H   H1410     1.0  0.55148  0.68030  0.75112  1.0000
  H   H1411     1.0  0.82817  0.96346  0.92955  1.0000
  C   C817      1.0  0.89230  0.62974  0.97019  1.0000
  Fe  Fe121     1.0  0.56991  0.02412  0.70428  1.0000
  H   H1412     1.0  0.85021  0.02458  0.96265  1.0000
  C   C818      1.0  0.51540  0.98049  0.81080  1.0000
  H   H1413     1.0  0.84919  0.67079  0.76743  1.0000
  H   H1414     1.0  0.63998  0.00794  0.76463  1.0000
  H   H1415     1.0  0.63452  0.03494  0.79244  1.0000
  H   H1416     1.0  0.79829  0.90313  0.85870  1.0000
  H   H1417     1.0  0.90042  0.64406  0.85285  1.0000
  C   C819      1.0  0.53070  0.00664  0.81660  1.0000
  C   C820      1.0  0.50897  0.60552  0.93423  1.0000
  C   C821      1.0  0.52144  0.00029  0.86506  1.0000
  H   H1418     1.0  0.92284  0.01742  0.67898  1.0000
  C   C822      1.0  0.92339  0.55489  0.65449  1.0000
  C   C823      1.0  0.90785  0.02195  0.92507  1.0000
  H   H1419     1.0  0.50468  0.84909  0.68679  1.0000
  N   N59       1.0  0.67343  0.70800  0.79280  1.0000
  C   C824      1.0  0.68996  0.72939  0.81089  1.0000
  C   C825      1.0  0.68191  0.71489  0.76391  1.0000
  C   C826      1.0  0.68470  0.67595  0.79958  1.0000
  C   C827      1.0  0.64008  0.71306  0.79836  1.0000
  C   C828      1.0  0.68845  0.72354  0.84175  1.0000
  C   C829      1.0  0.67294  0.74742  0.75422  1.0000
  H   H1420     1.0  0.71429  0.72896  0.80535  1.0000
  H   H1421     1.0  0.68126  0.75338  0.80807  1.0000
  H   H1422     1.0  0.67234  0.69919  0.74910  1.0000
  H   H1423     1.0  0.70675  0.71114  0.76098  1.0000
  H   H1424     1.0  0.70981  0.67378  0.79822  1.0000
  H   H1425     1.0  0.67882  0.67044  0.82079  1.0000
  S   S241      1.0  0.54497  0.70022  0.65332  1.0000
  H   H1426     1.0  0.63379  0.73784  0.80066  1.0000
  H   H1427     1.0  0.70229  0.70279  0.84751  1.0000
  H   H1428     1.0  0.69819  0.74278  0.85273  1.0000
  H   H1429     1.0  0.66507  0.72191  0.84926  1.0000
  H   H1430     1.0  0.67744  0.74875  0.73208  1.0000
  H   H1431     1.0  0.64864  0.75355  0.75741  1.0000
  H   H1432     1.0  0.68677  0.76453  0.76409  1.0000
  N   N60       1.0  0.81103  0.84381  0.88358  1.0000
  C   C830      1.0  0.79563  0.87294  0.89439  1.0000
  C   C831      1.0  0.79707  0.81743  0.89728  1.0000
  C   C832      1.0  0.80699  0.84075  0.85338  1.0000
  C   C833      1.0  0.84428  0.84426  0.88934  1.0000
  C   C834      1.0  0.80410  0.90268  0.88056  1.0000
  C   C835      1.0  0.80640  0.81169  0.92701  1.0000
  C   C836      1.0  0.77415  0.84159  0.84339  1.0000
  C   C837      1.0  0.86361  0.81517  0.88131  1.0000
  H   H1433     1.0  0.77068  0.87219  0.89327  1.0000
  H   H1434     1.0  0.80058  0.87584  0.91634  1.0000
  H   H1435     1.0  0.80174  0.79584  0.88578  1.0000
  H   H1436     1.0  0.77203  0.82055  0.89725  1.0000
  H   H1437     1.0  0.81858  0.85867  0.84245  1.0000
  H   H1438     1.0  0.81803  0.81892  0.84579  1.0000
  H   H1439     1.0  0.85432  0.86310  0.87813  1.0000
  H   H1440     1.0  0.84864  0.84980  0.91101  1.0000
  H   H1441     1.0  0.49672  0.58426  0.93308  1.0000
  H   H1442     1.0  0.79111  0.92225  0.89023  1.0000
  H   H1443     1.0  0.82824  0.90702  0.88316  1.0000
  C   C838      1.0  0.51319  0.71056  0.74171  1.0000
  S   S242      1.0  0.52580  0.01397  0.89849  1.0000
  Fe  Fe122     1.0  0.51370  0.99976  0.67976  1.0000
  H   H1444     1.0  0.76187  0.82238  0.85153  1.0000
  H   H1445     1.0  0.77431  0.83916  0.82092  1.0000
  H   H1446     1.0  0.76177  0.86357  0.84826  1.0000
  H   H1447     1.0  0.83310  0.66126  0.86255  1.0000
  H   H1448     1.0  0.85106  0.79421  0.88138  1.0000
  C   C839      1.0  0.50637  0.62740  0.66042  1.0000
  S   S243      1.0  0.50467  0.02662  0.97190  1.0000
  C   C840      1.0  0.95160  0.54085  0.87390  1.0000
  H   H1449     1.0  0.96930  0.55192  0.68983  1.0000
  H   H1450     1.0  0.51237  0.80277  0.66869  1.0000
  C   C841      1.0  0.51038  0.73824  0.96104  1.0000
  Fe  Fe123     1.0  0.80938  0.65090  0.96121  1.0000
  C   C842      1.0  0.97142  0.58199  0.91773  1.0000
  C   C843      1.0  0.53381  0.01637  0.84363  1.0000
  C   C844      1.0  0.64229  0.03004  0.67128  1.0000
  C   C845      1.0  0.90048  0.02328  0.66998  1.0000
  C   C846      1.0  0.81726  0.97646  0.94590  1.0000
  H   H1451     1.0  0.62839  0.68763  0.76011  1.0000
  H   H1452     1.0  0.68399  0.62809  0.78929  1.0000
  H   H1453     1.0  0.97804  0.56770  0.93540  1.0000
  N   N61       1.0  0.87397  0.64439  0.81586  1.0000
  C   C847      1.0  0.87660  0.64228  0.84638  1.0000
  C   C848      1.0  0.82255  0.96807  0.97306  1.0000
  C   C849      1.0  0.72739  0.02007  0.80717  1.0000
  C   C850      1.0  0.53253  0.70461  0.68724  1.0000
  H   H1454     1.0  0.73889  0.00192  0.79455  1.0000
  S   S244      1.0  0.62124  0.02224  0.70083  1.0000
  H   H1455     1.0  0.80214  0.83217  0.93999  1.0000
  C   C851      1.0  0.61799  0.70051  0.77732  1.0000
  H   H1456     1.0  0.67774  0.65170  0.76057  1.0000
  H   H1457     1.0  0.95314  0.57862  0.74920  1.0000
  H   H1458     1.0  0.50996  0.61549  0.91379  1.0000
  S   S245      1.0  0.53250  0.95651  0.96123  1.0000
  N   N62       1.0  0.51582  0.83290  0.89699  1.0000
  N   N63       1.0  0.95201  0.57196  0.65275  1.0000
  Fe  Fe124     1.0  0.57241  0.66148  0.84422  1.0000
  H   H1459     1.0  0.91019  0.56190  0.67301  1.0000
  H   H1460     1.0  0.55517  0.85249  0.94130  1.0000
  C   C852      1.0  0.93827  0.57811  0.90968  1.0000
  H   H1461     1.0  0.55571  0.85594  0.88557  1.0000
  H   H1462     1.0  0.60278  0.68495  0.78759  1.0000
  H   H1463     1.0  0.93175  0.59634  0.89487  1.0000
  C   C853      1.0  0.50669  0.72285  0.69378  1.0000
  H   H1464     1.0  0.95733  0.56243  0.86389  1.0000
  H   H1465     1.0  0.88654  0.03191  0.97464  1.0000
  C   C854      1.0  0.88358  0.61353  0.80395  1.0000
  C   C855      1.0  0.55233  0.68909  0.96772  1.0000
  H   H1466     1.0  0.81866  0.90598  0.67598  1.0000
  S   S246      1.0  0.55532  0.71008  0.83805  1.0000
  C   C856      1.0  0.80744  0.88498  0.67010  1.0000
  H   H1467     1.0  0.88166  0.65089  0.96321  1.0000
  C   C857      1.0  0.51237  0.81151  0.87317  1.0000
  C   C858      1.0  0.78597  0.02851  0.72258  1.0000
  H   H1468     1.0  0.89204  0.01169  0.74776  1.0000
  S   S247      1.0  0.53943  0.64184  0.81488  1.0000
  H   H1469     1.0  0.91912  0.57748  0.80228  1.0000
  H   H1470     1.0  0.98750  0.57705  0.90081  1.0000
  C   C859      1.0  0.69323  0.98553  0.74757  1.0000
  C   C860      1.0  0.87523  0.60432  0.97378  1.0000
  H   H1471     1.0  0.55722  0.68986  0.92440  1.0000
  C   C861      1.0  0.53474  0.81606  0.91807  1.0000
  H   H1472     1.0  0.86833  0.89657  0.67683  1.0000
  H   H1473     1.0  0.86988  0.61962  0.85350  1.0000
  H   H1474     1.0  0.94236  0.60030  0.68802  1.0000
  H   H1475     1.0  0.83038  0.80340  0.92858  1.0000
  H   H1476     1.0  0.79294  0.79338  0.93536  1.0000
  S   S248      1.0  0.54357  0.65391  0.88053  1.0000
  H   H1477     1.0  0.50765  0.90574  0.89483  1.0000
  H   H1478     1.0  0.86405  0.66379  0.88511  1.0000
  C   C862      1.0  0.54881  0.68954  0.70806  1.0000
  C   C863      1.0  0.53907  0.69230  0.73524  1.0000
  H   H1479     1.0  0.56887  0.67543  0.70311  1.0000
  C   C864      1.0  0.88689  0.70122  0.81084  1.0000
  H   H1480     1.0  0.89721  0.61103  0.65713  1.0000
  Fe  Fe125     1.0  0.52011  0.69013  0.81166  1.0000
  H   H1481     1.0  0.52311  0.86670  0.86635  1.0000
  H   H1482     1.0  0.75955  0.87426  0.66591  1.0000
  C   C865      1.0  0.54558  0.70002  0.94171  1.0000
  H   H1483     1.0  0.91800  0.66274  0.81259  1.0000
  C   C866      1.0  0.91527  0.60033  0.81193  1.0000
  S   S249      1.0  0.51299  0.73579  0.90559  1.0000
  S   S250      1.0  0.76627  0.72973  0.95421  1.0000
  S   S251      1.0  0.69597  0.68397  0.95048  1.0000
  Fe  Fe126     1.0  0.74713  0.68349  0.95295  1.0000
  H   H1484     1.0  0.89634  0.71505  0.79441  1.0000
  H   H1485     1.0  0.53251  0.59886  0.94020  1.0000
  H   H1486     1.0  0.77592  0.02463  0.68029  1.0000
  Fe  Fe127     1.0  0.52430  0.70116  0.87265  1.0000
  C   C867      1.0  0.49723  0.72598  0.72094  1.0000
  H   H1487     1.0  0.54042  0.01917  0.80030  1.0000
  H   H1488     1.0  0.67350  0.98588  0.73376  1.0000
  C   C868      1.0  0.88487  0.99306  0.66703  1.0000
  H   H1489     1.0  0.89675  0.70829  0.83041  1.0000
  H   H1490     1.0  0.49984  0.82324  0.85635  1.0000
  H   H1491     1.0  0.86544  0.99549  0.65305  1.0000
  H   H1492     1.0  0.92484  0.58363  0.92830  1.0000
  C   C869      1.0  0.70772  0.01653  0.74764  1.0000
  H   H1493     1.0  0.89775  0.66461  0.78247  1.0000
  H   H1494     1.0  0.86721  0.59631  0.80951  1.0000
  H   H1495     1.0  0.53637  0.78615  0.84093  1.0000
  C   C870      1.0  0.52403  0.72405  0.93823  1.0000
  H   H1496     1.0  0.86050  0.68950  0.85744  1.0000
  H   H1497     1.0  0.68260  0.00631  0.68621  1.0000
  C   C871      1.0  0.50674  0.89723  0.68867  1.0000
  H   H1498     1.0  0.91549  0.01151  0.90544  1.0000
  H   H1499     1.0  0.51966  0.84092  0.95543  1.0000
  S   S252      1.0  0.49928  0.71420  0.77518  1.0000
  H   H1500     1.0  0.87608  0.58135  0.91882  1.0000
  C   C872      1.0  0.83557  0.65353  0.77714  1.0000
  C   C873      1.0  0.50587  0.97428  0.85931  1.0000
  C   C874      1.0  0.77336  0.89393  0.67006  1.0000
  C   C875      1.0  0.78752  0.01413  0.69718  1.0000
  H   H1501     1.0  0.55315  0.81737  0.95868  1.0000
  H   H1502     1.0  0.88366  0.61417  0.78141  1.0000
  H   H1503     1.0  0.89478  0.56549  0.87372  1.0000
  H   H1504     1.0  0.82711  0.63351  0.81601  1.0000
  C   C876      1.0  0.51501  0.86664  0.67422  1.0000
  C   C877      1.0  0.89476  0.66725  0.80475  1.0000
  H   H1505     1.0  0.86254  0.70761  0.81063  1.0000
  H   H1506     1.0  0.93328  0.61441  0.80415  1.0000
  H   H1507     1.0  0.52320  0.90079  0.70516  1.0000
  C   C878      1.0  0.54064  0.83321  0.94467  1.0000
  C   C879      1.0  0.85741  0.66575  0.86344  1.0000
  H   H1508     1.0  0.81200  0.86909  0.68719  1.0000
  Fe  Fe128     1.0  0.50793  0.99331  0.93691  1.0000
  S   S253      1.0  0.79033  0.01320  0.90645  1.0000
  C   C880      1.0  0.87405  0.88685  0.65650  1.0000
  H   H1509     1.0  0.55748  0.80909  0.90996  1.0000
  C   C881      1.0  0.78357  0.01824  0.96144  1.0000
  H   H1510     1.0  0.85778  0.02170  0.71377  1.0000
  H   H1511     1.0  0.87363  0.81756  0.86084  1.0000
  C   C882      1.0  0.79994  0.01463  0.74501  1.0000
  H   H1512     1.0  0.83201  0.67283  0.81693  1.0000
  S   S254      1.0  0.79792  0.03375  0.77627  1.0000
  H   H1513     1.0  0.83925  0.63127  0.76661  1.0000
  H   H1514     1.0  0.52014  0.88736  0.92582  1.0000
  C   C883      1.0  0.52546  0.89047  0.90417  1.0000
  C   C884      1.0  0.53089  0.86079  0.88724  1.0000
  H   H1515     1.0  0.85485  0.84469  0.66503  1.0000
  C   C885      1.0  0.85289  0.86166  0.64847  1.0000
  C   C886      1.0  0.87561  0.55702  0.91282  1.0000
  H   H1516     1.0  0.53965  0.86140  0.67686  1.0000
  C   C887      1.0  0.80082  0.81911  0.65522  1.0000
  C   C888      1.0  0.63731  0.03232  0.77015  1.0000
  H   H1517     1.0  0.71423  0.01835  0.64664  1.0000
  C   C889      1.0  0.91873  0.62235  0.65490  1.0000
  C   C890      1.0  0.69081  0.02653  0.64742  1.0000
  S   S255      1.0  0.51132  0.96745  0.77710  1.0000
  H   H1518     1.0  0.85254  0.55390  0.90505  1.0000
  H   H1519     1.0  0.51179  0.64501  0.96017  1.0000
  C   C891      1.0  0.50301  0.96434  0.83224  1.0000
  C   C892      1.0  0.90111  0.02722  0.73244  1.0000
  H   H1520     1.0  0.68148  0.01095  0.79964  1.0000
  H   H1521     1.0  0.50277  0.60450  0.65184  1.0000
  H   H1522     1.0  0.91899  0.01321  0.72188  1.0000
  H   H1523     1.0  0.82306  0.80809  0.66057  1.0000
  H   H1524     1.0  0.89743  0.87659  0.65792  1.0000
  H   H1525     1.0  0.96571  0.61712  0.66392  1.0000
  C   C893      1.0  0.97688  0.55540  0.66856  1.0000
  H   H1526     1.0  0.73247  0.01230  0.75022  1.0000
  H   H1527     1.0  0.54615  0.90348  0.90357  1.0000
  H   H1528     1.0  0.51957  0.62548  0.67944  1.0000
  C   C894      1.0  0.69596  0.03022  0.79615  1.0000
  S   S256      1.0  0.83599  0.60580  0.96752  1.0000
  H   H1529     1.0  0.72488  0.01058  0.82783  1.0000
  N   N64       1.0  0.93149  0.54721  0.89845  1.0000
  H   H1530     1.0  0.90557  0.03116  0.64911  1.0000
  H   H1531     1.0  0.55803  0.81508  0.85566  1.0000
  H   H1532     1.0  0.87861  0.54235  0.93090  1.0000
  H   H1533     1.0  0.92662  0.03483  0.93307  1.0000
  C   C895      1.0  0.49487  0.62801  0.95555  1.0000
  H   H1534     1.0  0.83757  0.94851  0.97753  1.0000
  H   H1535     1.0  0.83928  0.03596  0.67113  1.0000
  H   H1536     1.0  0.55871  0.89791  0.64907  1.0000
  C   C896      1.0  0.50799  0.80441  0.64661  1.0000
