data_image0
_chemical_formula_structural       HCFeHSFeHSHSH2S2FeS2FeS2FeSFeS3C2HC3NH2C2H2CHCHFeC2HC3HC3H2C7H3C6H7C2HCH2CH2C3H2SH8C3H7SC2H3C2H2CH2SC3HCHCH2C2HFeCH3NCH3CNH3CHCH6NC2HC3H5CH11CH7NH3CH3SCH6CH2CHNHCHCHCH6CHCHC2SHC2H3CH3FeNH6FeS2FeSHSFeSHSFeS2FeS2HFeSCSFeS2FeHFeSFeS3FeCFeS2FeSFeS3C4HCH4C6H4C6H4C6H7C4H3C6H4NC8H23CHC2H9CH2CH7NH6C3HCHCH2CH3NH2CHCH3CHSHCHCHCHNH5FeNC5HC2HCH6CHC2FeH7SC2H2C2H4CHCH2CSH6CS2FeCSFeCSFeHFeHS2FeS2FeS2FeCFeCS2CH3C2H2CH3CH4NHCHCH2C2HSH2C6H4C6H5SNHCHCHCHCHCHCH4CH13CSCHC3HCHC3HCH2CHS2H2SH4CNC8HNH9CHCH5CH2CH2C2HCHCH5CH7CSH2CH5SHNH7CHCHC2H2CFeNSFeHSH2CHS2FeS2FeS2FeSFeS3C6H3C2HC4H4C3H3C2H2C6FeH3C6H5CHCH2NCSHNC3H4CH2CH3CHSH7NHCH2CH14C3H5C2HCH5C2H4CHCSCHCH3SHCH3C2H2C2HCH2CHCHSNCH2C2HC2HCH4CHC3H5CH5CH2CSCHCH2FeS2FeSCHFeSHSFeS2FeCNHFeSHSFeS2H2FeSFeS3FeSFeS2FeSFeS3C6H4C6H4C6H4C6H4CHC5HCHCH2C2H2CH6CH9CH5CH13C2H2NC8H19CNCH4CHCH4CH6NC5H3S2CHC2S2HCH3CHFeHCHC2HFeH4C2SCH7CHS2FeHSFeHSHCHCS2FeS2FeS2FeHFeHS2H4C2H2C2HC3H6CHCH2CHCHC7H4C6H6C2H3CH6C2HCH12C2HCH3FeHC2H2SHCH2CHCH3C2H2CHNHNC3H3CH4CH2CH3FeN2C8H4SH3SCH4CH3CH5CH3NCHCFeH2CH3CHC2HC2HS2HCNC2H3C2HCHCH4CH5CSHSFeHSFeHSH3S3FeS2FeS2FeSFeS3C2HC4H4S2CHC2H2C3H3C3H2C6H4C6H4NC2HC4H3CH3CH3CH3CH4C2NHCH2C2H14CHC2HCH9CH7CH2CH6C2H3CH4C2HC2H3CHC2NHCHCH2CH5CHCHNH8C5H4CNHC2HCHFeHSH3C2HCH4CHCH2CHFeS2FeCH2FeSHSFeS2FeSH2FeSCSFeS2FeSFeSFeS3FeHFeS2FeCFeS3C6H3C4HC2H4C6H4C6H5C3HFeH3CHCHC2H2SH2NHCHC5H6SH4SNHCH9CHC2NC8H25C3H2CH2C2H3CHCH2CH3CH2SCNSH3CH2CH2CHCHCH3SCH5NH2C3HSCHCH2S2FeHSFeCSH4S2FeS2FeS2FeCFeHS2C2H4CHC2H2CH3NHSHCH6CH2C6H4C6H7CH10FeCH8CHC3H2CHNC2HC2H2CH4CH6CHFeSHSHCSHC2H3CH2CHFeCHCNH3CHC2HCHC3H2C2SNHC2H3CH3C2H2SHC4H2CHCHCH2CHCH4CHCH5CFeHSFeCS2H2S3FeS2FeS2FeSFeS3CH2C3H4C4HCH3CHCH3C3H2C6H4C6H5CH5C2NC2H4C2HCHC2H4C2H2NH2C2HCHCHC2HNC2HCH3CH5CH3C2H10CFeH3SC3H3C2H8CH2CH3CHCSCH5NHCH3FeCHCH2CHSC2H4CH5CH14NCH4CHCH4CHFeCFeS2C2SHFeSHSFeSCFeSH2FeSHSFeS2FeSFeSFeS3H2FeS2FeCFeCS2C2HC3HCH2C6H4C6H4C6H5SHC2SHSH2CH2C2H7FeH4CH7CH4SC2HSHC2H9NCH2CNSH5CH6CH2CH2C2H3CH3C2HCHCHNHC2H3C3NC6H7CHCHCHC2H3CSCH2NFeH4S2FeHSFeCSHCH2S2FeS2FeS2FeHFeHS2HCH4CHC2HCHC2SHSH3CSCH2CHCHC6H4C6H4NH2C2H3CH3CHNH3CHCHCH6CH2C2H4C3H3CHCHCHSH3NHSHCHCH2CFeC2H2SH2C2NHNFeH2CH6NH3CH2CHFeH4CHSHCHCFeSH3C2HCH3C2HC2H9CH8CH5CHCHCHC3HC2H3C2HNSH2C2H2CH7NH
_chemical_formula_sum              "H1536 C896 Fe128 S256 N64"
_cell_length_a       48.6691
_cell_length_b       48.4726
_cell_length_c       50.7215
_cell_angle_alpha    89.7153
_cell_angle_beta     90.0168
_cell_angle_gamma    90.0221

_space_group_name_H-M_alt    "P 1"
_space_group_IT_number       1

loop_
  _space_group_symop_operation_xyz
  'x, y, z'

loop_
  _atom_site_type_symbol
  _atom_site_label
  _atom_site_symmetry_multiplicity
  _atom_site_fract_x
  _atom_site_fract_y
  _atom_site_fract_z
  _atom_site_occupancy
  H   H1        1.0  0.36906  0.45951  0.16068  1.0000
  C   C1        1.0  0.23891  0.33614  0.10082  1.0000
  Fe  Fe1       1.0  0.02371  0.12363  0.08517  1.0000
  H   H2        1.0  0.40267  0.22481  0.28303  1.0000
  S   S1        1.0  0.05013  0.12799  0.04796  1.0000
  Fe  Fe2       1.0  0.02480  0.12454  0.14674  1.0000
  H   H3        1.0  0.43393  0.17146  0.99538  1.0000
  S   S2        1.0  0.05382  0.13294  0.18147  1.0000
  H   H4        1.0  0.41946  0.04213  0.07554  1.0000
  S   S3        1.0  0.44593  0.05788  0.12945  1.0000
  H   H5        1.0  0.34859  0.43228  0.17449  1.0000
  H   H6        1.0  0.44071  0.41523  0.99324  1.0000
  S   S4        1.0  0.03312  0.09182  0.11618  1.0000
  S   S5        1.0  0.01986  0.15751  0.11556  1.0000
  Fe  Fe3       1.0  0.38086  0.38591  0.08371  1.0000
  S   S6        1.0  0.42708  0.38620  0.08554  1.0000
  S   S7        1.0  0.35435  0.40427  0.05036  1.0000
  Fe  Fe4       1.0  0.37588  0.36863  0.14283  1.0000
  S   S8        1.0  0.42151  0.36811  0.14810  1.0000
  S   S9        1.0  0.34373  0.35895  0.17484  1.0000
  Fe  Fe5       1.0  0.42198  0.40757  0.12444  1.0000
  S   S10       1.0  0.45109  0.44162  0.13749  1.0000
  Fe  Fe6       1.0  0.42297  0.34651  0.10888  1.0000
  S   S11       1.0  0.45555  0.31282  0.10557  1.0000
  S   S12       1.0  0.37613  0.40970  0.12174  1.0000
  S   S13       1.0  0.37688  0.34465  0.10460  1.0000
  C   C2        1.0  0.44808  0.21909  0.09228  1.0000
  C   C3        1.0  0.47863  0.07369  0.23809  1.0000
  H   H7        1.0  0.06646  0.00186  0.18525  1.0000
  C   C4        1.0  0.45157  0.27672  0.10108  1.0000
  C   C5        1.0  0.42714  0.26510  0.09172  1.0000
  C   C6        1.0  0.42554  0.23645  0.08708  1.0000
  N   N1        1.0  0.03126  0.02929  0.18714  1.0000
  H   H8        1.0  0.00684  0.17380  0.18255  1.0000
  H   H9        1.0  0.40969  0.27823  0.08760  1.0000
  C   C7        1.0  0.04878  0.20806  0.17219  1.0000
  C   C8        1.0  0.44887  0.02157  0.12712  1.0000
  H   H10       1.0  0.26284  0.35972  0.17642  1.0000
  H   H11       1.0  0.05840  0.03557  0.13598  1.0000
  C   C9        1.0  0.44575  0.47767  0.13519  1.0000
  H   H12       1.0  0.40671  0.22771  0.07946  1.0000
  C   C10       1.0  0.00663  0.03353  0.20475  1.0000
  H   H13       1.0  0.06500  0.21061  0.04964  1.0000
  Fe  Fe7       1.0  0.98748  0.08419  0.11648  1.0000
  C   C11       1.0  0.42467  0.42585  0.22450  1.0000
  C   C12       1.0  0.06220  0.06121  0.21569  1.0000
  H   H14       1.0  0.00011  0.13866  0.26438  1.0000
  C   C13       1.0  0.04537  0.11107  0.01705  1.0000
  C   C14       1.0  0.02144  0.09625  0.01123  1.0000
  C   C15       1.0  0.26952  0.34889  0.15826  1.0000
  H   H15       1.0  0.00587  0.09353  0.02624  1.0000
  C   C16       1.0  0.06528  0.11435  0.99711  1.0000
  C   C17       1.0  0.35429  0.40236  0.01515  1.0000
  C   C18       1.0  0.39036  0.43385  0.19005  1.0000
  H   H16       1.0  0.38057  0.36686  0.01210  1.0000
  H   H17       1.0  0.32731  0.43741  0.01102  1.0000
  C   C19       1.0  0.04165  0.15293  0.27002  1.0000
  C   C20       1.0  0.01964  0.14259  0.25489  1.0000
  C   C21       1.0  0.02273  0.13692  0.22773  1.0000
  C   C22       1.0  0.04807  0.14120  0.21532  1.0000
  C   C23       1.0  0.06999  0.15175  0.23035  1.0000
  C   C24       1.0  0.06678  0.15781  0.25742  1.0000
  C   C25       1.0  0.47311  0.00866  0.11901  1.0000
  H   H18       1.0  0.00564  0.12882  0.21657  1.0000
  H   H19       1.0  0.08974  0.15509  0.22107  1.0000
  H   H20       1.0  0.08396  0.16563  0.26870  1.0000
  C   C26       1.0  0.35019  0.34591  0.26540  1.0000
  C   C27       1.0  0.37301  0.35539  0.25081  1.0000
  C   C28       1.0  0.37178  0.35844  0.22308  1.0000
  C   C29       1.0  0.34730  0.35306  0.20955  1.0000
  C   C30       1.0  0.32446  0.34363  0.22413  1.0000
  C   C31       1.0  0.32596  0.33974  0.25178  1.0000
  H   H21       1.0  0.39184  0.36036  0.26105  1.0000
  H   H22       1.0  0.38966  0.36520  0.21221  1.0000
  H   H23       1.0  0.30539  0.33931  0.21402  1.0000
  H   H24       1.0  0.30817  0.33255  0.26259  1.0000
  H   H25       1.0  0.04275  0.07191  0.17861  1.0000
  H   H26       1.0  0.43039  0.08634  0.21255  1.0000
  H   H27       1.0  0.43028  0.25642  0.25766  1.0000
  C   C32       1.0  0.44938  0.09181  0.20156  1.0000
  C   C33       1.0  0.44769  0.26516  0.30942  1.0000
  H   H28       1.0  0.22749  0.33002  0.08279  1.0000
  C   C34       1.0  0.38744  0.24162  0.28432  1.0000
  H   H29       1.0  0.43397  0.43348  0.24320  1.0000
  H   H30       1.0  0.38478  0.41196  0.19419  1.0000
  C   C35       1.0  0.05124  0.05306  0.18828  1.0000
  H   H31       1.0  0.43679  0.22118  0.31089  1.0000
  H   H32       1.0  0.41406  0.40625  0.22971  1.0000
  C   C36       1.0  0.02268  0.23801  0.23251  1.0000
  C   C37       1.0  0.47415  0.25934  0.10607  1.0000
  C   C38       1.0  0.99841  0.16981  0.99865  1.0000
  H   H33       1.0  0.99139  0.01660  0.20180  1.0000
  H   H34       1.0  0.00821  0.25544  0.23459  1.0000
  S   S14       1.0  0.03670  0.15838  0.30454  1.0000
  H   H35       1.0  0.47789  0.14680  0.00493  1.0000
  H   H36       1.0  0.29689  0.38088  0.14668  1.0000
  H   H37       1.0  0.06517  0.21861  0.16073  1.0000
  H   H38       1.0  0.29074  0.31578  0.07295  1.0000
  H   H39       1.0  0.99897  0.22602  0.99203  1.0000
  H   H40       1.0  0.44381  0.31938  0.29640  1.0000
  H   H41       1.0  0.32368  0.33333  0.07395  1.0000
  H   H42       1.0  0.01128  0.04703  0.15266  1.0000
  C   C39       1.0  0.43105  0.27783  0.26523  1.0000
  C   C40       1.0  0.43677  0.03338  0.21315  1.0000
  C   C41       1.0  0.44875  0.41763  0.20632  1.0000
  H   H43       1.0  0.41906  0.04280  0.20261  1.0000
  H   H44       1.0  0.39026  0.29428  0.25336  1.0000
  H   H45       1.0  0.46110  0.40132  0.21620  1.0000
  H   H46       1.0  0.06795  0.08340  0.21537  1.0000
  H   H47       1.0  0.35151  0.43865  0.25967  1.0000
  H   H48       1.0  0.01587  0.22980  0.15279  1.0000
  H   H49       1.0  0.44422  0.08959  0.18023  1.0000
  S   S15       1.0  0.44561  0.18343  0.08479  1.0000
  C   C42       1.0  0.99139  0.06118  0.20124  1.0000
  C   C43       1.0  0.04534  0.00229  0.19371  1.0000
  H   H50       1.0  0.41482  0.01836  0.00149  1.0000
  H   H51       1.0  0.32012  0.33597  0.12372  1.0000
  H   H52       1.0  0.45719  0.23072  0.28204  1.0000
  C   C44       1.0  0.39720  0.26623  0.30114  1.0000
  C   C45       1.0  0.98953  0.18095  0.04457  1.0000
  H   H53       1.0  0.43509  0.03706  0.23463  1.0000
  H   H54       1.0  0.45254  0.28481  0.26146  1.0000
  C   C46       1.0  0.04292  0.20487  0.05080  1.0000
  H   H55       1.0  0.28935  0.31728  0.12270  1.0000
  H   H56       1.0  0.24805  0.31676  0.10825  1.0000
  S   S16       1.0  0.35310  0.34333  0.30052  1.0000
  C   C47       1.0  0.03284  0.19639  0.02309  1.0000
  C   C48       1.0  0.46430  0.04371  0.20169  1.0000
  C   C49       1.0  0.36850  0.38191  0.00135  1.0000
  H   H57       1.0  0.43325  0.46741  0.18727  1.0000
  C   C50       1.0  0.42897  0.00544  0.05246  1.0000
  H   H58       1.0  0.35543  0.41990  0.22971  1.0000
  C   C51       1.0  0.36427  0.44820  0.17923  1.0000
  H   H59       1.0  0.38159  0.24822  0.26412  1.0000
  H   H60       1.0  0.45908  0.07501  0.24943  1.0000
  C   C52       1.0  0.41303  0.03277  0.05653  1.0000
  C   C53       1.0  0.99051  0.18970  0.18053  1.0000
  H   H61       1.0  0.46735  0.27656  0.30634  1.0000
  Fe  Fe8       1.0  0.47631  0.15097  0.09858  1.0000
  C   C54       1.0  0.02068  0.02727  0.15921  1.0000
  H   H62       1.0  0.04170  0.24470  0.22231  1.0000
  H   H63       1.0  0.40759  0.32025  0.29210  1.0000
  H   H64       1.0  0.40477  0.43227  0.17312  1.0000
  N   N2        1.0  0.40462  0.44673  0.21341  1.0000
  C   C55       1.0  0.41214  0.29534  0.24733  1.0000
  H   H65       1.0  0.44155  0.40888  0.18743  1.0000
  H   H66       1.0  0.37111  0.47108  0.23001  1.0000
  H   H67       1.0  0.06982  0.04857  0.17631  1.0000
  C   C56       1.0  0.40147  0.00026  0.99779  1.0000
  N   N3        1.0  0.00005  0.21728  0.19082  1.0000
  H   H68       1.0  0.41870  0.04805  0.04106  1.0000
  H   H69       1.0  0.03151  0.01885  0.11849  1.0000
  H   H70       1.0  0.25210  0.33612  0.15158  1.0000
  C   C57       1.0  0.42603  0.00524  0.13382  1.0000
  H   H71       1.0  0.28691  0.33538  0.16421  1.0000
  C   C58       1.0  0.42436  0.30891  0.30237  1.0000
  H   H72       1.0  0.05131  0.99913  0.14126  1.0000
  H   H73       1.0  0.43593  0.13436  0.19851  1.0000
  H   H74       1.0  0.22395  0.34413  0.11544  1.0000
  H   H75       1.0  0.46292  0.43511  0.20236  1.0000
  H   H76       1.0  0.39046  0.03105  0.05728  1.0000
  H   H77       1.0  0.02373  0.19566  0.22061  1.0000
  N   N4        1.0  0.28561  0.36036  0.11030  1.0000
  C   C59       1.0  0.30467  0.38117  0.09763  1.0000
  C   C60       1.0  0.30100  0.33336  0.11189  1.0000
  H   H78       1.0  0.00494  0.07910  0.20513  1.0000
  C   C61       1.0  0.26018  0.35846  0.09343  1.0000
  C   C62       1.0  0.29473  0.41145  0.09739  1.0000
  C   C63       1.0  0.30900  0.32038  0.08524  1.0000
  H   H79       1.0  0.38510  0.00138  0.09125  1.0000
  H   H80       1.0  0.43515  0.01076  0.20993  1.0000
  H   H81       1.0  0.32505  0.38096  0.10760  1.0000
  H   H82       1.0  0.30875  0.37593  0.07667  1.0000
  H   H83       1.0  0.44543  0.01011  0.03783  1.0000
  C   C64       1.0  0.98835  0.21768  0.00978  1.0000
  H   H84       1.0  0.31959  0.30045  0.08909  1.0000
  H   H85       1.0  0.26237  0.38660  0.13679  1.0000
  H   H86       1.0  0.24870  0.37829  0.09381  1.0000
  H   H87       1.0  0.26543  0.35606  0.07217  1.0000
  H   H88       1.0  0.31075  0.42441  0.08779  1.0000
  H   H89       1.0  0.27573  0.41420  0.08564  1.0000
  H   H90       1.0  0.29189  0.41980  0.11752  1.0000
  H   H91       1.0  0.43093  0.14979  0.02377  1.0000
  H   H92       1.0  0.04071  0.21196  0.00874  1.0000
  H   H93       1.0  0.40726  0.01505  0.14030  1.0000
  H   H94       1.0  0.41135  0.43689  0.99045  1.0000
  C   C65       1.0  0.27871  0.37054  0.13766  1.0000
  H   H95       1.0  0.08078  0.04908  0.22092  1.0000
  H   H96       1.0  0.04680  0.05954  0.23161  1.0000
  H   H97       1.0  0.43377  0.18605  0.02811  1.0000
  H   H98       1.0  0.45373  0.12710  0.22840  1.0000
  H   H99       1.0  0.36864  0.23275  0.29348  1.0000
  H   H100      1.0  0.99170  0.48206  0.14091  1.0000
  H   H101      1.0  0.03105  0.24751  0.17956  1.0000
  N   N5        1.0  0.42469  0.27894  0.29432  1.0000
  H   H102      1.0  0.00733  0.24967  0.03449  1.0000
  H   H103      1.0  0.01205  0.03239  0.22594  1.0000
  H   H104      1.0  0.05747  0.20341  0.19192  1.0000
  C   C66       1.0  0.04208  0.01975  0.13791  1.0000
  H   H105      1.0  0.38043  0.28185  0.29958  1.0000
  H   H106      1.0  0.46520  0.21772  0.03403  1.0000
  H   H107      1.0  0.04432  0.18862  0.16166  1.0000
  S   S17       1.0  0.47158  0.13091  0.13805  1.0000
  C   C67       1.0  0.33852  0.42155  0.00065  1.0000
  H   H108      1.0  0.40282  0.47568  0.12524  1.0000
  H   H109      1.0  0.37474  0.00063  0.03123  1.0000
  H   H110      1.0  0.99246  0.26274  0.10024  1.0000
  H   H111      1.0  0.44007  0.00095  0.07120  1.0000
  H   H112      1.0  0.46300  0.04131  0.17993  1.0000
  H   H113      1.0  0.41362  0.28798  0.22666  1.0000
  C   C68       1.0  0.36696  0.43026  0.24572  1.0000
  H   H114      1.0  0.00533  0.14946  0.00630  1.0000
  H   H115      1.0  0.04463  0.17725  0.01872  1.0000
  C   C69       1.0  0.38517  0.45407  0.23544  1.0000
  H   H116      1.0  0.41882  0.31724  0.24727  1.0000
  N   N6        1.0  0.00226  0.19172  0.01941  1.0000
  H   H117      1.0  0.04159  0.18719  0.06476  1.0000
  C   C70       1.0  0.47257  0.16468  0.01761  1.0000
  H   H118      1.0  0.43615  0.47735  0.22076  1.0000
  C   C71       1.0  0.44112  0.16864  0.01595  1.0000
  H   H119      1.0  0.39686  0.46236  0.25258  1.0000
  C   C72       1.0  0.45337  0.23464  0.30319  1.0000
  H   H120      1.0  0.99213  0.19564  0.06103  1.0000
  H   H121      1.0  0.08385  0.12580  0.00130  1.0000
  H   H122      1.0  0.47223  0.13138  0.19746  1.0000
  H   H123      1.0  0.00404  0.01152  0.15790  1.0000
  H   H124      1.0  0.37908  0.41481  0.25696  1.0000
  H   H125      1.0  0.03173  0.22258  0.05920  1.0000
  C   C73       1.0  0.98670  0.24166  0.02951  1.0000
  H   H126      1.0  0.47234  0.22822  0.31380  1.0000
  C   C74       1.0  0.02333  0.22698  0.17342  1.0000
  H   H127      1.0  0.02888  0.23176  0.25280  1.0000
  C   C75       1.0  0.47237  0.23065  0.10196  1.0000
  C   C76       1.0  0.42095  0.47184  0.20519  1.0000
  S   S18       1.0  0.47803  0.11023  0.07732  1.0000
  H   H128      1.0  0.35409  0.46262  0.19279  1.0000
  C   C77       1.0  0.00908  0.21318  0.21903  1.0000
  C   C78       1.0  0.45360  0.12278  0.20695  1.0000
  H   H129      1.0  0.05686  0.01086  0.23531  1.0000
  H   H130      1.0  0.99770  0.27662  0.19800  1.0000
  H   H131      1.0  0.39692  0.25931  0.32213  1.0000
  C   C79       1.0  0.04790  0.99434  0.22310  1.0000
  H   H132      1.0  0.00034  0.16183  0.05106  1.0000
  H   H133      1.0  0.99141  0.20725  0.23175  1.0000
  H   H134      1.0  0.47689  0.15766  0.03810  1.0000
  Fe  Fe9       1.0  0.47737  0.09041  0.11748  1.0000
  N   N7        1.0  0.47274  0.07277  0.20886  1.0000
  H   H135      1.0  0.48005  0.02850  0.20823  1.0000
  H   H136      1.0  0.98759  0.21189  0.10490  1.0000
  H   H137      1.0  0.98828  0.30315  0.31555  1.0000
  H   H138      1.0  0.99004  0.27136  0.16357  1.0000
  H   H139      1.0  0.02766  0.98810  0.23133  1.0000
  H   H140      1.0  0.98599  0.19111  0.15904  1.0000
  Fe  Fe10      1.0  0.22037  0.39753  0.60976  1.0000
  S   S19       1.0  0.26467  0.40613  0.60016  1.0000
  S   S20       1.0  0.18444  0.42689  0.60315  1.0000
  Fe  Fe11      1.0  0.23371  0.34121  0.63448  1.0000
  S   S21       1.0  0.27889  0.34673  0.62702  1.0000
  H   H141      1.0  0.08826  0.20722  0.45277  1.0000
  S   S22       1.0  0.16340  0.12611  0.64386  1.0000
  Fe  Fe12      1.0  0.26608  0.36168  0.58641  1.0000
  S   S23       1.0  0.28593  0.33869  0.55142  1.0000
  H   H142      1.0  0.09965  0.05887  0.56334  1.0000
  S   S24       1.0  0.22102  0.35414  0.59372  1.0000
  Fe  Fe13      1.0  0.16624  0.09826  0.60847  1.0000
  S   S25       1.0  0.12284  0.08342  0.61082  1.0000
  S   S26       1.0  0.20236  0.06946  0.60077  1.0000
  Fe  Fe14      1.0  0.14833  0.15884  0.61517  1.0000
  S   S27       1.0  0.10367  0.14667  0.61916  1.0000
  S   S28       1.0  0.15775  0.20349  0.60404  1.0000
  H   H143      1.0  0.01521  0.21602  0.51446  1.0000
  Fe  Fe15      1.0  0.11209  0.11934  0.58428  1.0000
  S   S29       1.0  0.08367  0.11547  0.54820  1.0000
  C   C80       1.0  0.18275  0.01660  0.53004  1.0000
  S   S30       1.0  0.15588  0.13212  0.57979  1.0000
  Fe  Fe16      1.0  0.31007  0.33001  0.39449  1.0000
  S   S31       1.0  0.31855  0.28594  0.40432  1.0000
  S   S32       1.0  0.29430  0.35933  0.42659  1.0000
  Fe  Fe17      1.0  0.33089  0.32258  0.33576  1.0000
  H   H144      1.0  0.44837  0.34496  0.45042  1.0000
  Fe  Fe18      1.0  0.29866  0.27742  0.36497  1.0000
  S   S33       1.0  0.26762  0.24214  0.36528  1.0000
  Fe  Fe19      1.0  0.35804  0.29072  0.38163  1.0000
  S   S34       1.0  0.40134  0.28595  0.39816  1.0000
  S   S35       1.0  0.28880  0.32180  0.35555  1.0000
  S   S36       1.0  0.35056  0.33562  0.37397  1.0000
  Fe  Fe20      1.0  0.06093  0.17999  0.33777  1.0000
  C   C81       1.0  0.29554  0.21593  0.55807  1.0000
  Fe  Fe21      1.0  0.08552  0.17722  0.39473  1.0000
  S   S37       1.0  0.08756  0.22350  0.39701  1.0000
  S   S38       1.0  0.10664  0.15410  0.42914  1.0000
  Fe  Fe22      1.0  0.04545  0.22349  0.37861  1.0000
  S   S39       1.0  0.01370  0.25406  0.39417  1.0000
  Fe  Fe23      1.0  0.10444  0.22208  0.35592  1.0000
  S   S40       1.0  0.13851  0.25229  0.34409  1.0000
  S   S41       1.0  0.04211  0.17726  0.37878  1.0000
  S   S42       1.0  0.10431  0.17567  0.35371  1.0000
  C   C82       1.0  0.23200  0.24470  0.35791  1.0000
  C   C83       1.0  0.21440  0.22274  0.36477  1.0000
  C   C84       1.0  0.18578  0.22455  0.36048  1.0000
  C   C85       1.0  0.17448  0.24824  0.34891  1.0000
  H   H145      1.0  0.03697  0.25498  0.48226  1.0000
  C   C86       1.0  0.22073  0.26827  0.34612  1.0000
  H   H146      1.0  0.22290  0.20435  0.37378  1.0000
  H   H147      1.0  0.17247  0.20764  0.36615  1.0000
  H   H148      1.0  0.20892  0.22276  0.56786  1.0000
  H   H149      1.0  0.35226  0.29816  0.47763  1.0000
  C   C87       1.0  0.42628  0.26177  0.38780  1.0000
  C   C88       1.0  0.41894  0.23746  0.37489  1.0000
  C   C89       1.0  0.43929  0.21810  0.36815  1.0000
  C   C90       1.0  0.46718  0.22304  0.37373  1.0000
  C   C91       1.0  0.01644  0.17218  0.50721  1.0000
  C   C92       1.0  0.45415  0.26674  0.39344  1.0000
  H   H150      1.0  0.39755  0.23324  0.37072  1.0000
  H   H151      1.0  0.43338  0.19905  0.35867  1.0000
  H   H152      1.0  0.22893  0.24308  0.60347  1.0000
  H   H153      1.0  0.45998  0.28545  0.40354  1.0000
  C   C93       1.0  0.08973  0.12822  0.51564  1.0000
  C   C94       1.0  0.11316  0.14352  0.50899  1.0000
  C   C95       1.0  0.11757  0.15212  0.48263  1.0000
  C   C96       1.0  0.09845  0.14602  0.46263  1.0000
  C   C97       1.0  0.07510  0.13061  0.46933  1.0000
  C   C98       1.0  0.07071  0.12199  0.49563  1.0000
  H   H154      1.0  0.12808  0.14844  0.52407  1.0000
  H   H155      1.0  0.13611  0.16331  0.47765  1.0000
  H   H156      1.0  0.06079  0.12464  0.45406  1.0000
  H   H157      1.0  0.05268  0.10989  0.50041  1.0000
  C   C99       1.0  0.28570  0.34440  0.51659  1.0000
  C   C100      1.0  0.27970  0.37012  0.50533  1.0000
  C   C101      1.0  0.28212  0.37419  0.47780  1.0000
  C   C102      1.0  0.29026  0.35260  0.46105  1.0000
  C   C103      1.0  0.29528  0.32658  0.47219  1.0000
  C   C104      1.0  0.29333  0.32264  0.49976  1.0000
  H   H158      1.0  0.27387  0.38711  0.51791  1.0000
  H   H159      1.0  0.27794  0.39435  0.46947  1.0000
  H   H160      1.0  0.30127  0.30964  0.45966  1.0000
  H   H161      1.0  0.29810  0.30265  0.50813  1.0000
  H   H162      1.0  0.00052  0.20134  0.42339  1.0000
  H   H163      1.0  0.28250  0.29231  0.59303  1.0000
  H   H164      1.0  0.36312  0.39655  0.50449  1.0000
  C   C105      1.0  0.17390  0.23103  0.62069  1.0000
  C   C106      1.0  0.17404  0.25714  0.60849  1.0000
  C   C107      1.0  0.18831  0.27940  0.61977  1.0000
  C   C108      1.0  0.16752  0.48062  0.60898  1.0000
  H   H165      1.0  0.04254  0.17198  0.45667  1.0000
  H   H166      1.0  0.24049  0.20951  0.55375  1.0000
  H   H167      1.0  0.18839  0.29933  0.61009  1.0000
  C   C109      1.0  0.18909  0.46304  0.60148  1.0000
  C   C110      1.0  0.36385  0.35302  0.49180  1.0000
  C   C111      1.0  0.36834  0.30059  0.46228  1.0000
  C   C112      1.0  0.19772  0.03328  0.59946  1.0000
  C   C113      1.0  0.17217  0.02122  0.60450  1.0000
  C   C114      1.0  0.26874  0.27588  0.60107  1.0000
  H   H168      1.0  0.23065  0.46125  0.58716  1.0000
  H   H169      1.0  0.21322  0.27144  0.56703  1.0000
  H   H170      1.0  0.06251  0.22128  0.50672  1.0000
  H   H171      1.0  0.23349  0.30268  0.56570  1.0000
  N   N8        1.0  0.20866  0.30277  0.42095  1.0000
  C   C115      1.0  0.19215  0.27679  0.41631  1.0000
  C   C116      1.0  0.23864  0.29477  0.42037  1.0000
  C   C117      1.0  0.20275  0.32230  0.39838  1.0000
  C   C118      1.0  0.19986  0.31497  0.44697  1.0000
  C   C119      1.0  0.16096  0.28055  0.41204  1.0000
  C   C120      1.0  0.24712  0.27186  0.43994  1.0000
  C   C121      1.0  0.21914  0.34945  0.39750  1.0000
  C   C122      1.0  0.22059  0.33418  0.46094  1.0000
  H   H172      1.0  0.20013  0.26557  0.39893  1.0000
  H   H173      1.0  0.19428  0.26211  0.43312  1.0000
  H   H174      1.0  0.25240  0.31250  0.42412  1.0000
  H   H175      1.0  0.24450  0.28761  0.40027  1.0000
  H   H176      1.0  0.20635  0.31178  0.37923  1.0000
  H   H177      1.0  0.18079  0.32864  0.39828  1.0000
  H   H178      1.0  0.18024  0.32654  0.44462  1.0000
  H   H179      1.0  0.19547  0.29813  0.46142  1.0000
  H   H180      1.0  0.15097  0.25992  0.41201  1.0000
  H   H181      1.0  0.15127  0.29289  0.42784  1.0000
  H   H182      1.0  0.15645  0.28980  0.39243  1.0000
  H   H183      1.0  0.26989  0.27085  0.44096  1.0000
  H   H184      1.0  0.23936  0.27571  0.46011  1.0000
  H   H185      1.0  0.24010  0.25133  0.43301  1.0000
  H   H186      1.0  0.21417  0.36043  0.37882  1.0000
  H   H187      1.0  0.24166  0.34621  0.39732  1.0000
  H   H188      1.0  0.21303  0.36348  0.41365  1.0000
  H   H189      1.0  0.20910  0.35023  0.47194  1.0000
  H   H190      1.0  0.23486  0.34528  0.44777  1.0000
  H   H191      1.0  0.23243  0.32267  0.47616  1.0000
  H   H192      1.0  0.08853  0.02433  0.56902  1.0000
  H   H193      1.0  0.28377  0.19758  0.56472  1.0000
  H   H194      1.0  0.00509  0.16532  0.43051  1.0000
  C   C123      1.0  0.06174  0.20948  0.48791  1.0000
  H   H195      1.0  0.27072  0.46144  0.62692  1.0000
  C   C124      1.0  0.25672  0.26536  0.55565  1.0000
  C   C125      1.0  0.36732  0.32960  0.44964  1.0000
  H   H196      1.0  0.10500  0.21855  0.48185  1.0000
  H   H197      1.0  0.26767  0.25087  0.63777  1.0000
  H   H198      1.0  0.30191  0.26232  0.62806  1.0000
  H   H199      1.0  0.38049  0.40403  0.41681  1.0000
  H   H200      1.0  0.14813  0.47183  0.61523  1.0000
  H   H201      1.0  0.39375  0.37780  0.51476  1.0000
  H   H202      1.0  0.03852  0.24516  0.44859  1.0000
  H   H203      1.0  0.08303  0.24207  0.46471  1.0000
  H   H204      1.0  0.21179  0.00647  0.64792  1.0000
  C   C126      1.0  0.22947  0.21388  0.57227  1.0000
  H   H205      1.0  0.34139  0.35465  0.48821  1.0000
  H   H206      1.0  0.34549  0.33402  0.44480  1.0000
  C   C127      1.0  0.29344  0.23957  0.57813  1.0000
  H   H207      1.0  0.06732  0.18791  0.49320  1.0000
  H   H208      1.0  0.27804  0.28576  0.64191  1.0000
  H   H209      1.0  0.22413  0.45955  0.64346  1.0000
  H   H210      1.0  0.30888  0.25554  0.57238  1.0000
  H   H211      1.0  0.25398  0.24978  0.54002  1.0000
  H   H212      1.0  0.19157  0.08754  0.54160  1.0000
  H   H213      1.0  0.03560  0.16920  0.51875  1.0000
  N   N9        1.0  0.37933  0.35259  0.46597  1.0000
  H   H214      1.0  0.25504  0.21806  0.60699  1.0000
  H   H215      1.0  0.18163  0.08011  0.50859  1.0000
  H   H216      1.0  0.41914  0.36860  0.47740  1.0000
  H   H217      1.0  0.41053  0.38627  0.42755  1.0000
  H   H218      1.0  0.23995  0.02539  0.58912  1.0000
  H   H219      1.0  0.35139  0.38276  0.44932  1.0000
  C   C128      1.0  0.24509  0.23204  0.59234  1.0000
  C   C129      1.0  0.09631  0.03877  0.55367  1.0000
  C   C130      1.0  0.37395  0.37976  0.45227  1.0000
  H   H220      1.0  0.24868  0.28616  0.60480  1.0000
  C   C131      1.0  0.19216  0.26995  0.34158  1.0000
  H   H221      1.0  0.41221  0.33451  0.48882  1.0000
  C   C132      1.0  0.38794  0.38426  0.42540  1.0000
  H   H222      1.0  0.19299  0.03285  0.54180  1.0000
  H   H223      1.0  0.40164  0.30356  0.33993  1.0000
  C   C133      1.0  0.08552  0.22014  0.47051  1.0000
  H   H224      1.0  0.11708  0.00763  0.53132  1.0000
  H   H225      1.0  0.16329  0.26007  0.59001  1.0000
  H   H226      1.0  0.27310  0.27933  0.54798  1.0000
  N   N10       1.0  0.26556  0.25263  0.58151  1.0000
  H   H227      1.0  0.38100  0.39734  0.46450  1.0000
  H   H228      1.0  0.36692  0.33347  0.50300  1.0000
  C   C134      1.0  0.27979  0.26773  0.62859  1.0000
  H   H229      1.0  0.37723  0.32800  0.43013  1.0000
  C   C135      1.0  0.47458  0.24759  0.38622  1.0000
  H   H230      1.0  0.42001  0.33999  0.42901  1.0000
  H   H231      1.0  0.43826  0.30917  0.34396  1.0000
  H   H232      1.0  0.28939  0.22222  0.53789  1.0000
  C   C136      1.0  0.42734  0.33612  0.44929  1.0000
  H   H233      1.0  0.38282  0.36806  0.41096  1.0000
  S   S43       1.0  0.33937  0.27748  0.34320  1.0000
  H   H234      1.0  0.38873  0.29569  0.47076  1.0000
  C   C137      1.0  0.22012  0.01621  0.59319  1.0000
  H   H235      1.0  0.22285  0.28649  0.53603  1.0000
  C   C138      1.0  0.37134  0.37634  0.51116  1.0000
  H   H236      1.0  0.07984  0.04085  0.53865  1.0000
  C   C139      1.0  0.40957  0.34865  0.47160  1.0000
  H   H237      1.0  0.43006  0.31356  0.45227  1.0000
  N   N11       1.0  0.03333  0.21086  0.47588  1.0000
  H   H238      1.0  0.31735  0.20931  0.55678  1.0000
  H   H239      1.0  0.13575  0.02027  0.55880  1.0000
  H   H240      1.0  0.22496  0.19361  0.58166  1.0000
  H   H241      1.0  0.36136  0.37197  0.53046  1.0000
  H   H242      1.0  0.99920  0.16740  0.52084  1.0000
  Fe  Fe24      1.0  0.11909  0.11211  0.64569  1.0000
  N   N12       1.0  0.13902  0.04599  0.52367  1.0000
  C   C140      1.0  0.12298  0.02696  0.54173  1.0000
  C   C141      1.0  0.16108  0.02865  0.51100  1.0000
  C   C142      1.0  0.11948  0.05664  0.50287  1.0000
  C   C143      1.0  0.15041  0.06930  0.53999  1.0000
  C   C144      1.0  0.21401  0.47456  0.59326  1.0000
  H   H243      1.0  0.15483  0.03398  0.60959  1.0000
  C   C145      1.0  0.13175  0.07409  0.48028  1.0000
  C   C146      1.0  0.17378  0.08696  0.52784  1.0000
  H   H244      1.0  0.30080  0.23050  0.59703  1.0000
  C   C147      1.0  0.22994  0.28231  0.55648  1.0000
  H   H245      1.0  0.17256  0.03996  0.49559  1.0000
  H   H246      1.0  0.23400  0.28518  0.34046  1.0000
  H   H247      1.0  0.10829  0.03913  0.49357  1.0000
  H   H248      1.0  0.10347  0.06999  0.51189  1.0000
  H   H249      1.0  0.13374  0.08382  0.54547  1.0000
  H   H250      1.0  0.15815  0.06146  0.55930  1.0000
  C   C148      1.0  0.41989  0.31451  0.33203  1.0000
  H   H251      1.0  0.36400  0.28489  0.44694  1.0000
  C   C149      1.0  0.20241  0.27578  0.64353  1.0000
  C   C150      1.0  0.02804  0.24041  0.46763  1.0000
  Fe  Fe25      1.0  0.27301  0.39011  0.64160  1.0000
  H   H252      1.0  0.16671  0.10860  0.52523  1.0000
  H   H253      1.0  0.14677  0.06262  0.46816  1.0000
  H   H254      1.0  0.14062  0.09368  0.48740  1.0000
  H   H255      1.0  0.11483  0.08016  0.46670  1.0000
  H   H256      1.0  0.15165  0.01104  0.50019  1.0000
  H   H257      1.0  0.98717  0.18581  0.45312  1.0000
  H   H258      1.0  0.14538  0.47569  0.52681  1.0000
  S   S44       1.0  0.06232  0.22641  0.33752  1.0000
  C   C151      1.0  0.03279  0.19210  0.45226  1.0000
  C   C152      1.0  0.00470  0.18624  0.43937  1.0000
  H   H259      1.0  0.99727  0.27018  0.45509  1.0000
  H   H260      1.0  0.04595  0.20058  0.43624  1.0000
  C   C153      1.0  0.01336  0.20213  0.49710  1.0000
  C   C154      1.0  0.18773  0.22745  0.64463  1.0000
  H   H261      1.0  0.99170  0.20437  0.49074  1.0000
  H   H262      1.0  0.41610  0.33691  0.33486  1.0000
  H   H263      1.0  0.01552  0.15693  0.49101  1.0000
  H   H264      1.0  0.25596  0.99276  0.63278  1.0000
  C   C155      1.0  0.99780  0.24933  0.46431  1.0000
  H   H265      1.0  0.17388  0.00075  0.54340  1.0000
  C   C156      1.0  0.16895  0.99245  0.60299  1.0000
  H   H266      1.0  0.18366  0.28826  0.33244  1.0000
  H   H267      1.0  0.44378  0.26575  0.33099  1.0000
  C   C157      1.0  0.26479  0.47527  0.64335  1.0000
  S   S45       1.0  0.22858  0.38365  0.65137  1.0000
  H   H268      1.0  0.19901  0.00610  0.51846  1.0000
  H   H269      1.0  0.18776  0.20745  0.65418  1.0000
  H   H270      1.0  0.99589  0.26976  0.32863  1.0000
  H   H271      1.0  0.98598  0.23561  0.45122  1.0000
  H   H272      1.0  0.98730  0.25104  0.48366  1.0000
  H   H273      1.0  0.28341  0.47753  0.65569  1.0000
  C   C158      1.0  0.20184  0.24983  0.65606  1.0000
  S   S46       1.0  0.29780  0.41610  0.67107  1.0000
  S   S47       1.0  0.09907  0.08981  0.68128  1.0000
  Fe  Fe26      1.0  0.32987  0.42275  0.82761  1.0000
  C   C159      1.0  0.46360  0.02470  0.84725  1.0000
  S   S48       1.0  0.33013  0.39369  0.79194  1.0000
  Fe  Fe27      1.0  0.33369  0.42378  0.88948  1.0000
  C   C160      1.0  0.23143  0.03419  0.67504  1.0000
  S   S49       1.0  0.34924  0.39661  0.92394  1.0000
  Fe  Fe28      1.0  0.28954  0.45765  0.85924  1.0000
  H   H274      1.0  0.21609  0.43947  0.70165  1.0000
  Fe  Fe29      1.0  0.35062  0.47382  0.85708  1.0000
  H   H275      1.0  0.41242  0.45021  0.89181  1.0000
  S   S50       1.0  0.30036  0.41247  0.86041  1.0000
  S   S51       1.0  0.36448  0.42973  0.85657  1.0000
  Fe  Fe30      1.0  0.07475  0.07197  0.83905  1.0000
  S   S52       1.0  0.07592  0.02678  0.83120  1.0000
  S   S53       1.0  0.08986  0.10213  0.80704  1.0000
  Fe  Fe31      1.0  0.05350  0.06306  0.89657  1.0000
  S   S54       1.0  0.05454  0.01686  0.89169  1.0000
  S   S55       1.0  0.02927  0.07715  0.93318  1.0000
  Fe  Fe32      1.0  0.09503  0.02310  0.87127  1.0000
  C   C161      1.0  0.15681  0.05384  0.75155  1.0000
  Fe  Fe33      1.0  0.03550  0.02443  0.85224  1.0000
  C   C162      1.0  0.22276  0.05503  0.81525  1.0000
  S   S56       1.0  0.09603  0.06886  0.87879  1.0000
  S   S57       1.0  0.03231  0.07025  0.85731  1.0000
  C   C163      1.0  0.03708  0.08895  0.96567  1.0000
  H   H276      1.0  0.32458  0.43520  0.96210  1.0000
  H   H277      1.0  0.41606  0.46422  0.84314  1.0000
  H   H278      1.0  0.07676  0.10606  0.95658  1.0000
  C   C164      1.0  0.45745  0.47726  0.85222  1.0000
  C   C165      1.0  0.35063  0.39953  0.95908  1.0000
  H   H279      1.0  0.44739  0.41158  0.94763  1.0000
  H   H280      1.0  0.99520  0.10905  0.81547  1.0000
  C   C166      1.0  0.20758  0.45942  0.69420  1.0000
  H   H281      1.0  0.03031  0.07332  0.80065  1.0000
  H   H282      1.0  0.48528  0.48144  0.78488  1.0000
  H   H283      1.0  0.46660  0.45811  0.84574  1.0000
  C   C167      1.0  0.48067  0.20249  0.98518  1.0000
  H   H284      1.0  0.27702  0.38535  0.81370  1.0000
  H   H285      1.0  0.00579  0.19327  0.96173  1.0000
  H   H286      1.0  0.19744  0.05993  0.76635  1.0000
  H   H287      1.0  0.26496  0.99595  0.70382  1.0000
  N   N13       1.0  0.17204  0.05087  0.80034  1.0000
  H   H288      1.0  0.01740  0.11229  0.73874  1.0000
  C   C168      1.0  0.42879  0.48065  0.85075  1.0000
  H   H289      1.0  0.19755  0.42452  0.79217  1.0000
  C   C169      1.0  0.39750  0.46105  0.94180  1.0000
  H   H290      1.0  0.42034  0.99634  0.91925  1.0000
  H   H291      1.0  0.14188  0.03701  0.82894  1.0000
  C   C170      1.0  0.17285  0.02209  0.88677  1.0000
  C   C171      1.0  0.19505  0.03968  0.81716  1.0000
  H   H292      1.0  0.47740  0.04097  0.85340  1.0000
  S   S58       1.0  0.31839  0.46745  0.82572  1.0000
  H   H293      1.0  0.17899  0.39953  0.81162  1.0000
  H   H294      1.0  0.37710  0.36411  0.96324  1.0000
  C   C172      1.0  0.09852  0.09338  0.71635  1.0000
  C   C173      1.0  0.10617  0.11774  0.72914  1.0000
  C   C174      1.0  0.10369  0.11993  0.75685  1.0000
  C   C175      1.0  0.09397  0.09773  0.77227  1.0000
  C   C176      1.0  0.08728  0.07305  0.75958  1.0000
  C   C177      1.0  0.08911  0.07107  0.73185  1.0000
  H   H295      1.0  0.11334  0.13515  0.71760  1.0000
  H   H296      1.0  0.10905  0.13914  0.76635  1.0000
  H   H297      1.0  0.08037  0.05560  0.77110  1.0000
  H   H298      1.0  0.08328  0.05205  0.72226  1.0000
  C   C178      1.0  0.30509  0.40950  0.70502  1.0000
  C   C179      1.0  0.31264  0.43165  0.72140  1.0000
  C   C180      1.0  0.31965  0.42731  0.74814  1.0000
  C   C181      1.0  0.32008  0.40058  0.75869  1.0000
  C   C182      1.0  0.31271  0.37841  0.74226  1.0000
  C   C183      1.0  0.30474  0.38286  0.71578  1.0000
  H   H299      1.0  0.31352  0.45229  0.71325  1.0000
  H   H300      1.0  0.32559  0.44455  0.76036  1.0000
  H   H301      1.0  0.31333  0.35759  0.75001  1.0000
  H   H302      1.0  0.29936  0.36554  0.70343  1.0000
  H   H303      1.0  0.41186  0.40810  0.95184  1.0000
  S   S59       1.0  0.38127  0.01175  0.84788  1.0000
  N   N14       1.0  0.99761  0.07114  0.77171  1.0000
  H   H304      1.0  0.15028  0.07570  0.75267  1.0000
  C   C184      1.0  0.01073  0.04982  0.75420  1.0000
  H   H305      1.0  0.45865  0.43054  0.88850  1.0000
  C   C185      1.0  0.44636  0.46743  0.93137  1.0000
  H   H306      1.0  0.99549  0.04095  0.74023  1.0000
  C   C186      1.0  0.33688  0.42033  0.97284  1.0000
  H   H307      1.0  0.45971  0.21147  0.98712  1.0000
  C   C187      1.0  0.41764  0.43403  0.90643  1.0000
  H   H308      1.0  0.28085  0.33669  0.82475  1.0000
  C   C188      1.0  0.42880  0.42358  0.95258  1.0000
  H   H309      1.0  0.38039  0.44604  0.94424  1.0000
  C   C189      1.0  0.02002  0.08671  0.78582  1.0000
  H   H310      1.0  0.03677  0.09273  0.77217  1.0000
  H   H311      1.0  0.18619  0.02523  0.76817  1.0000
  H   H312      1.0  0.23762  0.04491  0.82889  1.0000
  H   H313      1.0  0.38604  0.99921  0.90766  1.0000
  C   C190      1.0  0.16341  0.99768  0.87532  1.0000
  H   H314      1.0  0.39934  0.42029  0.90750  1.0000
  H   H315      1.0  0.18896  0.03929  0.83817  1.0000
  H   H316      1.0  0.43319  0.40867  0.87480  1.0000
  H   H317      1.0  0.02663  0.05954  0.74134  1.0000
  H   H318      1.0  0.25060  0.35043  0.83926  1.0000
  H   H319      1.0  0.19950  0.01780  0.81223  1.0000
  H   H320      1.0  0.14377  0.08048  0.84217  1.0000
  H   H321      1.0  0.40035  0.47080  0.96140  1.0000
  H   H322      1.0  0.44415  0.48287  0.94743  1.0000
  H   H323      1.0  0.03627  0.01293  0.75399  1.0000
  H   H324      1.0  0.16117  0.99299  0.81231  1.0000
  H   H325      1.0  0.13859  0.04030  0.75371  1.0000
  H   H326      1.0  0.44487  0.47942  0.91260  1.0000
  C   C191      1.0  0.01719  0.08569  0.98563  1.0000
  S   S60       1.0  0.32062  0.46838  0.89080  1.0000
  C   C192      1.0  0.47415  0.00077  0.83585  1.0000
  H   H327      1.0  0.18903  0.43667  0.66104  1.0000
  C   C193      1.0  0.02480  0.02548  0.76858  1.0000
  C   C194      1.0  0.16763  0.08123  0.80516  1.0000
  C   C195      1.0  0.20127  0.02686  0.88911  1.0000
  H   H328      1.0  0.16488  0.05063  0.73131  1.0000
  C   C196      1.0  0.43177  0.43252  0.98159  1.0000
  H   H329      1.0  0.19834  0.46985  0.71156  1.0000
  C   C197      1.0  0.17951  0.04685  0.77177  1.0000
  C   C198      1.0  0.47616  0.45647  0.93356  1.0000
  C   C199      1.0  0.01110  0.11313  0.80032  1.0000
  H   H330      1.0  0.99776  0.09375  0.71465  1.0000
  C   C200      1.0  0.99636  0.10613  0.73299  1.0000
  H   H331      1.0  0.18507  0.09367  0.79735  1.0000
  H   H332      1.0  0.24026  0.03499  0.69515  1.0000
  C   C201      1.0  0.21984  0.00544  0.66843  1.0000
  H   H333      1.0  0.00398  0.12934  0.78641  1.0000
  S   S61       1.0  0.00357  0.99477  0.83663  1.0000
  S   S62       1.0  0.12815  0.99032  0.87249  1.0000
  H   H334      1.0  0.24852  0.32858  0.81025  1.0000
  H   H335      1.0  0.22123  0.07684  0.82152  1.0000
  S   S63       1.0  0.25565  0.01405  0.88296  1.0000
  H   H336      1.0  0.16023  0.11235  0.83501  1.0000
  H   H337      1.0  0.26096  0.45771  0.70680  1.0000
  H   H338      1.0  0.21439  0.04945  0.67417  1.0000
  H   H339      1.0  0.47916  0.43470  0.92800  1.0000
  C   C202      1.0  0.06135  0.10312  0.97169  1.0000
  N   N15       1.0  0.23815  0.38510  0.79314  1.0000
  C   C203      1.0  0.26400  0.37087  0.80233  1.0000
  C   C204      1.0  0.24613  0.40736  0.77365  1.0000
  C   C205      1.0  0.21900  0.36517  0.77974  1.0000
  C   C206      1.0  0.22380  0.39692  0.81684  1.0000
  C   C207      1.0  0.26019  0.34523  0.82010  1.0000
  C   C208      1.0  0.25939  0.43338  0.78549  1.0000
  C   C209      1.0  0.23140  0.34927  0.75626  1.0000
  C   C210      1.0  0.19722  0.41333  0.81121  1.0000
  H   H340      1.0  0.00935  0.15673  0.95911  1.0000
  N   N16       1.0  0.42339  0.44651  0.93303  1.0000
  H   H341      1.0  0.22827  0.41417  0.76159  1.0000
  H   H342      1.0  0.26098  0.39926  0.75894  1.0000
  H   H343      1.0  0.21065  0.34983  0.79404  1.0000
  H   H344      1.0  0.20059  0.37619  0.77200  1.0000
  H   H345      1.0  0.21760  0.38022  0.83070  1.0000
  H   H346      1.0  0.23789  0.40986  0.82894  1.0000
  H   H347      1.0  0.26749  0.44659  0.76934  1.0000
  H   H348      1.0  0.21261  0.24694  0.67452  1.0000
  H   H349      1.0  0.44540  0.45066  0.98381  1.0000
  C   C211      1.0  0.14550  0.00459  0.80093  1.0000
  H   H350      1.0  0.00970  0.01156  0.77819  1.0000
  C   C212      1.0  0.38688  0.48425  0.92357  1.0000
  H   H351      1.0  0.23836  0.36331  0.74026  1.0000
  H   H352      1.0  0.21535  0.33569  0.74766  1.0000
  H   H353      1.0  0.24864  0.33571  0.76234  1.0000
  H   H354      1.0  0.19475  0.42945  0.82653  1.0000
  H   H355      1.0  0.23175  0.05386  0.79522  1.0000
  C   C213      1.0  0.22028  0.00747  0.87966  1.0000
  H   H356      1.0  0.44739  0.39944  0.90592  1.0000
  H   H357      1.0  0.37829  0.47579  0.90511  1.0000
  C   C214      1.0  0.41687  0.00671  0.84296  1.0000
  H   H358      1.0  0.20855  0.04566  0.89817  1.0000
  H   H359      1.0  0.18046  0.08431  0.84711  1.0000
  C   C215      1.0  0.44090  0.41727  0.89369  1.0000
  C   C216      1.0  0.16290  0.08960  0.83413  1.0000
  H   H360      1.0  0.12780  0.04548  0.79784  1.0000
  C   C217      1.0  0.14597  0.03569  0.80738  1.0000
  H   H361      1.0  0.16654  0.44272  0.68793  1.0000
  C   C218      1.0  0.01341  0.17465  0.97216  1.0000
  H   H362      1.0  0.24676  0.04113  0.66024  1.0000
  H   H363      1.0  0.24416  0.44589  0.79641  1.0000
  H   H364      1.0  0.38357  0.00755  0.98605  1.0000
  H   H365      1.0  0.14929  0.08879  0.79423  1.0000
  H   H366      1.0  0.17436  0.47066  0.66612  1.0000
  C   C219      1.0  0.43507  0.02772  0.85058  1.0000
  H   H367      1.0  0.14788  0.00047  0.77960  1.0000
  H   H368      1.0  0.03975  0.03242  0.78354  1.0000
  H   H369      1.0  0.06462  0.48369  0.79880  1.0000
  H   H370      1.0  0.15829  0.03709  0.89407  1.0000
  H   H371      1.0  0.47200  0.19442  0.94382  1.0000
  H   H372      1.0  0.42705  0.04643  0.85922  1.0000
  H   H373      1.0  0.27569  0.00521  0.65968  1.0000
  C   C220      1.0  0.36642  0.38036  0.97358  1.0000
  S   S64       1.0  0.22152  0.30294  0.65774  1.0000
  H   H374      1.0  0.99828  0.07491  0.98124  1.0000
  H   H375      1.0  0.27690  0.42839  0.79862  1.0000
  C   C221      1.0  0.18319  0.45224  0.67598  1.0000
  H   H376      1.0  0.27691  0.36450  0.78535  1.0000
  H   H377      1.0  0.46852  0.16432  0.96391  1.0000
  H   H378      1.0  0.02994  0.48129  0.80985  1.0000
  H   H379      1.0  0.23201  0.47786  0.74098  1.0000
  H   H380      1.0  0.99161  0.04553  0.80644  1.0000
  S   S65       1.0  0.24450  0.46667  0.84970  1.0000
  H   H381      1.0  0.12529  0.99596  0.80694  1.0000
  N   N17       1.0  0.23008  0.47697  0.68221  1.0000
  H   H382      1.0  0.02922  0.12175  0.81079  1.0000
  H   H383      1.0  0.27383  0.00008  0.93677  1.0000
  H   H384      1.0  0.21168  0.98841  0.71940  1.0000
  H   H385      1.0  0.20125  0.00271  0.68075  1.0000
  H   H386      1.0  0.45390  0.98953  0.89201  1.0000
  H   H387      1.0  0.03604  0.17578  0.97445  1.0000
  H   H388      1.0  0.18800  0.47808  0.83895  1.0000
  C   C222      1.0  0.21984  0.48590  0.86753  1.0000
  H   H389      1.0  0.25321  0.99106  0.96373  1.0000
  C   C223      1.0  0.25280  0.47874  0.70237  1.0000
  H   H390      1.0  0.24678  0.44066  0.66372  1.0000
  C   C224      1.0  0.48094  0.18324  0.96097  1.0000
  C   C225      1.0  0.24059  0.46200  0.65829  1.0000
  H   H391      1.0  0.48444  0.45992  0.95368  1.0000
  H   H392      1.0  0.04713  0.60812  0.27843  1.0000
  C   C226      1.0  0.02033  0.61939  0.99743  1.0000
  Fe  Fe34      1.0  0.01032  0.61723  0.10586  1.0000
  N   N18       1.0  0.36623  0.76007  0.14622  1.0000
  S   S66       1.0  0.03836  0.59831  0.07418  1.0000
  Fe  Fe35      1.0  0.00636  0.64049  0.16326  1.0000
  H   H393      1.0  0.45797  0.79293  0.31547  1.0000
  S   S67       1.0  0.02411  0.66394  0.19908  1.0000
  H   H394      1.0  0.41803  0.78039  0.27096  1.0000
  H   H395      1.0  0.23921  0.93676  0.00759  1.0000
  C   C227      1.0  0.31968  0.77192  0.16908  1.0000
  H   H396      1.0  0.30265  0.76452  0.15637  1.0000
  S   S68       1.0  0.01078  0.59741  0.14662  1.0000
  S   S69       1.0  0.01017  0.66042  0.12281  1.0000
  Fe  Fe36      1.0  0.36571  0.89400  0.07675  1.0000
  S   S70       1.0  0.41000  0.88237  0.07181  1.0000
  S   S71       1.0  0.34438  0.91948  0.04373  1.0000
  Fe  Fe37      1.0  0.36522  0.87004  0.13515  1.0000
  S   S72       1.0  0.40974  0.85795  0.13265  1.0000
  S   S73       1.0  0.33758  0.85485  0.16941  1.0000
  Fe  Fe38      1.0  0.41582  0.89942  0.11274  1.0000
  S   S74       1.0  0.45311  0.92701  0.11990  1.0000
  Fe  Fe39      1.0  0.39930  0.84238  0.09224  1.0000
  S   S75       1.0  0.40696  0.79939  0.07586  1.0000
  S   S76       1.0  0.37186  0.91264  0.11741  1.0000
  S   S77       1.0  0.35443  0.85306  0.09497  1.0000
  C   C228      1.0  0.46207  0.73272  0.11303  1.0000
  C   C229      1.0  0.44425  0.72622  0.09236  1.0000
  C   C230      1.0  0.42995  0.74036  0.25852  1.0000
  C   C231      1.0  0.42877  0.77428  0.09021  1.0000
  C   C232      1.0  0.44648  0.78072  0.11097  1.0000
  C   C233      1.0  0.46307  0.76002  0.12226  1.0000
  H   H397      1.0  0.15023  0.65428  0.31177  1.0000
  H   H398      1.0  0.37231  0.79473  0.19144  1.0000
  H   H399      1.0  0.44749  0.80165  0.11821  1.0000
  C   C234      1.0  0.12115  0.66493  0.27960  1.0000
  C   C235      1.0  0.43894  0.53567  0.13402  1.0000
  H   H400      1.0  0.33665  0.73187  0.16332  1.0000
  C   C236      1.0  0.47842  0.56855  0.03778  1.0000
  C   C237      1.0  0.45121  0.96334  0.12350  1.0000
  C   C238      1.0  0.39093  0.74172  0.15073  1.0000
  C   C239      1.0  0.41659  0.51798  0.12919  1.0000
  H   H401      1.0  0.45804  0.51889  0.08211  1.0000
  H   H402      1.0  0.46145  0.56942  0.99706  1.0000
  H   H403      1.0  0.39216  0.82036  0.17513  1.0000
  H   H404      1.0  0.39665  0.52671  0.12473  1.0000
  C   C240      1.0  0.01969  0.61805  0.02530  1.0000
  C   C241      1.0  0.03751  0.60034  0.03894  1.0000
  C   C242      1.0  0.05558  0.58372  0.02419  1.0000
  H   H405      1.0  0.00574  0.63105  0.03624  1.0000
  H   H406      1.0  0.06953  0.57000  0.03445  1.0000
  H   H407      1.0  0.12093  0.70845  0.31847  1.0000
  C   C243      1.0  0.34314  0.91515  0.00868  1.0000
  C   C244      1.0  0.47429  0.97964  0.11739  1.0000
  H   H408      1.0  0.35616  0.87276  0.00834  1.0000
  H   H409      1.0  0.32954  0.95692  0.00178  1.0000
  C   C245      1.0  0.04430  0.65134  0.28778  1.0000
  C   C246      1.0  0.04279  0.62851  0.27073  1.0000
  C   C247      1.0  0.03627  0.63183  0.24372  1.0000
  C   C248      1.0  0.03109  0.65812  0.23330  1.0000
  C   C249      1.0  0.03271  0.68096  0.25033  1.0000
  C   C250      1.0  0.03908  0.67764  0.27737  1.0000
  Fe  Fe40      1.0  0.47115  0.60110  0.13041  1.0000
  H   H410      1.0  0.08974  0.69724  0.30406  1.0000
  H   H411      1.0  0.99167  0.77126  0.12267  1.0000
  H   H412      1.0  0.04003  0.69543  0.29012  1.0000
  C   C251      1.0  0.34708  0.83818  0.25942  1.0000
  C   C252      1.0  0.36807  0.85176  0.24522  1.0000
  C   C253      1.0  0.36583  0.85662  0.21774  1.0000
  C   C254      1.0  0.34232  0.84827  0.20397  1.0000
  C   C255      1.0  0.32147  0.83442  0.21813  1.0000
  C   C256      1.0  0.32386  0.82926  0.24555  1.0000
  H   H413      1.0  0.38613  0.85888  0.25559  1.0000
  H   H414      1.0  0.38204  0.86737  0.20732  1.0000
  H   H415      1.0  0.30312  0.82790  0.20784  1.0000
  H   H416      1.0  0.30744  0.81888  0.25600  1.0000
  H   H417      1.0  0.41490  0.52203  0.07567  1.0000
  C   C257      1.0  0.42713  0.97630  0.13196  1.0000
  H   H418      1.0  0.09143  0.74736  0.31455  1.0000
  C   C258      1.0  0.40917  0.53804  0.06116  1.0000
  H   H419      1.0  0.38624  0.76371  0.30077  1.0000
  H   H420      1.0  0.39834  0.74311  0.17142  1.0000
  N   N19       1.0  0.41271  0.98047  0.04391  1.0000
  C   C259      1.0  0.16416  0.73222  0.27583  1.0000
  S   S78       1.0  0.43439  0.57187  0.13153  1.0000
  H   H421      1.0  0.45342  0.77513  0.27303  1.0000
  N   N20       1.0  0.46009  0.54565  0.04763  1.0000
  C   C260      1.0  0.46892  0.58364  0.01248  1.0000
  C   C261      1.0  0.12830  0.65171  0.30649  1.0000
  C   C262      1.0  0.33467  0.93746  0.99266  1.0000
  H   H422      1.0  0.37294  0.75146  0.10479  1.0000
  H   H423      1.0  0.12424  0.62918  0.30545  1.0000
  H   H424      1.0  0.16221  0.74413  0.29439  1.0000
  H   H425      1.0  0.44494  0.71629  0.30748  1.0000
  C   C263      1.0  0.12675  0.69218  0.22668  1.0000
  H   H426      1.0  0.42058  0.94195  0.02359  1.0000
  H   H427      1.0  0.00458  0.58345  0.20840  1.0000
  C   C264      1.0  0.39257  0.72085  0.31058  1.0000
  H   H428      1.0  0.16256  0.69646  0.29996  1.0000
  H   H429      1.0  0.39059  0.94629  0.06132  1.0000
  H   H430      1.0  0.46644  0.96433  0.06020  1.0000
  C   C265      1.0  0.25938  0.93564  0.99744  1.0000
  H   H431      1.0  0.15318  0.74296  0.25974  1.0000
  S   S79       1.0  0.05410  0.64585  0.32138  1.0000
  H   H432      1.0  0.44334  0.70531  0.08505  1.0000
  H   H433      1.0  0.44618  0.93317  0.06404  1.0000
  H   H434      1.0  0.98693  0.53839  0.02632  1.0000
  H   H435      1.0  0.11759  0.70180  0.20879  1.0000
  H   H436      1.0  0.03420  0.98467  0.18445  1.0000
  H   H437      1.0  0.44321  0.96937  0.01455  1.0000
  H   H438      1.0  0.40142  0.52775  0.04312  1.0000
  N   N21       1.0  0.12478  0.69584  0.27754  1.0000
  H   H439      1.0  0.14913  0.69638  0.22606  1.0000
  C   C266      1.0  0.05603  0.58487  0.99632  1.0000
  H   H440      1.0  0.39171  0.54973  0.06973  1.0000
  H   H441      1.0  0.41955  0.51429  0.19167  1.0000
  C   C267      1.0  0.99280  0.54342  0.00569  1.0000
  H   H442      1.0  0.16764  0.68872  0.26682  1.0000
  H   H443      1.0  0.00330  0.57876  0.25495  1.0000
  H   H444      1.0  0.32379  0.79385  0.16462  1.0000
  H   H445      1.0  0.02898  0.70143  0.24252  1.0000
  H   H446      1.0  0.41416  0.74189  0.06479  1.0000
  H   H447      1.0  0.35437  0.75116  0.18681  1.0000
  H   H448      1.0  0.34351  0.73491  0.11839  1.0000
  H   H449      1.0  0.03597  0.61417  0.23084  1.0000
  H   H450      1.0  0.18611  0.73253  0.26978  1.0000
  H   H451      1.0  0.11619  0.75316  0.28954  1.0000
  H   H452      1.0  0.02379  0.54430  0.18547  1.0000
  H   H453      1.0  0.47654  0.69315  0.19431  1.0000
  H   H454      1.0  0.38946  0.49579  0.18331  1.0000
  H   H455      1.0  0.48181  0.53741  0.14420  1.0000
  C   C268      1.0  0.99132  0.56490  0.20683  1.0000
  C   C269      1.0  0.45567  0.52323  0.02753  1.0000
  C   C270      1.0  0.45480  0.94812  0.04967  1.0000
  H   H456      1.0  0.40705  0.78728  0.18013  1.0000
  H   H457      1.0  0.39524  0.50735  0.21696  1.0000
  H   H458      1.0  0.02624  0.53950  0.22009  1.0000
  H   H459      1.0  0.40794  0.73723  0.25354  1.0000
  H   H460      1.0  0.08229  0.74036  0.28126  1.0000
  C   C271      1.0  0.09944  0.73918  0.29567  1.0000
  C   C272      1.0  0.42003  0.48908  0.12940  1.0000
  H   H461      1.0  0.47677  0.76523  0.13821  1.0000
  C   C273      1.0  0.43347  0.76486  0.27750  1.0000
  H   H462      1.0  0.13408  0.65405  0.26488  1.0000
  H   H463      1.0  0.11365  0.72732  0.24849  1.0000
  H   H464      1.0  0.37053  0.70140  0.15747  1.0000
  H   H465      1.0  0.43880  0.72084  0.26596  1.0000
  H   H466      1.0  0.12278  0.66971  0.22506  1.0000
  C   C274      1.0  0.37608  0.78951  0.14827  1.0000
  C   C275      1.0  0.42777  0.74699  0.08092  1.0000
  H   H467      1.0  0.36898  0.96950  0.09819  1.0000
  H   H468      1.0  0.35024  0.79462  0.09961  1.0000
  H   H469      1.0  0.09953  0.65903  0.27506  1.0000
  H   H470      1.0  0.42454  0.57118  0.03817  1.0000
  C   C276      1.0  0.10890  0.70906  0.29979  1.0000
  H   H471      1.0  0.39754  0.71191  0.29118  1.0000
  C   C277      1.0  0.46784  0.49534  0.14075  1.0000
  S   S80       1.0  0.35073  0.83381  0.29441  1.0000
  C   C278      1.0  0.34968  0.89018  0.99644  1.0000
  H   H472      1.0  0.40634  0.69966  0.14991  1.0000
  C   C279      1.0  0.46453  0.52416  0.14002  1.0000
  H   H473      1.0  0.01826  0.53952  0.27435  1.0000
  H   H474      1.0  0.48117  0.58448  0.05331  1.0000
  H   H475      1.0  0.48061  0.49185  0.00821  1.0000
  S   S81       1.0  0.47900  0.63619  0.15854  1.0000
  H   H476      1.0  0.39238  0.79362  0.13335  1.0000
  C   C280      1.0  0.40087  0.75146  0.31302  1.0000
  H   H477      1.0  0.09071  0.69932  0.25036  1.0000
  H   H478      1.0  0.43496  0.57286  0.07156  1.0000
  H   H479      1.0  0.40843  0.74857  0.13825  1.0000
  C   C281      1.0  0.35552  0.75446  0.11879  1.0000
  C   C282      1.0  0.39950  0.96642  0.06725  1.0000
  H   H480      1.0  0.35982  0.80462  0.14325  1.0000
  H   H481      1.0  0.48371  0.72699  0.18286  1.0000
  C   C283      1.0  0.40484  0.49849  0.19908  1.0000
  C   C284      1.0  0.38751  0.79795  0.17545  1.0000
  H   H482      1.0  0.40933  0.96400  0.13703  1.0000
  C   C285      1.0  0.33747  0.77684  0.10585  1.0000
  H   H483      1.0  0.32814  0.76843  0.08758  1.0000
  H   H484      1.0  0.32056  0.78410  0.11852  1.0000
  C   C286      1.0  0.11300  0.70465  0.25128  1.0000
  H   H485      1.0  0.44144  0.74474  0.24004  1.0000
  C   C287      1.0  0.43269  0.55841  0.05461  1.0000
  H   H486      1.0  0.37000  0.71902  0.31336  1.0000
  S   S82       1.0  0.47681  0.62770  0.09415  1.0000
  N   N22       1.0  0.43030  0.75896  0.30654  1.0000
  C   C288      1.0  0.38691  0.71068  0.14513  1.0000
  H   H487      1.0  0.38279  0.70670  0.12397  1.0000
  H   H488      1.0  0.31241  0.77196  0.18986  1.0000
  C   C289      1.0  0.01139  0.54063  0.20356  1.0000
  C   C290      1.0  0.15505  0.70205  0.27992  1.0000
  H   H489      1.0  0.35894  0.98719  0.06921  1.0000
  C   C291      1.0  0.34500  0.75290  0.16682  1.0000
  C   C292      1.0  0.43217  0.95996  0.03155  1.0000
  H   H490      1.0  0.48512  0.74498  0.28996  1.0000
  C   C293      1.0  0.47201  0.53423  0.07293  1.0000
  H   H491      1.0  0.41505  0.96118  0.08237  1.0000
  H   H492      1.0  0.41559  0.81650  0.29721  1.0000
  H   H493      1.0  0.27313  0.92323  0.01040  1.0000
  H   H494      1.0  0.43956  0.52985  0.01321  1.0000
  C   C294      1.0  0.98590  0.56381  0.25562  1.0000
  H   H495      1.0  0.01341  0.53430  0.00239  1.0000
  C   C295      1.0  0.99738  0.53604  0.26612  1.0000
  C   C296      1.0  0.48048  0.74181  0.31114  1.0000
  C   C297      1.0  0.44963  0.73670  0.31611  1.0000
  H   H496      1.0  0.37973  0.96770  0.01814  1.0000
  H   H497      1.0  0.28332  0.87771  0.31832  1.0000
  H   H498      1.0  0.06158  0.97608  0.22495  1.0000
  H   H499      1.0  0.26851  0.95641  0.99608  1.0000
  H   H500      1.0  0.00089  0.52062  0.20054  1.0000
  C   C298      1.0  0.37692  0.98253  0.08184  1.0000
  H   H501      1.0  0.46979  0.93641  0.03759  1.0000
  H   H502      1.0  0.99938  0.51944  0.25144  1.0000
  H   H503      1.0  0.47908  0.52332  0.99036  1.0000
  H   H504      1.0  0.47443  0.55105  0.08771  1.0000
  H   H505      1.0  0.45289  0.59922  0.01689  1.0000
  C   C299      1.0  0.39098  0.98691  0.02356  1.0000
  H   H506      1.0  0.99417  0.56618  0.00434  1.0000
  H   H507      1.0  0.44746  0.50431  0.03736  1.0000
  C   C300      1.0  0.41725  0.80944  0.31797  1.0000
  S   S83       1.0  0.48328  0.70778  0.12845  1.0000
  C   C301      1.0  0.48076  0.51463  0.01061  1.0000
  H   H508      1.0  0.11511  0.65965  0.32248  1.0000
  C   C302      1.0  0.43740  0.78501  0.32134  1.0000
  H   H509      1.0  0.32873  0.89256  0.32079  1.0000
  H   H510      1.0  0.28153  0.91472  0.32200  1.0000
  Fe  Fe41      1.0  0.21700  0.90489  0.59884  1.0000
  S   S84       1.0  0.26311  0.90538  0.59485  1.0000
  S   S85       1.0  0.18564  0.93943  0.59468  1.0000
  Fe  Fe42      1.0  0.21581  0.84423  0.61594  1.0000
  S   S86       1.0  0.26171  0.84075  0.61374  1.0000
  C   C303      1.0  0.21751  0.50335  0.59314  1.0000
  H   H511      1.0  0.17393  0.78419  0.40653  1.0000
  Fe  Fe43      1.0  0.25783  0.86382  0.57487  1.0000
  S   S87       1.0  0.28263  0.84485  0.54055  1.0000
  H   H512      1.0  0.18193  0.54454  0.55145  1.0000
  S   S88       1.0  0.21159  0.86506  0.57649  1.0000
  Fe  Fe44      1.0  0.17318  0.58902  0.61789  1.0000
  S   S89       1.0  0.12778  0.58574  0.62430  1.0000
  S   S90       1.0  0.20229  0.55680  0.60158  1.0000
  Fe  Fe45      1.0  0.17442  0.64954  0.63515  1.0000
  C   C304      1.0  0.32217  0.93144  0.35792  1.0000
  N   N23       1.0  0.14223  0.54815  0.53284  1.0000
  H   H513      1.0  0.29235  0.94660  0.38787  1.0000
  Fe  Fe46      1.0  0.12542  0.62752  0.60444  1.0000
  S   S91       1.0  0.09436  0.63953  0.57221  1.0000
  H   H514      1.0  0.20497  0.74907  0.39303  1.0000
  S   S92       1.0  0.17031  0.62913  0.59572  1.0000
  Fe  Fe47      1.0  0.30108  0.81151  0.38297  1.0000
  S   S93       1.0  0.29814  0.76539  0.38553  1.0000
  S   S94       1.0  0.28098  0.83998  0.41369  1.0000
  H   H515      1.0  0.47208  0.70678  0.49528  1.0000
  H   H516      1.0  0.25363  0.89309  0.33273  1.0000
  Fe  Fe48      1.0  0.28321  0.76753  0.34374  1.0000
  S   S95       1.0  0.25028  0.73733  0.33104  1.0000
  Fe  Fe49      1.0  0.34052  0.76500  0.36781  1.0000
  S   S96       1.0  0.37088  0.73140  0.37894  1.0000
  S   S97       1.0  0.28346  0.81388  0.34154  1.0000
  S   S98       1.0  0.34493  0.81118  0.36797  1.0000
  Fe  Fe50      1.0  0.06094  0.67566  0.35614  1.0000
  S   S99       1.0  0.05514  0.72148  0.35310  1.0000
  Fe  Fe51      1.0  0.08240  0.67919  0.41429  1.0000
  S   S100      1.0  0.07778  0.72528  0.41422  1.0000
  S   S101      1.0  0.10733  0.65743  0.44716  1.0000
  Fe  Fe52      1.0  0.03718  0.71843  0.39383  1.0000
  S   S102      1.0  0.00362  0.74886  0.40525  1.0000
  Fe  Fe53      1.0  0.09594  0.72465  0.37368  1.0000
  S   S103      1.0  0.12597  0.75842  0.36221  1.0000
  S   S104      1.0  0.04032  0.67189  0.39623  1.0000
  S   S105      1.0  0.10321  0.67912  0.37435  1.0000
  C   C305      1.0  0.21570  0.74334  0.33935  1.0000
  C   C306      1.0  0.19810  0.72081  0.34380  1.0000
  C   C307      1.0  0.17054  0.72506  0.35111  1.0000
  C   C308      1.0  0.16029  0.75189  0.35323  1.0000
  C   C309      1.0  0.17773  0.77437  0.34819  1.0000
  C   C310      1.0  0.20544  0.77015  0.34155  1.0000
  H   H517      1.0  0.39597  0.75698  0.33377  1.0000
  H   H518      1.0  0.15732  0.70761  0.35514  1.0000
  H   H519      1.0  0.37539  0.87661  0.35829  1.0000
  H   H520      1.0  0.15489  0.71876  0.44187  1.0000
  C   C311      1.0  0.40574  0.73792  0.38600  1.0000
  C   C312      1.0  0.41507  0.76439  0.39212  1.0000
  C   C313      1.0  0.44303  0.76876  0.39779  1.0000
  C   C314      1.0  0.46190  0.74690  0.39660  1.0000
  C   C315      1.0  0.45261  0.72047  0.39024  1.0000
  C   C316      1.0  0.42453  0.71595  0.38531  1.0000
  H   H521      1.0  0.40069  0.78137  0.39295  1.0000
  H   H522      1.0  0.45009  0.78918  0.40303  1.0000
  H   H523      1.0  0.08715  0.56973  0.54424  1.0000
  H   H524      1.0  0.41737  0.69541  0.38063  1.0000
  C   C317      1.0  0.09844  0.64427  0.53744  1.0000
  C   C318      1.0  0.12320  0.63876  0.52443  1.0000
  C   C319      1.0  0.12543  0.64291  0.49691  1.0000
  C   C320      1.0  0.10319  0.65313  0.48197  1.0000
  C   C321      1.0  0.07860  0.65914  0.49505  1.0000
  C   C322      1.0  0.07623  0.65454  0.52252  1.0000
  H   H525      1.0  0.14074  0.63164  0.53559  1.0000
  H   H526      1.0  0.14463  0.63838  0.48709  1.0000
  H   H527      1.0  0.06127  0.66697  0.48394  1.0000
  H   H528      1.0  0.05698  0.65905  0.53228  1.0000
  C   C323      1.0  0.28079  0.84319  0.50528  1.0000
  C   C324      1.0  0.26315  0.85988  0.49028  1.0000
  C   C325      1.0  0.26343  0.85848  0.46240  1.0000
  C   C326      1.0  0.28102  0.84016  0.44901  1.0000
  C   C327      1.0  0.29824  0.82309  0.46399  1.0000
  C   C328      1.0  0.29823  0.82476  0.49184  1.0000
  H   H529      1.0  0.24964  0.87421  0.50017  1.0000
  H   H530      1.0  0.24997  0.87182  0.45114  1.0000
  H   H531      1.0  0.31196  0.80892  0.45416  1.0000
  H   H532      1.0  0.31202  0.81177  0.50311  1.0000
  C   C329      1.0  0.19149  0.77655  0.63187  1.0000
  H   H533      1.0  0.25888  0.49513  0.63410  1.0000
  C   C330      1.0  0.13559  0.51799  0.53743  1.0000
  C   C331      1.0  0.20017  0.71901  0.63448  1.0000
  C   C332      1.0  0.21994  0.73651  0.62306  1.0000
  C   C333      1.0  0.21549  0.76516  0.62145  1.0000
  C   C334      1.0  0.26346  0.98720  0.65285  1.0000
  H   H534      1.0  0.23420  0.76998  0.39764  1.0000
  C   C335      1.0  0.17293  0.55248  0.53276  1.0000
  H   H535      1.0  0.23058  0.77839  0.61215  1.0000
  C   C336      1.0  0.18281  0.58249  0.52915  1.0000
  H   H536      1.0  0.20600  0.70003  0.34214  1.0000
  H   H537      1.0  0.16222  0.54536  0.48083  1.0000
  C   C337      1.0  0.19631  0.52087  0.60147  1.0000
  C   C338      1.0  0.17117  0.50946  0.60923  1.0000
  H   H538      1.0  0.32262  0.89238  0.43060  1.0000
  H   H539      1.0  0.35133  0.89692  0.39067  1.0000
  C   C339      1.0  0.21698  0.98730  0.59202  1.0000
  H   H540      1.0  0.15465  0.52278  0.61562  1.0000
  H   H541      1.0  0.09370  0.57302  0.57835  1.0000
  H   H542      1.0  0.22568  0.71243  0.42300  1.0000
  H   H543      1.0  0.34123  0.93862  0.36795  1.0000
  H   H544      1.0  0.17833  0.59514  0.54677  1.0000
  H   H545      1.0  0.22502  0.81979  0.41536  1.0000
  C   C340      1.0  0.13069  0.56414  0.55579  1.0000
  H   H546      1.0  0.30309  0.78600  0.64449  1.0000
  H   H547      1.0  0.17413  0.59235  0.51124  1.0000
  H   H548      1.0  0.20187  0.78995  0.48341  1.0000
  H   H549      1.0  0.15216  0.74674  0.41921  1.0000
  H   H550      1.0  0.33047  0.86323  0.34167  1.0000
  H   H551      1.0  0.13643  0.51285  0.55891  1.0000
  H   H552      1.0  0.46122  0.72165  0.44874  1.0000
  H   H553      1.0  0.46707  0.64172  0.46019  1.0000
  H   H554      1.0  0.30531  0.97217  0.36578  1.0000
  C   C341      1.0  0.13968  0.54774  0.48153  1.0000
  H   H555      1.0  0.17673  0.71929  0.41378  1.0000
  H   H556      1.0  0.20715  0.81097  0.38563  1.0000
  H   H557      1.0  0.23630  0.80259  0.48517  1.0000
  H   H558      1.0  0.29253  0.90111  0.41277  1.0000
  H   H559      1.0  0.11418  0.51327  0.53114  1.0000
  C   C342      1.0  0.20457  0.81549  0.40692  1.0000
  H   H560      1.0  0.12871  0.58169  0.50708  1.0000
  H   H561      1.0  0.45374  0.67566  0.49089  1.0000
  H   H562      1.0  0.24655  0.72136  0.39536  1.0000
  H   H563      1.0  0.10648  0.55357  0.50797  1.0000
  H   H564      1.0  0.13418  0.58664  0.55334  1.0000
  H   H565      1.0  0.32535  0.93663  0.33669  1.0000
  H   H566      1.0  0.17668  0.75889  0.46141  1.0000
  H   H567      1.0  0.23869  0.72780  0.61519  1.0000
  H   H568      1.0  0.17493  0.49591  0.53405  1.0000
  H   H569      1.0  0.20094  0.73237  0.45629  1.0000
  H   H570      1.0  0.17612  0.80074  0.43699  1.0000
  H   H571      1.0  0.09340  0.53929  0.56455  1.0000
  H   H572      1.0  0.12963  0.52793  0.47632  1.0000
  C   C343      1.0  0.23796  0.72935  0.41416  1.0000
  C   C344      1.0  0.09948  0.56096  0.56065  1.0000
  H   H573      1.0  0.23425  0.97433  0.58693  1.0000
  H   H574      1.0  0.25568  0.73435  0.42703  1.0000
  N   N24       1.0  0.13304  0.72686  0.56817  1.0000
  C   C345      1.0  0.16362  0.73182  0.56901  1.0000
  C   C346      1.0  0.11867  0.75438  0.56669  1.0000
  C   C347      1.0  0.12523  0.70999  0.54444  1.0000
  C   C348      1.0  0.12474  0.71102  0.59259  1.0000
  C   C349      1.0  0.18188  0.70587  0.56726  1.0000
  C   C350      1.0  0.12308  0.77362  0.59050  1.0000
  C   C351      1.0  0.13412  0.72163  0.51738  1.0000
  C   C352      1.0  0.09349  0.70927  0.59804  1.0000
  H   H575      1.0  0.17015  0.74642  0.55321  1.0000
  H   H576      1.0  0.16950  0.74215  0.58768  1.0000
  H   H577      1.0  0.09615  0.75173  0.56382  1.0000
  H   H578      1.0  0.12576  0.76631  0.54920  1.0000
  H   H579      1.0  0.13369  0.68879  0.54620  1.0000
  H   H580      1.0  0.10262  0.70706  0.54327  1.0000
  H   H581      1.0  0.13257  0.68945  0.59184  1.0000
  H   H582      1.0  0.13432  0.72037  0.61030  1.0000
  H   H583      1.0  0.20375  0.71212  0.56926  1.0000
  H   H584      1.0  0.17767  0.69117  0.58355  1.0000
  H   H585      1.0  0.46696  0.70346  0.38944  1.0000
  H   H586      1.0  0.14466  0.78090  0.59176  1.0000
  H   H587      1.0  0.11017  0.79234  0.58792  1.0000
  H   H588      1.0  0.11704  0.76403  0.60948  1.0000
  H   H589      1.0  0.12808  0.70668  0.50186  1.0000
  H   H590      1.0  0.15665  0.72437  0.51582  1.0000
  H   H591      1.0  0.12347  0.74123  0.51260  1.0000
  H   H592      1.0  0.08891  0.68917  0.60774  1.0000
  H   H593      1.0  0.08038  0.71030  0.58025  1.0000
  C   C353      1.0  0.31513  0.90367  0.41286  1.0000
  N   N25       1.0  0.31847  0.90072  0.36180  1.0000
  C   C354      1.0  0.12875  0.55873  0.50799  1.0000
  H   H594      1.0  0.13504  0.56312  0.46580  1.0000
  H   H595      1.0  0.23694  0.51207  0.58689  1.0000
  H   H596      1.0  0.21285  0.81877  0.46302  1.0000
  H   H597      1.0  0.16101  0.71714  0.65402  1.0000
  C   C355      1.0  0.29852  0.95032  0.36720  1.0000
  H   H598      1.0  0.23839  0.76070  0.46044  1.0000
  C   C356      1.0  0.21893  0.79853  0.47148  1.0000
  H   H599      1.0  0.28015  0.94837  0.35440  1.0000
  H   H600      1.0  0.18334  0.54030  0.51729  1.0000
  H   H601      1.0  0.14900  0.98336  0.60673  1.0000
  H   H602      1.0  0.23279  0.54114  0.65356  1.0000
  C   C357      1.0  0.44962  0.70522  0.45917  1.0000
  H   H603      1.0  0.14148  0.55823  0.57438  1.0000
  H   H604      1.0  0.19281  0.83497  0.40911  1.0000
  H   H605      1.0  0.17989  0.69524  0.54806  1.0000
  H   H606      1.0  0.27527  0.90261  0.37309  1.0000
  H   H607      1.0  0.24600  0.78839  0.43922  1.0000
  H   H608      1.0  0.15327  0.76781  0.65172  1.0000
  N   N26       1.0  0.20672  0.76841  0.43121  1.0000
  C   C358      1.0  0.18850  0.74821  0.44572  1.0000
  C   C359      1.0  0.22865  0.77840  0.44995  1.0000
  C   C360      1.0  0.22044  0.75506  0.40796  1.0000
  C   C361      1.0  0.18918  0.79183  0.42114  1.0000
  C   C362      1.0  0.16708  0.73264  0.42884  1.0000
  H   H609      1.0  0.44088  0.69054  0.44472  1.0000
  H   H610      1.0  0.26673  0.78891  0.64479  1.0000
  H   H611      1.0  0.20553  0.58252  0.52700  1.0000
  S   S106      1.0  0.21721  0.88401  0.63846  1.0000
  S   S107      1.0  0.20689  0.68328  0.63651  1.0000
  C   C363      1.0  0.36635  0.88934  0.34223  1.0000
  H   H612      1.0  0.28685  0.86950  0.36483  1.0000
  C   C364      1.0  0.46724  0.69074  0.48044  1.0000
  C   C365      1.0  0.15450  0.49656  0.52425  1.0000
  S   S108      1.0  0.12886  0.65032  0.64334  1.0000
  S   S109      1.0  0.18510  0.81237  0.63075  1.0000
  H   H613      1.0  0.32086  0.92560  0.41567  1.0000
  C   C366      1.0  0.19130  0.97535  0.59689  1.0000
  H   H614      1.0  0.42497  0.82722  0.32955  1.0000
  H   H615      1.0  0.43189  0.71547  0.46883  1.0000
  H   H616      1.0  0.08712  0.72516  0.61247  1.0000
  C   C367      1.0  0.17184  0.75909  0.64351  1.0000
  H   H617      1.0  0.39648  0.80463  0.32574  1.0000
  Fe  Fe54      1.0  0.26279  0.88226  0.63383  1.0000
  H   H618      1.0  0.16981  0.79517  0.34963  1.0000
  C   C368      1.0  0.27637  0.89468  0.33138  1.0000
  H   H619      1.0  0.44700  0.73356  0.33767  1.0000
  C   C369      1.0  0.28895  0.89161  0.35919  1.0000
  C   C370      1.0  0.28426  0.96343  0.64938  1.0000
  H   H620      1.0  0.37551  0.88174  0.32354  1.0000
  Fe  Fe55      1.0  0.32705  0.80968  0.32659  1.0000
  H   H621      1.0  0.15713  0.50016  0.50287  1.0000
  H   H622      1.0  0.21880  0.78760  0.33788  1.0000
  H   H623      1.0  0.43881  0.78072  0.34290  1.0000
  H   H624      1.0  0.32818  0.86863  0.39013  1.0000
  C   C371      1.0  0.17611  0.73040  0.64474  1.0000
  C   C372      1.0  0.33485  0.88576  0.34097  1.0000
  S   S110      1.0  0.32537  0.76347  0.32607  1.0000
  C   C373      1.0  0.32926  0.89154  0.38835  1.0000
  H   H625      1.0  0.27465  0.94476  0.64087  1.0000
  H   H626      1.0  0.47575  0.66354  0.43312  1.0000
  H   H627      1.0  0.99098  0.77838  0.33327  1.0000
  H   H628      1.0  0.22660  0.95317  0.64051  1.0000
  H   H629      1.0  0.37254  0.91120  0.34444  1.0000
  H   H630      1.0  0.30046  0.97006  0.63529  1.0000
  H   H631      1.0  0.40210  0.70825  0.32650  1.0000
  C   C374      1.0  0.48407  0.65435  0.45165  1.0000
  H   H632      1.0  0.20644  0.50303  0.65588  1.0000
  S   S111      1.0  0.29230  0.89280  0.66788  1.0000
  S   S112      1.0  0.11969  0.58537  0.69977  1.0000
  Fe  Fe56      1.0  0.30333  0.94139  0.82565  1.0000
  H   H633      1.0  0.29596  0.83129  0.75533  1.0000
  S   S113      1.0  0.27955  0.92171  0.79089  1.0000
  Fe  Fe57      1.0  0.32319  0.93444  0.88423  1.0000
  H   H634      1.0  0.23351  0.80944  0.66562  1.0000
  S   S114      1.0  0.33577  0.90492  0.91791  1.0000
  H   H635      1.0  0.22680  0.92619  0.90961  1.0000
  C   C375      1.0  0.21814  0.50468  0.67468  1.0000
  H   H636      1.0  0.47408  0.54322  0.79464  1.0000
  C   C376      1.0  0.03855  0.60291  0.98271  1.0000
  S   S115      1.0  0.28139  0.93735  0.86498  1.0000
  S   S116      1.0  0.34511  0.93431  0.84473  1.0000
  Fe  Fe58      1.0  0.08002  0.58208  0.85624  1.0000
  S   S117      1.0  0.09227  0.53747  0.85738  1.0000
  S   S118      1.0  0.08476  0.60966  0.81954  1.0000
  Fe  Fe59      1.0  0.06205  0.58149  0.91591  1.0000
  S   S119      1.0  0.07384  0.53701  0.92026  1.0000
  S   S120      1.0  0.03805  0.60531  0.94751  1.0000
  Fe  Fe60      1.0  0.11156  0.54772  0.89646  1.0000
  H   H637      1.0  0.00292  0.53513  0.74738  1.0000
  Fe  Fe61      1.0  0.05326  0.53145  0.88093  1.0000
  H   H638      1.0  0.19092  0.95425  0.69071  1.0000
  S   S121      1.0  0.10110  0.59295  0.89446  1.0000
  S   S122      1.0  0.03973  0.57538  0.87736  1.0000
  H   H639      1.0  0.02351  0.58039  0.73397  1.0000
  H   H640      1.0  0.24669  0.49759  0.89927  1.0000
  H   H641      1.0  0.22858  0.74404  0.70363  1.0000
  H   H642      1.0  0.22364  0.95321  0.72336  1.0000
  C   C377      1.0  0.34709  0.88741  0.96878  1.0000
  C   C378      1.0  0.33845  0.90963  0.95281  1.0000
  H   H643      1.0  0.01171  0.49058  0.93526  1.0000
  H   H644      1.0  0.17223  0.59602  0.88050  1.0000
  C   C379      1.0  0.24485  0.49199  0.72889  1.0000
  C   C380      1.0  0.04661  0.49612  0.80505  1.0000
  H   H645      1.0  0.26025  0.52361  0.66934  1.0000
  C   C381      1.0  0.23840  0.52915  0.67153  1.0000
  C   C382      1.0  0.02505  0.55533  0.80958  1.0000
  C   C383      1.0  0.46238  0.52335  0.86953  1.0000
  H   H646      1.0  0.29213  0.79624  0.74504  1.0000
  H   H647      1.0  0.30525  0.79515  0.69239  1.0000
  H   H648      1.0  0.23241  0.59412  0.87382  1.0000
  H   H649      1.0  0.27090  0.49016  0.69495  1.0000
  H   H650      1.0  0.23618  0.54376  0.68819  1.0000
  H   H651      1.0  0.40457  0.96453  0.88024  1.0000
  C   C384      1.0  0.23215  0.76415  0.69359  1.0000
  H   H652      1.0  0.23410  0.51195  0.72622  1.0000
  C   C385      1.0  0.20585  0.51450  0.90439  1.0000
  H   H653      1.0  0.47520  0.53993  0.87672  1.0000
  H   H654      1.0  0.14699  0.62005  0.80819  1.0000
  C   C386      1.0  0.00860  0.55046  0.76277  1.0000
  H   H655      1.0  0.40071  0.88522  0.86786  1.0000
  C   C387      1.0  0.01502  0.50291  0.95342  1.0000
  H   H656      1.0  0.99387  0.57850  0.83181  1.0000
  C   C388      1.0  0.47313  0.50076  0.78367  1.0000
  C   C389      1.0  0.11132  0.59292  0.73329  1.0000
  C   C390      1.0  0.10711  0.61982  0.74233  1.0000
  C   C391      1.0  0.09904  0.62449  0.76872  1.0000
  C   C392      1.0  0.09541  0.60244  0.78658  1.0000
  C   C393      1.0  0.10013  0.57557  0.77772  1.0000
  C   C394      1.0  0.10784  0.57087  0.75125  1.0000
  H   H657      1.0  0.10956  0.63702  0.72885  1.0000
  H   H658      1.0  0.09548  0.64539  0.77529  1.0000
  H   H659      1.0  0.09747  0.55840  0.79113  1.0000
  H   H660      1.0  0.11098  0.54997  0.74452  1.0000
  C   C395      1.0  0.28779  0.90295  0.70149  1.0000
  C   C396      1.0  0.31093  0.91105  0.71626  1.0000
  C   C397      1.0  0.30877  0.91768  0.74332  1.0000
  C   C398      1.0  0.28341  0.91583  0.75623  1.0000
  C   C399      1.0  0.26019  0.90800  0.74136  1.0000
  C   C400      1.0  0.26224  0.90200  0.71416  1.0000
  H   H661      1.0  0.33084  0.91188  0.70678  1.0000
  H   H662      1.0  0.32686  0.92354  0.75435  1.0000
  H   H663      1.0  0.24045  0.90643  0.75107  1.0000
  H   H664      1.0  0.24419  0.89595  0.70319  1.0000
  H   H665      1.0  0.25364  0.83143  0.73338  1.0000
  H   H666      1.0  0.17288  0.63716  0.78986  1.0000
  C   C401      1.0  0.26967  0.98303  0.95094  1.0000
  C   C402      1.0  0.19523  0.95134  0.66954  1.0000
  H   H667      1.0  0.31514  0.81975  0.72775  1.0000
  H   H668      1.0  0.98928  0.57618  0.91500  1.0000
  H   H669      1.0  0.19271  0.95431  0.92166  1.0000
  C   C403      1.0  0.21671  0.94996  0.95861  1.0000
  H   H670      1.0  0.43296  0.90141  0.86113  1.0000
  H   H671      1.0  0.13445  0.62118  0.85363  1.0000
  H   H672      1.0  0.19866  0.83693  0.68348  1.0000
  H   H673      1.0  0.42444  0.54597  0.87426  1.0000
  H   H674      1.0  0.25375  0.96377  0.91592  1.0000
  H   H675      1.0  0.20252  0.93405  0.96686  1.0000
  C   C404      1.0  0.26182  0.95686  0.93542  1.0000
  C   C405      1.0  0.41666  0.50528  0.85900  1.0000
  H   H676      1.0  0.40160  0.92143  0.86097  1.0000
  C   C406      1.0  0.43363  0.52672  0.86810  1.0000
  H   H677      1.0  0.21184  0.77440  0.69212  1.0000
  H   H678      1.0  0.24943  0.56802  0.85566  1.0000
  H   H679      1.0  0.23931  0.75941  0.67351  1.0000
  H   H680      1.0  0.01926  0.54735  0.95882  1.0000
  H   H681      1.0  0.24287  0.78476  0.72923  1.0000
  H   H682      1.0  0.15174  0.64102  0.87780  1.0000
  H   H683      1.0  0.32699  0.95238  0.95292  1.0000
  H   H684      1.0  0.20818  0.81676  0.71178  1.0000
  H   H685      1.0  0.47100  0.97446  0.92067  1.0000
  H   H686      1.0  0.23715  0.93680  0.67017  1.0000
  H   H687      1.0  0.29530  0.82405  0.67287  1.0000
  H   H688      1.0  0.22076  0.96395  0.97537  1.0000
  C   C407      1.0  0.22586  0.95511  0.66241  1.0000
  C   C408      1.0  0.03161  0.56889  0.75130  1.0000
  H   H689      1.0  0.27731  0.84775  0.71163  1.0000
  C   C409      1.0  0.28789  0.80383  0.68081  1.0000
  H   H690      1.0  0.00717  0.53704  0.92802  1.0000
  H   H691      1.0  0.26442  0.96029  0.70013  1.0000
  H   H692      1.0  0.39244  0.98099  0.93755  1.0000
  Fe  Fe62      1.0  0.34644  0.98053  0.84965  1.0000
  H   H693      1.0  0.02635  0.54427  0.82880  1.0000
  C   C410      1.0  0.41628  0.90944  0.90074  1.0000
  C   C411      1.0  0.21566  0.83238  0.69748  1.0000
  H   H694      1.0  0.03892  0.58449  0.76562  1.0000
  H   H695      1.0  0.05279  0.50720  0.82313  1.0000
  S   S123      1.0  0.38057  0.51004  0.85807  1.0000
  H   H696      1.0  0.46399  0.96135  0.81890  1.0000
  C   C412      1.0  0.29499  0.81765  0.73779  1.0000
  H   H697      1.0  0.41353  0.96653  0.82539  1.0000
  H   H698      1.0  0.39607  0.90429  0.90983  1.0000
  C   C413      1.0  0.40841  0.92667  0.95537  1.0000
  H   H699      1.0  0.24589  0.90135  0.97487  1.0000
  C   C414      1.0  0.18245  0.97816  0.86625  1.0000
  H   H700      1.0  0.24881  0.88326  0.90194  1.0000
  H   H701      1.0  0.43719  0.95841  0.94492  1.0000
  H   H702      1.0  0.20274  0.51130  0.68963  1.0000
  C   C415      1.0  0.28467  0.78410  0.65733  1.0000
  C   C416      1.0  0.24109  0.82256  0.68192  1.0000
  H   H703      1.0  0.17520  0.95917  0.85752  1.0000
  H   H704      1.0  0.38218  0.94840  0.90271  1.0000
  C   C417      1.0  0.27119  0.82737  0.71988  1.0000
  H   H705      1.0  0.27073  0.76740  0.71421  1.0000
  N   N27       1.0  0.24260  0.93654  0.94852  1.0000
  H   H706      1.0  0.04659  0.56216  0.80604  1.0000
  N   N28       1.0  0.26289  0.80809  0.69795  1.0000
  C   C418      1.0  0.17909  0.51674  0.89411  1.0000
  C   C419      1.0  0.25633  0.89493  0.91931  1.0000
  C   C420      1.0  0.41278  0.90442  0.87089  1.0000
  H   H707      1.0  0.38840  0.93595  0.95010  1.0000
  H   H708      1.0  0.03352  0.50304  0.76507  1.0000
  H   H709      1.0  0.16284  0.60371  0.78019  1.0000
  C   C421      1.0  0.33278  0.93488  0.96494  1.0000
  H   H710      1.0  0.46689  0.92761  0.89678  1.0000
  H   H711      1.0  0.04923  0.55657  0.74407  1.0000
  H   H712      1.0  0.99454  0.51126  0.81799  1.0000
  H   H713      1.0  0.24005  0.59918  0.83899  1.0000
  C   C422      1.0  0.21081  0.98313  0.86818  1.0000
  H   H714      1.0  0.18217  0.97624  0.94781  1.0000
  H   H715      1.0  0.22009  0.85184  0.70810  1.0000
  C   C423      1.0  0.25686  0.92108  0.97057  1.0000
  H   H716      1.0  0.43095  0.89359  0.90830  1.0000
  H   H717      1.0  0.45013  0.92458  0.94159  1.0000
  H   H718      1.0  0.99016  0.56369  0.76446  1.0000
  Fe  Fe63      1.0  0.28669  0.98316  0.86785  1.0000
  N   N29       1.0  0.01541  0.53591  0.78832  1.0000
  N   N30       1.0  0.18228  0.58904  0.83948  1.0000
  C   C424      1.0  0.20573  0.57017  0.84714  1.0000
  C   C425      1.0  0.15726  0.57108  0.83572  1.0000
  C   C426      1.0  0.17726  0.60819  0.86236  1.0000
  C   C427      1.0  0.19024  0.60478  0.81486  1.0000
  C   C428      1.0  0.23326  0.58417  0.85419  1.0000
  C   C429      1.0  0.15955  0.54894  0.81405  1.0000
  C   C430      1.0  0.15465  0.63009  0.85880  1.0000
  C   C431      1.0  0.16659  0.61672  0.79781  1.0000
  H   H719      1.0  0.19993  0.55724  0.86441  1.0000
  H   H720      1.0  0.21064  0.55552  0.83102  1.0000
  H   H721      1.0  0.13862  0.58325  0.83125  1.0000
  H   H722      1.0  0.15216  0.56015  0.85448  1.0000
  S   S124      1.0  0.15507  0.53827  0.91018  1.0000
  H   H723      1.0  0.19601  0.62024  0.86711  1.0000
  H   H724      1.0  0.20416  0.62220  0.81994  1.0000
  H   H725      1.0  0.20222  0.59113  0.80148  1.0000
  S   S125      1.0  0.32666  0.97992  0.88965  1.0000
  C   C432      1.0  0.17273  0.50337  0.87054  1.0000
  H   H726      1.0  0.24986  0.84117  0.67203  1.0000
  H   H727      1.0  0.16599  0.55770  0.79483  1.0000
  H   H728      1.0  0.17368  0.53205  0.81984  1.0000
  H   H729      1.0  0.13911  0.53923  0.81123  1.0000
  C   C433      1.0  0.25299  0.78120  0.70983  1.0000
  H   H730      1.0  0.16071  0.64596  0.84408  1.0000
  H   H731      1.0  0.05770  0.52737  0.77716  1.0000
  H   H732      1.0  0.35177  0.86779  0.95972  1.0000
  C   C434      1.0  0.45151  0.94433  0.89349  1.0000
  H   H733      1.0  0.40669  0.90385  0.95421  1.0000
  H   H734      1.0  0.27802  0.91503  0.96455  1.0000
  H   H735      1.0  0.44766  0.94481  0.87189  1.0000
  H   H736      1.0  0.26086  0.87957  0.93502  1.0000
  H   H737      1.0  0.28155  0.94671  0.93021  1.0000
  C   C435      1.0  0.46595  0.97183  0.89956  1.0000
  H   H738      1.0  0.03735  0.50331  0.95793  1.0000
  H   H739      1.0  0.21625  0.90316  0.93502  1.0000
  H   H740      1.0  0.27567  0.90516  0.91340  1.0000
  N   N31       1.0  0.42541  0.93810  0.90847  1.0000
  C   C436      1.0  0.03857  0.51606  0.78249  1.0000
  H   H741      1.0  0.02187  0.59889  0.81961  1.0000
  C   C437      1.0  0.47436  0.49847  0.86175  1.0000
  Fe  Fe64      1.0  0.13541  0.60834  0.66265  1.0000
  H   H742      1.0  0.98863  0.50030  0.78515  1.0000
  H   H743      1.0  0.15223  0.50493  0.86246  1.0000
  C   C438      1.0  0.40284  0.95826  0.90127  1.0000
  H   H744      1.0  0.21096  0.52490  0.92258  1.0000
  H   H745      1.0  0.98970  0.54448  0.86648  1.0000
  H   H746      1.0  0.22530  0.96808  0.86087  1.0000
  C   C439      1.0  0.22617  0.49913  0.89119  1.0000
  H   H747      1.0  0.23981  0.98159  0.74009  1.0000
  C   C440      1.0  0.43170  0.93762  0.93758  1.0000
  C   C441      1.0  0.23403  0.91571  0.92795  1.0000
  H   H748      1.0  0.45462  0.49751  0.79615  1.0000
  C   C442      1.0  0.00456  0.53276  0.94944  1.0000
  C   C443      1.0  0.45596  0.97986  0.82788  1.0000
  H   H749      1.0  0.41280  0.93173  0.97626  1.0000
  S   S126      1.0  0.18131  0.60937  0.65668  1.0000
  S   S127      1.0  0.02379  0.49579  0.87486  1.0000
  H   H750      1.0  0.26383  0.49600  0.74045  1.0000
  C   C444      1.0  0.22999  0.97513  0.72131  1.0000
  N   N32       1.0  0.23957  0.98157  0.67113  1.0000
  C   C445      1.0  0.42740  0.98268  0.83162  1.0000
  C   C446      1.0  0.00781  0.58155  0.81473  1.0000
  H   H751      1.0  0.36969  0.49514  0.93346  1.0000
  H   H752      1.0  0.41252  0.98515  0.98537  1.0000
  H   H753      1.0  0.46569  0.50402  0.76325  1.0000
  C   C447      1.0  0.98780  0.50083  0.87388  1.0000
  C   C448      1.0  0.25086  0.97869  0.69871  1.0000
  H   H754      1.0  0.99566  0.58905  0.79783  1.0000
  C   C449      1.0  0.20048  0.96705  0.93815  1.0000
  H   H755      1.0  0.21288  0.98443  0.93034  1.0000
  C   C450      1.0  0.99110  0.51906  0.79758  1.0000
  H   H756      1.0  0.40281  0.49987  0.91889  1.0000
  H   H757      1.0  0.28391  0.76230  0.66405  1.0000
  H   H758      1.0  0.18873  0.93007  0.66446  1.0000
  H   H759      1.0  0.28854  0.97974  0.96276  1.0000
  C   C451      1.0  0.40076  0.98502  0.91758  1.0000
  H   H760      1.0  0.18205  0.96536  0.65764  1.0000
  H   H761      1.0  0.29484  0.95798  0.66805  1.0000
  H   H762      1.0  0.00530  0.49195  0.97012  1.0000
  H   H763      1.0  0.07020  0.57206  0.98542  1.0000
  H   H764      1.0  0.00670  0.63346  0.98721  1.0000
  C   C452      1.0  0.19306  0.48813  0.85728  1.0000
  S   S128      1.0  0.30645  0.98773  0.82820  1.0000
  H   H765      1.0  0.94602  0.19210  0.03714  1.0000
  S   S129      1.0  0.58164  0.13533  0.29575  1.0000
  Fe  Fe65      1.0  0.52365  0.11291  0.08338  1.0000
  H   H766      1.0  0.88968  0.34056  0.06864  1.0000
  S   S130      1.0  0.55414  0.10136  0.05053  1.0000
  Fe  Fe66      1.0  0.51759  0.13281  0.14143  1.0000
  H   H767      1.0  0.66319  0.13284  0.29128  1.0000
  S   S131      1.0  0.53072  0.15364  0.18029  1.0000
  H   H768      1.0  0.71983  0.32472  0.26630  1.0000
  H   H769      1.0  0.90575  0.22291  0.13451  1.0000
  H   H770      1.0  0.60431  0.24062  0.29881  1.0000
  S   S132      1.0  0.94111  0.17784  0.12139  1.0000
  S   S133      1.0  0.52330  0.09068  0.12304  1.0000
  S   S134      1.0  0.52207  0.15517  0.10228  1.0000
  Fe  Fe67      1.0  0.87948  0.37929  0.11181  1.0000
  S   S135      1.0  0.92484  0.38107  0.10562  1.0000
  S   S136      1.0  0.84956  0.39246  0.07895  1.0000
  Fe  Fe68      1.0  0.88629  0.35771  0.16976  1.0000
  S   S137      1.0  0.93248  0.35920  0.16650  1.0000
  S   S138      1.0  0.86630  0.33372  0.20427  1.0000
  Fe  Fe69      1.0  0.92630  0.40014  0.14588  1.0000
  S   S139      1.0  0.95719  0.43516  0.14965  1.0000
  Fe  Fe70      1.0  0.92677  0.34014  0.12665  1.0000
  S   S140      1.0  0.95591  0.30765  0.11041  1.0000
  S   S141      1.0  0.88038  0.40029  0.15165  1.0000
  S   S142      1.0  0.88103  0.33674  0.13021  1.0000
  C   C453      1.0  0.94618  0.21389  0.11951  1.0000
  C   C454      1.0  0.73237  0.30868  0.27656  1.0000
  H   H771      1.0  0.79670  0.33398  0.23322  1.0000
  C   C455      1.0  0.95204  0.27174  0.11527  1.0000
  C   C456      1.0  0.92780  0.26041  0.12538  1.0000
  C   C457      1.0  0.92478  0.23158  0.12715  1.0000
  C   C458      1.0  0.95354  0.98848  0.11283  1.0000
  H   H772      1.0  0.60666  0.00984  0.99280  1.0000
  H   H773      1.0  0.91120  0.27383  0.13139  1.0000
  H   H774      1.0  0.91113  0.24147  0.31933  1.0000
  H   H775      1.0  0.93071  0.33066  0.02311  1.0000
  S   S143      1.0  0.97847  0.11522  0.08449  1.0000
  S   S144      1.0  0.97987  0.11428  0.14951  1.0000
  C   C459      1.0  0.95001  0.47092  0.15063  1.0000
  H   H776      1.0  0.89149  0.32807  0.99458  1.0000
  C   C460      1.0  0.94646  0.01890  0.14983  1.0000
  C   C461      1.0  0.95857  0.17420  0.04345  1.0000
  H   H777      1.0  0.90729  0.46674  0.16084  1.0000
  H   H778      1.0  0.52818  0.05726  0.21606  1.0000
  C   C462      1.0  0.89574  0.25794  0.31577  1.0000
  C   C463      1.0  0.52223  0.10166  0.00456  1.0000
  C   C464      1.0  0.54812  0.09750  0.01595  1.0000
  H   H779      1.0  0.93068  0.35744  0.04693  1.0000
  H   H780      1.0  0.50498  0.10670  0.01703  1.0000
  H   H781      1.0  0.59038  0.08762  0.00788  1.0000
  C   C465      1.0  0.88079  0.40140  0.03332  1.0000
  C   C466      1.0  0.85479  0.40170  0.04512  1.0000
  C   C467      1.0  0.83198  0.40904  0.02949  1.0000
  H   H782      1.0  0.89861  0.39631  0.04506  1.0000
  H   H783      1.0  0.81176  0.40959  0.03834  1.0000
  C   C468      1.0  0.56554  0.13958  0.26434  1.0000
  C   C469      1.0  0.57136  0.12065  0.24410  1.0000
  C   C470      1.0  0.56040  0.12413  0.21847  1.0000
  C   C471      1.0  0.54366  0.14683  0.21263  1.0000
  C   C472      1.0  0.53776  0.16567  0.23292  1.0000
  C   C473      1.0  0.54831  0.16194  0.25865  1.0000
  H   H784      1.0  0.58473  0.10332  0.24819  1.0000
  H   H785      1.0  0.56558  0.10971  0.20306  1.0000
  H   H786      1.0  0.52492  0.18337  0.22867  1.0000
  H   H787      1.0  0.54358  0.17671  0.27391  1.0000
  C   C474      1.0  0.84998  0.34434  0.29365  1.0000
  C   C475      1.0  0.85741  0.36726  0.27803  1.0000
  C   C476      1.0  0.86341  0.36436  0.25090  1.0000
  C   C477      1.0  0.86170  0.33847  0.23890  1.0000
  C   C478      1.0  0.85471  0.31547  0.25468  1.0000
  C   C479      1.0  0.84919  0.31832  0.28188  1.0000
  H   H788      1.0  0.85818  0.38752  0.28686  1.0000
  H   H789      1.0  0.86864  0.38227  0.23912  1.0000
  H   H790      1.0  0.85339  0.29532  0.24570  1.0000
  H   H791      1.0  0.84407  0.30044  0.29367  1.0000
  N   N33       1.0  0.63674  0.19159  0.25864  1.0000
  C   C480      1.0  0.61647  0.19223  0.23603  1.0000
  C   C481      1.0  0.62230  0.20351  0.28233  1.0000
  H   H792      1.0  0.89561  0.43508  0.08247  1.0000
  C   C482      1.0  0.66151  0.20826  0.25050  1.0000
  C   C483      1.0  0.57022  0.09048  0.99937  1.0000
  C   C484      1.0  0.61356  0.23400  0.27985  1.0000
  C   C485      1.0  0.83901  0.31158  0.07447  1.0000
  H   H793      1.0  0.76847  0.26718  0.27679  1.0000
  H   H794      1.0  0.89077  0.29592  0.08755  1.0000
  H   H795      1.0  0.61213  0.21376  0.22957  1.0000
  C   C486      1.0  0.65551  0.15442  0.29145  1.0000
  H   H796      1.0  0.91309  0.28712  0.01938  1.0000
  H   H797      1.0  0.93742  0.32320  0.05758  1.0000
  H   H798      1.0  0.96311  0.23595  0.20715  1.0000
  C   C487      1.0  0.48679  0.21041  0.03257  1.0000
  H   H799      1.0  0.65551  0.22858  0.24192  1.0000
  H   H800      1.0  0.49156  0.07981  0.17090  1.0000
  H   H801      1.0  0.60834  0.17904  0.19589  1.0000
  C   C488      1.0  0.95665  0.01456  0.12442  1.0000
  H   H802      1.0  0.95430  0.15607  0.03084  1.0000
  H   H803      1.0  0.88122  0.26987  0.01809  1.0000
  H   H804      1.0  0.97531  0.23603  0.04769  1.0000
  C   C489      1.0  0.65902  0.02623  0.99876  1.0000
  H   H805      1.0  0.49091  0.02099  0.11397  1.0000
  H   H806      1.0  0.59633  0.18364  0.24232  1.0000
  H   H807      1.0  0.65310  0.00990  0.01325  1.0000
  H   H808      1.0  0.84663  0.33142  0.08234  1.0000
  C   C490      1.0  0.93472  0.46137  0.05728  1.0000
  C   C491      1.0  0.62479  0.17635  0.21092  1.0000
  N   N34       1.0  0.91013  0.47530  0.06946  1.0000
  H   H809      1.0  0.69483  0.23279  0.26680  1.0000
  C   C492      1.0  0.88794  0.47858  0.04885  1.0000
  H   H810      1.0  0.96209  0.23156  0.17255  1.0000
  H   H811      1.0  0.67238  0.19801  0.23394  1.0000
  C   C493      1.0  0.88365  0.40698  0.00607  1.0000
  C   C494      1.0  0.95735  0.45231  0.07685  1.0000
  H   H812      1.0  0.72380  0.27476  0.30470  1.0000
  H   H813      1.0  0.62644  0.15382  0.21453  1.0000
  H   H814      1.0  0.48991  0.21759  0.10596  1.0000
  H   H815      1.0  0.94479  0.47475  0.04236  1.0000
  H   H816      1.0  0.59756  0.23708  0.26457  1.0000
  H   H817      1.0  0.86802  0.45205  0.12122  1.0000
  H   H818      1.0  0.95238  0.26430  0.30723  1.0000
  H   H819      1.0  0.50146  0.24930  0.04818  1.0000
  H   H820      1.0  0.88061  0.45797  0.04222  1.0000
  H   H821      1.0  0.63878  0.15496  0.30628  1.0000
  H   H822      1.0  0.97633  0.16711  0.99361  1.0000
  H   H823      1.0  0.95872  0.15829  0.18360  1.0000
  H   H824      1.0  0.76292  0.32006  0.23132  1.0000
  H   H825      1.0  0.90375  0.40584  0.99704  1.0000
  C   C495      1.0  0.89374  0.28595  0.06804  1.0000
  H   H826      1.0  0.79035  0.30112  0.24750  1.0000
  C   C496      1.0  0.65480  0.05420  0.01246  1.0000
  C   C497      1.0  0.77333  0.30147  0.30599  1.0000
  H   H827      1.0  0.49872  0.11561  0.23539  1.0000
  C   C498      1.0  0.97081  0.22527  0.11034  1.0000
  H   H828      1.0  0.66011  0.15473  0.24924  1.0000
  H   H829      1.0  0.96336  0.28020  0.18595  1.0000
  H   H830      1.0  0.87914  0.25025  0.09053  1.0000
  H   H831      1.0  0.94810  0.03903  0.15868  1.0000
  H   H832      1.0  0.70258  0.30508  0.30947  1.0000
  H   H833      1.0  0.50496  0.10100  0.19567  1.0000
  H   H834      1.0  0.96654  0.31358  0.27603  1.0000
  H   H835      1.0  0.48860  0.05409  0.24455  1.0000
  H   H836      1.0  0.97667  0.44804  0.06595  1.0000
  C   C499      1.0  0.93382  0.99707  0.16371  1.0000
  H   H837      1.0  0.67535  0.21685  0.29158  1.0000
  H   H838      1.0  0.94676  0.19130  0.19319  1.0000
  H   H839      1.0  0.66433  0.07130  0.00112  1.0000
  H   H840      1.0  0.63133  0.24780  0.27620  1.0000
  H   H841      1.0  0.63485  0.20207  0.30050  1.0000
  H   H842      1.0  0.92396  0.29255  0.28176  1.0000
  H   H843      1.0  0.79438  0.34278  0.27915  1.0000
  C   C500      1.0  0.50461  0.23663  0.03020  1.0000
  H   H844      1.0  0.52099  0.16309  0.99374  1.0000
  H   H845      1.0  0.49054  0.10406  0.26761  1.0000
  C   C501      1.0  0.83492  0.41526  0.00234  1.0000
  H   H846      1.0  0.76448  0.35656  0.26399  1.0000
  H   H847      1.0  0.84143  0.28619  0.03976  1.0000
  H   H848      1.0  0.62641  0.14808  0.26087  1.0000
  H   H849      1.0  0.66562  0.05365  0.03176  1.0000
  H   H850      1.0  0.54022  0.06976  0.18485  1.0000
  H   H851      1.0  0.72974  0.35647  0.29881  1.0000
  C   C502      1.0  0.92383  0.48101  0.15660  1.0000
  C   C503      1.0  0.87184  0.46522  0.10364  1.0000
  H   H852      1.0  0.96900  0.17133  0.21481  1.0000
  H   H853      1.0  0.64407  0.18430  0.20212  1.0000
  H   H854      1.0  0.52217  0.15329  0.04273  1.0000
  C   C504      1.0  0.85135  0.30530  0.04718  1.0000
  H   H855      1.0  0.94262  0.34120  0.26947  1.0000
  H   H856      1.0  0.79246  0.31136  0.31336  1.0000
  H   H857      1.0  0.52686  0.23200  0.02909  1.0000
  H   H858      1.0  0.80343  0.27690  0.28374  1.0000
  C   C505      1.0  0.78120  0.32167  0.24431  1.0000
  C   C506      1.0  0.89898  0.45617  0.09053  1.0000
  H   H859      1.0  0.97530  0.25902  0.02022  1.0000
  C   C507      1.0  0.64451  0.16183  0.26377  1.0000
  C   C508      1.0  0.88301  0.25593  0.06960  1.0000
  H   H860      1.0  0.92819  0.44260  0.04629  1.0000
  H   H861      1.0  0.91399  0.45355  0.10689  1.0000
  H   H862      1.0  0.89855  0.24140  0.06159  1.0000
  C   C509      1.0  0.96479  0.17738  0.19409  1.0000
  H   H863      1.0  0.63300  0.05866  0.01697  1.0000
  C   C510      1.0  0.89374  0.33225  0.04860  1.0000
  C   C511      1.0  0.92662  0.30975  0.29596  1.0000
  N   N35       1.0  0.75663  0.32186  0.29009  1.0000
  H   H864      1.0  0.53636  0.18738  0.04780  1.0000
  C   C512      1.0  0.77439  0.33681  0.27017  1.0000
  H   H865      1.0  0.84366  0.32187  0.03375  1.0000
  C   C513      1.0  0.88218  0.30719  0.99524  1.0000
  H   H866      1.0  0.81636  0.31363  0.07255  1.0000
  H   H867      1.0  0.88303  0.34663  0.03494  1.0000
  C   C514      1.0  0.92489  0.33556  0.04368  1.0000
  H   H868      1.0  0.90738  0.32188  0.29336  1.0000
  H   H869      1.0  0.84290  0.29475  0.08889  1.0000
  H   H870      1.0  0.91647  0.28429  0.06643  1.0000
  H   H871      1.0  0.85405  0.46207  0.09028  1.0000
  H   H872      1.0  0.95156  0.43293  0.08716  1.0000
  C   C515      1.0  0.52232  0.06045  0.19517  1.0000
  H   H873      1.0  0.49316  0.26815  0.11322  1.0000
  C   C516      1.0  0.68370  0.21341  0.27163  1.0000
  H   H874      1.0  0.60353  0.19122  0.28692  1.0000
  N   N36       1.0  0.48986  0.18956  0.01077  1.0000
  H   H875      1.0  0.91768  0.00039  0.01053  1.0000
  H   H876      1.0  0.69883  0.19627  0.27220  1.0000
  H   H877      1.0  0.49125  0.20085  0.05210  1.0000
  H   H878      1.0  0.78329  0.25766  0.30697  1.0000
  H   H879      1.0  0.96022  0.34079  0.29962  1.0000
  H   H880      1.0  0.81707  0.42040  0.99059  1.0000
  H   H881      1.0  0.96182  0.46821  0.09186  1.0000
  H   H882      1.0  0.89314  0.26157  0.29433  1.0000
  C   C517      1.0  0.97607  0.23719  0.18909  1.0000
  C   C518      1.0  0.95063  0.32703  0.28498  1.0000
  C   C519      1.0  0.97356  0.25407  0.10788  1.0000
  C   C520      1.0  0.78255  0.27466  0.29221  1.0000
  C   C521      1.0  0.86075  0.41381  0.99029  1.0000
  H   H883      1.0  0.96701  0.21315  0.00321  1.0000
  H   H884      1.0  0.67260  0.16769  0.29801  1.0000
  H   H885      1.0  0.95147  0.16856  0.06358  1.0000
  H   H886      1.0  0.69641  0.28266  0.28251  1.0000
  C   C522      1.0  0.71295  0.29197  0.29465  1.0000
  N   N37       1.0  0.88232  0.30348  0.04600  1.0000
  H   H887      1.0  0.73871  0.29454  0.26061  1.0000
  C   C523      1.0  0.53352  0.17053  0.03336  1.0000
  C   C524      1.0  0.49740  0.07985  0.19214  1.0000
  H   H888      1.0  0.85954  0.30901  0.99334  1.0000
  C   C525      1.0  0.74525  0.34314  0.30887  1.0000
  H   H889      1.0  0.48773  0.48670  0.14558  1.0000
  Fe  Fe71      1.0  0.97528  0.14622  0.11727  1.0000
  H   H890      1.0  0.51851  0.04026  0.18560  1.0000
  S   S145      1.0  0.97429  0.04050  0.10650  1.0000
  H   H891      1.0  0.86347  0.25244  0.05905  1.0000
  H   H892      1.0  0.92607  0.00046  0.18342  1.0000
  H   H893      1.0  0.55431  0.16259  0.02845  1.0000
  C   C526      1.0  0.89052  0.29074  0.02015  1.0000
  C   C527      1.0  0.98259  0.26799  0.18404  1.0000
  H   H894      1.0  0.77630  0.37662  0.30677  1.0000
  C   C528      1.0  0.51935  0.18052  0.00788  1.0000
  H   H895      1.0  0.53219  0.19730  0.99927  1.0000
  H   H896      1.0  0.51889  0.08911  0.25136  1.0000
  H   H897      1.0  0.49834  0.24967  0.01322  1.0000
  H   H898      1.0  0.98205  0.06322  0.18147  1.0000
  C   C529      1.0  0.91281  0.98940  0.99192  1.0000
  H   H899      1.0  0.97425  0.06216  0.21567  1.0000
  C   C530      1.0  0.49775  0.09702  0.24798  1.0000
  H   H900      1.0  0.68165  0.02447  0.99611  1.0000
  H   H901      1.0  0.87255  0.48689  0.11050  1.0000
  C   C531      1.0  0.76639  0.36283  0.32150  1.0000
  H   H902      1.0  0.91378  0.48729  0.01362  1.0000
  Fe  Fe72      1.0  0.74297  0.41223  0.61946  1.0000
  S   S146      1.0  0.78743  0.40413  0.62787  1.0000
  S   S147      1.0  0.73879  0.45448  0.60008  1.0000
  Fe  Fe73      1.0  0.72801  0.35393  0.63852  1.0000
  C   C532      1.0  0.72273  0.24605  0.65014  1.0000
  H   H903      1.0  0.73618  0.20401  0.58082  1.0000
  H   H904      1.0  0.97942  0.20805  0.37651  1.0000
  Fe  Fe74      1.0  0.78104  0.36289  0.60881  1.0000
  S   S148      1.0  0.80990  0.34533  0.57716  1.0000
  H   H905      1.0  0.54217  0.09065  0.58190  1.0000
  S   S149      1.0  0.73740  0.37188  0.59841  1.0000
  Fe  Fe75      1.0  0.67303  0.09862  0.61410  1.0000
  S   S150      1.0  0.62686  0.09872  0.61015  1.0000
  S   S151      1.0  0.70350  0.06344  0.60856  1.0000
  Fe  Fe76      1.0  0.67513  0.16003  0.62863  1.0000
  S   S152      1.0  0.62937  0.16411  0.62589  1.0000
  H   H906      1.0  0.82634  0.46049  0.52741  1.0000
  H   H907      1.0  0.74472  0.23180  0.52437  1.0000
  Fe  Fe77      1.0  0.63286  0.13927  0.58842  1.0000
  S   S153      1.0  0.60717  0.15518  0.55338  1.0000
  C   C533      1.0  0.72027  0.27499  0.64993  1.0000
  S   S154      1.0  0.67898  0.13758  0.59008  1.0000
  Fe  Fe78      1.0  0.80927  0.30849  0.41731  1.0000
  S   S155      1.0  0.80938  0.26233  0.41192  1.0000
  S   S156      1.0  0.78777  0.32771  0.45347  1.0000
  Fe  Fe79      1.0  0.82826  0.31802  0.35917  1.0000
  S   S157      1.0  0.82859  0.27287  0.35087  1.0000
  Fe  Fe80      1.0  0.78868  0.27064  0.37309  1.0000
  S   S158      1.0  0.75554  0.24191  0.35717  1.0000
  Fe  Fe81      1.0  0.84946  0.26868  0.39020  1.0000
  S   S159      1.0  0.88381  0.23673  0.39053  1.0000
  S   S160      1.0  0.78660  0.31637  0.37889  1.0000
  S   S161      1.0  0.85103  0.31441  0.39798  1.0000
  Fe  Fe82      1.0  0.57798  0.16317  0.33219  1.0000
  H   H908      1.0  0.78236  0.35153  0.33260  1.0000
  Fe  Fe83      1.0  0.58845  0.16752  0.39340  1.0000
  S   S162      1.0  0.57170  0.21081  0.39443  1.0000
  S   S163      1.0  0.61176  0.14599  0.42738  1.0000
  Fe  Fe84      1.0  0.53848  0.19563  0.36671  1.0000
  C   C534      1.0  0.54942  0.05496  0.53094  1.0000
  Fe  Fe85      1.0  0.59709  0.21719  0.35757  1.0000
  S   S164      1.0  0.62531  0.25446  0.35277  1.0000
  S   S165      1.0  0.55358  0.15153  0.36824  1.0000
  S   S166      1.0  0.61462  0.17462  0.35723  1.0000
  C   C535      1.0  0.71945  0.24631  0.35633  1.0000
  C   C536      1.0  0.70678  0.27149  0.36205  1.0000
  C   C537      1.0  0.67792  0.27388  0.36053  1.0000
  C   C538      1.0  0.66152  0.25097  0.35403  1.0000
  C   C539      1.0  0.67428  0.22585  0.34848  1.0000
  C   C540      1.0  0.70308  0.22367  0.34926  1.0000
  H   H909      1.0  0.71918  0.28911  0.36746  1.0000
  H   H910      1.0  0.66820  0.29342  0.36483  1.0000
  H   H911      1.0  0.55813  0.09925  0.46362  1.0000
  C   C541      1.0  0.71305  0.47894  0.60757  1.0000
  C   C542      1.0  0.91983  0.24226  0.39137  1.0000
  C   C543      1.0  0.93129  0.26697  0.40032  1.0000
  C   C544      1.0  0.96008  0.27026  0.40103  1.0000
  H   H912      1.0  0.79444  0.44845  0.47565  1.0000
  C   C545      1.0  0.96617  0.22451  0.38323  1.0000
  C   C546      1.0  0.93742  0.22106  0.38294  1.0000
  H   H913      1.0  0.91799  0.28334  0.40711  1.0000
  H   H914      1.0  0.96879  0.28929  0.40833  1.0000
  H   H915      1.0  0.53580  0.12630  0.57585  1.0000
  H   H916      1.0  0.92874  0.20185  0.37602  1.0000
  C   C547      1.0  0.61056  0.15435  0.51834  1.0000
  C   C548      1.0  0.63124  0.13937  0.50564  1.0000
  C   C549      1.0  0.63132  0.13722  0.47783  1.0000
  C   C550      1.0  0.61116  0.15043  0.46230  1.0000
  C   C551      1.0  0.59099  0.16605  0.47497  1.0000
  C   C552      1.0  0.59062  0.16781  0.50277  1.0000
  H   H917      1.0  0.64666  0.12877  0.51724  1.0000
  H   H918      1.0  0.64701  0.12502  0.46827  1.0000
  H   H919      1.0  0.57533  0.17633  0.46340  1.0000
  H   H920      1.0  0.57451  0.17947  0.51231  1.0000
  C   C553      1.0  0.80320  0.33984  0.54295  1.0000
  C   C554      1.0  0.82415  0.32931  0.52670  1.0000
  C   C555      1.0  0.81980  0.32499  0.49944  1.0000
  C   C556      1.0  0.79437  0.33126  0.48798  1.0000
  C   C557      1.0  0.77330  0.34143  0.50434  1.0000
  C   C558      1.0  0.77763  0.34562  0.53159  1.0000
  H   H921      1.0  0.84401  0.32463  0.53522  1.0000
  H   H922      1.0  0.83626  0.31716  0.48725  1.0000
  H   H923      1.0  0.75352  0.34633  0.49577  1.0000
  H   H924      1.0  0.76123  0.35353  0.54376  1.0000
  H   H925      1.0  0.90198  0.27963  0.35219  1.0000
  C   C559      1.0  0.67376  0.27051  0.63383  1.0000
  C   C560      1.0  0.67635  0.24152  0.63371  1.0000
  C   C561      1.0  0.97765  0.24906  0.39250  1.0000
  H   H926      1.0  0.83502  0.40102  0.54767  1.0000
  Fe  Fe86      1.0  0.62751  0.12354  0.64792  1.0000
  H   H927      1.0  0.71144  0.28032  0.53546  1.0000
  H   H928      1.0  0.77534  0.28649  0.53620  1.0000
  H   H929      1.0  0.78591  0.43168  0.57309  1.0000
  C   C562      1.0  0.61188  0.05348  0.53653  1.0000
  H   H930      1.0  0.66203  0.20814  0.34327  1.0000
  C   C563      1.0  0.68837  0.47116  0.61954  1.0000
  H   H931      1.0  0.59013  0.07478  0.56673  1.0000
  C   C564      1.0  0.69691  0.02779  0.61335  1.0000
  C   C565      1.0  0.67054  0.01669  0.61065  1.0000
  H   H932      1.0  0.60577  0.09679  0.54369  1.0000
  H   H933      1.0  0.76712  0.22099  0.57331  1.0000
  S   S167      1.0  0.77183  0.34318  0.64848  1.0000
  H   H934      1.0  0.65334  0.03021  0.60670  1.0000
  H   H935      1.0  0.65937  0.22878  0.62730  1.0000
  N   N38       1.0  0.78933  0.43557  0.53058  1.0000
  H   H936      1.0  0.61996  0.05662  0.51629  1.0000
  C   C566      1.0  0.79982  0.41826  0.50807  1.0000
  H   H937      1.0  0.89274  0.33558  0.35351  1.0000
  C   C567      1.0  0.75883  0.44050  0.52848  1.0000
  C   C568      1.0  0.55075  0.10517  0.54100  1.0000
  C   C569      1.0  0.78970  0.42661  0.48035  1.0000
  C   C570      1.0  0.82568  0.41529  0.56217  1.0000
  C   C571      1.0  0.74049  0.41452  0.52824  1.0000
  H   H938      1.0  0.71492  0.23959  0.55938  1.0000
  H   H939      1.0  0.79482  0.39609  0.51097  1.0000
  H   H940      1.0  0.54006  0.01975  0.55618  1.0000
  H   H941      1.0  0.74187  0.26429  0.50637  1.0000
  H   H942      1.0  0.75141  0.45279  0.54545  1.0000
  H   H943      1.0  0.55856  0.04512  0.57317  1.0000
  S   S168      1.0  0.84085  0.34949  0.32735  1.0000
  H   H944      1.0  0.54142  0.11643  0.48998  1.0000
  H   H945      1.0  0.98402  0.29575  0.35035  1.0000
  H   H946      1.0  0.80032  0.41363  0.46548  1.0000
  H   H947      1.0  0.76737  0.42276  0.47795  1.0000
  S   S169      1.0  0.70580  0.19297  0.64147  1.0000
  N   N39       1.0  0.56666  0.08082  0.53044  1.0000
  H   H948      1.0  0.82739  0.40501  0.58171  1.0000
  C   C572      1.0  0.80374  0.46312  0.52966  1.0000
  H   H949      1.0  0.73524  0.40806  0.54868  1.0000
  H   H950      1.0  0.74995  0.39694  0.51789  1.0000
  H   H951      1.0  0.72121  0.41907  0.51734  1.0000
  H   H952      1.0  0.57026  0.11494  0.57914  1.0000
  H   H953      1.0  0.78482  0.40008  0.55633  1.0000
  H   H954      1.0  0.60127  0.03330  0.53809  1.0000
  H   H955      1.0  0.55945  0.12485  0.53318  1.0000
  H   H956      1.0  0.63004  0.05250  0.54982  1.0000
  H   H957      1.0  0.78491  0.46513  0.64472  1.0000
  C   C573      1.0  0.59336  0.07754  0.54529  1.0000
  H   H958      1.0  0.79725  0.47507  0.51194  1.0000
  C   C574      1.0  0.93433  0.32107  0.34361  1.0000
  C   C575      1.0  0.54987  0.10894  0.57120  1.0000
  N   N40       1.0  0.69117  0.21200  0.43806  1.0000
  C   C576      1.0  0.71337  0.22991  0.44994  1.0000
  C   C577      1.0  0.67801  0.19600  0.46031  1.0000
  C   C578      1.0  0.67029  0.23086  0.42523  1.0000
  C   C579      1.0  0.70450  0.19349  0.41796  1.0000
  C   C580      1.0  0.72743  0.25070  0.43103  1.0000
  C   C581      1.0  0.69696  0.17573  0.47521  1.0000
  C   C582      1.0  0.64106  0.21939  0.42097  1.0000
  C   C583      1.0  0.68639  0.17111  0.40519  1.0000
  H   H959      1.0  0.70501  0.24204  0.46675  1.0000
  H   H960      1.0  0.73032  0.21712  0.45820  1.0000
  H   H961      1.0  0.66026  0.18363  0.45352  1.0000
  H   H962      1.0  0.66908  0.21042  0.47507  1.0000
  H   H963      1.0  0.66739  0.24992  0.43713  1.0000
  H   H964      1.0  0.67779  0.23802  0.40568  1.0000
  H   H965      1.0  0.71265  0.20591  0.40124  1.0000
  H   H966      1.0  0.72327  0.18333  0.42598  1.0000
  H   H967      1.0  0.74272  0.26297  0.44229  1.0000
  H   H968      1.0  0.73900  0.24021  0.41515  1.0000
  H   H969      1.0  0.71276  0.26567  0.42229  1.0000
  H   H970      1.0  0.68464  0.16455  0.49029  1.0000
  H   H971      1.0  0.70569  0.15991  0.46190  1.0000
  H   H972      1.0  0.71359  0.18641  0.48605  1.0000
  H   H973      1.0  0.62906  0.23465  0.40931  1.0000
  H   H974      1.0  0.62994  0.21659  0.43991  1.0000
  H   H975      1.0  0.64071  0.19991  0.40982  1.0000
  H   H976      1.0  0.67577  0.17926  0.38742  1.0000
  H   H977      1.0  0.67112  0.16182  0.41865  1.0000
  H   H978      1.0  0.69959  0.15357  0.39909  1.0000
  H   H979      1.0  0.52905  0.10464  0.53403  1.0000
  H   H980      1.0  0.74152  0.99870  0.53150  1.0000
  H   H981      1.0  0.52270  0.05095  0.56569  1.0000
  H   H982      1.0  0.76016  0.31136  0.58028  1.0000
  H   H983      1.0  0.73957  0.01834  0.62038  1.0000
  C   C584      1.0  0.74755  0.22363  0.58395  1.0000
  C   C585      1.0  0.90254  0.28478  0.33079  1.0000
  C   C586      1.0  0.70073  0.30378  0.56942  1.0000
  H   H984      1.0  0.91925  0.36018  0.35862  1.0000
  H   H985      1.0  0.83782  0.43457  0.56332  1.0000
  C   C587      1.0  0.57387  0.08688  0.50199  1.0000
  H   H986      1.0  0.58965  0.10333  0.50076  1.0000
  H   H987      1.0  0.68831  0.28754  0.57923  1.0000
  C   C588      1.0  0.79505  0.42061  0.55609  1.0000
  C   C589      1.0  0.71911  0.00991  0.61826  1.0000
  H   H988      1.0  0.82269  0.41867  0.50732  1.0000
  H   H989      1.0  0.58322  0.06857  0.49235  1.0000
  H   H990      1.0  0.52932  0.05874  0.52114  1.0000
  C   C590      1.0  0.70095  0.22918  0.64177  1.0000
  H   H991      1.0  0.78300  0.25498  0.55151  1.0000
  C   C591      1.0  0.55002  0.09622  0.48393  1.0000
  H   H992      1.0  0.74294  0.29020  0.60345  1.0000
  H   H993      1.0  0.78513  0.25754  0.60258  1.0000
  C   C592      1.0  0.75534  0.25125  0.51893  1.0000
  H   H994      1.0  0.53344  0.08062  0.48270  1.0000
  H   H995      1.0  0.68460  0.44970  0.62423  1.0000
  H   H996      1.0  0.73287  0.30942  0.54081  1.0000
  C   C593      1.0  0.69584  0.28740  0.64155  1.0000
  H   H997      1.0  0.55874  0.03836  0.51873  1.0000
  H   H998      1.0  0.79051  0.29161  0.61439  1.0000
  S   S170      1.0  0.67315  0.12097  0.65286  1.0000
  C   C594      1.0  0.72969  0.24790  0.57412  1.0000
  N   N41       1.0  0.74418  0.27336  0.56393  1.0000
  S   S171      1.0  0.69205  0.32379  0.64048  1.0000
  H   H999      1.0  0.70964  0.31765  0.58446  1.0000
  H   H1000     1.0  0.68628  0.31652  0.55757  1.0000
  H   H1001     1.0  0.80167  0.28337  0.58205  1.0000
  C   C595      1.0  0.72287  0.29166  0.55100  1.0000
  H   H1002     1.0  0.71623  0.25329  0.59103  1.0000
  H   H1003     1.0  0.77333  0.24566  0.50656  1.0000
  C   C596      1.0  0.75698  0.28943  0.58623  1.0000
  H   H1004     1.0  0.75350  0.45373  0.51121  1.0000
  H   H1005     1.0  0.76245  0.29531  0.32445  1.0000
  C   C597      1.0  0.76562  0.26703  0.54335  1.0000
  H   H1006     1.0  0.75170  0.22533  0.60539  1.0000
  C   C598      1.0  0.78508  0.27944  0.59662  1.0000
  H   H1007     1.0  0.71273  0.20415  0.34470  1.0000
  C   C599      1.0  0.54237  0.04246  0.55814  1.0000
  H   H1008     1.0  0.65469  0.27993  0.62753  1.0000
  H   H1009     1.0  0.94790  0.26259  0.34191  1.0000
  H   H1010     1.0  0.93622  0.31189  0.36371  1.0000
  S   S172      1.0  0.56227  0.20653  0.33000  1.0000
  C   C600      1.0  0.91216  0.34370  0.34508  1.0000
  H   H1011     1.0  0.75570  0.37635  0.33584  1.0000
  H   H1012     1.0  0.49595  0.25159  0.39068  1.0000
  H   H1013     1.0  0.75824  0.01465  0.55888  1.0000
  H   H1014     1.0  0.95414  0.33180  0.34036  1.0000
  H   H1015     1.0  0.64907  0.48499  0.63405  1.0000
  N   N42       1.0  0.92939  0.29861  0.32366  1.0000
  H   H1016     1.0  0.80703  0.47316  0.57220  1.0000
  H   H1017     1.0  0.73426  0.33311  0.32562  1.0000
  C   C601      1.0  0.79907  0.48220  0.55358  1.0000
  C   C602      1.0  0.74667  0.99601  0.55264  1.0000
  C   C603      1.0  0.98154  0.28754  0.33008  1.0000
  H   H1018     1.0  0.90816  0.35356  0.32569  1.0000
  S   S173      1.0  0.49165  0.19782  0.36448  1.0000
  C   C604      1.0  0.95195  0.27720  0.32534  1.0000
  H   H1019     1.0  0.88486  0.29892  0.32745  1.0000
  C   C605      1.0  0.66659  0.98792  0.61221  1.0000
  H   H1020     1.0  0.72757  0.99586  0.56454  1.0000
  H   H1021     1.0  0.87594  0.24962  0.32319  1.0000
  S   S174      1.0  0.79564  0.40638  0.70216  1.0000
  S   S175      1.0  0.59641  0.11796  0.68167  1.0000
  Fe  Fe87      1.0  0.82193  0.43471  0.86174  1.0000
  H   H1022     1.0  0.49414  0.22019  0.97983  1.0000
  S   S176      1.0  0.80328  0.40690  0.82920  1.0000
  Fe  Fe88      1.0  0.84281  0.43886  0.92031  1.0000
  C   C606      1.0  0.61367  0.02433  0.97703  1.0000
  S   S177      1.0  0.86559  0.41862  0.95559  1.0000
  H   H1023     1.0  0.75747  0.41403  0.86460  1.0000
  H   H1024     1.0  0.68308  0.45708  0.91714  1.0000
  H   H1025     1.0  0.75904  0.45013  0.68284  1.0000
  H   H1026     1.0  0.68061  0.25955  0.70288  1.0000
  S   S178      1.0  0.80052  0.43469  0.90164  1.0000
  S   S179      1.0  0.86419  0.43468  0.88068  1.0000
  Fe  Fe89      1.0  0.58618  0.06772  0.83707  1.0000
  S   S180      1.0  0.58380  0.02155  0.83479  1.0000
  S   S181      1.0  0.61246  0.08763  0.80415  1.0000
  Fe  Fe90      1.0  0.55741  0.06744  0.89209  1.0000
  S   S182      1.0  0.55362  0.02118  0.89231  1.0000
  S   S183      1.0  0.53567  0.09110  0.92550  1.0000
  Fe  Fe91      1.0  0.59695  0.02115  0.87696  1.0000
  C   C607      1.0  0.62195  0.17460  0.74993  1.0000
  Fe  Fe92      1.0  0.54071  0.02549  0.85008  1.0000
  H   H1027     1.0  0.73668  0.46132  0.65770  1.0000
  S   S184      1.0  0.60201  0.06717  0.87931  1.0000
  S   S185      1.0  0.54183  0.07194  0.84991  1.0000
  C   C608      1.0  0.54081  0.09215  0.96039  1.0000
  C   C609      1.0  0.97930  0.05791  0.79215  1.0000
  H   H1028     1.0  0.60729  0.18233  0.76497  1.0000
  H   H1029     1.0  0.79001  0.46837  0.71214  1.0000
  H   H1030     1.0  0.67886  0.47814  0.68206  1.0000
  H   H1031     1.0  0.87279  0.02716  0.93265  1.0000
  C   C610      1.0  0.67903  0.21631  0.71378  1.0000
  H   H1032     1.0  0.90282  0.03399  0.91303  1.0000
  C   C611      1.0  0.64380  0.07070  0.95120  1.0000
  C   C612      1.0  0.66171  0.99124  0.88995  1.0000
  H   H1033     1.0  0.71158  0.04019  0.88474  1.0000
  H   H1034     1.0  0.54238  0.00484  0.78395  1.0000
  C   C613      1.0  0.71603  0.47174  0.70680  1.0000
  H   H1035     1.0  0.58377  0.08278  0.95929  1.0000
  H   H1036     1.0  0.70773  0.48389  0.72359  1.0000
  H   H1037     1.0  0.65033  0.03210  0.93200  1.0000
  N   N43       1.0  0.55938  0.01726  0.74611  1.0000
  H   H1038     1.0  0.59521  0.99682  0.94723  1.0000
  S   S186      1.0  0.75487  0.00250  0.89645  1.0000
  H   H1039     1.0  0.88958  0.29607  0.97751  1.0000
  C   C614      1.0  0.61245  0.00908  0.74460  1.0000
  H   H1040     1.0  0.52502  0.06329  0.76762  1.0000
  H   H1041     1.0  0.63146  0.01759  0.75362  1.0000
  H   H1042     1.0  0.50217  0.17736  0.95535  1.0000
  H   H1043     1.0  0.69252  0.22070  0.73103  1.0000
  H   H1044     1.0  0.92805  0.46375  0.87855  1.0000
  H   H1045     1.0  0.60777  0.04487  0.98438  1.0000
  C   C615      1.0  0.66758  0.45938  0.83952  1.0000
  H   H1046     1.0  0.97853  0.02811  0.91162  1.0000
  H   H1047     1.0  0.73367  0.46449  0.91702  1.0000
  C   C616      1.0  0.60158  0.10984  0.71570  1.0000
  C   C617      1.0  0.57891  0.11038  0.73293  1.0000
  C   C618      1.0  0.58176  0.10361  0.75993  1.0000
  C   C619      1.0  0.60747  0.09632  0.77019  1.0000
  C   C620      1.0  0.63025  0.09621  0.75303  1.0000
  C   C621      1.0  0.62734  0.10273  0.72596  1.0000
  H   H1048     1.0  0.55892  0.11610  0.72532  1.0000
  H   H1049     1.0  0.56413  0.10449  0.77288  1.0000
  H   H1050     1.0  0.65028  0.09074  0.76069  1.0000
  H   H1051     1.0  0.64500  0.10209  0.71302  1.0000
  C   C622      1.0  0.79675  0.40644  0.73758  1.0000
  C   C623      1.0  0.78122  0.38829  0.75317  1.0000
  C   C624      1.0  0.78345  0.38887  0.78103  1.0000
  C   C625      1.0  0.80085  0.40784  0.79388  1.0000
  C   C626      1.0  0.81582  0.42646  0.77833  1.0000
  C   C627      1.0  0.81398  0.42554  0.75047  1.0000
  H   H1052     1.0  0.76798  0.37336  0.74377  1.0000
  H   H1053     1.0  0.77184  0.37423  0.79271  1.0000
  H   H1054     1.0  0.82942  0.44108  0.78772  1.0000
  H   H1055     1.0  0.82633  0.43956  0.73880  1.0000
  H   H1056     1.0  0.74442  0.42832  0.80554  1.0000
  H   H1057     1.0  0.65132  0.25157  0.72235  1.0000
  H   H1058     1.0  0.96455  0.07832  0.74407  1.0000
  C   C628      1.0  0.69129  0.46118  0.69065  1.0000
  H   H1059     1.0  0.75107  0.00007  0.79638  1.0000
  H   H1060     1.0  0.98550  0.12578  0.72861  1.0000
  H   H1061     1.0  0.69223  0.40698  0.81049  1.0000
  H   H1062     1.0  0.71097  0.40707  0.78100  1.0000
  H   H1063     1.0  0.66207  0.44349  0.82494  1.0000
  H   H1064     1.0  0.97169  0.04167  0.85458  1.0000
  H   H1065     1.0  0.95505  0.98935  0.97881  1.0000
  H   H1066     1.0  0.68864  0.99443  0.80358  1.0000
  H   H1067     1.0  0.96385  0.02254  0.76868  1.0000
  H   H1068     1.0  0.97878  0.45788  0.88098  1.0000
  Fe  Fe93      1.0  0.86162  0.48096  0.87901  1.0000
  C   C629      1.0  0.71923  0.99724  0.89312  1.0000
  H   H1069     1.0  0.97569  0.02679  0.94652  1.0000
  H   H1070     1.0  0.60274  0.18453  0.68389  1.0000
  H   H1071     1.0  0.74193  0.39537  0.83744  1.0000
  H   H1072     1.0  0.66111  0.08529  0.94801  1.0000
  H   H1073     1.0  0.65260  0.47657  0.83734  1.0000
  H   H1074     1.0  0.57419  0.02517  0.95677  1.0000
  H   H1075     1.0  0.89197  0.99608  0.98580  1.0000
  H   H1076     1.0  0.69607  0.41653  0.85140  1.0000
  C   C630      1.0  0.77553  0.48160  0.65692  1.0000
  H   H1077     1.0  0.94675  0.99143  0.90456  1.0000
  C   C631      1.0  0.95613  0.03924  0.78150  1.0000
  C   C632      1.0  0.91279  0.00340  0.85769  1.0000
  C   C633      1.0  0.72450  0.43948  0.80740  1.0000
  H   H1078     1.0  0.53126  0.03513  0.71766  1.0000
  H   H1079     1.0  0.59195  0.04942  0.70697  1.0000
  C   C634      1.0  0.56657  0.08762  0.97185  1.0000
  H   H1080     1.0  0.94757  0.03973  0.92657  1.0000
  N   N44       1.0  0.66100  0.19165  0.71952  1.0000
  C   C635      1.0  0.67942  0.16841  0.72884  1.0000
  C   C636      1.0  0.64182  0.19806  0.74205  1.0000
  H   H1081     1.0  0.65311  0.24199  0.68767  1.0000
  C   C637      1.0  0.64621  0.18225  0.69499  1.0000
  C   C638      1.0  0.70414  0.16140  0.71102  1.0000
  H   H1082     1.0  0.73146  0.38911  0.87066  1.0000
  H   H1083     1.0  0.96850  0.10499  0.76675  1.0000
  C   C639      1.0  0.62050  0.19878  0.68620  1.0000
  H   H1084     1.0  0.76389  0.46387  0.73716  1.0000
  H   H1085     1.0  0.66757  0.14889  0.73112  1.0000
  H   H1086     1.0  0.62900  0.21645  0.73825  1.0000
  H   H1087     1.0  0.69191  0.99790  0.94900  1.0000
  C   C640      1.0  0.53504  0.04796  0.78076  1.0000
  H   H1088     1.0  0.69304  0.21200  0.69696  1.0000
  H   H1089     1.0  0.69659  0.48388  0.81758  1.0000
  H   H1090     1.0  0.63962  0.16031  0.69698  1.0000
  H   H1091     1.0  0.72043  0.17738  0.71226  1.0000
  H   H1092     1.0  0.71347  0.14168  0.71779  1.0000
  H   H1093     1.0  0.69814  0.15862  0.69019  1.0000
  C   C641      1.0  0.66460  0.24357  0.70641  1.0000
  H   H1094     1.0  0.57473  0.02033  0.69124  1.0000
  Fe  Fe94      1.0  0.77352  0.38601  0.66674  1.0000
  S   S187      1.0  0.72897  0.39562  0.65872  1.0000
  H   H1095     1.0  0.61392  0.21544  0.69944  1.0000
  S   S188      1.0  0.84182  0.48526  0.91872  1.0000
  H   H1096     1.0  0.62984  0.07367  0.93408  1.0000
  C   C642      1.0  0.72001  0.48094  0.91095  1.0000
  S   S189      1.0  0.87730  0.00821  0.86214  1.0000
  H   H1097     1.0  0.68801  0.17289  0.74876  1.0000
  C   C643      1.0  0.74638  0.46529  0.84265  1.0000
  C   C644      1.0  0.96928  0.99806  0.84708  1.0000
  H   H1098     1.0  0.72550  0.45308  0.71590  1.0000
  H   H1099     1.0  0.55504  0.05594  0.78788  1.0000
  H   H1100     1.0  0.65379  0.20371  0.75997  1.0000
  C   C645      1.0  0.65505  0.04081  0.95173  1.0000
  H   H1101     1.0  0.48952  0.46879  0.92014  1.0000
  H   H1102     1.0  0.72995  0.01441  0.82247  1.0000
  C   C646      1.0  0.94144  0.48138  0.87590  1.0000
  H   H1103     1.0  0.60955  0.16728  0.73301  1.0000
  Fe  Fe95      1.0  0.80131  0.48097  0.89751  1.0000
  C   C647      1.0  0.70173  0.42102  0.79591  1.0000
  H   H1104     1.0  0.63291  0.15695  0.75911  1.0000
  C   C648      1.0  0.71558  0.42770  0.85486  1.0000
  N   N45       1.0  0.64428  0.02173  0.97295  1.0000
  H   H1105     1.0  0.67788  0.04209  0.95262  1.0000
  H   H1106     1.0  0.69761  0.44691  0.67480  1.0000
  H   H1107     1.0  0.92173  0.04655  0.86318  1.0000
  C   C649      1.0  0.75142  0.46903  0.67266  1.0000
  H   H1108     1.0  0.76476  0.45203  0.83964  1.0000
  C   C650      1.0  0.95847  0.02374  0.85393  1.0000
  C   C651      1.0  0.96387  0.02397  0.92799  1.0000
  H   H1109     1.0  0.60246  0.03121  0.93512  1.0000
  C   C652      1.0  0.58735  0.02262  0.75799  1.0000
  H   H1110     1.0  0.68557  0.43365  0.78619  1.0000
  C   C653      1.0  0.53790  0.01949  0.76754  1.0000
  C   C654      1.0  0.73809  0.40548  0.85664  1.0000
  C   C655      1.0  0.95294  0.99419  0.92548  1.0000
  H   H1111     1.0  0.67743  0.44932  0.70391  1.0000
  H   H1112     1.0  0.90340  0.03648  0.94864  1.0000
  C   C656      1.0  0.55250  0.03849  0.72526  1.0000
  C   C657      1.0  0.57188  0.04031  0.70135  1.0000
  S   S190      1.0  0.50987  0.99614  0.83150  1.0000
  N   N46       1.0  0.72032  0.45039  0.83490  1.0000
  H   H1113     1.0  0.59144  0.04511  0.75876  1.0000
  C   C658      1.0  0.93020  0.02645  0.85877  1.0000
  C   C659      1.0  0.70239  0.02004  0.88752  1.0000
  H   H1114     1.0  0.62422  0.20839  0.66659  1.0000
  H   H1115     1.0  0.94017  0.05133  0.77097  1.0000
  H   H1116     1.0  0.66052  0.18211  0.67791  1.0000
  C   C660      1.0  0.89547  0.02461  0.93176  1.0000
  H   H1117     1.0  0.61377  0.01323  0.72322  1.0000
  H   H1118     1.0  0.96897  0.07383  0.80434  1.0000
  H   H1119     1.0  0.66097  0.03475  0.88129  1.0000
  C   C661      1.0  0.67375  0.01701  0.88554  1.0000
  C   C662      1.0  0.69690  0.47090  0.83575  1.0000
  H   H1120     1.0  0.52139  0.04588  0.79821  1.0000
  H   H1121     1.0  0.56290  0.05482  0.68666  1.0000
  S   S191      1.0  0.82115  0.48073  0.85750  1.0000
  H   H1122     1.0  0.55257  0.05958  0.73361  1.0000
  C   C663      1.0  0.98061  0.09016  0.75474  1.0000
  C   C664      1.0  0.74597  0.99898  0.81765  1.0000
  C   C665      1.0  0.59573  0.01901  0.95247  1.0000
  C   C666      1.0  0.97019  0.47812  0.87728  1.0000
  H   H1123     1.0  0.94569  0.02906  0.79843  1.0000
  H   H1124     1.0  0.72681  0.45683  0.79316  1.0000
  C   C667      1.0  0.64972  0.99229  0.96471  1.0000
  H   H1125     1.0  0.63305  0.07751  0.96915  1.0000
  C   C668      1.0  0.51872  0.09939  0.97696  1.0000
  H   H1126     1.0  0.49870  0.10307  0.96836  1.0000
  C   C669      1.0  0.77589  0.47924  0.72572  1.0000
  H   H1127     1.0  0.71325  0.43665  0.87491  1.0000
  H   H1128     1.0  0.93658  0.01946  0.97113  1.0000
  C   C670      1.0  0.69135  0.47684  0.91105  1.0000
  H   H1129     1.0  0.51720  0.01362  0.75996  1.0000
  C   C671      1.0  0.90232  0.99358  0.93283  1.0000
  H   H1130     1.0  0.58816  0.01568  0.77889  1.0000
  H   H1131     1.0  0.76467  0.00541  0.82858  1.0000
  H   H1132     1.0  0.74636  0.47006  0.86403  1.0000
  H   H1133     1.0  0.69980  0.48552  0.85242  1.0000
  C   C672      1.0  0.93484  0.99667  0.97111  1.0000
  H   H1134     1.0  0.66466  0.45111  0.85980  1.0000
  C   C673      1.0  0.55696  0.98889  0.73428  1.0000
  H   H1135     1.0  0.74178  0.23669  0.65661  1.0000
  H   H1136     1.0  0.69267  0.98989  0.83804  1.0000
  H   H1137     1.0  0.64029  0.98794  0.94522  1.0000
  H   H1138     1.0  0.73728  0.28770  0.65631  1.0000
  H   H1139     1.0  0.71200  0.56812  0.99514  1.0000
  C   C674      1.0  0.76723  0.82522  0.30081  1.0000
  Fe  Fe96      1.0  0.52086  0.61336  0.09601  1.0000
  H   H1140     1.0  0.58687  0.72276  0.19791  1.0000
  S   S192      1.0  0.54261  0.59005  0.06236  1.0000
  Fe  Fe97      1.0  0.52313  0.62322  0.15741  1.0000
  C   C675      1.0  0.87278  0.75249  0.17041  1.0000
  S   S193      1.0  0.55181  0.62644  0.19338  1.0000
  S   S194      1.0  0.93394  0.56423  0.15439  1.0000
  H   H1141     1.0  0.49835  0.49995  0.06004  1.0000
  H   H1142     1.0  0.78514  0.86624  0.30419  1.0000
  S   S195      1.0  0.93296  0.68951  0.10938  1.0000
  S   S196      1.0  0.51464  0.58610  0.13183  1.0000
  S   S197      1.0  0.53384  0.64897  0.12171  1.0000
  Fe  Fe98      1.0  0.86742  0.87372  0.11114  1.0000
  S   S198      1.0  0.91177  0.88668  0.11153  1.0000
  S   S199      1.0  0.84023  0.87647  0.07379  1.0000
  Fe  Fe99      1.0  0.87031  0.85187  0.17013  1.0000
  S   S200      1.0  0.91471  0.86375  0.17292  1.0000
  S   S201      1.0  0.85231  0.82418  0.20319  1.0000
  Fe  Fe100     1.0  0.90256  0.90308  0.15210  1.0000
  S   S202      1.0  0.91534  0.94392  0.17041  1.0000
  Fe  Fe101     1.0  0.91913  0.84609  0.13232  1.0000
  S   S203      1.0  0.95493  0.81774  0.12314  1.0000
  S   S204      1.0  0.85743  0.89221  0.15107  1.0000
  S   S205      1.0  0.87543  0.83213  0.13010  1.0000
  C   C676      1.0  0.94007  0.72511  0.11177  1.0000
  H   H1143     1.0  0.76366  0.75757  0.27451  1.0000
  H   H1144     1.0  0.64494  0.60444  0.01638  1.0000
  C   C677      1.0  0.94912  0.78234  0.11731  1.0000
  C   C678      1.0  0.92267  0.77229  0.11264  1.0000
  C   C679      1.0  0.91823  0.74386  0.10949  1.0000
  H   H1145     1.0  0.89898  0.51736  0.16248  1.0000
  H   H1146     1.0  0.94937  0.71067  0.16980  1.0000
  H   H1147     1.0  0.90559  0.78636  0.11160  1.0000
  H   H1148     1.0  0.89596  0.77801  0.06514  1.0000
  C   C680      1.0  0.94053  0.52845  0.15212  1.0000
  C   C681      1.0  0.54163  0.74294  0.17106  1.0000
  C   C682      1.0  0.94053  0.96680  0.12652  1.0000
  C   C683      1.0  0.93075  0.97095  0.15209  1.0000
  H   H1149     1.0  0.89766  0.73626  0.10593  1.0000
  C   C684      1.0  0.89297  0.75837  0.02689  1.0000
  H   H1150     1.0  0.92397  0.49981  0.10268  1.0000
  H   H1151     1.0  0.93832  0.94681  0.11739  1.0000
  H   H1152     1.0  0.94610  0.84263  0.03804  1.0000
  C   C685      1.0  0.96663  0.51836  0.14598  1.0000
  H   H1153     1.0  0.68092  0.80795  0.29386  1.0000
  C   C686      1.0  0.54556  0.59410  0.02744  1.0000
  H   H1154     1.0  0.98008  0.56708  0.18785  1.0000
  H   H1155     1.0  0.95087  0.53989  0.99345  1.0000
  H   H1156     1.0  0.55342  0.55079  0.02155  1.0000
  C   C687      1.0  0.87045  0.90155  0.03293  1.0000
  C   C688      1.0  0.84520  0.89084  0.04142  1.0000
  C   C689      1.0  0.82337  0.88997  0.02314  1.0000
  H   H1157     1.0  0.88746  0.90260  0.04662  1.0000
  H   H1158     1.0  0.80373  0.88173  0.02932  1.0000
  C   C690      1.0  0.53376  0.65552  0.27856  1.0000
  C   C691      1.0  0.51206  0.64834  0.26152  1.0000
  C   C692      1.0  0.51717  0.63908  0.23561  1.0000
  C   C693      1.0  0.54416  0.63675  0.22635  1.0000
  C   C694      1.0  0.56588  0.64363  0.24348  1.0000
  C   C695      1.0  0.56076  0.65309  0.26936  1.0000
  H   H1159     1.0  0.93062  0.71226  0.21585  1.0000
  H   H1160     1.0  0.91292  0.54895  0.24339  1.0000
  H   H1161     1.0  0.58685  0.64179  0.23664  1.0000
  H   H1162     1.0  0.57770  0.65840  0.28219  1.0000
  C   C696      1.0  0.84169  0.83552  0.29345  1.0000
  C   C697      1.0  0.84937  0.85800  0.27737  1.0000
  C   C698      1.0  0.85339  0.85485  0.24992  1.0000
  C   C699      1.0  0.84940  0.82916  0.23803  1.0000
  C   C700      1.0  0.84219  0.80655  0.25422  1.0000
  C   C701      1.0  0.83880  0.80958  0.28175  1.0000
  H   H1163     1.0  0.85189  0.87817  0.28611  1.0000
  H   H1164     1.0  0.85894  0.87249  0.23787  1.0000
  H   H1165     1.0  0.83903  0.78657  0.24533  1.0000
  H   H1166     1.0  0.83375  0.79193  0.29389  1.0000
  H   H1167     1.0  0.49939  0.56112  0.03389  1.0000
  C   C702      1.0  0.95967  0.72237  0.18572  1.0000
  H   H1168     1.0  0.89079  0.71599  0.18884  1.0000
  H   H1169     1.0  0.98162  0.62119  0.21405  1.0000
  H   H1170     1.0  0.90918  0.72972  0.16242  1.0000
  H   H1171     1.0  0.87802  0.76446  0.15237  1.0000
  H   H1172     1.0  0.97511  0.70814  0.19452  1.0000
  C   C703      1.0  0.76974  0.76392  0.29466  1.0000
  C   C704      1.0  0.90689  0.81599  0.00884  1.0000
  N   N47       1.0  0.74090  0.80866  0.29831  1.0000
  C   C705      1.0  0.82665  0.89948  0.99687  1.0000
  C   C706      1.0  0.92821  0.77588  0.18483  1.0000
  H   H1173     1.0  0.91681  0.76753  0.23858  1.0000
  H   H1174     1.0  0.51643  0.53286  0.06312  1.0000
  H   H1175     1.0  0.59761  0.68396  0.16936  1.0000
  H   H1176     1.0  0.86497  0.73436  0.22435  1.0000
  C   C707      1.0  0.91714  0.50271  0.08193  1.0000
  C   C708      1.0  0.62820  0.56585  0.99915  1.0000
  H   H1177     1.0  0.85509  0.81291  0.07696  1.0000
  C   C709      1.0  0.87388  0.91059  0.00653  1.0000
  H   H1178     1.0  0.57079  0.69182  0.20900  1.0000
  C   C710      1.0  0.90236  0.84524  0.99748  1.0000
  C   C711      1.0  0.57694  0.69349  0.16750  1.0000
  H   H1179     1.0  0.97185  0.57169  0.27122  1.0000
  H   H1180     1.0  0.94562  0.76630  0.32146  1.0000
  H   H1181     1.0  0.60674  0.55846  0.99670  1.0000
  H   H1182     1.0  0.71686  0.82905  0.23593  1.0000
  C   C712      1.0  0.52010  0.70152  0.19160  1.0000
  C   C713      1.0  0.92170  0.81864  0.31149  1.0000
  H   H1183     1.0  0.98359  0.72081  0.11814  1.0000
  H   H1184     1.0  0.93792  0.76967  0.16610  1.0000
  N   N48       1.0  0.91684  0.75105  0.19903  1.0000
  H   H1185     1.0  0.75055  0.86726  0.29270  1.0000
  H   H1186     1.0  0.97786  0.61887  0.24957  1.0000
  C   C714      1.0  0.92070  0.80298  0.28518  1.0000
  C   C715      1.0  0.54257  0.72034  0.24515  1.0000
  H   H1187     1.0  0.49308  0.96977  0.11102  1.0000
  C   C716      1.0  0.55145  0.57071  0.01203  1.0000
  H   H1188     1.0  0.85578  0.73801  0.16581  1.0000
  C   C717      1.0  0.93026  0.53451  0.24683  1.0000
  H   H1189     1.0  0.50111  0.51998  0.01873  1.0000
  C   C718      1.0  0.91919  0.50968  0.15754  1.0000
  C   C719      1.0  0.88310  0.73921  0.23676  1.0000
  H   H1190     1.0  0.82592  0.80966  0.05604  1.0000
  N   N49       1.0  0.89493  0.81091  0.03581  1.0000
  C   C720      1.0  0.90588  0.83124  0.05567  1.0000
  C   C721      1.0  0.86413  0.81423  0.03430  1.0000
  H   H1191     1.0  0.88024  0.84969  0.99427  1.0000
  C   C722      1.0  0.90278  0.78226  0.04462  1.0000
  H   H1192     1.0  0.96963  0.50911  0.99027  1.0000
  H   H1193     1.0  0.89939  0.82537  0.07594  1.0000
  H   H1194     1.0  0.50376  0.76635  0.18122  1.0000
  C   C723      1.0  0.69074  0.57636  0.99379  1.0000
  H   H1195     1.0  0.89699  0.85213  0.05250  1.0000
  H   H1196     1.0  0.72815  0.76646  0.30716  1.0000
  H   H1197     1.0  0.85547  0.80425  0.01644  1.0000
  H   H1198     1.0  0.85855  0.83633  0.03191  1.0000
  H   H1199     1.0  0.98323  0.53260  0.14185  1.0000
  C   C724      1.0  0.49995  0.51951  0.07117  1.0000
  H   H1200     1.0  0.78920  0.77562  0.29387  1.0000
  H   H1201     1.0  0.89927  0.79704  0.28024  1.0000
  H   H1202     1.0  0.92550  0.78011  0.04581  1.0000
  C   C725      1.0  0.89529  0.49513  0.02385  1.0000
  C   C726      1.0  0.54075  0.73822  0.21993  1.0000
  H   H1203     1.0  0.48767  0.71817  0.21758  1.0000
  H   H1204     1.0  0.74138  0.84798  0.25460  1.0000
  H   H1205     1.0  0.88938  0.73971  0.03926  1.0000
  H   H1206     1.0  0.93418  0.78469  0.28468  1.0000
  H   H1207     1.0  0.50652  0.51375  0.09146  1.0000
  H   H1208     1.0  0.96770  0.78096  0.20591  1.0000
  H   H1209     1.0  0.92859  0.81670  0.26927  1.0000
  H   H1210     1.0  0.87324  0.76258  0.01686  1.0000
  H   H1211     1.0  0.71509  0.79152  0.26775  1.0000
  H   H1212     1.0  0.88932  0.77938  0.21920  1.0000
  C   C727      1.0  0.74654  0.77994  0.30859  1.0000
  Fe  Fe102     1.0  0.96419  0.65683  0.12101  1.0000
  H   H1213     1.0  0.53550  0.78410  0.18829  1.0000
  H   H1214     1.0  0.94265  0.84985  0.07216  1.0000
  H   H1215     1.0  0.56272  0.75018  0.16591  1.0000
  S   S206      1.0  0.96026  0.63902  0.16164  1.0000
  C   C728      1.0  0.62504  0.59404  0.01287  1.0000
  C   C729      1.0  0.96718  0.61678  0.23038  1.0000
  C   C730      1.0  0.93743  0.83454  0.05672  1.0000
  H   H1216     1.0  0.94259  0.53926  0.20639  1.0000
  H   H1217     1.0  0.70638  0.84378  0.26649  1.0000
  H   H1218     1.0  0.52128  0.75000  0.22153  1.0000
  C   C731      1.0  0.94934  0.79313  0.20027  1.0000
  C   C732      1.0  0.56977  0.70816  0.19355  1.0000
  H   H1219     1.0  0.52008  0.69226  0.17158  1.0000
  H   H1220     1.0  0.87512  0.74795  0.25547  1.0000
  H   H1221     1.0  0.84843  0.78077  0.05989  1.0000
  H   H1222     1.0  0.94001  0.80282  0.21788  1.0000
  H   H1223     1.0  0.98474  0.52841  0.28288  1.0000
  H   H1224     1.0  0.56249  0.67642  0.16350  1.0000
  H   H1225     1.0  0.90299  0.83188  0.31128  1.0000
  H   H1226     1.0  0.89369  0.91823  0.00023  1.0000
  C   C733      1.0  0.72376  0.83360  0.25634  1.0000
  H   H1227     1.0  0.93686  0.58815  0.24304  1.0000
  H   H1228     1.0  0.94075  0.54066  0.07853  1.0000
  C   C734      1.0  0.96659  0.73509  0.11643  1.0000
  H   H1229     1.0  0.89856  0.51603  0.08330  1.0000
  H   H1230     1.0  0.91143  0.86147  0.01009  1.0000
  H   H1231     1.0  0.95662  0.81020  0.18730  1.0000
  C   C735      1.0  0.84782  0.80359  0.05834  1.0000
  H   H1232     1.0  0.89896  0.75734  0.30609  1.0000
  C   C736      1.0  0.93999  0.52015  0.06880  1.0000
  S   S207      1.0  0.52564  0.66810  0.31066  1.0000
  C   C737      1.0  0.95289  0.58849  0.22745  1.0000
  H   H1233     1.0  0.53863  0.63790  0.02624  1.0000
  H   H1234     1.0  0.94796  0.81514  0.06240  1.0000
  H   H1235     1.0  0.68291  0.57833  0.01420  1.0000
  H   H1236     1.0  0.93798  0.53684  0.26723  1.0000
  H   H1237     1.0  0.93877  0.83392  0.31061  1.0000
  N   N50       1.0  0.97120  0.56335  0.22941  1.0000
  H   H1238     1.0  0.91142  0.79033  0.17900  1.0000
  C   C738      1.0  0.73232  0.80646  0.26986  1.0000
  H   H1239     1.0  0.74935  0.79805  0.25766  1.0000
  H   H1240     1.0  0.57755  0.70765  0.15029  1.0000
  H   H1241     1.0  0.95196  0.74055  0.22366  1.0000
  Fe  Fe103     1.0  0.96472  0.59751  0.14248  1.0000
  C   C739      1.0  0.93945  0.73156  0.20746  1.0000
  H   H1242     1.0  0.92163  0.51336  0.24506  1.0000
  C   C740      1.0  0.54308  0.61968  0.01477  1.0000
  H   H1243     1.0  0.96131  0.98497  0.09315  1.0000
  H   H1244     1.0  0.77392  0.74467  0.30598  1.0000
  C   C741      1.0  0.76462  0.85642  0.30636  1.0000
  H   H1245     1.0  0.93660  0.52387  0.04757  1.0000
  S   S208      1.0  0.96443  0.61514  0.10151  1.0000
  C   C742      1.0  0.97113  0.76367  0.11890  1.0000
  C   C743      1.0  0.90190  0.76069  0.22335  1.0000
  H   H1246     1.0  0.96474  0.51891  0.22539  1.0000
  H   H1247     1.0  0.94159  0.58875  0.20829  1.0000
  H   H1248     1.0  0.61503  0.59090  0.03237  1.0000
  H   H1249     1.0  0.52683  0.70386  0.24554  1.0000
  C   C744      1.0  0.89792  0.73602  0.18046  1.0000
  H   H1250     1.0  0.92933  0.81153  0.00860  1.0000
  H   H1251     1.0  0.89422  0.71995  0.24180  1.0000
  H   H1252     1.0  0.87807  0.49309  0.00956  1.0000
  H   H1253     1.0  0.86436  0.76694  0.18512  1.0000
  H   H1254     1.0  0.96057  0.51081  0.07168  1.0000
  C   C745      1.0  0.95298  0.53841  0.22593  1.0000
  H   H1255     1.0  0.53389  0.73261  0.15290  1.0000
  H   H1256     1.0  0.90870  0.75348  0.01174  1.0000
  H   H1257     1.0  0.50023  0.63375  0.22280  1.0000
  H   H1258     1.0  0.56327  0.71121  0.24787  1.0000
  H   H1259     1.0  0.95136  0.63327  0.22954  1.0000
  H   H1260     1.0  0.91266  0.96709  0.99683  1.0000
  H   H1261     1.0  0.89790  0.80147  0.99425  1.0000
  H   H1262     1.0  0.63734  0.55134  0.01382  1.0000
  H   H1263     1.0  0.89707  0.51745  0.02812  1.0000
  H   H1264     1.0  0.61123  0.60787  0.00138  1.0000
  H   H1265     1.0  0.78024  0.81724  0.31727  1.0000
  H   H1266     1.0  0.55748  0.75388  0.22107  1.0000
  H   H1267     1.0  0.53881  0.73350  0.26266  1.0000
  H   H1268     1.0  0.97136  0.73987  0.17715  1.0000
  N   N51       1.0  0.54243  0.72293  0.19413  1.0000
  C   C746      1.0  0.52503  0.76984  0.17448  1.0000
  H   H1269     1.0  0.78022  0.82299  0.28286  1.0000
  H   H1270     1.0  0.49110  0.64998  0.26840  1.0000
  H   H1271     1.0  0.52409  0.68398  0.20509  1.0000
  H   H1272     1.0  0.69049  0.78475  0.32042  1.0000
  C   C747      1.0  0.69006  0.80654  0.31384  1.0000
  H   H1273     1.0  0.71447  0.84269  0.31028  1.0000
  C   C748      1.0  0.71845  0.82076  0.31529  1.0000
  H   H1274     1.0  0.97757  0.80869  0.31764  1.0000
  H   H1275     1.0  0.48660  0.59523  0.00403  1.0000
  H   H1276     1.0  0.49213  0.72323  0.31759  1.0000
  H   H1277     1.0  0.86957  0.48904  0.05719  1.0000
  C   C749      1.0  0.97136  0.48972  0.14547  1.0000
  H   H1278     1.0  0.52380  0.78064  0.15512  1.0000
  Fe  Fe104     1.0  0.48922  0.66147  0.12248  1.0000
  C   C750      1.0  0.49050  0.71106  0.19704  1.0000
  Fe  Fe105     1.0  0.71457  0.90139  0.62899  1.0000
  S   S209      1.0  0.76040  0.90599  0.63050  1.0000
  S   S210      1.0  0.68300  0.93391  0.61709  1.0000
  C   C751      1.0  0.67236  0.75450  0.63591  1.0000
  C   C752      1.0  0.51978  0.72283  0.47029  1.0000
  S   S211      1.0  0.62216  0.75981  0.36784  1.0000
  H   H1279     1.0  0.73973  0.90237  0.50764  1.0000
  Fe  Fe106     1.0  0.76208  0.86404  0.61108  1.0000
  S   S212      1.0  0.79138  0.85203  0.57721  1.0000
  H   H1280     1.0  0.64352  0.66344  0.44966  1.0000
  S   S213      1.0  0.71638  0.86110  0.60701  1.0000
  Fe  Fe107     1.0  0.64424  0.59016  0.62363  1.0000
  S   S214      1.0  0.60029  0.60536  0.62329  1.0000
  C   C753      1.0  0.71749  0.50687  0.60123  1.0000
  Fe  Fe108     1.0  0.66640  0.64898  0.63046  1.0000
  S   S215      1.0  0.62405  0.66667  0.63157  1.0000
  H   H1281     1.0  0.76767  0.96850  0.57956  1.0000
  H   H1282     1.0  0.90737  0.74197  0.33775  1.0000
  Fe  Fe109     1.0  0.61565  0.63945  0.59639  1.0000
  S   S216      1.0  0.59409  0.66264  0.56223  1.0000
  H   H1283     1.0  0.63218  0.70876  0.48906  1.0000
  S   S217      1.0  0.65885  0.62267  0.59453  1.0000
  Fe  Fe110     1.0  0.80004  0.80526  0.41877  1.0000
  S   S218      1.0  0.80079  0.75883  0.41598  1.0000
  S   S219      1.0  0.77724  0.82593  0.45356  1.0000
  Fe  Fe111     1.0  0.82083  0.81162  0.36066  1.0000
  S   S220      1.0  0.82151  0.76610  0.35468  1.0000
  Fe  Fe112     1.0  0.78138  0.76465  0.37631  1.0000
  S   S221      1.0  0.74957  0.73402  0.36191  1.0000
  Fe  Fe113     1.0  0.84115  0.76398  0.39467  1.0000
  S   S222      1.0  0.87451  0.73125  0.39559  1.0000
  S   S223      1.0  0.77859  0.81075  0.37927  1.0000
  S   S224      1.0  0.84234  0.81008  0.40031  1.0000
  H   H1284     1.0  0.69221  0.69038  0.47875  1.0000
  H   H1285     1.0  0.69981  0.79281  0.54856  1.0000
  Fe  Fe114     1.0  0.57019  0.67827  0.40424  1.0000
  S   S225      1.0  0.57045  0.72372  0.41106  1.0000
  S   S226      1.0  0.58515  0.64864  0.43667  1.0000
  Fe  Fe115     1.0  0.52997  0.72446  0.38985  1.0000
  C   C754      1.0  0.94670  0.78199  0.33721  1.0000
  Fe  Fe116     1.0  0.58946  0.72670  0.37090  1.0000
  C   C755      1.0  0.76992  0.77344  0.57604  1.0000
  S   S227      1.0  0.52788  0.67853  0.38580  1.0000
  S   S228      1.0  0.59155  0.68079  0.36454  1.0000
  C   C756      1.0  0.71425  0.74148  0.36365  1.0000
  C   C757      1.0  0.70484  0.76666  0.37344  1.0000
  H   H1286     1.0  0.73911  0.78974  0.52352  1.0000
  C   C758      1.0  0.65742  0.75197  0.36651  1.0000
  C   C759      1.0  0.66682  0.72672  0.35688  1.0000
  C   C760      1.0  0.69522  0.72163  0.35519  1.0000
  H   H1287     1.0  0.75163  0.76626  0.49950  1.0000
  C   C761      1.0  0.67551  0.72596  0.63203  1.0000
  H   H1288     1.0  0.65226  0.71132  0.35036  1.0000
  H   H1289     1.0  0.70314  0.91338  0.53099  1.0000
  C   C762      1.0  0.91031  0.73665  0.39839  1.0000
  C   C763      1.0  0.92116  0.76108  0.40856  1.0000
  C   C764      1.0  0.94982  0.76433  0.41082  1.0000
  C   C765      1.0  0.96783  0.74333  0.40273  1.0000
  C   C766      1.0  0.95698  0.71897  0.39241  1.0000
  C   C767      1.0  0.92831  0.71561  0.39043  1.0000
  H   H1290     1.0  0.90747  0.77721  0.41514  1.0000
  H   H1291     1.0  0.95812  0.78316  0.41898  1.0000
  H   H1292     1.0  0.61984  0.75411  0.44570  1.0000
  H   H1293     1.0  0.92004  0.69655  0.38273  1.0000
  C   C768      1.0  0.59315  0.65855  0.52724  1.0000
  C   C769      1.0  0.60064  0.63396  0.51481  1.0000
  C   C770      1.0  0.59812  0.63136  0.48715  1.0000
  C   C771      1.0  0.58853  0.65337  0.47143  1.0000
  C   C772      1.0  0.58192  0.67827  0.48374  1.0000
  C   C773      1.0  0.58374  0.68064  0.51146  1.0000
  H   H1294     1.0  0.60779  0.61672  0.52658  1.0000
  H   H1295     1.0  0.60347  0.61201  0.47791  1.0000
  H   H1296     1.0  0.57530  0.69565  0.47195  1.0000
  H   H1297     1.0  0.57803  0.69983  0.52079  1.0000
  C   C774      1.0  0.78685  0.84413  0.54298  1.0000
  C   C775      1.0  0.80970  0.83567  0.52799  1.0000
  C   C776      1.0  0.80722  0.82959  0.50081  1.0000
  C   C777      1.0  0.78185  0.83238  0.48802  1.0000
  C   C778      1.0  0.75903  0.84092  0.50303  1.0000
  C   C779      1.0  0.76136  0.84623  0.53032  1.0000
  H   H1298     1.0  0.82955  0.83383  0.53744  1.0000
  H   H1299     1.0  0.82503  0.82313  0.48967  1.0000
  H   H1300     1.0  0.73925  0.84304  0.49348  1.0000
  H   H1301     1.0  0.74344  0.85202  0.54152  1.0000
  H   H1302     1.0  0.89177  0.78225  0.36151  1.0000
  S   S229      1.0  0.70387  0.67662  0.63631  1.0000
  H   H1303     1.0  0.63954  0.71581  0.41470  1.0000
  C   C780      1.0  0.66826  0.49119  0.62501  1.0000
  C   C781      1.0  0.72630  0.93805  0.55966  1.0000
  S   S230      1.0  0.49663  0.75312  0.40438  1.0000
  H   H1304     1.0  0.53308  0.71871  0.48751  1.0000
  S   S231      1.0  0.83550  0.84109  0.32779  1.0000
  H   H1305     1.0  0.75795  0.85999  0.32701  1.0000
  H   H1306     1.0  0.71158  0.95505  0.55558  1.0000
  C   C782      1.0  0.68881  0.97003  0.61698  1.0000
  H   H1307     1.0  0.81049  0.50177  0.55031  1.0000
  H   H1308     1.0  0.72342  0.89292  0.55425  1.0000
  C   C783      1.0  0.67273  0.51917  0.61890  1.0000
  C   C784      1.0  0.69750  0.52699  0.60705  1.0000
  H   H1309     1.0  0.76699  0.96006  0.50904  1.0000
  H   H1310     1.0  0.73232  0.96770  0.62422  1.0000
  H   H1311     1.0  0.80618  0.93363  0.52711  1.0000
  H   H1312     1.0  0.70111  0.54845  0.60221  1.0000
  H   H1313     1.0  0.65180  0.75316  0.46179  1.0000
  H   H1314     1.0  0.50178  0.73544  0.47600  1.0000
  H   H1315     1.0  0.68045  0.72471  0.47880  1.0000
  Fe  Fe117     1.0  0.54905  0.68523  0.34649  1.0000
  H   H1316     1.0  0.69259  0.90925  0.56423  1.0000
  H   H1317     1.0  0.81482  0.90524  0.54841  1.0000
  H   H1318     1.0  0.49870  0.64190  0.49755  1.0000
  H   H1319     1.0  0.78653  0.79739  0.60842  1.0000
  C   C785      1.0  0.74896  0.74800  0.53874  1.0000
  H   H1320     1.0  0.79052  0.76477  0.57123  1.0000
  H   H1321     1.0  0.74036  0.68389  0.58674  1.0000
  H   H1322     1.0  0.66926  0.79154  0.38206  1.0000
  H   H1323     1.0  0.77302  0.91792  0.57685  1.0000
  H   H1324     1.0  0.71625  0.76142  0.59749  1.0000
  H   H1325     1.0  0.73650  0.51304  0.59187  1.0000
  H   H1326     1.0  0.77523  0.78081  0.52226  1.0000
  C   C786      1.0  0.92584  0.82116  0.35934  1.0000
  H   H1327     1.0  0.65475  0.64002  0.40892  1.0000
  H   H1328     1.0  0.77501  0.76420  0.61863  1.0000
  H   H1329     1.0  0.53199  0.73585  0.45654  1.0000
  H   H1330     1.0  0.76594  0.73327  0.53430  1.0000
  S   S232      1.0  0.76377  0.84185  0.65059  1.0000
  C   C787      1.0  0.51162  0.69610  0.45604  1.0000
  C   C788      1.0  0.75365  0.91899  0.50099  1.0000
  H   H1331     1.0  0.90204  0.85806  0.34748  1.0000
  S   S233      1.0  0.54889  0.73151  0.35020  1.0000
  H   H1332     1.0  0.90561  0.85315  0.38219  1.0000
  C   C789      1.0  0.67649  0.77194  0.37466  1.0000
  C   C790      1.0  0.77342  0.92083  0.55510  1.0000
  H   H1333     1.0  0.75052  0.79148  0.61143  1.0000
  H   H1334     1.0  0.53112  0.68573  0.45051  1.0000
  H   H1335     1.0  0.71936  0.78202  0.38009  1.0000
  H   H1336     1.0  0.72869  0.93725  0.58149  1.0000
  H   H1337     1.0  0.71236  0.70633  0.58007  1.0000
  H   H1338     1.0  0.52222  0.66680  0.53386  1.0000
  H   H1339     1.0  0.67633  0.66744  0.39767  1.0000
  H   H1340     1.0  0.71997  0.73103  0.45583  1.0000
  H   H1341     1.0  0.78505  0.97524  0.54932  1.0000
  N   N52       1.0  0.92261  0.80161  0.33644  1.0000
  C   C791      1.0  0.75309  0.72665  0.58219  1.0000
  H   H1342     1.0  0.65737  0.69996  0.51317  1.0000
  H   H1343     1.0  0.87819  0.79809  0.33281  1.0000
  C   C792      1.0  0.71079  0.79285  0.56775  1.0000
  N   N53       1.0  0.75380  0.94334  0.54684  1.0000
  S   S234      1.0  0.64681  0.54326  0.62695  1.0000
  H   H1344     1.0  0.97065  0.70265  0.38620  1.0000
  H   H1345     1.0  0.72789  0.80778  0.56690  1.0000
  H   H1346     1.0  0.64622  0.97943  0.60956  1.0000
  H   H1347     1.0  0.65313  0.76436  0.63072  1.0000
  H   H1348     1.0  0.62337  0.70695  0.44424  1.0000
  C   C793      1.0  0.76457  0.97020  0.55779  1.0000
  H   H1349     1.0  0.76905  0.79300  0.56475  1.0000
  H   H1350     1.0  0.68615  0.71325  0.40752  1.0000
  H   H1351     1.0  0.75115  0.72906  0.60386  1.0000
  H   H1352     1.0  0.50205  0.70250  0.43704  1.0000
  H   H1353     1.0  0.63959  0.67243  0.40154  1.0000
  H   H1354     1.0  0.70779  0.69238  0.42736  1.0000
  C   C794      1.0  0.50672  0.63392  0.44298  1.0000
  H   H1355     1.0  0.74841  0.92352  0.48009  1.0000
  H   H1356     1.0  0.87273  0.74922  0.32937  1.0000
  C   C795      1.0  0.71098  0.91173  0.55145  1.0000
  H   H1357     1.0  0.70245  0.70213  0.34756  1.0000
  H   H1358     1.0  0.72452  0.73985  0.42213  1.0000
  C   C796      1.0  0.77014  0.78175  0.60537  1.0000
  C   C797      1.0  0.71930  0.76333  0.57587  1.0000
  H   H1359     1.0  0.94481  0.83379  0.35732  1.0000
  H   H1360     1.0  0.67943  0.65762  0.44703  1.0000
  H   H1361     1.0  0.72975  0.73786  0.53183  1.0000
  C   C798      1.0  0.75392  0.77288  0.52034  1.0000
  H   H1362     1.0  0.76717  0.90058  0.54715  1.0000
  H   H1363     1.0  0.69666  0.80125  0.58296  1.0000
  H   H1364     1.0  0.73586  0.69637  0.55393  1.0000
  C   C799      1.0  0.89403  0.75710  0.32733  1.0000
  C   C800      1.0  0.73413  0.70225  0.57495  1.0000
  H   H1365     1.0  0.64530  0.67374  0.49179  1.0000
  C   C801      1.0  0.70864  0.73501  0.43721  1.0000
  H   H1366     1.0  0.73105  0.95550  0.51193  1.0000
  C   C802      1.0  0.71507  0.98119  0.62035  1.0000
  H   H1367     1.0  0.51416  0.62081  0.45949  1.0000
  N   N54       1.0  0.74755  0.75359  0.56801  1.0000
  H   H1368     1.0  0.77465  0.71972  0.57874  1.0000
  C   C803      1.0  0.50719  0.67712  0.52054  1.0000
  C   C804      1.0  0.69983  0.71277  0.63955  1.0000
  H   H1369     1.0  0.69568  0.75358  0.43914  1.0000
  H   H1370     1.0  0.70320  0.74951  0.56771  1.0000
  H   H1371     1.0  0.65045  0.76023  0.42675  1.0000
  C   C805      1.0  0.75110  0.94585  0.51723  1.0000
  C   C806      1.0  0.80378  0.92531  0.54735  1.0000
  C   C807      1.0  0.64160  0.74773  0.44309  1.0000
  N   N55       1.0  0.66775  0.70082  0.44454  1.0000
  C   C808      1.0  0.66233  0.67063  0.43926  1.0000
  C   C809      1.0  0.67417  0.70349  0.47352  1.0000
  C   C810      1.0  0.69237  0.70937  0.42824  1.0000
  C   C811      1.0  0.64246  0.71675  0.43645  1.0000
  C   C812      1.0  0.65816  0.66265  0.41007  1.0000
  C   C813      1.0  0.65068  0.69594  0.49260  1.0000
  H   H1372     1.0  0.52953  0.65862  0.48831  1.0000
  H   H1373     1.0  0.65899  0.71419  0.62340  1.0000
  H   H1374     1.0  0.92816  0.80943  0.37815  1.0000
  H   H1375     1.0  0.77494  0.91083  0.50098  1.0000
  H   H1376     1.0  0.94625  0.76973  0.35582  1.0000
  H   H1377     1.0  0.81408  0.93935  0.56149  1.0000
  H   H1378     1.0  0.88200  0.83218  0.36448  1.0000
  C   C814      1.0  0.90237  0.84215  0.36328  1.0000
  H   H1379     1.0  0.75188  0.78082  0.32991  1.0000
  C   C815      1.0  0.89600  0.78587  0.34016  1.0000
  H   H1380     1.0  0.52448  0.64444  0.43380  1.0000
  C   C816      1.0  0.97549  0.79512  0.33517  1.0000
  H   H1381     1.0  0.49815  0.61979  0.42789  1.0000
  C   C817      1.0  0.72140  0.72862  0.64999  1.0000
  C   C818      1.0  0.69377  0.77033  0.64659  1.0000
  H   H1382     1.0  0.76844  0.49781  0.64300  1.0000
  H   H1383     1.0  0.98103  0.80644  0.35338  1.0000
  H   H1384     1.0  0.72497  0.82073  0.33639  1.0000
  C   C819      1.0  0.71849  0.75734  0.65335  1.0000
  S   S235      1.0  0.68764  0.80544  0.65368  1.0000
  C   C820      1.0  0.50769  0.66265  0.49346  1.0000
  H   H1385     1.0  0.51277  0.69914  0.51977  1.0000
  H   H1386     1.0  0.67573  0.81727  0.32742  1.0000
  N   N56       1.0  0.49287  0.67654  0.47073  1.0000
  Fe  Fe118     1.0  0.71762  0.84087  0.64695  1.0000
  H   H1387     1.0  0.48667  0.67505  0.52992  1.0000
  H   H1388     1.0  0.74033  0.71860  0.65584  1.0000
  H   H1389     1.0  0.48847  0.75923  0.32300  1.0000
  H   H1390     1.0  0.77718  0.48787  0.55615  1.0000
  S   S236      1.0  0.77886  0.90658  0.70432  1.0000
  S   S237      1.0  0.58869  0.63723  0.69634  1.0000
  Fe  Fe119     1.0  0.81292  0.92389  0.86020  1.0000
  H   H1391     1.0  0.94700  0.90414  0.80183  1.0000
  S   S238      1.0  0.80271  0.89231  0.82798  1.0000
  Fe  Fe120     1.0  0.83296  0.93296  0.91808  1.0000
  C   C821      1.0  0.48910  0.52593  0.79430  1.0000
  S   S239      1.0  0.85838  0.91971  0.95465  1.0000
  H   H1392     1.0  0.77131  0.50195  0.83594  1.0000
  C   C822      1.0  0.68020  0.98381  0.96211  1.0000
  H   H1393     1.0  0.96410  0.60078  0.92414  1.0000
  H   H1394     1.0  0.60711  0.69391  0.70456  1.0000
  S   S240      1.0  0.79105  0.92450  0.89977  1.0000
  S   S241      1.0  0.85496  0.92855  0.87885  1.0000
  Fe  Fe121     1.0  0.58560  0.56281  0.84684  1.0000
  S   S242      1.0  0.58307  0.51677  0.85181  1.0000
  S   S243      1.0  0.60445  0.57268  0.80617  1.0000
  Fe  Fe122     1.0  0.56830  0.57063  0.90539  1.0000
  S   S244      1.0  0.56501  0.52509  0.91303  1.0000
  S   S245      1.0  0.56050  0.60285  0.93756  1.0000
  Fe  Fe123     1.0  0.60470  0.52221  0.89029  1.0000
  H   H1395     1.0  0.94962  0.94732  0.95622  1.0000
  Fe  Fe124     1.0  0.54364  0.52381  0.87366  1.0000
  H   H1396     1.0  0.95504  0.53693  0.77735  1.0000
  S   S246      1.0  0.60949  0.56785  0.88479  1.0000
  S   S247      1.0  0.54451  0.56972  0.86677  1.0000
  H   H1397     1.0  0.61423  0.50167  0.95534  1.0000
  C   C823      1.0  0.61643  0.72827  0.67944  1.0000
  H   H1398     1.0  0.87008  0.85158  0.82424  1.0000
  H   H1399     1.0  0.53014  0.49476  0.79460  1.0000
  H   H1400     1.0  0.70106  0.93673  0.74925  1.0000
  H   H1401     1.0  0.64489  0.98456  0.82303  1.0000
  C   C824      1.0  0.52923  0.55664  0.73512  1.0000
  H   H1402     1.0  0.74700  0.91464  0.83833  1.0000
  C   C825      1.0  0.70585  0.93100  0.82868  1.0000
  C   C826      1.0  0.61968  0.71305  0.70603  1.0000
  H   H1403     1.0  0.50644  0.59272  0.78335  1.0000
  C   C827      1.0  0.92892  0.93841  0.91965  1.0000
  H   H1404     1.0  0.89527  0.96528  0.78865  1.0000
  C   C828      1.0  0.65844  0.68223  0.69781  1.0000
  C   C829      1.0  0.87929  0.87213  0.82005  1.0000
  S   S248      1.0  0.71165  0.88092  0.66867  1.0000
  H   H1405     1.0  0.66929  0.94834  0.89868  1.0000
  S   S249      1.0  0.62574  0.98711  0.89045  1.0000
  H   H1406     1.0  0.72116  0.54752  0.88976  1.0000
  H   H1407     1.0  0.48579  0.97247  0.88869  1.0000
  H   H1408     1.0  0.64061  0.71674  0.75480  1.0000
  C   C830      1.0  0.67855  0.96834  0.89522  1.0000
  S   S250      1.0  0.51026  0.49280  0.86314  1.0000
  C   C831      1.0  0.68688  0.67027  0.70501  1.0000
  H   H1409     1.0  0.62662  0.71717  0.66319  1.0000
  H   H1410     1.0  0.66643  0.77523  0.71089  1.0000
  C   C832      1.0  0.70727  0.97125  0.89659  1.0000
  H   H1411     1.0  0.93918  0.55013  0.86281  1.0000
  C   C833      1.0  0.93015  0.50732  0.87049  1.0000
  H   H1412     1.0  0.64340  0.66493  0.69851  1.0000
  C   C834      1.0  0.59286  0.61860  0.72653  1.0000
  C   C835      1.0  0.61306  0.59832  0.72973  1.0000
  C   C836      1.0  0.61623  0.58466  0.75421  1.0000
  C   C837      1.0  0.59926  0.59092  0.77586  1.0000
  C   C838      1.0  0.57907  0.61125  0.77269  1.0000
  C   C839      1.0  0.57589  0.62492  0.74818  1.0000
  H   H1413     1.0  0.62632  0.59320  0.71335  1.0000
  H   H1414     1.0  0.63197  0.56906  0.75637  1.0000
  H   H1415     1.0  0.56616  0.61670  0.78918  1.0000
  H   H1416     1.0  0.56030  0.64068  0.74604  1.0000
  C   C840      1.0  0.78164  0.90238  0.73927  1.0000
  C   C841      1.0  0.78699  0.92575  0.75492  1.0000
  C   C842      1.0  0.79231  0.92325  0.78226  1.0000
  C   C843      1.0  0.79287  0.89720  0.79429  1.0000
  C   C844      1.0  0.78682  0.87393  0.77881  1.0000
  C   C845      1.0  0.78108  0.87647  0.75157  1.0000
  H   H1417     1.0  0.78764  0.94590  0.74566  1.0000
  H   H1418     1.0  0.79695  0.94141  0.79373  1.0000
  H   H1419     1.0  0.78710  0.85365  0.78783  1.0000
  H   H1420     1.0  0.77719  0.85825  0.73989  1.0000
  N   N57       1.0  0.64879  0.70629  0.71414  1.0000
  H   H1421     1.0  0.95298  0.56797  0.91253  1.0000
  H   H1422     1.0  0.64897  0.60964  0.97137  1.0000
  C   C846      1.0  0.64915  0.69935  0.74311  1.0000
  C   C847      1.0  0.66789  0.73027  0.70945  1.0000
  H   H1423     1.0  0.86027  0.90168  0.71661  1.0000
  H   H1424     1.0  0.80964  0.89841  0.98318  1.0000
  H   H1425     1.0  0.93010  0.91595  0.92397  1.0000
  C   C848      1.0  0.66045  0.75743  0.72360  1.0000
  H   H1426     1.0  0.67402  0.53613  0.98827  1.0000
  H   H1427     1.0  0.64877  0.50374  0.96673  1.0000
  H   H1428     1.0  0.84640  0.92834  0.80586  1.0000
  C   C849      1.0  0.86886  0.93092  0.80249  1.0000
  H   H1429     1.0  0.62025  0.59708  0.95369  1.0000
  N   N58       1.0  0.71199  0.95784  0.81467  1.0000
  H   H1430     1.0  0.68908  0.72517  0.71606  1.0000
  H   H1431     1.0  0.67050  0.73461  0.68808  1.0000
  H   H1432     1.0  0.73609  0.94179  0.78230  1.0000
  C   C850      1.0  0.54733  0.62189  0.98725  1.0000
  H   H1433     1.0  0.72058  0.88945  0.83672  1.0000
  C   C851      1.0  0.86488  0.91528  0.75716  1.0000
  H   H1434     1.0  0.96049  0.95495  0.84166  1.0000
  C   C852      1.0  0.92560  0.52459  0.94564  1.0000
  H   H1435     1.0  0.90018  0.98633  0.91220  1.0000
  H   H1436     1.0  0.61070  0.67529  0.74588  1.0000
  H   H1437     1.0  0.54370  0.54045  0.72863  1.0000
  H   H1438     1.0  0.67148  0.75898  0.74271  1.0000
  H   H1439     1.0  0.63821  0.75987  0.72736  1.0000
  H   H1440     1.0  0.94899  0.57408  0.96222  1.0000
  C   C853      1.0  0.97645  0.52685  0.86898  1.0000
  H   H1441     1.0  0.67515  0.95193  0.76918  1.0000
  H   H1442     1.0  0.93502  0.93853  0.80291  1.0000
  C   C854      1.0  0.64205  0.59231  0.95882  1.0000
  C   C855      1.0  0.94779  0.53000  0.86697  1.0000
  H   H1443     1.0  0.91874  0.91200  0.82253  1.0000
  H   H1444     1.0  0.54050  0.57380  0.74459  1.0000
  H   H1445     1.0  0.64127  0.65436  0.74236  1.0000
  H   H1446     1.0  0.55931  0.55460  0.97294  1.0000
  C   C856      1.0  0.96892  0.57837  0.92449  1.0000
  C   C857      1.0  0.87371  0.96128  0.79453  1.0000
  C   C858      1.0  0.52951  0.55544  0.79552  1.0000
  H   H1447     1.0  0.65953  0.68812  0.67665  1.0000
  H   H1448     1.0  0.74644  0.51190  0.72667  1.0000
  H   H1449     1.0  0.73694  0.96939  0.84829  1.0000
  C   C859      1.0  0.65955  0.96699  0.82244  1.0000
  H   H1450     1.0  0.67062  0.53988  0.88918  1.0000
  C   C860      1.0  0.85205  0.90966  0.98824  1.0000
  H   H1451     1.0  0.73498  0.76927  0.66196  1.0000
  C   C861      1.0  0.53272  0.50844  0.77698  1.0000
  H   H1452     1.0  0.91721  0.89149  0.76966  1.0000
  S   S251      1.0  0.65636  0.61482  0.65925  1.0000
  H   H1453     1.0  0.57046  0.52863  0.76051  1.0000
  H   H1454     1.0  0.68794  0.52085  0.70111  1.0000
  H   H1455     1.0  0.54875  0.56225  0.78588  1.0000
  N   N59       1.0  0.92997  0.98543  0.94381  1.0000
  H   H1456     1.0  0.68962  0.91834  0.77761  1.0000
  S   S252      1.0  0.80824  0.96906  0.85242  1.0000
  H   H1457     1.0  0.57496  0.96763  0.76910  1.0000
  C   C862      1.0  0.73809  0.96940  0.82639  1.0000
  H   H1458     1.0  0.94616  0.94341  0.90615  1.0000
  C   C863      1.0  0.86895  0.89354  0.73538  1.0000
  H   H1459     1.0  0.53609  0.54639  0.81473  1.0000
  H   H1460     1.0  0.57280  0.51868  0.79445  1.0000
  C   C864      1.0  0.51316  0.58193  0.80155  1.0000
  Fe  Fe125     1.0  0.61330  0.63084  0.65816  1.0000
  C   C865      1.0  0.63273  0.67341  0.75116  1.0000
  C   C866      1.0  0.55347  0.59854  0.97189  1.0000
  H   H1461     1.0  0.87172  0.93529  0.74852  1.0000
  H   H1462     1.0  0.91472  0.92758  0.76432  1.0000
  S   S253      1.0  0.82830  0.97886  0.91332  1.0000
  H   H1463     1.0  0.69773  0.54733  0.67861  1.0000
  H   H1464     1.0  0.73372  0.90327  0.80665  1.0000
  C   C867      1.0  0.69407  0.93933  0.76997  1.0000
  C   C868      1.0  0.67335  0.49800  0.90317  1.0000
  N   N60       1.0  0.87906  0.90964  0.78317  1.0000
  H   H1465     1.0  0.59424  0.72962  0.67442  1.0000
  N   N61       1.0  0.51487  0.53388  0.77946  1.0000
  Fe  Fe126     1.0  0.75779  0.88366  0.66985  1.0000
  H   H1466     1.0  0.97134  0.98077  0.92830  1.0000
  H   H1467     1.0  0.74013  0.52436  0.66661  1.0000
  C   C869      1.0  0.90973  0.91094  0.77881  1.0000
  H   H1468     1.0  0.89092  0.88883  0.73188  1.0000
  H   H1469     1.0  0.70367  0.68522  0.70122  1.0000
  H   H1470     1.0  0.57290  0.98531  0.71904  1.0000
  H   H1471     1.0  0.96114  0.52239  0.92043  1.0000
  H   H1472     1.0  0.94770  0.51930  0.80737  1.0000
  H   H1473     1.0  0.87798  0.92833  0.82229  1.0000
  N   N62       1.0  0.97535  0.53818  0.95782  1.0000
  H   H1474     1.0  0.65712  0.95577  0.84144  1.0000
  H   H1475     1.0  0.49639  0.52823  0.74096  1.0000
  H   H1476     1.0  0.90904  0.94182  0.90949  1.0000
  C   C870      1.0  0.92798  0.91673  0.80317  1.0000
  H   H1477     1.0  0.56296  0.94522  0.74343  1.0000
  H   H1478     1.0  0.98445  0.58144  0.96378  1.0000
  C   C871      1.0  0.95670  0.52005  0.94173  1.0000
  H   H1479     1.0  0.73601  0.50832  0.83090  1.0000
  Fe  Fe127     1.0  0.78855  0.97040  0.89239  1.0000
  H   H1480     1.0  0.86914  0.97471  0.81168  1.0000
  H   H1481     1.0  0.96256  0.55266  0.80896  1.0000
  H   H1482     1.0  0.91253  0.84680  0.97793  1.0000
  H   H1483     1.0  0.53868  0.96181  0.76450  1.0000
  C   C872      1.0  0.96913  0.56835  0.95342  1.0000
  H   H1484     1.0  0.60871  0.55020  0.95099  1.0000
  S   S254      1.0  0.76680  0.51256  0.90243  1.0000
  H   H1485     1.0  0.65503  0.57890  0.91877  1.0000
  C   C873      1.0  0.56415  0.51282  0.77503  1.0000
  H   H1486     1.0  0.72041  0.97393  0.77550  1.0000
  C   C874      1.0  0.73092  0.50640  0.90316  1.0000
  Fe  Fe128     1.0  0.84815  0.97400  0.87391  1.0000
  S   S255      1.0  0.89433  0.51248  0.86750  1.0000
  H   H1487     1.0  0.63378  0.67072  0.77290  1.0000
  H   H1488     1.0  0.51984  0.56533  0.71692  1.0000
  H   H1489     1.0  0.85740  0.87430  0.73983  1.0000
  C   C875      1.0  0.71694  0.95380  0.78557  1.0000
  C   C876      1.0  0.95199  0.97488  0.84656  1.0000
  H   H1490     1.0  0.90183  0.86940  0.82142  1.0000
  C   C877      1.0  0.68907  0.97839  0.81939  1.0000
  H   H1491     1.0  0.85957  0.96778  0.77849  1.0000
  H   H1492     1.0  0.60896  0.72551  0.72124  1.0000
  H   H1493     1.0  0.78904  0.49043  0.74005  1.0000
  C   C878      1.0  0.71287  0.52774  0.89578  1.0000
  C   C879      1.0  0.72832  0.90864  0.82722  1.0000
  H   H1494     1.0  0.77106  0.51556  0.70131  1.0000
  C   C880      1.0  0.96277  0.53329  0.79765  1.0000
  C   C881      1.0  0.68422  0.52352  0.89555  1.0000
  H   H1495     1.0  0.72010  0.95361  0.90109  1.0000
  H   H1496     1.0  0.87843  0.86510  0.77876  1.0000
  H   H1497     1.0  0.91054  0.95957  0.85158  1.0000
  H   H1498     1.0  0.84237  0.91734  0.76003  1.0000
  H   H1499     1.0  0.70196  0.93491  0.85001  1.0000
  H   H1500     1.0  0.91909  0.52010  0.96615  1.0000
  H   H1501     1.0  0.84758  0.87929  0.79146  1.0000
  H   H1502     1.0  0.87152  0.88595  0.83568  1.0000
  H   H1503     1.0  0.62441  0.74969  0.68029  1.0000
  C   C882      1.0  0.87037  0.88123  0.79222  1.0000
  H   H1504     1.0  0.68675  0.92132  0.82117  1.0000
  H   H1505     1.0  0.67057  0.69685  0.75045  1.0000
  H   H1506     1.0  0.49051  0.56112  0.75490  1.0000
  H   H1507     1.0  0.63995  0.97746  0.97874  1.0000
  H   H1508     1.0  0.69109  0.65234  0.69209  1.0000
  H   H1509     1.0  0.88522  0.98269  0.94316  1.0000
  H   H1510     1.0  0.68173  0.59517  0.93772  1.0000
  H   H1511     1.0  0.68125  0.96296  0.95315  1.0000
  C   C883      1.0  0.92381  0.97744  0.85219  1.0000
  H   H1512     1.0  0.49540  0.57787  0.81471  1.0000
  H   H1513     1.0  0.68783  0.66252  0.72556  1.0000
  H   H1514     1.0  0.61291  0.98648  0.74796  1.0000
  H   H1515     1.0  0.57411  0.49310  0.76939  1.0000
  H   H1516     1.0  0.71768  0.54210  0.70783  1.0000
  C   C884      1.0  0.50634  0.54472  0.75274  1.0000
  H   H1517     1.0  0.69213  0.59702  0.98444  1.0000
  C   C885      1.0  0.72422  0.51135  0.67633  1.0000
  H   H1518     1.0  0.91313  0.94655  0.95805  1.0000
  C   C886      1.0  0.62846  0.51414  0.96760  1.0000
  H   H1519     1.0  0.64084  0.54145  0.93681  1.0000
  C   C887      1.0  0.63007  0.54365  0.95596  1.0000
  C   C888      1.0  0.75740  0.50017  0.71109  1.0000
  C   C889      1.0  0.55862  0.96467  0.75415  1.0000
  H   H1520     1.0  0.96071  0.49785  0.94596  1.0000
  C   C890      1.0  0.97103  0.53171  0.98666  1.0000
  C   C891      1.0  0.93058  0.95433  0.94594  1.0000
  H   H1521     1.0  0.68365  0.55256  0.95846  1.0000
  H   H1522     1.0  0.75608  0.95623  0.82147  1.0000
  H   H1523     1.0  0.52675  0.59642  0.81235  1.0000
  C   C892      1.0  0.67309  0.55624  0.97763  1.0000
  C   C893      1.0  0.65939  0.59506  0.93342  1.0000
  H   H1524     1.0  0.65317  0.95330  0.80623  1.0000
  N   N63       1.0  0.64374  0.56496  0.97320  1.0000
  S   S256      1.0  0.63760  0.49135  0.90270  1.0000
  H   H1525     1.0  0.91908  0.54567  0.93985  1.0000
  H   H1526     1.0  0.65452  0.61511  0.92379  1.0000
  C   C894      1.0  0.55486  0.57280  0.98442  1.0000
  C   C895      1.0  0.70598  0.53129  0.69225  1.0000
  H   H1527     1.0  0.91423  0.51012  0.93262  1.0000
  H   H1528     1.0  0.54607  0.64193  0.97782  1.0000
  C   C896      1.0  0.75228  0.49266  0.82786  1.0000
  H   H1529     1.0  0.79204  0.48972  0.66975  1.0000
  H   H1530     1.0  0.49405  0.52143  0.81530  1.0000
  H   H1531     1.0  0.52627  0.49584  0.75974  1.0000
  H   H1532     1.0  0.71156  0.50313  0.66000  1.0000
  H   H1533     1.0  0.69047  0.98211  0.98157  1.0000
  H   H1534     1.0  0.62045  0.51339  0.98802  1.0000
  H   H1535     1.0  0.75584  0.48938  0.80654  1.0000
  N   N64       1.0  0.73726  0.48810  0.69171  1.0000
  H   H1536     1.0  0.53703  0.98674  0.72362  1.0000
