data_image0
_chemical_formula_structural       FeS2FeH3S2FeSFeS2FeSFeS3H2CH2FeSFeS3CHC3H7C6H4C6H4C6H4C2H3CH2C2H3SHFeC2SCH4SH7CHCH2SHCNC2HC4HFeHCH7CHCNHCSHNC4HC2H9CH6CNC2HCHC2H4FeNCH4CH2CHCHC2HCHSHCHSCSH3CH3SC3H3C2H4CH7CHC2H2CH2CSHCH5CHCH5CFeHFeH3FeH2C2HNC4H6C2HCHFeS2FeNSCS2FeSFeS2FeSFeS3H2CHCFeSFeS3H5CH5C7H4C6H4C6H4C2H10CH2CH2CNHCH5CHCSHCH2FeHSHC2H2NHCHCH2C2H5C5HCHCHC2H2CH2C2HSNC8H21SH4C2HCH3C2H2CHSH2CH2CNHCHCHSCH2CHSCHCH2C3SH8CH2NHFeHCH3CH2FeH4CFe2CH3FeHCH2C3H3CFeS2FeSCFeSFeS3H3CHFeHFeSFeS2HC6H4C6H4C6H5C2FeSH2SH6C2HCHNC4HCH6SHCH2CH3FeSHCHSC4HNC4H9CH2NC2H4C3H2CH6CSCHCSHCH3CH2SHNS2HFeC2HFeCHSH4C2H9C2H3C2H2CFeHCH4C2HCH2CH3CHNHCHSHCH2SH3SH8C3HCH3FeCHCHCHNHFeCNHCH2SC2H2CH2CHCH3CH2NFeS2FeSHFeSFeS3H3SCHCFeSHS2C8H3C6H4C6H5NCHC2HFeH5C2HNHSHCHCH2CH2FeHCH2SCHCHCHSH2NHC2H3SHC2H2CFeH3CHCSCHCSHC2NHCHCH7CH3CH2CH2C2HCSC2H2SCNC8H24FeH4SHSHSFeHCH3SHC6H8C2HSH4C3H5NHFeH3SH3FeHCFeH4CH4CHFeH2C2HCH2C4H3CNH3CSCH3SHFeSCHSC2FeSCHNH2CH2SHSC2FeHSFeS2CHFeHS2C2H4C5H2C2H7C2HSH5C2HC2H4SHCHC3H7CH3FeCHC4H2CHCHCNCSHCHCH2CFeNCH4CH3CH5S2H2CH5CHCHFeC2H2CNH3CH3FeC2NCHCH4CHCHFe2H2C2HSCHSHCSFeHFeSH5S2CSHSH2FeHSFeS2FeHFeCS2CH2CH2CHC2HC4H4CSH2CFeCH2CH2C3H6CH3C2H2CH2CH3CNHCHC2NHCFeC3H3SCHCHC2HNC2H8SH3CH6CHFeH2C3HCH2C2H3CNCH2CH2CHC3H3C2H4NHFeCH2FeCHCSFeSFeS2FeHS2H2SFeHSHSNS3H4CH2CHCH3C6H2C2H5CH2CH4CSC6H4C2H5SCHC2SH2Fe2CSCH3CH2NHFeH3FeH3CHCH2C2SC2HNCHC3HC2H12C2SH5CH8C2HC2H2C4SH4CHCHNC6H15CHSH2CNC5HCH13C2HCHCHSH2FeCSC5H3SFeHCSH8CFeSFeS2FeHS2H2SFeHSH2NHS2H5C5HCH2SH6CNHC6HSCH3CHC6H4C2H6C2SH2CHCHC4SHCH3NC3H2SCH7CHCH6CH2CHC3H2CH3NHC5SH18CHCFeC2HCH8CH2C2HFeH10SH2FeNCH3SFeCHCHC2SCFeCHC3FeSCH7NCHCH6CH2SHSHC2HCH2C2HSC3H2C3H2CHFeS2FeSHFeSFeS3FeCFeHSHC3S2H4SHFeSFeS3H2C2H3CHCHCH2C2HFeH2NH2CH6C3SHCH2CHC6H4C6H5CH4CH2CHSH5CHC2NC4HC3H7C2SCH3CH3CH3CHC2H11CH4NH3CHNCH4CSHNCHCHCH8CH7FeHCSH3SH3NC8H5C3H2CH3CHC3H2C2HC3H2C3HSH3SH4CFeS2FeSHFeSFeS3FeCFeHSCHC2S2H4CHFeSFeS3H3C6H2C4HCNHFeSC3H3CHC4H2CH4C6H4C6H5CHC2HCH5CHCH2NCH2C2H2SH4CH2CHCNCHCHCH8NCH2SH2CH5CH2SH5CH6CHS2CH2CH4FeHC3HSCHCHCH4CHSH4NH6CH2CH4CH2CH2NC7H2CH2CH3CH3C3H8C4H2CNHCSC2H2CHCFeHS4HCHC2H3NHSH2CH2C2H3SHCH2C5HCH3C2SFeSCHCH2CH2SFeHCFeC2SH2CH5C2HSH5NHC3H3SH2SH4C2HCHCH8C3H3CHCHC2SHC2HSCH3CH6C2H3CSH2CH4CFeH2SC2HC2HS2HSCFeHSHS2H4FeCSFeHSCHSCHCHCH2CHCH2SHNC2HCH2CHC2H7CHC2HCH2C3H5SH4FeH4CHCHCH8SC2H7CH2SCHCHSC2HCH2CH3CH4C2H6CNCH2CHC2HCHCSCFeH4SH5SHSC2FeC2FeS2FeHFeCS2FeS2CFeH2SFeSHSFeSFeS2FeHS2H7FeCHNHC7H4C6H4C6H6CHSCHCHC4HC2H3CH3NC4H11CNC6HCH3CH9SCH5CHNCH3CSHC2H4CH3C2H6SNC2H2CHCH7FeH3S2CH3CH7C3FeNHCHFeC3HCHC2H4SHC2NH2CHCH3CNH2C2H7CSH3CH2CH2CHCHCH4CH5CH2CHCSCH2CH2SHCHSHSHSCHFeH2FeS2FeCH2S2FeS2FeS2HSFeSCSFeSFeS2FeCS2C2H6FeH2CHC6H4C6H4C6H5C3HCH5C3HNH4CHCHCSHCHNHCH2CH3CH3FeH2CHCSHNHCH6C2H2CH5CNC3HCHC2H13FeH3C2H2CS2HC2SH3C3H4C3NC8H18FeC2FeH3C2HC2H2CHCSH2CHNH3C2SFeS2FeCSHCH2S2FeS2FeSHFe2S3H3CH3SCHC2H3FeHC3NH6CSCH5C2HCHC6H4C4H3C3HSH2CNC3H10SH3NH3CHNHC4HCHCH2S2H3CH2CH2FeCHFeHCNC2SH3FeSHCHC3H3CHCH4NC3HCFeHCHCH4CH10NH4CHCSHCS2CHCH2FeHC2H2CH5CH3C2FeC4H5C3HCHCH2CHCH2CHFeCSC2HSCH3CH2C2H2CH5SFeHSFeHSHC2HS2FeS2FeSHFe2S3H2SCHCHNCH4C2H2CHCH2CH2SCHNCH4C2H2FeHC6H4C4H3C3HC2H5CH3C3H5CHNC7H19C4HCH2CNSHSCH7CNC4SC2H3FeH2FeH4SFeH2C2H3CSHSNC4FeH9SHNFeH6C2HCH2SH6C3HSH3SH5C2H2SHCFeC2HC3H2FeCHCHCH4CH3CH5C2SHSCFeSFeSCSC2HS2CFeCHCSC2H3SC2HSC4FeSCHC2SCHSHSHCH2NCH10C2HCHSHCH3NH3NH2FeCSH2FeHCHCH6CHCHCNCHCHCFeH4CHC2HCHC2H2C2HCHC4HFeC2H3CFeCH7CH7FeSCFeHCH5CHCH3SH4CSCSHFeSFeH3CHCH2SCH2CS4HC4HNCH2C3H3CH7C2SC6FeHC2FeHCH3S2H3C3H2SHCSFeH4SH4SHCHCHSC2HC4H2CHCH3CH2CH4FeSH2C3H3FeCHCH3CFeCHC2H5CHCFeH2CH6NC2H2SH3FeC2HCSFeC2HCH3C3NH4CH4FeH2CFeS2H2SFeH2NHCFeSFeS2FeSFeS3H2CH2C3H8SHCH3C6H4C6H4C5H2CH3CH3CH2CHCSH3FeH2CH2C3HCNC8H21SFeC2H2CH2CHCSH2NC2H2S2H2C4FeNC3HC3H8SH7SH5CH5SCH2C3HFeHCH3CHCSH10CH5CH3CH3CSCH6CH2C2HC2HC2HFeS2H2SHCSH3FeSFeS2FeSFeS4HCHC4H2CH4CHSC3HC6H4C6H4C5H3FeH3FeHCHCFeHFeHC2H3C2H4C3HNC6HCH13CNH6CHC3SHSHSCSH2CH2CSHSCHCHCH5CH6CH2CH2N2CH3CH18NC8H14SH3CH3FeHSCH2C2H2CH3C2H2CHCH4SH2C2FeS2H2SFeSHCSH2S2FeSNFeS2FeS2Fe2S3HC6H9C6H4C6H4C2SH5FeH4CHC2H4C2H5CHC2H3SNC8H16CH3CHCHCHCH4CHCNC2HCH2CH3FeHSHCH2NC5HC2H9CH4CH3CH3CH2CHCHC2H3CHFeHSHCHCH2C2H4NC2HC2HNCHCH7SC2H7CSCH2C2HCNCHCH2SHCHCHCH4FeS2CHSFeSFeHS2HS2FeSCFeS2FeS2Fe2S3HC6H6CHNC6H4C6H4CHSCH3C2H2CHCH10CH4NC8H20CHC2H4CH2CH2SHCH3FeH5CHCH3CH2CH2SH3CNHCHC3H2C4HC2H2C2HNC4HC4H4CH9CH2SCH2CHNCHC2HC2HCH3CNHCH5SCH3CH2CH10CHSFeSHSHCFeCS2C2NCSH2SCFeSFeSH3CH2C2HCH3SHCNCH2FeH4CH3CH4C2HSHC2H5C2H8C2SCH2SHSHC2H2S2HCSCHC3H3CHCH7C2H2C2H2C3HC2HCH2NHSH2CHCHC2H2CH3CH2FeCHC2HCFeHS2H3CSHCSHFeSFeSH2CH2FeCH3CSH2CH2CH5SH4C2H5CH4CH2SHNH3CHC2HCH2CH4CSCH3CH2C2HSH2CH4CSHSHC2SCHCNC2HCH2CHC4HCHCHCHCHNHC2
_chemical_formula_sum              "Fe256 S512 H3072 C1792 N128"
_cell_length_a       61.1546
_cell_length_b       61.8601
_cell_length_c       50.1664
_cell_angle_alpha    90.7614
_cell_angle_beta     90.8028
_cell_angle_gamma    84.3365

_space_group_name_H-M_alt    "P 1"
_space_group_IT_number       1

loop_
  _space_group_symop_operation_xyz
  'x, y, z'

loop_
  _atom_site_type_symbol
  _atom_site_label
  _atom_site_symmetry_multiplicity
  _atom_site_fract_x
  _atom_site_fract_y
  _atom_site_fract_z
  _atom_site_occupancy
  Fe  Fe1       1.0  0.20994  0.21594  0.33742  1.0000
  S   S1        1.0  0.24485  0.20056  0.33794  1.0000
  S   S2        1.0  0.18380  0.19220  0.33745  1.0000
  Fe  Fe2       1.0  0.22459  0.26196  0.34245  1.0000
  H   H1        1.0  0.20580  0.15433  0.42113  1.0000
  H   H2        1.0  0.17198  0.15155  0.20094  1.0000
  H   H3        1.0  0.01291  0.08896  0.27396  1.0000
  S   S3        1.0  0.21550  0.24143  0.30722  1.0000
  S   S4        1.0  0.21516  0.23801  0.37275  1.0000
  Fe  Fe3       1.0  0.07522  0.10965  0.21893  1.0000
  S   S5        1.0  0.09218  0.07609  0.22314  1.0000
  Fe  Fe4       1.0  0.11775  0.13074  0.23172  1.0000
  S   S6        1.0  0.13764  0.09846  0.23617  1.0000
  S   S7        1.0  0.13466  0.16180  0.23275  1.0000
  Fe  Fe5       1.0  0.11932  0.08833  0.19964  1.0000
  S   S8        1.0  0.13484  0.06697  0.16648  1.0000
  Fe  Fe6       1.0  0.10859  0.08964  0.25921  1.0000
  S   S9        1.0  0.11323  0.06876  0.29592  1.0000
  S   S10       1.0  0.10151  0.12125  0.19329  1.0000
  S   S11       1.0  0.08960  0.12257  0.25698  1.0000
  H   H4        1.0  0.15193  0.15664  0.17564  1.0000
  H   H5        1.0  0.19711  0.04078  0.30949  1.0000
  C   C1        1.0  0.02817  0.07424  0.20857  1.0000
  H   H6        1.0  0.20805  0.14221  0.20798  1.0000
  H   H7        1.0  0.02874  0.12071  0.42136  1.0000
  Fe  Fe7       1.0  0.11803  0.08025  0.01030  1.0000
  S   S12       1.0  0.12302  0.10067  0.04742  1.0000
  Fe  Fe8       1.0  0.10576  0.08539  0.44688  1.0000
  S   S13       1.0  0.10559  0.10893  0.41266  1.0000
  S   S14       1.0  0.11064  0.04548  0.00957  1.0000
  S   S15       1.0  0.09885  0.05081  0.44047  1.0000
  C   C2        1.0  0.25197  0.31464  0.16931  1.0000
  H   H8        1.0  0.05749  0.07237  0.16370  1.0000
  C   C3        1.0  0.07360  0.06995  0.15393  1.0000
  C   C4        1.0  0.24275  0.29436  0.20861  1.0000
  C   C5        1.0  0.25426  0.29653  0.41783  1.0000
  H   H9        1.0  0.06773  0.13146  0.11308  1.0000
  H   H10       1.0  0.02731  0.06220  0.35286  1.0000
  H   H11       1.0  0.18173  0.18805  0.20109  1.0000
  H   H12       1.0  0.26134  0.15723  0.30311  1.0000
  H   H13       1.0  0.23995  0.26770  0.99682  1.0000
  H   H14       1.0  0.08188  0.11316  0.13683  1.0000
  H   H15       1.0  0.15678  0.04209  0.21945  1.0000
  C   C6        1.0  0.11302  0.08063  0.32805  1.0000
  C   C7        1.0  0.11678  0.06708  0.35018  1.0000
  C   C8        1.0  0.11520  0.07572  0.37618  1.0000
  C   C9        1.0  0.10961  0.09795  0.38026  1.0000
  C   C10       1.0  0.10646  0.11163  0.35813  1.0000
  C   C11       1.0  0.10829  0.10302  0.33206  1.0000
  H   H16       1.0  0.12052  0.04976  0.34729  1.0000
  H   H17       1.0  0.11815  0.06509  0.39300  1.0000
  H   H18       1.0  0.10213  0.12887  0.36109  1.0000
  H   H19       1.0  0.10545  0.11361  0.31512  1.0000
  C   C12       1.0  0.13203  0.07633  0.13336  1.0000
  C   C13       1.0  0.12819  0.09851  0.12800  1.0000
  C   C14       1.0  0.12558  0.10562  0.10154  1.0000
  C   C15       1.0  0.12643  0.09066  0.08020  1.0000
  C   C16       1.0  0.13006  0.06843  0.08550  1.0000
  C   C17       1.0  0.13319  0.06132  0.11200  1.0000
  H   H20       1.0  0.12743  0.11022  0.14421  1.0000
  H   H21       1.0  0.12281  0.12283  0.09758  1.0000
  H   H22       1.0  0.13059  0.05677  0.06922  1.0000
  H   H23       1.0  0.13608  0.04413  0.11602  1.0000
  C   C18       1.0  0.17126  0.18335  0.30772  1.0000
  C   C19       1.0  0.17261  0.19427  0.28366  1.0000
  C   C20       1.0  0.16135  0.18749  0.26081  1.0000
  C   C21       1.0  0.14901  0.16951  0.26170  1.0000
  C   C22       1.0  0.14810  0.15826  0.28558  1.0000
  C   C23       1.0  0.15905  0.16527  0.30851  1.0000
  H   H24       1.0  0.18182  0.20830  0.28283  1.0000
  H   H25       1.0  0.16192  0.19646  0.24255  1.0000
  H   H26       1.0  0.13860  0.14443  0.28652  1.0000
  H   H27       1.0  0.15793  0.15668  0.32692  1.0000
  C   C24       1.0  0.23883  0.21779  0.23894  1.0000
  C   C25       1.0  0.22995  0.21619  0.21306  1.0000
  H   H28       1.0  0.22819  0.21832  0.25601  1.0000
  H   H29       1.0  0.21242  0.21581  0.21038  1.0000
  H   H30       1.0  0.14637  0.19494  0.15768  1.0000
  C   C26       1.0  0.21583  0.15574  0.19890  1.0000
  H   H31       1.0  0.04497  0.06963  0.21472  1.0000
  H   H32       1.0  0.15458  0.11443  0.36122  1.0000
  C   C27       1.0  0.18629  0.04510  0.29188  1.0000
  C   C28       1.0  0.04803  0.04410  0.39756  1.0000
  H   H33       1.0  0.16338  0.06569  0.31761  1.0000
  H   H34       1.0  0.06998  0.06931  0.39413  1.0000
  H   H35       1.0  0.17130  0.09325  0.37725  1.0000
  S   S16       1.0  0.15278  0.01616  0.46764  1.0000
  H   H36       1.0  0.11637  0.18198  0.38699  1.0000
  Fe  Fe9       1.0  0.08319  0.05693  0.98115  1.0000
  C   C29       1.0  0.22251  0.33904  0.27266  1.0000
  C   C30       1.0  0.05799  0.07335  0.34060  1.0000
  S   S17       1.0  0.26005  0.24936  0.34277  1.0000
  C   C31       1.0  0.02353  0.06556  0.13088  1.0000
  H   H37       1.0  0.06044  0.03423  0.40986  1.0000
  H   H38       1.0  0.01776  0.07890  0.14479  1.0000
  H   H39       1.0  0.03652  0.11762  0.37184  1.0000
  H   H40       1.0  0.05306  0.13247  0.41236  1.0000
  S   S18       1.0  0.08934  0.09188  0.98403  1.0000
  H   H41       1.0  0.06602  0.08857  0.33911  1.0000
  H   H42       1.0  0.19053  0.12046  0.17288  1.0000
  H   H43       1.0  0.19674  0.04921  0.04509  1.0000
  H   H44       1.0  0.21339  0.17046  0.21177  1.0000
  H   H45       1.0  0.16925  0.12603  0.14758  1.0000
  H   H46       1.0  0.05559  0.10685  0.42833  1.0000
  H   H47       1.0  0.14658  0.03598  0.31098  1.0000
  C   C32       1.0  0.05258  0.06818  0.39972  1.0000
  H   H48       1.0  0.01867  0.04163  0.21085  1.0000
  C   C33       1.0  0.04559  0.11686  0.41364  1.0000
  H   H49       1.0  0.06948  0.06060  0.34995  1.0000
  H   H50       1.0  0.14029  0.18754  0.40495  1.0000
  S   S19       1.0  0.14138  0.07639  0.97583  1.0000
  H   H51       1.0  0.13891  0.02812  0.41345  1.0000
  C   C34       1.0  0.16899  0.11116  0.37472  1.0000
  N   N1        1.0  0.05445  0.08595  0.11070  1.0000
  C   C35       1.0  0.06169  0.09332  0.08385  1.0000
  C   C36       1.0  0.04783  0.10614  0.12709  1.0000
  H   H52       1.0  0.26012  0.31385  0.14969  1.0000
  C   C37       1.0  0.07313  0.07160  0.12317  1.0000
  C   C38       1.0  0.06746  0.07527  0.06280  1.0000
  C   C39       1.0  0.23052  0.33651  0.36374  1.0000
  C   C40       1.0  0.17349  0.12767  0.16903  1.0000
  H   H53       1.0  0.14528  0.04376  0.26525  1.0000
  Fe  Fe10      1.0  0.25042  0.22431  0.37114  1.0000
  H   H54       1.0  0.17555  0.14572  0.44321  1.0000
  C   C41       1.0  0.23594  0.31609  0.35177  1.0000
  H   H55       1.0  0.03333  0.11565  0.11780  1.0000
  H   H56       1.0  0.07957  0.06222  0.07044  1.0000
  H   H57       1.0  0.04954  0.03759  0.37693  1.0000
  H   H58       1.0  0.07385  0.05480  0.11476  1.0000
  H   H59       1.0  0.08895  0.07770  0.11794  1.0000
  H   H60       1.0  0.05262  0.06826  0.05488  1.0000
  H   H61       1.0  0.17766  0.05357  0.23833  1.0000
  C   C42       1.0  0.16973  0.15145  0.17891  1.0000
  H   H62       1.0  0.18394  0.11587  0.36500  1.0000
  C   C43       1.0  0.24246  0.30367  0.09839  1.0000
  N   N2        1.0  0.17355  0.02619  0.28428  1.0000
  H   H63       1.0  0.23767  0.28747  0.09550  1.0000
  C   C44       1.0  0.24357  0.21584  0.19074  1.0000
  S   S20       1.0  0.24026  0.20453  0.02597  1.0000
  H   H64       1.0  0.21976  0.32439  0.28433  1.0000
  N   N3        1.0  0.16198  0.14652  0.40302  1.0000
  C   C45       1.0  0.16528  0.12201  0.40242  1.0000
  C   C46       1.0  0.16145  0.15400  0.43180  1.0000
  C   C47       1.0  0.18040  0.15620  0.38930  1.0000
  C   C48       1.0  0.14078  0.15377  0.38864  1.0000
  H   H65       1.0  0.23434  0.31934  0.16459  1.0000
  C   C49       1.0  0.17391  0.02378  0.04016  1.0000
  C   C50       1.0  0.20374  0.14923  0.40005  1.0000
  H   H66       1.0  0.17933  0.11587  0.41549  1.0000
  H   H67       1.0  0.01543  0.08723  0.41764  1.0000
  H   H68       1.0  0.16373  0.17158  0.43372  1.0000
  H   H69       1.0  0.08110  0.05352  0.15957  1.0000
  H   H70       1.0  0.18015  0.15262  0.36753  1.0000
  H   H71       1.0  0.17821  0.17427  0.39084  1.0000
  H   H72       1.0  0.14138  0.14816  0.36754  1.0000
  H   H73       1.0  0.03431  0.05286  0.14138  1.0000
  H   H74       1.0  0.18376  0.07957  0.30199  1.0000
  C   C51       1.0  0.03589  0.07718  0.35517  1.0000
  H   H75       1.0  0.14459  0.19508  0.19336  1.0000
  H   H76       1.0  0.16244  0.11782  0.18010  1.0000
  H   H77       1.0  0.21568  0.15749  0.38827  1.0000
  H   H78       1.0  0.20825  0.13152  0.39781  1.0000
  H   H79       1.0  0.24796  0.26176  0.42022  1.0000
  H   H80       1.0  0.21851  0.27560  0.13743  1.0000
  C   C52       1.0  0.15288  0.01602  0.41241  1.0000
  N   N4        1.0  0.18366  0.16712  0.16617  1.0000
  C   C53       1.0  0.20784  0.16011  0.16995  1.0000
  C   C54       1.0  0.17867  0.16783  0.13662  1.0000
  H   H81       1.0  0.18369  0.18487  0.09985  1.0000
  C   C55       1.0  0.17858  0.18907  0.17925  1.0000
  H   H82       1.0  0.04888  0.10519  0.07481  1.0000
  C   C56       1.0  0.18746  0.18665  0.12145  1.0000
  C   C57       1.0  0.15464  0.19950  0.17634  1.0000
  H   H83       1.0  0.21289  0.14524  0.15795  1.0000
  H   H84       1.0  0.21788  0.17265  0.16229  1.0000
  H   H85       1.0  0.16070  0.16835  0.13247  1.0000
  H   H86       1.0  0.18570  0.15259  0.12659  1.0000
  Fe  Fe11      1.0  0.25063  0.22723  0.30976  1.0000
  N   N5        1.0  0.03722  0.08401  0.38407  1.0000
  C   C58       1.0  0.22184  0.27764  0.15911  1.0000
  H   H87       1.0  0.18991  0.20090  0.17265  1.0000
  H   H88       1.0  0.07516  0.08246  0.04549  1.0000
  H   H89       1.0  0.06089  0.13344  0.14761  1.0000
  H   H90       1.0  0.02186  0.08361  0.09438  1.0000
  C   C59       1.0  0.02132  0.09594  0.20290  1.0000
  H   H91       1.0  0.17950  0.20272  0.12791  1.0000
  H   H92       1.0  0.20555  0.18653  0.12346  1.0000
  C   C60       1.0  0.15919  0.02211  0.30757  1.0000
  H   H93       1.0  0.15454  0.21746  0.17595  1.0000
  C   C61       1.0  0.15876  0.03103  0.26031  1.0000
  H   H94       1.0  0.21904  0.20449  0.97465  1.0000
  C   C62       1.0  0.13455  0.17857  0.38741  1.0000
  C   C63       1.0  0.22664  0.32076  0.10540  1.0000
  H   H95       1.0  0.25729  0.30853  0.46722  1.0000
  C   C64       1.0  0.23627  0.20601  0.97143  1.0000
  H   H96       1.0  0.19947  0.01105  0.08547  1.0000
  S   S21       1.0  0.03954  0.11643  0.20537  1.0000
  H   H97       1.0  0.16105  0.07220  0.28245  1.0000
  C   C65       1.0  0.14060  0.15004  0.44726  1.0000
  H   H98       1.0  0.12586  0.16003  0.43955  1.0000
  S   S22       1.0  0.24369  0.24071  0.08922  1.0000
  C   C66       1.0  0.16278  0.00764  0.43589  1.0000
  S   S23       1.0  0.23184  0.21574  0.15842  1.0000
  H   H99       1.0  0.21466  0.26399  0.16884  1.0000
  H   H100      1.0  0.14132  0.18539  0.36921  1.0000
  H   H101      1.0  0.05501  0.06780  0.31982  1.0000
  C   C67       1.0  0.24167  0.27276  0.22322  1.0000
  H   H102      1.0  0.22877  0.21901  0.42867  1.0000
  H   H103      1.0  0.18152  0.04419  0.07490  1.0000
  H   H104      1.0  0.20972  0.31758  0.10800  1.0000
  S   S24       1.0  0.21526  0.29829  0.34710  1.0000
  C   C68       1.0  0.17254  0.06668  0.29880  1.0000
  C   C69       1.0  0.24042  0.21881  0.44510  1.0000
  C   C70       1.0  0.04576  0.10604  0.38570  1.0000
  H   H105      1.0  0.04224  0.10231  0.14722  1.0000
  H   H106      1.0  0.25018  0.33792  0.20311  1.0000
  H   H107      1.0  0.15086  0.11508  0.41088  1.0000
  C   C71       1.0  0.25066  0.20664  0.99346  1.0000
  C   C72       1.0  0.25237  0.26427  0.98097  1.0000
  H   H108      1.0  0.07671  0.10208  0.08595  1.0000
  H   H109      1.0  0.22256  0.01586  0.28357  1.0000
  H   H110      1.0  0.23381  0.15090  0.19874  1.0000
  H   H111      1.0  0.05194  0.07227  0.42138  1.0000
  C   C73       1.0  0.06579  0.12177  0.13120  1.0000
  H   H112      1.0  0.06309  0.10503  0.37904  1.0000
  H   H113      1.0  0.22561  0.30186  0.20565  1.0000
  H   H114      1.0  0.13753  0.13268  0.44708  1.0000
  H   H115      1.0  0.16918  0.02064  0.32630  1.0000
  H   H116      1.0  0.21275  0.29314  0.16541  1.0000
  H   H117      1.0  0.03180  0.04139  0.40576  1.0000
  H   H118      1.0  0.25037  0.30526  0.22307  1.0000
  C   C74       1.0  0.22952  0.32467  0.02958  1.0000
  H   H119      1.0  0.18146  0.02542  0.22671  1.0000
  C   C75       1.0  0.03468  0.07356  0.10599  1.0000
  C   C76       1.0  0.18085  0.04495  0.05282  1.0000
  H   H120      1.0  0.03908  0.05867  0.09375  1.0000
  H   H121      1.0  0.15040  0.01652  0.25430  1.0000
  C   C77       1.0  0.21473  0.01329  0.00703  1.0000
  H   H122      1.0  0.17132  0.02660  0.01852  1.0000
  H   H123      1.0  0.16837  0.05857  0.04750  1.0000
  C   C78       1.0  0.01463  0.08462  0.39581  1.0000
  S   S25       1.0  0.04902  0.04616  0.98414  1.0000
  H   H124      1.0  0.22233  0.31091  0.01941  1.0000
  C   C79       1.0  0.16970  0.03841  0.23503  1.0000
  H   H125      1.0  0.08469  0.08134  0.16277  1.0000
  H   H126      1.0  0.22846  0.28060  0.43785  1.0000
  H   H127      1.0  0.23263  0.27591  0.24216  1.0000
  H   H128      1.0  0.24396  0.31158  0.42378  1.0000
  H   H129      1.0  0.22842  0.27825  0.40206  1.0000
  C   C80       1.0  0.02594  0.06524  0.97930  1.0000
  H   H130      1.0  0.19750  0.04890  0.27578  1.0000
  C   C81       1.0  0.23914  0.27819  0.42014  1.0000
  H   H131      1.0  0.21780  0.33079  0.04524  1.0000
  H   H132      1.0  0.15290  0.01490  0.36948  1.0000
  H   H133      1.0  0.24456  0.33387  0.99383  1.0000
  H   H134      1.0  0.24514  0.31783  0.03907  1.0000
  H   H135      1.0  0.23259  0.26125  0.21142  1.0000
  C   C82       1.0  0.25766  0.31029  0.34402  1.0000
  Fe  Fe12      1.0  0.25910  0.21368  0.06312  1.0000
  H   H136      1.0  0.12669  0.14593  0.39664  1.0000
  Fe  Fe13      1.0  0.13176  0.04227  0.97289  1.0000
  H   H137      1.0  0.25822  0.26502  0.22864  1.0000
  H   H138      1.0  0.20491  0.02882  0.00230  1.0000
  H   H139      1.0  0.02583  0.08977  0.34347  1.0000
  Fe  Fe14      1.0  0.25458  0.21938  0.12384  1.0000
  H   H140      1.0  0.15721  0.02181  0.04777  1.0000
  H   H141      1.0  0.21996  0.01841  0.04922  1.0000
  C   C83       1.0  0.02778  0.08759  0.98018  1.0000
  C   C84       1.0  0.01322  0.05838  0.20637  1.0000
  H   H142      1.0  0.04345  0.09353  0.98441  1.0000
  N   N6        1.0  0.25517  0.29290  0.18278  1.0000
  C   C85       1.0  0.26138  0.21914  0.24257  1.0000
  C   C86       1.0  0.21197  0.00879  0.26825  1.0000
  C   C87       1.0  0.16089  0.00851  0.38744  1.0000
  C   C88       1.0  0.24701  0.27602  0.16414  1.0000
  H   H143      1.0  0.21135  0.01884  0.25018  1.0000
  H   H144      1.0  0.25702  0.29903  0.39636  1.0000
  H   H145      1.0  0.25210  0.25939  0.17161  1.0000
  H   H146      1.0  0.22743  0.33380  0.25220  1.0000
  H   H147      1.0  0.25484  0.27656  0.14430  1.0000
  H   H148      1.0  0.23222  0.01569  0.00355  1.0000
  C   C89       1.0  0.21230  0.00644  0.03625  1.0000
  C   C90       1.0  0.01933  0.06393  0.46719  1.0000
  H   H149      1.0  0.24585  0.25182  0.96794  1.0000
  C   C91       1.0  0.26013  0.33392  0.18509  1.0000
  H   H150      1.0  0.24081  0.29709  0.96863  1.0000
  Fe  Fe15      1.0  0.21212  0.21097  0.84091  1.0000
  S   S26       1.0  0.04224  0.04485  0.47261  1.0000
  S   S27       1.0  0.18518  0.18816  0.84153  1.0000
  Fe  Fe16      1.0  0.22796  0.25648  0.84650  1.0000
  N   N7        1.0  0.24725  0.28733  0.69300  1.0000
  S   S28       1.0  0.08113  0.09193  0.47945  1.0000
  C   C92       1.0  0.24722  0.31127  0.69915  1.0000
  S   S29       1.0  0.21726  0.23692  0.81117  1.0000
  S   S30       1.0  0.21897  0.23215  0.87645  1.0000
  Fe  Fe17      1.0  0.07607  0.10985  0.72932  1.0000
  S   S31       1.0  0.09272  0.07597  0.73002  1.0000
  Fe  Fe18      1.0  0.11999  0.12989  0.73382  1.0000
  S   S32       1.0  0.13955  0.09719  0.73402  1.0000
  S   S33       1.0  0.13800  0.16030  0.73421  1.0000
  Fe  Fe19      1.0  0.11644  0.08822  0.70125  1.0000
  S   S34       1.0  0.12642  0.06704  0.66510  1.0000
  Fe  Fe20      1.0  0.11388  0.08851  0.76258  1.0000
  S   S35       1.0  0.12303  0.06776  0.79866  1.0000
  S   S36       1.0  0.09868  0.12158  0.69879  1.0000
  S   S37       1.0  0.09547  0.12172  0.76419  1.0000
  H   H151      1.0  0.20480  0.12415  0.88193  1.0000
  H   H152      1.0  0.05425  0.06620  0.85403  1.0000
  C   C93       1.0  0.24785  0.21864  0.49317  1.0000
  H   H153      1.0  0.05898  0.13294  0.65974  1.0000
  C   C94       1.0  0.05052  0.11282  0.89227  1.0000
  Fe  Fe21      1.0  0.10844  0.08068  0.50808  1.0000
  S   S38       1.0  0.11105  0.10082  0.54612  1.0000
  Fe  Fe22      1.0  0.11181  0.08437  0.94948  1.0000
  S   S39       1.0  0.11054  0.10779  0.91516  1.0000
  S   S40       1.0  0.10187  0.04564  0.50571  1.0000
  S   S41       1.0  0.10357  0.05004  0.94448  1.0000
  H   H154      1.0  0.14295  0.14090  0.87873  1.0000
  H   H155      1.0  0.05279  0.05736  0.67718  1.0000
  H   H156      1.0  0.07239  0.07598  0.91130  1.0000
  H   H157      1.0  0.24062  0.29488  0.59581  1.0000
  H   H158      1.0  0.18096  0.18234  0.90353  1.0000
  C   C95       1.0  0.21629  0.01057  0.52474  1.0000
  H   H159      1.0  0.03319  0.04835  0.90179  1.0000
  H   H160      1.0  0.16273  0.01338  0.57268  1.0000
  H   H161      1.0  0.14301  0.02486  0.80537  1.0000
  H   H162      1.0  0.23447  0.31646  0.71413  1.0000
  H   H163      1.0  0.24710  0.25408  0.92436  1.0000
  C   C96       1.0  0.24286  0.21836  0.69135  1.0000
  C   C97       1.0  0.12059  0.07939  0.83092  1.0000
  C   C98       1.0  0.12483  0.06604  0.85318  1.0000
  C   C99       1.0  0.12220  0.07465  0.87914  1.0000
  C   C100      1.0  0.11524  0.09668  0.88298  1.0000
  C   C101      1.0  0.11155  0.11014  0.86076  1.0000
  C   C102      1.0  0.11423  0.10153  0.83481  1.0000
  H   H164      1.0  0.12995  0.04891  0.85037  1.0000
  H   H165      1.0  0.12545  0.06418  0.89612  1.0000
  H   H166      1.0  0.10628  0.12723  0.86356  1.0000
  H   H167      1.0  0.11124  0.11204  0.81786  1.0000
  C   C103      1.0  0.12205  0.07656  0.63209  1.0000
  C   C104      1.0  0.11808  0.09873  0.62675  1.0000
  C   C105      1.0  0.11486  0.10582  0.60031  1.0000
  C   C106      1.0  0.11539  0.09086  0.57893  1.0000
  C   C107      1.0  0.11918  0.06865  0.58425  1.0000
  C   C108      1.0  0.12264  0.06156  0.61072  1.0000
  H   H168      1.0  0.11776  0.11045  0.64295  1.0000
  H   H169      1.0  0.11196  0.12303  0.59637  1.0000
  H   H170      1.0  0.11955  0.05698  0.56797  1.0000
  H   H171      1.0  0.12571  0.04437  0.61469  1.0000
  C   C109      1.0  0.17241  0.18049  0.81145  1.0000
  C   C110      1.0  0.17371  0.19239  0.78812  1.0000
  C   C111      1.0  0.16269  0.18636  0.76478  1.0000
  C   C112      1.0  0.15091  0.16795  0.76424  1.0000
  C   C113      1.0  0.14977  0.15593  0.78752  1.0000
  C   C114      1.0  0.16024  0.16236  0.81108  1.0000
  H   H172      1.0  0.18272  0.20658  0.78826  1.0000
  H   H173      1.0  0.16316  0.19618  0.74720  1.0000
  H   H174      1.0  0.14061  0.14184  0.78745  1.0000
  H   H175      1.0  0.15886  0.15323  0.82904  1.0000
  C   C115      1.0  0.23848  0.22010  0.73960  1.0000
  C   C116      1.0  0.22935  0.22140  0.71373  1.0000
  H   H176      1.0  0.22795  0.22270  0.75668  1.0000
  H   H177      1.0  0.21182  0.22525  0.71109  1.0000
  H   H178      1.0  0.21284  0.32632  0.60298  1.0000
  H   H179      1.0  0.24888  0.27336  0.89936  1.0000
  H   H180      1.0  0.20065  0.09997  0.91292  1.0000
  H   H181      1.0  0.18003  0.08423  0.92411  1.0000
  H   H182      1.0  0.05995  0.11322  0.93479  1.0000
  H   H183      1.0  0.15567  0.10841  0.90167  1.0000
  H   H184      1.0  0.16733  0.04870  0.79036  1.0000
  H   H185      1.0  0.17997  0.09658  0.86736  1.0000
  C   C117      1.0  0.17476  0.01571  0.55670  1.0000
  H   H186      1.0  0.17442  0.03658  0.52097  1.0000
  H   H187      1.0  0.06523  0.08979  0.82002  1.0000
  C   C118      1.0  0.16439  0.03416  0.53871  1.0000
  H   H188      1.0  0.16138  0.11723  0.85150  1.0000
  H   H189      1.0  0.22382  0.27085  0.73787  1.0000
  C   C119      1.0  0.16671  0.01228  0.75813  1.0000
  N   N8        1.0  0.03938  0.08634  0.63232  1.0000
  H   H190      1.0  0.18954  0.14441  0.86349  1.0000
  C   C120      1.0  0.16693  0.11730  0.91435  1.0000
  H   H191      1.0  0.13184  0.02595  0.76185  1.0000
  H   H192      1.0  0.06871  0.07633  0.58561  1.0000
  H   H193      1.0  0.04855  0.13868  0.92220  1.0000
  H   H194      1.0  0.21555  0.21930  0.47529  1.0000
  H   H195      1.0  0.15021  0.04520  0.75108  1.0000
  C   C121      1.0  0.23212  0.33240  0.86638  1.0000
  H   H196      1.0  0.01243  0.08502  0.92202  1.0000
  C   C122      1.0  0.05445  0.07491  0.90824  1.0000
  S   S42       1.0  0.15897  0.01509  0.96764  1.0000
  H   H197      1.0  0.08109  0.05833  0.67084  1.0000
  C   C123      1.0  0.03847  0.10815  0.64628  1.0000
  H   H198      1.0  0.21197  0.29090  0.69921  1.0000
  H   H199      1.0  0.03854  0.10071  0.83045  1.0000
  Fe  Fe23      1.0  0.25420  0.22410  0.62481  1.0000
  H   H200      1.0  0.24762  0.26786  0.75874  1.0000
  S   S43       1.0  0.24488  0.24846  0.59283  1.0000
  H   H201      1.0  0.06797  0.11514  0.88804  1.0000
  C   C124      1.0  0.21622  0.28461  0.65721  1.0000
  C   C125      1.0  0.02024  0.08606  0.47262  1.0000
  H   H202      1.0  0.19631  0.05663  0.82105  1.0000
  H   H203      1.0  0.18054  0.03748  0.83607  1.0000
  N   N9        1.0  0.04598  0.08970  0.88591  1.0000
  H   H204      1.0  0.20611  0.16755  0.89188  1.0000
  C   C126      1.0  0.02191  0.08840  0.87980  1.0000
  H   H205      1.0  0.25016  0.32091  0.65695  1.0000
  C   C127      1.0  0.22150  0.28075  0.92515  1.0000
  H   H206      1.0  0.02475  0.10318  0.59772  1.0000
  H   H207      1.0  0.02082  0.07346  0.66409  1.0000
  C   C128      1.0  0.23297  0.21898  0.47154  1.0000
  C   C129      1.0  0.05870  0.08230  0.86124  1.0000
  H   H208      1.0  0.21802  0.30095  0.64948  1.0000
  H   H209      1.0  0.13729  0.02113  0.91555  1.0000
  H   H210      1.0  0.07399  0.11228  0.64166  1.0000
  H   H211      1.0  0.03064  0.11840  0.92891  1.0000
  H   H212      1.0  0.01901  0.07269  0.86991  1.0000
  C   C130      1.0  0.04700  0.12094  0.92126  1.0000
  C   C131      1.0  0.24590  0.31066  0.60035  1.0000
  C   C132      1.0  0.01404  0.05890  0.71926  1.0000
  C   C133      1.0  0.19497  0.17044  0.90910  1.0000
  C   C134      1.0  0.05588  0.09759  0.83705  1.0000
  H   H213      1.0  0.04718  0.07997  0.92770  1.0000
  C   C135      1.0  0.06470  0.06762  0.66857  1.0000
  H   H214      1.0  0.02992  0.07456  0.59333  1.0000
  C   C136      1.0  0.05772  0.09173  0.58653  1.0000
  H   H215      1.0  0.05650  0.04188  0.92288  1.0000
  C   C137      1.0  0.06016  0.07202  0.63876  1.0000
  C   C138      1.0  0.02854  0.07494  0.72360  1.0000
  H   H216      1.0  0.04050  0.12446  0.87918  1.0000
  H   H217      1.0  0.18860  0.11101  0.83938  1.0000
  C   C139      1.0  0.05082  0.05074  0.90451  1.0000
  H   H218      1.0  0.17856  0.15271  0.93854  1.0000
  H   H219      1.0  0.22475  0.27213  0.64385  1.0000
  C   C140      1.0  0.17866  0.11273  0.85779  1.0000
  C   C141      1.0  0.26148  0.33722  0.52693  1.0000
  H   H220      1.0  0.19313  0.04020  0.77650  1.0000
  S   S44       1.0  0.03912  0.11745  0.72420  1.0000
  N   N10       1.0  0.19205  0.16730  0.67563  1.0000
  C   C142      1.0  0.19589  0.17132  0.70502  1.0000
  C   C143      1.0  0.17871  0.18724  0.66500  1.0000
  C   C144      1.0  0.21421  0.16429  0.66237  1.0000
  C   C145      1.0  0.18019  0.14709  0.67287  1.0000
  C   C146      1.0  0.21228  0.15467  0.71944  1.0000
  C   C147      1.0  0.15560  0.19227  0.67689  1.0000
  C   C148      1.0  0.21480  0.16828  0.63210  1.0000
  C   C149      1.0  0.17164  0.14125  0.64487  1.0000
  H   H221      1.0  0.20181  0.18758  0.70851  1.0000
  H   H222      1.0  0.18031  0.17151  0.71606  1.0000
  H   H223      1.0  0.17630  0.18643  0.64311  1.0000
  H   H224      1.0  0.18777  0.20186  0.66835  1.0000
  H   H225      1.0  0.22547  0.17558  0.67142  1.0000
  H   H226      1.0  0.22231  0.14762  0.66584  1.0000
  H   H227      1.0  0.19106  0.13259  0.67934  1.0000
  H   H228      1.0  0.16617  0.14742  0.68688  1.0000
  H   H229      1.0  0.22922  0.15465  0.71179  1.0000
  H   H230      1.0  0.21296  0.15935  0.74089  1.0000
  H   H231      1.0  0.20698  0.13806  0.71854  1.0000
  H   H232      1.0  0.14693  0.20639  0.66639  1.0000
  H   H233      1.0  0.14539  0.17852  0.67424  1.0000
  H   H234      1.0  0.15631  0.19692  0.69827  1.0000
  H   H235      1.0  0.20349  0.15885  0.62047  1.0000
  H   H236      1.0  0.23168  0.16338  0.62487  1.0000
  H   H237      1.0  0.21132  0.18583  0.62758  1.0000
  H   H238      1.0  0.18427  0.13068  0.63384  1.0000
  H   H239      1.0  0.16587  0.15543  0.63264  1.0000
  H   H240      1.0  0.15692  0.13222  0.64700  1.0000
  H   H241      1.0  0.23273  0.20715  0.92849  1.0000
  S   S45       1.0  0.21870  0.29247  0.85403  1.0000
  H   H242      1.0  0.07662  0.07985  0.86579  1.0000
  H   H243      1.0  0.15681  0.12238  0.93201  1.0000
  H   H244      1.0  0.04513  0.07037  0.73057  1.0000
  H   H245      1.0  0.19848  0.28217  0.65601  1.0000
  C   C150      1.0  0.18557  0.10082  0.92493  1.0000
  C   C151      1.0  0.24399  0.20752  0.94526  1.0000
  H   H246      1.0  0.01965  0.04202  0.72281  1.0000
  C   C152      1.0  0.18765  0.13011  0.87620  1.0000
  H   H247      1.0  0.15809  0.16371  0.87749  1.0000
  H   H248      1.0  0.14222  0.02472  0.72877  1.0000
  H   H249      1.0  0.20749  0.02893  0.82274  1.0000
  C   C153      1.0  0.18146  0.03600  0.79199  1.0000
  C   C154      1.0  0.15373  0.15069  0.89098  1.0000
  H   H250      1.0  0.21860  0.29839  0.92119  1.0000
  H   H251      1.0  0.14769  0.17344  0.92519  1.0000
  C   C155      1.0  0.25575  0.28545  0.96624  1.0000
  H   H252      1.0  0.05536  0.13190  0.62404  1.0000
  S   S46       1.0  0.23102  0.22148  0.65923  1.0000
  H   H253      1.0  0.21790  0.01723  0.54508  1.0000
  H   H254      1.0  0.12483  0.17140  0.90328  1.0000
  C   C156      1.0  0.13903  0.16183  0.91296  1.0000
  H   H255      1.0  0.26154  0.00843  0.92880  1.0000
  H   H256      1.0  0.13207  0.14997  0.92596  1.0000
  C   C157      1.0  0.23864  0.31123  0.85725  1.0000
  N   N11       1.0  0.17399  0.13679  0.90032  1.0000
  H   H257      1.0  0.07498  0.07870  0.63116  1.0000
  C   C158      1.0  0.03677  0.08900  0.60248  1.0000
  H   H258      1.0  0.16165  0.00956  0.82647  1.0000
  C   C159      1.0  0.18748  0.14905  0.91956  1.0000
  H   H259      1.0  0.02142  0.05780  0.63416  1.0000
  S   S47       1.0  0.24673  0.19489  0.83948  1.0000
  C   C160      1.0  0.26121  0.21589  0.74324  1.0000
  H   H260      1.0  0.20274  0.13886  0.92555  1.0000
  H   H261      1.0  0.06282  0.11324  0.84106  1.0000
  C   C161      1.0  0.05782  0.12188  0.64223  1.0000
  H   H262      1.0  0.06513  0.08288  0.68030  1.0000
  S   S48       1.0  0.13384  0.07781  0.47572  1.0000
  C   C162      1.0  0.19204  0.03961  0.81962  1.0000
  H   H263      1.0  0.20438  0.17816  0.92511  1.0000
  C   C163      1.0  0.23016  0.32855  0.60433  1.0000
  H   H264      1.0  0.05310  0.09593  0.56559  1.0000
  H   H265      1.0  0.06707  0.10485  0.59444  1.0000
  C   C164      1.0  0.02146  0.09678  0.71913  1.0000
  C   C165      1.0  0.14659  0.02799  0.74992  1.0000
  C   C166      1.0  0.02035  0.07482  0.64201  1.0000
  S   S49       1.0  0.23769  0.21808  0.52601  1.0000
  H   H266      1.0  0.18988  0.10478  0.94591  1.0000
  H   H267      1.0  0.14747  0.03142  0.53222  1.0000
  H   H268      1.0  0.03607  0.10670  0.66807  1.0000
  H   H269      1.0  0.02199  0.06642  0.54414  1.0000
  H   H270      1.0  0.16294  0.04969  0.55027  1.0000
  H   H271      1.0  0.22290  0.26412  0.69051  1.0000
  H   H272      1.0  0.22107  0.01327  0.78012  1.0000
  H   H273      1.0  0.02361  0.11870  0.63984  1.0000
  C   C167      1.0  0.22432  0.28157  0.68632  1.0000
  H   H274      1.0  0.05998  0.05598  0.62843  1.0000
  H   H275      1.0  0.21101  0.27256  0.91073  1.0000
  N   N12       1.0  0.17406  0.01376  0.78685  1.0000
  H   H276      1.0  0.18860  0.02228  0.56741  1.0000
  Fe  Fe24      1.0  0.25387  0.21795  0.87279  1.0000
  H   H277      1.0  0.06060  0.04301  0.88788  1.0000
  C   C168      1.0  0.26068  0.30568  0.85068  1.0000
  H   H278      1.0  0.25205  0.31671  0.79571  1.0000
  H   H279      1.0  0.21576  0.27718  0.94535  1.0000
  H   H280      1.0  0.21485  0.02438  0.51067  1.0000
  C   C169      1.0  0.24572  0.27192  0.92105  1.0000
  H   H281      1.0  0.25745  0.28668  0.65134  1.0000
  H   H282      1.0  0.01597  0.10071  0.86474  1.0000
  Fe  Fe25      1.0  0.25800  0.22262  0.56363  1.0000
  H   H283      1.0  0.24845  0.31561  0.92865  1.0000
  H   H284      1.0  0.01841  0.09068  0.78893  1.0000
  H   H285      1.0  0.26158  0.27940  0.49825  1.0000
  H   H286      1.0  0.23685  0.29453  0.74919  1.0000
  C   C170      1.0  0.23974  0.27750  0.74201  1.0000
  Fe  Fe26      1.0  0.07606  0.05677  0.47508  1.0000
  Fe  Fe27      1.0  0.12535  0.04339  0.47119  1.0000
  C   C171      1.0  0.25515  0.27508  0.71777  1.0000
  H   H287      1.0  0.25818  0.25739  0.71330  1.0000
  H   H288      1.0  0.22489  0.33160  0.67271  1.0000
  H   H289      1.0  0.18010  0.01581  0.74457  1.0000
  Fe  Fe28      1.0  0.25220  0.22188  0.81159  1.0000
  H   H290      1.0  0.21512  0.33684  0.87152  1.0000
  C   C172      1.0  0.24277  0.32710  0.67580  1.0000
  H   H291      1.0  0.03509  0.09178  0.48067  1.0000
  H   H292      1.0  0.23423  0.33327  0.77446  1.0000
  C   C173      1.0  0.24587  0.33384  0.79147  1.0000
  C   C174      1.0  0.15156  0.00952  0.91343  1.0000
  C   C175      1.0  0.15555  0.01059  0.80552  1.0000
  H   H293      1.0  0.25831  0.32119  0.51828  1.0000
  H   H294      1.0  0.14275  0.15491  0.46847  1.0000
  H   H295      1.0  0.25410  0.26650  0.46798  1.0000
  C   C176      1.0  0.15196  0.50962  0.41228  1.0000
  Fe  Fe29      1.0  0.06842  0.61058  0.22276  1.0000
  S   S50       1.0  0.08608  0.57729  0.22523  1.0000
  S   S51       1.0  0.03134  0.61608  0.21738  1.0000
  Fe  Fe30      1.0  0.11178  0.63209  0.22436  1.0000
  S   S52       1.0  0.13224  0.59991  0.22753  1.0000
  C   C177      1.0  0.25689  0.38338  0.30188  1.0000
  Fe  Fe31      1.0  0.10921  0.58921  0.19576  1.0000
  S   S53       1.0  0.12000  0.56753  0.16077  1.0000
  Fe  Fe32      1.0  0.10698  0.59137  0.25706  1.0000
  S   S54       1.0  0.11443  0.56955  0.29305  1.0000
  S   S55       1.0  0.09013  0.62174  0.19096  1.0000
  S   S56       1.0  0.08794  0.62437  0.25631  1.0000
  H   H296      1.0  0.20178  0.64113  0.25039  1.0000
  H   H297      1.0  0.25197  0.39703  0.25491  1.0000
  H   H298      1.0  0.16953  0.51817  0.44691  1.0000
  C   C178      1.0  0.22677  0.43858  0.99586  1.0000
  H   H299      1.0  0.03429  0.54537  0.39854  1.0000
  Fe  Fe33      1.0  0.07742  0.55393  0.97747  1.0000
  H   H300      1.0  0.03675  0.58930  0.98230  1.0000
  Fe  Fe34      1.0  0.10562  0.58153  0.01115  1.0000
  S   S57       1.0  0.10564  0.60610  0.04481  1.0000
  Fe  Fe35      1.0  0.10635  0.57732  0.45191  1.0000
  S   S58       1.0  0.11111  0.59822  0.41573  1.0000
  S   S59       1.0  0.09603  0.54771  0.01611  1.0000
  H   H301      1.0  0.03488  0.55834  0.09128  1.0000
  C   C179      1.0  0.16663  0.48041  0.07940  1.0000
  C   C180      1.0  0.18025  0.47466  0.05777  1.0000
  C   C181      1.0  0.17552  0.48400  0.03267  1.0000
  C   C182      1.0  0.15729  0.49941  0.02905  1.0000
  C   C183      1.0  0.14386  0.50548  0.05080  1.0000
  C   C184      1.0  0.14844  0.49590  0.07584  1.0000
  H   H302      1.0  0.25815  0.34854  0.17226  1.0000
  H   H303      1.0  0.18601  0.47919  0.01601  1.0000
  H   H304      1.0  0.12976  0.51729  0.04825  1.0000
  H   H305      1.0  0.13773  0.50037  0.09240  1.0000
  C   C185      1.0  0.11773  0.57875  0.12860  1.0000
  C   C186      1.0  0.12109  0.56505  0.10621  1.0000
  C   C187      1.0  0.11810  0.57341  0.08037  1.0000
  C   C188      1.0  0.11149  0.59548  0.07678  1.0000
  C   C189      1.0  0.10873  0.60928  0.09913  1.0000
  C   C190      1.0  0.11197  0.60096  0.12493  1.0000
  H   H306      1.0  0.12557  0.54784  0.10875  1.0000
  H   H307      1.0  0.12056  0.56267  0.06326  1.0000
  H   H308      1.0  0.10358  0.62637  0.09656  1.0000
  H   H309      1.0  0.10985  0.61177  0.14192  1.0000
  C   C191      1.0  0.11293  0.57786  0.32702  1.0000
  C   C192      1.0  0.11073  0.59979  0.33462  1.0000
  C   C193      1.0  0.11043  0.60569  0.36186  1.0000
  C   C194      1.0  0.11188  0.58979  0.38177  1.0000
  C   C195      1.0  0.11364  0.56785  0.37418  1.0000
  C   C196      1.0  0.11436  0.56194  0.34694  1.0000
  H   H310      1.0  0.10967  0.61219  0.31953  1.0000
  H   H311      1.0  0.10907  0.62270  0.36754  1.0000
  H   H312      1.0  0.11471  0.55547  0.38928  1.0000
  H   H313      1.0  0.11608  0.54494  0.34122  1.0000
  H   H314      1.0  0.16945  0.62542  0.26724  1.0000
  C   C197      1.0  0.17441  0.64083  0.27600  1.0000
  C   C198      1.0  0.23057  0.44088  0.23039  1.0000
  Fe  Fe36      1.0  0.22111  0.39759  0.12006  1.0000
  S   S60       1.0  0.15170  0.51034  0.99697  1.0000
  H   H315      1.0  0.25428  0.37876  0.32283  1.0000
  H   H316      1.0  0.15211  0.62095  0.09558  1.0000
  S   S61       1.0  0.17190  0.46851  0.11103  1.0000
  H   H317      1.0  0.03971  0.56909  0.22462  1.0000
  H   H318      1.0  0.20915  0.44124  0.99286  1.0000
  H   H319      1.0  0.02263  0.61109  0.12730  1.0000
  H   H320      1.0  0.25561  0.40147  0.30202  1.0000
  H   H321      1.0  0.22438  0.48465  0.43992  1.0000
  H   H322      1.0  0.02348  0.59237  0.32925  1.0000
  C   C199      1.0  0.05182  0.54840  0.40037  1.0000
  C   C200      1.0  0.24549  0.38081  0.25522  1.0000
  H   H323      1.0  0.16829  0.53866  0.23264  1.0000
  C   C201      1.0  0.22686  0.38212  0.23408  1.0000
  H   H324      1.0  0.06123  0.54110  0.38318  1.0000
  N   N13       1.0  0.18995  0.49156  0.42879  1.0000
  C   C202      1.0  0.02180  0.58420  0.97361  1.0000
  C   C203      1.0  0.19599  0.48176  0.40185  1.0000
  C   C204      1.0  0.18090  0.47485  0.44618  1.0000
  C   C205      1.0  0.17405  0.51175  0.42674  1.0000
  H   H325      1.0  0.04978  0.62029  0.12637  1.0000
  C   C206      1.0  0.20586  0.49691  0.38210  1.0000
  H   H326      1.0  0.23145  0.38724  0.46733  1.0000
  H   H327      1.0  0.21829  0.44067  0.21470  1.0000
  H   H328      1.0  0.17466  0.62256  0.02946  1.0000
  H   H329      1.0  0.18174  0.47560  0.39140  1.0000
  H   H330      1.0  0.20803  0.46714  0.40428  1.0000
  H   H331      1.0  0.04465  0.61098  0.33422  1.0000
  S   S62       1.0  0.23373  0.43821  0.44270  1.0000
  H   H332      1.0  0.18175  0.52545  0.41771  1.0000
  C   C207      1.0  0.24195  0.37866  0.99733  1.0000
  H   H333      1.0  0.19284  0.63717  0.06934  1.0000
  H   H334      1.0  0.08228  0.53175  0.16235  1.0000
  C   C208      1.0  0.22840  0.37246  0.04189  1.0000
  H   H335      1.0  0.22199  0.50166  0.38912  1.0000
  H   H336      1.0  0.25890  0.37886  0.45831  1.0000
  H   H337      1.0  0.21810  0.36735  0.23300  1.0000
  Fe  Fe37      1.0  0.24143  0.43233  0.15317  1.0000
  S   S63       1.0  0.09921  0.54245  0.45167  1.0000
  H   H338      1.0  0.17191  0.48281  0.46331  1.0000
  C   C209      1.0  0.05024  0.58004  0.35641  1.0000
  H   H339      1.0  0.22486  0.44156  0.03863  1.0000
  S   S64       1.0  0.24526  0.41219  0.37381  1.0000
  C   C210      1.0  0.24000  0.44322  0.27788  1.0000
  C   C211      1.0  0.06673  0.54267  0.16231  1.0000
  C   C212      1.0  0.20360  0.37727  0.03576  1.0000
  C   C213      1.0  0.22325  0.67016  0.22578  1.0000
  H   H340      1.0  0.25642  0.34272  0.27911  1.0000
  N   N14       1.0  0.17254  0.51411  0.16972  1.0000
  C   C214      1.0  0.16700  0.52450  0.14307  1.0000
  C   C215      1.0  0.17301  0.53203  0.19034  1.0000
  C   C216      1.0  0.18398  0.53878  0.13190  1.0000
  C   C217      1.0  0.17582  0.52525  0.21975  1.0000
  H   H341      1.0  0.16437  0.51195  0.12763  1.0000
  H   H342      1.0  0.15133  0.53506  0.14390  1.0000
  H   H343      1.0  0.20824  0.51215  0.16988  1.0000
  H   H344      1.0  0.18680  0.54197  0.18652  1.0000
  H   H345      1.0  0.15827  0.54408  0.18869  1.0000
  H   H346      1.0  0.20024  0.52955  0.12879  1.0000
  H   H347      1.0  0.17803  0.54480  0.11204  1.0000
  H   H348      1.0  0.18568  0.55334  0.14460  1.0000
  H   H349      1.0  0.22016  0.38727  0.33504  1.0000
  C   C218      1.0  0.04122  0.59376  0.33257  1.0000
  H   H350      1.0  0.19348  0.52204  0.22529  1.0000
  H   H351      1.0  0.04729  0.63692  0.41769  1.0000
  N   N15       1.0  0.04271  0.58776  0.38376  1.0000
  C   C219      1.0  0.05479  0.57278  0.40382  1.0000
  C   C220      1.0  0.02316  0.56098  0.14207  1.0000
  H   H352      1.0  0.17906  0.61847  0.11043  1.0000
  H   H353      1.0  0.07274  0.57442  0.40362  1.0000
  H   H354      1.0  0.04949  0.57719  0.42448  1.0000
  H   H355      1.0  0.06112  0.61230  0.42998  1.0000
  C   C221      1.0  0.16495  0.66235  0.15688  1.0000
  C   C222      1.0  0.03843  0.61129  0.13811  1.0000
  C   C223      1.0  0.15818  0.63011  0.03566  1.0000
  H   H356      1.0  0.02666  0.58600  0.09734  1.0000
  H   H357      1.0  0.12672  0.64399  0.06486  1.0000
  C   C224      1.0  0.20953  0.38160  0.31890  1.0000
  H   H358      1.0  0.15169  0.46784  0.42188  1.0000
  H   H359      1.0  0.04040  0.62242  0.37554  1.0000
  H   H360      1.0  0.15017  0.61696  0.04544  1.0000
  H   H361      1.0  0.19573  0.36261  0.02955  1.0000
  H   H362      1.0  0.19702  0.49390  0.14715  1.0000
  H   H363      1.0  0.15323  0.49862  0.39474  1.0000
  C   C225      1.0  0.19485  0.50129  0.16746  1.0000
  S   S65       1.0  0.23563  0.45740  0.12094  1.0000
  C   C226      1.0  0.20016  0.48221  0.18675  1.0000
  H   H364      1.0  0.19045  0.46847  0.18147  1.0000
  C   C227      1.0  0.04703  0.61899  0.41746  1.0000
  S   S66       1.0  0.23132  0.44573  0.31141  1.0000
  H   H365      1.0  0.16710  0.51112  0.22493  1.0000
  C   C228      1.0  0.22418  0.44310  0.25726  1.0000
  H   H366      1.0  0.05852  0.53959  0.41830  1.0000
  H   H367      1.0  0.19432  0.46284  0.06033  1.0000
  H   H368      1.0  0.01544  0.53943  0.21883  1.0000
  C   C229      1.0  0.25447  0.34593  0.10547  1.0000
  H   H369      1.0  0.20770  0.36407  0.32124  1.0000
  H   H370      1.0  0.02509  0.55828  0.16384  1.0000
  S   S67       1.0  0.13594  0.57169  0.98759  1.0000
  H   H371      1.0  0.21775  0.47595  0.18469  1.0000
  N   N16       1.0  0.23978  0.37511  0.28335  1.0000
  S   S68       1.0  0.04379  0.54309  0.96862  1.0000
  S   S69       1.0  0.08456  0.58859  0.97464  1.0000
  H   H372      1.0  0.14563  0.52571  0.40417  1.0000
  Fe  Fe38      1.0  0.12521  0.53810  0.99031  1.0000
  C   C230      1.0  0.14388  0.67131  0.19700  1.0000
  C   C231      1.0  0.17584  0.64085  0.07699  1.0000
  H   H373      1.0  0.17504  0.44745  0.41947  1.0000
  Fe  Fe39      1.0  0.25593  0.43337  0.40714  1.0000
  C   C232      1.0  0.24064  0.35085  0.28664  1.0000
  H   H374      1.0  0.24597  0.39461  0.00529  1.0000
  S   S70       1.0  0.25556  0.40641  0.12466  1.0000
  H   H375      1.0  0.19450  0.46397  0.45520  1.0000
  H   H376      1.0  0.13964  0.50444  0.42634  1.0000
  H   H377      1.0  0.05895  0.53691  0.12094  1.0000
  H   H378      1.0  0.18935  0.66517  0.31748  1.0000
  C   C233      1.0  0.21784  0.38670  0.29101  1.0000
  C   C234      1.0  0.24058  0.43492  0.97385  1.0000
  H   H379      1.0  0.04965  0.58719  0.31424  1.0000
  H   H380      1.0  0.19761  0.48688  0.20789  1.0000
  H   H381      1.0  0.13011  0.52309  0.19337  1.0000
  H   H382      1.0  0.23420  0.38826  0.04816  1.0000
  H   H383      1.0  0.06851  0.57895  0.35542  1.0000
  H   H384      1.0  0.04571  0.56338  0.35206  1.0000
  H   H385      1.0  0.05365  0.53294  0.16927  1.0000
  H   H386      1.0  0.07270  0.56552  0.08360  1.0000
  H   H387      1.0  0.19444  0.51153  0.37776  1.0000
  C   C235      1.0  0.04981  0.58886  0.14632  1.0000
  C   C236      1.0  0.15508  0.49916  0.17518  1.0000
  H   H388      1.0  0.17729  0.65353  0.09259  1.0000
  H   H389      1.0  0.22106  0.65919  0.28287  1.0000
  H   H390      1.0  0.17653  0.65264  0.23621  1.0000
  C   C237      1.0  0.18686  0.65232  0.25475  1.0000
  C   C238      1.0  0.06026  0.57963  0.08651  1.0000
  H   H391      1.0  0.06780  0.59017  0.14462  1.0000
  H   H392      1.0  0.06784  0.59295  0.09690  1.0000
  C   C239      1.0  0.14455  0.63550  0.01002  1.0000
  Fe  Fe40      1.0  0.20243  0.44505  0.11616  1.0000
  H   H393      1.0  0.12483  0.51675  0.15855  1.0000
  C   C240      1.0  0.23262  0.34191  0.10916  1.0000
  H   H394      1.0  0.05518  0.58547  0.06628  1.0000
  H   H395      1.0  0.21835  0.40460  0.28993  1.0000
  H   H396      1.0  0.04699  0.58701  0.16803  1.0000
  H   H397      1.0  0.07781  0.55656  0.12692  1.0000
  C   C241      1.0  0.04955  0.61027  0.38863  1.0000
  C   C242      1.0  0.23562  0.43861  0.02185  1.0000
  H   H398      1.0  0.14153  0.62010  0.99959  1.0000
  C   C243      1.0  0.13618  0.66775  0.09265  1.0000
  H   H399      1.0  0.12051  0.49777  0.18377  1.0000
  H   H400      1.0  0.14659  0.63985  0.17789  1.0000
  C   C244      1.0  0.04012  0.57315  0.10144  1.0000
  H   H401      1.0  0.19521  0.38341  0.05427  1.0000
  H   H402      1.0  0.17054  0.65057  0.14179  1.0000
  H   H403      1.0  0.20691  0.44468  0.26211  1.0000
  C   C245      1.0  0.13142  0.51015  0.17781  1.0000
  H   H404      1.0  0.15859  0.48970  0.19358  1.0000
  N   N17       1.0  0.04355  0.56916  0.13089  1.0000
  H   H405      1.0  0.06713  0.61084  0.38339  1.0000
  C   C246      1.0  0.06202  0.55117  0.13379  1.0000
  H   H406      1.0  0.24231  0.36636  0.37798  1.0000
  S   S71       1.0  0.20728  0.42198  0.15074  1.0000
  H   H407      1.0  0.15481  0.48661  0.15911  1.0000
  C   C247      1.0  0.21085  0.49802  0.44179  1.0000
  H   H408      1.0  0.13929  0.65546  0.10846  1.0000
  H   H409      1.0  0.06904  0.55597  0.17674  1.0000
  S   S72       1.0  0.21244  0.36283  0.11852  1.0000
  H   H410      1.0  0.23402  0.38427  0.21414  1.0000
  H   H411      1.0  0.12820  0.64414  0.01437  1.0000
  H   H412      1.0  0.20888  0.48801  0.36289  1.0000
  S   S73       1.0  0.21284  0.41967  0.08548  1.0000
  H   H413      1.0  0.03153  0.61513  0.42659  1.0000
  H   H414      1.0  0.24104  0.34638  0.30806  1.0000
  H   H415      1.0  0.23023  0.36226  0.05997  1.0000
  H   H416      1.0  0.03495  0.62131  0.15642  1.0000
  H   H417      1.0  0.17463  0.60544  0.07910  1.0000
  H   H418      1.0  0.21746  0.34612  0.99770  1.0000
  H   H419      1.0  0.18511  0.63617  0.29339  1.0000
  H   H420      1.0  0.15896  0.65030  0.28221  1.0000
  C   C248      1.0  0.16566  0.45932  0.43287  1.0000
  C   C249      1.0  0.24667  0.35090  0.36824  1.0000
  C   C250      1.0  0.01827  0.58657  0.38679  1.0000
  H   H421      1.0  0.19302  0.39048  0.32172  1.0000
  C   C251      1.0  0.16986  0.62027  0.09121  1.0000
  H   H422      1.0  0.20454  0.38323  0.27686  1.0000
  H   H423      1.0  0.21495  0.39661  0.23751  1.0000
  H   H424      1.0  0.21674  0.51218  0.43161  1.0000
  Fe  Fe41      1.0  0.25490  0.43766  0.34609  1.0000
  C   C252      1.0  0.15132  0.65624  0.17733  1.0000
  H   H425      1.0  0.15862  0.44974  0.44865  1.0000
  C   C253      1.0  0.02286  0.57284  0.21817  1.0000
  H   H426      1.0  0.23621  0.66690  0.24129  1.0000
  C   C254      1.0  0.13776  0.65725  0.06454  1.0000
  H   H427      1.0  0.25898  0.36913  0.24742  1.0000
  N   N18       1.0  0.16038  0.64890  0.05477  1.0000
  H   H428      1.0  0.21917  0.65473  0.21630  1.0000
  Fe  Fe42      1.0  0.24640  0.43040  0.09225  1.0000
  C   C255      1.0  0.01474  0.59439  0.21333  1.0000
  N   N19       1.0  0.24219  0.36238  0.01946  1.0000
  H   H429      1.0  0.20038  0.39016  0.02065  1.0000
  C   C256      1.0  0.25286  0.43918  0.22394  1.0000
  H   H430      1.0  0.15348  0.64497  0.99588  1.0000
  H   H431      1.0  0.22518  0.38184  0.98845  1.0000
  S   S74       1.0  0.12765  0.66398  0.22391  1.0000
  C   C257      1.0  0.17057  0.66618  0.03953  1.0000
  C   C258      1.0  0.23322  0.34210  0.00875  1.0000
  H   H432      1.0  0.20629  0.34860  0.27193  1.0000
  H   H433      1.0  0.02045  0.54487  0.13306  1.0000
  C   C259      1.0  0.01497  0.56178  0.46301  1.0000
  H   H434      1.0  0.01463  0.56653  0.04309  1.0000
  H   H435      1.0  0.21378  0.34113  0.36983  1.0000
  C   C260      1.0  0.25832  0.43481  0.02599  1.0000
  H   H436      1.0  0.01425  0.58285  0.40771  1.0000
  C   C261      1.0  0.25752  0.37252  0.97390  1.0000
  H   H437      1.0  0.18576  0.65900  0.02937  1.0000
  H   H438      1.0  0.12955  0.66931  0.05042  1.0000
  H   H439      1.0  0.25928  0.36213  0.10816  1.0000
  C   C262      1.0  0.01603  0.58414  0.46624  1.0000
  H   H440      1.0  0.01276  0.57277  0.37483  1.0000
  H   H441      1.0  0.26119  0.50839  0.06002  1.0000
  N   N20       1.0  0.19683  0.66334  0.79766  1.0000
  Fe  Fe43      1.0  0.07260  0.60959  0.72642  1.0000
  S   S75       1.0  0.08851  0.57548  0.72614  1.0000
  S   S76       1.0  0.03535  0.61633  0.72315  1.0000
  Fe  Fe44      1.0  0.11737  0.62848  0.72952  1.0000
  S   S77       1.0  0.13582  0.59520  0.73017  1.0000
  H   H442      1.0  0.01994  0.61380  0.65868  1.0000
  Fe  Fe45      1.0  0.11223  0.58766  0.69753  1.0000
  S   S78       1.0  0.12379  0.56771  0.66136  1.0000
  Fe  Fe46      1.0  0.11020  0.58679  0.75898  1.0000
  S   S79       1.0  0.11622  0.56373  0.79385  1.0000
  S   S80       1.0  0.09495  0.62125  0.69540  1.0000
  S   S81       1.0  0.09314  0.62058  0.76089  1.0000
  H   H443      1.0  0.15008  0.65805  0.80086  1.0000
  H   H444      1.0  0.16913  0.62643  0.66018  1.0000
  H   H445      1.0  0.16431  0.45605  0.92357  1.0000
  S   S82       1.0  0.24254  0.40954  0.87127  1.0000
  C   C263      1.0  0.01859  0.59497  0.89745  1.0000
  H   H446      1.0  0.17621  0.59829  0.59211  1.0000
  C   C264      1.0  0.16192  0.62376  0.64008  1.0000
  Fe  Fe47      1.0  0.09930  0.58165  0.51253  1.0000
  S   S83       1.0  0.09785  0.60532  0.54720  1.0000
  H   H447      1.0  0.18149  0.63846  0.55146  1.0000
  S   S84       1.0  0.12259  0.59458  0.91510  1.0000
  S   S85       1.0  0.09093  0.54737  0.51649  1.0000
  C   C265      1.0  0.25480  0.38253  0.50114  1.0000
  C   C266      1.0  0.16866  0.48753  0.57895  1.0000
  C   C267      1.0  0.17885  0.47853  0.55601  1.0000
  C   C268      1.0  0.17174  0.48598  0.53065  1.0000
  C   C269      1.0  0.15460  0.50272  0.52792  1.0000
  C   C270      1.0  0.14456  0.51191  0.55088  1.0000
  C   C271      1.0  0.15150  0.50425  0.57627  1.0000
  C   C272      1.0  0.23990  0.35241  0.52646  1.0000
  H   H448      1.0  0.17945  0.47857  0.51310  1.0000
  H   H449      1.0  0.13131  0.52473  0.54906  1.0000
  H   H450      1.0  0.14348  0.51125  0.59388  1.0000
  C   C273      1.0  0.11749  0.57855  0.62954  1.0000
  C   C274      1.0  0.12048  0.56509  0.60692  1.0000
  C   C275      1.0  0.11447  0.57310  0.58148  1.0000
  C   C276      1.0  0.10553  0.59465  0.57860  1.0000
  C   C277      1.0  0.10287  0.60818  0.60115  1.0000
  C   C278      1.0  0.10893  0.60020  0.62650  1.0000
  H   H451      1.0  0.12723  0.54835  0.60905  1.0000
  H   H452      1.0  0.11685  0.56264  0.56412  1.0000
  H   H453      1.0  0.09612  0.62493  0.59898  1.0000
  H   H454      1.0  0.10699  0.61086  0.64360  1.0000
  C   C279      1.0  0.11793  0.57264  0.82741  1.0000
  C   C280      1.0  0.12022  0.59433  0.83406  1.0000
  C   C281      1.0  0.12175  0.60075  0.86102  1.0000
  C   C282      1.0  0.12056  0.58568  0.88155  1.0000
  C   C283      1.0  0.11788  0.56406  0.87491  1.0000
  C   C284      1.0  0.11689  0.55752  0.84795  1.0000
  H   H455      1.0  0.12102  0.60611  0.81845  1.0000
  H   H456      1.0  0.12374  0.61752  0.86601  1.0000
  H   H457      1.0  0.11664  0.55238  0.89050  1.0000
  H   H458      1.0  0.11503  0.54073  0.84294  1.0000
  H   H459      1.0  0.13702  0.46558  0.93334  1.0000
  N   N21       1.0  0.03975  0.58395  0.88636  1.0000
  C   C285      1.0  0.04951  0.57427  0.58148  1.0000
  H   H460      1.0  0.07451  0.58340  0.89741  1.0000
  C   C286      1.0  0.03939  0.55971  0.88958  1.0000
  C   C287      1.0  0.02559  0.57358  0.71775  1.0000
  H   H461      1.0  0.25579  0.40038  0.50124  1.0000
  Fe  Fe48      1.0  0.07119  0.55386  0.47872  1.0000
  H   H462      1.0  0.04225  0.56882  0.72424  1.0000
  H   H463      1.0  0.22441  0.63954  0.75262  1.0000
  H   H464      1.0  0.07404  0.53959  0.64673  1.0000
  H   H465      1.0  0.20714  0.49003  0.48424  1.0000
  H   H466      1.0  0.14765  0.60636  0.59377  1.0000
  C   C288      1.0  0.23977  0.44589  0.77711  1.0000
  C   C289      1.0  0.16178  0.64325  0.79906  1.0000
  H   H467      1.0  0.23142  0.34878  0.54517  1.0000
  N   N22       1.0  0.04533  0.57780  0.63331  1.0000
  H   H468      1.0  0.06379  0.59480  0.82594  1.0000
  S   S86       1.0  0.17667  0.47803  0.61117  1.0000
  H   H469      1.0  0.25426  0.35695  0.73688  1.0000
  C   C290      1.0  0.06169  0.54569  0.88960  1.0000
  H   H470      1.0  0.03067  0.59017  0.47451  1.0000
  C   C291      1.0  0.25097  0.38538  0.54998  1.0000
  H   H471      1.0  0.02492  0.55271  0.64455  1.0000
  H   H472      1.0  0.22771  0.48613  0.92802  1.0000
  C   C292      1.0  0.24381  0.39108  0.73600  1.0000
  H   H473      1.0  0.05545  0.56199  0.56617  1.0000
  H   H474      1.0  0.19291  0.62458  0.62056  1.0000
  Fe  Fe49      1.0  0.25085  0.43907  0.59249  1.0000
  H   H475      1.0  0.01739  0.54056  0.71319  1.0000
  C   C293      1.0  0.15459  0.46849  0.93567  1.0000
  H   H476      1.0  0.05872  0.52826  0.88894  1.0000
  H   H477      1.0  0.14778  0.50242  0.94195  1.0000
  S   S87       1.0  0.21635  0.37105  0.61599  1.0000
  C   C294      1.0  0.05833  0.59183  0.90278  1.0000
  H   H478      1.0  0.17740  0.46386  0.88114  1.0000
  C   C295      1.0  0.14717  0.64870  0.58880  1.0000
  H   H479      1.0  0.24416  0.37804  0.56774  1.0000
  C   C296      1.0  0.17994  0.52250  0.93039  1.0000
  H   H480      1.0  0.21170  0.63619  0.82109  1.0000
  S   S88       1.0  0.07725  0.58881  0.47703  1.0000
  H   H481      1.0  0.24203  0.36411  0.87584  1.0000
  H   H482      1.0  0.06351  0.62146  0.88054  1.0000
  N   N23       1.0  0.18065  0.49829  0.92538  1.0000
  H   H483      1.0  0.22977  0.44943  0.53902  1.0000
  C   C297      1.0  0.13701  0.65365  0.56094  1.0000
  C   C298      1.0  0.06090  0.61632  0.90125  1.0000
  H   H484      1.0  0.14760  0.61405  0.54361  1.0000
  H   H485      1.0  0.21679  0.39585  0.78263  1.0000
  H   H486      1.0  0.01811  0.57810  0.66039  1.0000
  S   S89       1.0  0.10576  0.54094  0.95174  1.0000
  H   H487      1.0  0.15562  0.58695  0.55298  1.0000
  C   C299      1.0  0.19516  0.48730  0.94684  1.0000
  C   C300      1.0  0.23259  0.44759  0.72901  1.0000
  H   H488      1.0  0.07197  0.54864  0.87238  1.0000
  H   H489      1.0  0.07098  0.54815  0.90839  1.0000
  C   C301      1.0  0.04374  0.60181  0.62761  1.0000
  Fe  Fe50      1.0  0.22513  0.40583  0.61908  1.0000
  H   H490      1.0  0.03629  0.60762  0.85437  1.0000
  H   H491      1.0  0.23010  0.36481  0.75493  1.0000
  H   H492      1.0  0.22902  0.34656  0.51050  1.0000
  C   C302      1.0  0.20951  0.50423  0.47174  1.0000
  H   H493      1.0  0.22900  0.65713  0.85626  1.0000
  C   C303      1.0  0.18962  0.49351  0.89786  1.0000
  S   S90       1.0  0.21118  0.42980  0.65018  1.0000
  C   C304      1.0  0.19293  0.46946  0.88910  1.0000
  H   H494      1.0  0.01846  0.59343  0.91945  1.0000
  C   C305      1.0  0.02082  0.56252  0.96583  1.0000
  S   S91       1.0  0.21714  0.42879  0.58520  1.0000
  H   H495      1.0  0.20747  0.45068  0.75908  1.0000
  C   C306      1.0  0.20200  0.38387  0.54294  1.0000
  C   C307      1.0  0.06093  0.57357  0.65669  1.0000
  N   N24       1.0  0.16772  0.63310  0.59046  1.0000
  H   H496      1.0  0.25582  0.37828  0.81828  1.0000
  C   C308      1.0  0.23668  0.34921  0.61027  1.0000
  H   H497      1.0  0.17839  0.50150  0.88253  1.0000
  C   C309      1.0  0.16057  0.60376  0.55425  1.0000
  H   H498      1.0  0.20551  0.46746  0.87323  1.0000
  H   H499      1.0  0.07574  0.61977  0.91301  1.0000
  H   H500      1.0  0.20527  0.50090  0.89478  1.0000
  H   H501      1.0  0.24716  0.65275  0.76664  1.0000
  H   H502      1.0  0.24621  0.40315  0.55175  1.0000
  H   H503      1.0  0.05412  0.58155  0.67518  1.0000
  H   H504      1.0  0.22111  0.44915  0.71244  1.0000
  C   C310      1.0  0.20579  0.65368  0.82354  1.0000
  H   H505      1.0  0.12358  0.64322  0.55657  1.0000
  H   H506      1.0  0.19959  0.45853  0.90509  1.0000
  H   H507      1.0  0.19645  0.51748  0.47604  1.0000
  C   C311      1.0  0.19261  0.66267  0.57768  1.0000
  H   H508      1.0  0.17810  0.65040  0.62575  1.0000
  H   H509      1.0  0.16547  0.63620  0.81901  1.0000
  C   C312      1.0  0.16294  0.61011  0.58393  1.0000
  H   H510      1.0  0.12331  0.66123  0.67764  1.0000
  H   H511      1.0  0.06252  0.56667  0.83393  1.0000
  C   C313      1.0  0.24061  0.44623  0.52235  1.0000
  C   C314      1.0  0.23176  0.44503  0.49649  1.0000
  H   H512      1.0  0.06006  0.60645  0.62145  1.0000
  C   C315      1.0  0.22494  0.44843  0.75543  1.0000
  S   S92       1.0  0.22885  0.43352  0.94170  1.0000
  C   C316      1.0  0.25515  0.44461  0.72411  1.0000
  C   C317      1.0  0.21853  0.38759  0.52087  1.0000
  H   H513      1.0  0.05641  0.58782  0.92418  1.0000
  H   H514      1.0  0.14489  0.63172  0.64040  1.0000
  S   S93       1.0  0.24011  0.46553  0.62192  1.0000
  C   C318      1.0  0.01807  0.59561  0.71579  1.0000
  N   N25       1.0  0.15698  0.51273  0.69293  1.0000
  C   C319      1.0  0.14258  0.52461  0.71377  1.0000
  C   C320      1.0  0.14206  0.50650  0.67048  1.0000
  C   C321      1.0  0.17265  0.52822  0.68308  1.0000
  C   C322      1.0  0.16933  0.49327  0.70604  1.0000
  C   C323      1.0  0.15470  0.53508  0.73707  1.0000
  C   C324      1.0  0.12522  0.49060  0.67767  1.0000
  C   C325      1.0  0.18288  0.52346  0.65543  1.0000
  C   C326      1.0  0.18259  0.47665  0.68789  1.0000
  H   H515      1.0  0.13136  0.53780  0.70454  1.0000
  H   H516      1.0  0.13168  0.51358  0.72313  1.0000
  H   H517      1.0  0.15133  0.49903  0.65339  1.0000
  H   H518      1.0  0.13278  0.52128  0.66199  1.0000
  H   H519      1.0  0.16425  0.54501  0.68175  1.0000
  H   H520      1.0  0.18654  0.52930  0.69747  1.0000
  H   H521      1.0  0.18143  0.49856  0.72092  1.0000
  H   H522      1.0  0.15827  0.48426  0.71829  1.0000
  H   H523      1.0  0.16493  0.52289  0.74902  1.0000
  H   H524      1.0  0.16477  0.54787  0.73028  1.0000
  H   H525      1.0  0.14228  0.54321  0.75076  1.0000
  H   H526      1.0  0.13325  0.47529  0.68605  1.0000
  H   H527      1.0  0.11254  0.49810  0.69144  1.0000
  H   H528      1.0  0.11644  0.48616  0.65914  1.0000
  H   H529      1.0  0.19547  0.53486  0.65205  1.0000
  H   H530      1.0  0.17042  0.52631  0.63920  1.0000
  H   H531      1.0  0.19122  0.50686  0.65358  1.0000
  H   H532      1.0  0.19964  0.48097  0.68532  1.0000
  H   H533      1.0  0.17495  0.47432  0.66817  1.0000
  H   H534      1.0  0.18340  0.46036  0.69713  1.0000
  H   H535      1.0  0.16836  0.53624  0.89147  1.0000
  H   H536      1.0  0.21901  0.39487  0.81791  1.0000
  H   H537      1.0  0.21893  0.40548  0.51894  1.0000
  H   H538      1.0  0.19202  0.46565  0.55776  1.0000
  Fe  Fe51      1.0  0.20670  0.45371  0.61633  1.0000
  H   H539      1.0  0.04681  0.62638  0.91020  1.0000
  H   H540      1.0  0.21412  0.44676  0.49362  1.0000
  H   H541      1.0  0.20078  0.62796  0.57535  1.0000
  H   H542      1.0  0.23956  0.66374  0.82476  1.0000
  S   S94       1.0  0.25673  0.45839  0.88071  1.0000
  H   H543      1.0  0.19527  0.46941  0.94599  1.0000
  S   S95       1.0  0.14621  0.51152  0.49554  1.0000
  H   H544      1.0  0.16157  0.60595  0.63743  1.0000
  S   S96       1.0  0.03729  0.54281  0.47178  1.0000
  Fe  Fe52      1.0  0.11971  0.53946  0.48954  1.0000
  H   H545      1.0  0.18661  0.39463  0.53942  1.0000
  C   C327      1.0  0.06699  0.54942  0.66372  1.0000
  H   H546      1.0  0.23978  0.40492  0.74975  1.0000
  H   H547      1.0  0.17558  0.52651  0.95154  1.0000
  H   H548      1.0  0.05840  0.58878  0.57806  1.0000
  S   S97       1.0  0.22951  0.44583  0.80995  1.0000
  H   H549      1.0  0.23016  0.39077  0.72120  1.0000
  C   C328      1.0  0.18283  0.64758  0.78423  1.0000
  C   C329      1.0  0.06215  0.58334  0.84251  1.0000
  C   C330      1.0  0.17619  0.63348  0.61893  1.0000
  C   C331      1.0  0.04059  0.58988  0.85733  1.0000
  C   C332      1.0  0.22428  0.38600  0.79931  1.0000
  C   C333      1.0  0.05480  0.56489  0.60953  1.0000
  H   H550      1.0  0.12979  0.67085  0.56051  1.0000
  H   H551      1.0  0.25382  0.35728  0.96376  1.0000
  H   H552      1.0  0.19632  0.52837  0.92739  1.0000
  H   H553      1.0  0.03248  0.60612  0.61056  1.0000
  H   H554      1.0  0.03394  0.63419  0.64330  1.0000
  H   H555      1.0  0.17637  0.60346  0.54361  1.0000
  H   H556      1.0  0.21729  0.37022  0.79956  1.0000
  H   H557      1.0  0.01703  0.61274  0.89365  1.0000
  C   C334      1.0  0.15743  0.49193  0.92719  1.0000
  C   C335      1.0  0.16373  0.53701  0.91277  1.0000
  H   H558      1.0  0.03179  0.55615  0.90892  1.0000
  S   S98       1.0  0.13939  0.65605  0.73248  1.0000
  H   H559      1.0  0.14843  0.49471  0.90789  1.0000
  H   H560      1.0  0.14655  0.53314  0.91480  1.0000
  H   H561      1.0  0.16400  0.55423  0.91933  1.0000
  H   H562      1.0  0.19253  0.65386  0.83855  1.0000
  C   C336      1.0  0.02352  0.57052  0.64110  1.0000
  C   C337      1.0  0.24736  0.34796  0.86870  1.0000
  C   C338      1.0  0.13870  0.66840  0.67947  1.0000
  H   H563      1.0  0.07311  0.56306  0.61061  1.0000
  H   H564      1.0  0.02771  0.58231  0.84568  1.0000
  H   H565      1.0  0.02894  0.55293  0.87381  1.0000
  H   H566      1.0  0.03180  0.57859  0.57769  1.0000
  H   H567      1.0  0.04987  0.54803  0.60953  1.0000
  N   N26       1.0  0.24152  0.37651  0.52456  1.0000
  H   H568      1.0  0.07650  0.58086  0.65323  1.0000
  Fe  Fe53      1.0  0.24548  0.43976  0.65337  1.0000
  H   H569      1.0  0.20804  0.38788  0.56305  1.0000
  H   H570      1.0  0.05276  0.54195  0.67183  1.0000
  H   H571      1.0  0.07986  0.54841  0.67958  1.0000
  S   S99       1.0  0.12926  0.57361  0.48760  1.0000
  H   H572      1.0  0.07688  0.58473  0.85500  1.0000
  H   H573      1.0  0.25073  0.34218  0.68009  1.0000
  H   H574      1.0  0.17802  0.65295  0.76375  1.0000
  Fe  Fe54      1.0  0.25178  0.43649  0.84548  1.0000
  H   H575      1.0  0.25880  0.39386  0.72477  1.0000
  C   C339      1.0  0.24963  0.38389  0.79829  1.0000
  Fe  Fe55      1.0  0.11402  0.57540  0.95118  1.0000
  H   H576      1.0  0.14975  0.66455  0.59851  1.0000
  H   H577      1.0  0.23344  0.63522  0.78663  1.0000
  H   H578      1.0  0.13383  0.64270  0.60063  1.0000
  H   H579      1.0  0.04846  0.61704  0.66701  1.0000
  C   C340      1.0  0.21952  0.49183  0.94678  1.0000
  H   H580      1.0  0.15313  0.63122  0.78733  1.0000
  H   H581      1.0  0.25523  0.38558  0.95879  1.0000
  H   H582      1.0  0.14878  0.65207  0.54442  1.0000
  H   H583      1.0  0.19239  0.63148  0.78126  1.0000
  C   C341      1.0  0.24682  0.36947  0.75114  1.0000
  H   H584      1.0  0.22536  0.51003  0.47828  1.0000
  Fe  Fe56      1.0  0.25141  0.42999  0.90631  1.0000
  H   H585      1.0  0.15885  0.46617  0.95714  1.0000
  H   H586      1.0  0.21076  0.38206  0.50216  1.0000
  C   C342      1.0  0.03601  0.61726  0.65072  1.0000
  C   C343      1.0  0.18576  0.63956  0.57291  1.0000
  H   H587      1.0  0.25413  0.40087  0.79712  1.0000
  C   C344      1.0  0.15000  0.66783  0.70391  1.0000
  H   H588      1.0  0.19746  0.36694  0.54268  1.0000
  H   H589      1.0  0.20056  0.66445  0.59750  1.0000
  C   C345      1.0  0.21499  0.66748  0.77897  1.0000
  C   C346      1.0  0.24559  0.44129  0.47452  1.0000
  C   C347      1.0  0.22448  0.66508  0.83696  1.0000
  C   C348      1.0  0.23070  0.64747  0.77080  1.0000
  H   H590      1.0  0.20496  0.66602  0.56263  1.0000
  H   H591      1.0  0.22172  0.50914  0.95072  1.0000
  H   H592      1.0  0.23724  0.34011  0.80966  1.0000
  C   C349      1.0  0.24620  0.37636  0.47330  1.0000
  N   N27       1.0  0.26047  0.36968  0.77643  1.0000
  H   H593      1.0  0.24267  0.35916  0.47199  1.0000
  H   H594      1.0  0.22830  0.48249  0.96316  1.0000
  H   H595      1.0  0.18858  0.49196  0.96691  1.0000
  C   C350      1.0  0.25910  0.35192  0.61185  1.0000
  S   S100      1.0  0.25962  0.41435  0.62419  1.0000
  C   C351      1.0  0.18909  0.98457  0.40922  1.0000
  H   H596      1.0  0.21609  0.88808  0.20314  1.0000
  H   H597      1.0  0.16009  0.72218  0.28016  1.0000
  H   H598      1.0  0.25069  0.87229  0.00922  1.0000
  S   S101      1.0  0.23575  0.94608  0.02830  1.0000
  H   H599      1.0  0.23400  0.95344  0.25865  1.0000
  Fe  Fe57      1.0  0.25331  0.72807  0.15766  1.0000
  S   S102      1.0  0.22805  0.93378  0.38248  1.0000
  C   C352      1.0  0.15760  0.97957  0.03588  1.0000
  H   H600      1.0  0.23436  0.87188  0.40451  1.0000
  S   S103      1.0  0.22411  0.93552  0.31699  1.0000
  C   C353      1.0  0.24365  0.77206  0.04226  1.0000
  C   C354      1.0  0.18095  0.99193  0.43419  1.0000
  Fe  Fe58      1.0  0.23696  0.91126  0.34792  1.0000
  S   S104      1.0  0.22669  0.87704  0.34746  1.0000
  C   C355      1.0  0.25022  0.80403  0.01408  1.0000
  H   H601      1.0  0.22313  0.99107  0.03861  1.0000
  N   N28       1.0  0.24845  0.88033  0.18610  1.0000
  H   H602      1.0  0.23844  0.95702  0.43014  1.0000
  H   H603      1.0  0.22525  0.90611  0.46516  1.0000
  C   C356      1.0  0.25386  0.85645  0.45169  1.0000
  H   H604      1.0  0.20307  0.97251  0.40817  1.0000
  H   H605      1.0  0.15650  0.96193  0.03242  1.0000
  S   S105      1.0  0.24097  0.72527  0.44237  1.0000
  H   H606      1.0  0.14526  0.98891  0.02290  1.0000
  S   S106      1.0  0.23343  0.72841  0.30944  1.0000
  C   C357      1.0  0.23274  0.89388  0.20412  1.0000
  C   C358      1.0  0.25663  0.83947  0.17254  1.0000
  Fe  Fe59      1.0  0.22895  0.76057  0.12044  1.0000
  H   H607      1.0  0.21745  0.97293  0.07537  1.0000
  S   S107      1.0  0.22021  0.79656  0.11188  1.0000
  Fe  Fe60      1.0  0.21266  0.71538  0.12859  1.0000
  S   S108      1.0  0.24732  0.69952  0.13153  1.0000
  S   S109      1.0  0.18710  0.69080  0.12845  1.0000
  C   C359      1.0  0.25642  0.83980  0.42844  1.0000
  H   H608      1.0  0.20867  0.77106  0.04846  1.0000
  Fe  Fe61      1.0  0.25445  0.72026  0.09693  1.0000
  H   H609      1.0  0.23007  0.81509  0.04882  1.0000
  S   S110      1.0  0.21834  0.74307  0.15675  1.0000
  S   S111      1.0  0.21951  0.73443  0.09189  1.0000
  C   C360      1.0  0.23380  0.94808  0.97390  1.0000
  C   C361      1.0  0.23901  0.89437  0.23405  1.0000
  H   H610      1.0  0.23687  0.78898  0.25740  1.0000
  H   H611      1.0  0.22759  0.80317  0.31013  1.0000
  H   H612      1.0  0.25259  0.78568  0.21266  1.0000
  H   H613      1.0  0.19772  0.86590  0.40956  1.0000
  C   C362      1.0  0.25499  0.78565  0.25574  1.0000
  C   C363      1.0  0.17901  0.99272  0.38572  1.0000
  C   C364      1.0  0.24860  0.85679  0.19373  1.0000
  C   C365      1.0  0.24518  0.72689  0.27753  1.0000
  C   C366      1.0  0.24243  0.82105  0.03550  1.0000
  H   H614      1.0  0.24083  0.90230  0.15334  1.0000
  H   H615      1.0  0.11917  0.67541  0.09564  1.0000
  C   C367      1.0  0.24085  0.73111  0.22943  1.0000
  C   C368      1.0  0.23194  0.73248  0.25515  1.0000
  H   H616      1.0  0.18529  0.69663  0.04210  1.0000
  H   H617      1.0  0.22227  0.89691  0.41695  1.0000
  H   H618      1.0  0.23049  0.73543  0.21234  1.0000
  H   H619      1.0  0.21477  0.73806  0.25767  1.0000
  H   H620      1.0  0.18888  0.68154  0.07187  1.0000
  H   H621      1.0  0.21515  0.86162  0.15614  1.0000
  H   H622      1.0  0.16863  0.71503  0.17489  1.0000
  C   C369      1.0  0.26050  0.79497  0.22865  1.0000
  C   C370      1.0  0.24549  0.71063  0.02386  1.0000
  H   H623      1.0  0.24369  0.84901  0.46667  1.0000
  S   S112      1.0  0.24915  0.75460  0.37714  1.0000
  H   H624      1.0  0.24702  0.80087  0.36932  1.0000
  H   H625      1.0  0.23367  0.71174  0.03976  1.0000
  H   H626      1.0  0.21446  0.88026  0.12915  1.0000
  H   H627      1.0  0.22066  0.68772  0.28160  1.0000
  H   H628      1.0  0.21373  0.78319  0.01807  1.0000
  C   C371      1.0  0.24597  0.85437  0.35314  1.0000
  C   C372      1.0  0.23832  0.83427  0.35863  1.0000
  H   H629      1.0  0.16466  0.68457  0.28660  1.0000
  C   C373      1.0  0.17696  0.68602  0.05558  1.0000
  C   C374      1.0  0.20618  0.86927  0.42872  1.0000
  H   H630      1.0  0.25949  0.77646  0.46370  1.0000
  H   H631      1.0  0.22083  0.83285  0.35879  1.0000
  H   H632      1.0  0.25029  0.75526  0.04765  1.0000
  H   H633      1.0  0.23285  0.89354  0.99290  1.0000
  S   S113      1.0  0.25210  0.97083  0.34927  1.0000
  H   H634      1.0  0.17336  0.00150  0.08344  1.0000
  C   C375      1.0  0.24855  0.95383  0.44773  1.0000
  H   H635      1.0  0.21613  0.94968  0.97620  1.0000
  C   C376      1.0  0.24017  0.81515  0.10750  1.0000
  C   C377      1.0  0.23322  0.83684  0.10117  1.0000
  C   C378      1.0  0.25315  0.81610  0.36454  1.0000
  H   H636      1.0  0.22029  0.99259  0.26283  1.0000
  H   H637      1.0  0.19375  0.69355  0.31694  1.0000
  H   H638      1.0  0.21583  0.84189  0.09912  1.0000
  H   H639      1.0  0.24299  0.86855  0.09203  1.0000
  H   H640      1.0  0.24258  0.83140  0.16408  1.0000
  H   H641      1.0  0.14730  0.68059  0.09587  1.0000
  H   H642      1.0  0.20451  0.88988  0.16067  1.0000
  C   C379      1.0  0.17214  0.68929  0.26780  1.0000
  H   H643      1.0  0.20147  0.97557  0.10490  1.0000
  H   H644      1.0  0.13753  0.00012  0.32418  1.0000
  H   H645      1.0  0.21539  0.67391  0.32672  1.0000
  Fe  Fe62      1.0  0.25848  0.94528  0.31710  1.0000
  C   C380      1.0  0.16411  0.69858  0.17565  1.0000
  H   H646      1.0  0.21055  0.00047  0.99271  1.0000
  C   C381      1.0  0.23734  0.95237  0.21574  1.0000
  C   C382      1.0  0.24532  0.95195  0.24222  1.0000
  C   C383      1.0  0.14633  0.00187  0.30522  1.0000
  C   C384      1.0  0.24064  0.88473  0.15785  1.0000
  H   H647      1.0  0.21980  0.95419  0.21194  1.0000
  H   H648      1.0  0.18948  0.71716  0.28189  1.0000
  C   C385      1.0  0.18102  0.98507  0.02936  1.0000
  H   H649      1.0  0.25181  0.87651  0.14299  1.0000
  C   C386      1.0  0.21734  0.87862  0.15098  1.0000
  H   H650      1.0  0.19462  0.88055  0.44041  1.0000
  C   C387      1.0  0.17145  0.68351  0.15591  1.0000
  N   N29       1.0  0.24421  0.87925  0.44515  1.0000
  C   C388      1.0  0.25000  0.88784  0.99831  1.0000
  S   S114      1.0  0.24102  0.94911  0.16129  1.0000
  H   H651      1.0  0.21926  0.75410  0.02119  1.0000
  C   C389      1.0  0.23825  0.71074  0.99712  1.0000
  H   H652      1.0  0.18133  0.99412  0.26640  1.0000
  C   C390      1.0  0.25067  0.76767  0.97647  1.0000
  H   H653      1.0  0.23064  0.77877  0.32891  1.0000
  H   H654      1.0  0.20942  0.85374  0.43949  1.0000
  C   C391      1.0  0.20258  0.68349  0.23676  1.0000
  Fe  Fe63      1.0  0.21860  0.95900  0.35162  1.0000
  N   N30       1.0  0.18928  0.00360  0.04508  1.0000
  C   C392      1.0  0.23383  0.78574  0.30923  1.0000
  H   H655      1.0  0.20745  0.70009  0.24031  1.0000
  H   H656      1.0  0.16234  0.69608  0.06319  1.0000
  H   H657      1.0  0.24259  0.87789  0.24237  1.0000
  H   H658      1.0  0.19042  0.96337  0.07592  1.0000
  C   C393      1.0  0.22021  0.77001  0.03145  1.0000
  H   H659      1.0  0.23604  0.80292  0.00035  1.0000
  H   H660      1.0  0.22414  0.77697  0.29452  1.0000
  H   H661      1.0  0.25465  0.91047  0.43541  1.0000
  C   C394      1.0  0.17470  0.71381  0.27012  1.0000
  H   H662      1.0  0.15720  0.98661  0.30233  1.0000
  H   H663      1.0  0.24389  0.82298  0.27765  1.0000
  H   H664      1.0  0.17541  0.72110  0.25007  1.0000
  H   H665      1.0  0.18876  0.98540  0.45222  1.0000
  H   H666      1.0  0.22497  0.90260  0.24533  1.0000
  S   S115      1.0  0.24857  0.91611  0.09554  1.0000
  S   S116      1.0  0.18854  0.98348  0.35398  1.0000
  H   H667      1.0  0.19257  0.97004  0.03054  1.0000
  H   H668      1.0  0.22082  0.71197  0.99260  1.0000
  C   C395      1.0  0.22740  0.87984  0.42282  1.0000
  H   H669      1.0  0.24230  0.78055  0.06198  1.0000
  H   H670      1.0  0.23437  0.83576  0.02560  1.0000
  H   H671      1.0  0.19019  0.68503  0.22029  1.0000
  H   H672      1.0  0.15930  0.68731  0.25228  1.0000
  H   H673      1.0  0.18055  0.98860  0.00772  1.0000
  C   C396      1.0  0.25187  0.94997  0.19419  1.0000
  H   H674      1.0  0.25570  0.89996  0.01272  1.0000
  C   C397      1.0  0.24859  0.85200  0.09719  1.0000
  H   H675      1.0  0.15307  0.98278  0.05692  1.0000
  Fe  Fe64      1.0  0.25855  0.93783  0.06327  1.0000
  C   C398      1.0  0.20048  0.97640  0.08279  1.0000
  C   C399      1.0  0.25335  0.70949  0.97619  1.0000
  H   H676      1.0  0.14432  0.70443  0.21083  1.0000
  H   H677      1.0  0.24034  0.83517  0.42106  1.0000
  C   C400      1.0  0.24756  0.94656  0.99649  1.0000
  N   N31       1.0  0.25934  0.78210  0.02428  1.0000
  H   H678      1.0  0.25839  0.76768  0.25406  1.0000
  H   H679      1.0  0.23169  0.85319  0.19901  1.0000
  H   H680      1.0  0.23044  0.91103  0.19735  1.0000
  C   C401      1.0  0.15024  0.69254  0.19595  1.0000
  H   H681      1.0  0.13365  0.00359  0.28917  1.0000
  H   H682      1.0  0.23694  0.85469  0.97376  1.0000
  H   H683      1.0  0.19283  0.99708  0.29867  1.0000
  Fe  Fe65      1.0  0.25700  0.73000  0.34449  1.0000
  C   C402      1.0  0.25874  0.78215  0.30373  1.0000
  C   C403      1.0  0.20978  0.67444  0.28382  1.0000
  N   N32       1.0  0.19283  0.67488  0.26152  1.0000
  C   C404      1.0  0.20123  0.67682  0.31266  1.0000
  H   H684      1.0  0.25339  0.81207  0.22686  1.0000
  C   C405      1.0  0.19003  0.99912  0.07461  1.0000
  H   H685      1.0  0.25634  0.82643  0.04742  1.0000
  H   H686      1.0  0.23367  0.76469  0.98132  1.0000
  H   H687      1.0  0.23032  0.67964  0.20991  1.0000
  H   H688      1.0  0.25304  0.90411  0.23796  1.0000
  C   C406      1.0  0.18909  0.00588  0.27962  1.0000
  H   H689      1.0  0.15928  0.67293  0.02345  1.0000
  C   C407      1.0  0.26113  0.81802  0.28412  1.0000
  H   H690      1.0  0.25877  0.85353  0.21206  1.0000
  Fe  Fe66      1.0  0.26182  0.72833  0.40564  1.0000
  Fe  Fe67      1.0  0.26154  0.93994  0.12456  1.0000
  H   H691      1.0  0.26166  0.82247  0.30571  1.0000
  H   H692      1.0  0.22994  0.84052  0.80263  1.0000
  C   C408      1.0  0.25158  0.94897  0.49579  1.0000
  C   C409      1.0  0.21159  0.98362  0.57874  1.0000
  H   H693      1.0  0.16930  0.95036  0.52943  1.0000
  S   S117      1.0  0.23857  0.94611  0.52654  1.0000
  C   C410      1.0  0.22222  0.87571  0.66640  1.0000
  H   H694      1.0  0.22935  0.84025  0.71609  1.0000
  S   S118      1.0  0.22085  0.92512  0.88493  1.0000
  H   H695      1.0  0.20894  0.77876  0.56439  1.0000
  C   C411      1.0  0.24274  0.94716  0.94823  1.0000
  S   S119      1.0  0.21566  0.92190  0.81963  1.0000
  Fe  Fe68      1.0  0.24982  0.93205  0.81721  1.0000
  H   H696      1.0  0.22938  0.76660  0.82186  1.0000
  Fe  Fe69      1.0  0.22936  0.90026  0.85288  1.0000
  S   S120      1.0  0.22011  0.86602  0.85779  1.0000
  H   H697      1.0  0.25811  0.88088  0.64414  1.0000
  H   H698      1.0  0.20310  0.77742  0.80978  1.0000
  H   H699      1.0  0.22839  0.80533  0.82065  1.0000
  H   H700      1.0  0.22588  0.90632  0.64550  1.0000
  H   H701      1.0  0.22094  0.95520  0.47415  1.0000
  S   S121      1.0  0.24917  0.74410  0.88014  1.0000
  S   S122      1.0  0.23935  0.94915  0.65902  1.0000
  C   C412      1.0  0.23297  0.88939  0.46957  1.0000
  S   S123      1.0  0.24324  0.70998  0.94297  1.0000
  H   H702      1.0  0.24367  0.81768  0.53226  1.0000
  S   S124      1.0  0.23523  0.71932  0.81107  1.0000
  H   H703      1.0  0.14571  0.00374  0.87154  1.0000
  H   H704      1.0  0.24389  0.75877  0.55220  1.0000
  Fe  Fe70      1.0  0.22747  0.76262  0.62632  1.0000
  H   H705      1.0  0.22234  0.76448  0.78682  1.0000
  S   S125      1.0  0.22016  0.79916  0.62076  1.0000
  Fe  Fe71      1.0  0.20778  0.71886  0.63156  1.0000
  S   S126      1.0  0.24113  0.69993  0.63134  1.0000
  S   S127      1.0  0.17678  0.70107  0.63118  1.0000
  Fe  Fe72      1.0  0.25056  0.72614  0.65945  1.0000
  H   H706      1.0  0.23770  0.79223  0.49943  1.0000
  Fe  Fe73      1.0  0.24916  0.72212  0.59838  1.0000
  C   C413      1.0  0.24803  0.94452  0.69250  1.0000
  S   S128      1.0  0.21681  0.74406  0.66158  1.0000
  S   S129      1.0  0.21514  0.73916  0.59621  1.0000
  C   C414      1.0  0.16672  0.68871  0.65967  1.0000
  H   H707      1.0  0.15451  0.97498  0.80136  1.0000
  H   H708      1.0  0.22677  0.94494  0.75543  1.0000
  C   C415      1.0  0.23248  0.94698  0.71301  1.0000
  H   H709      1.0  0.21643  0.80366  0.55218  1.0000
  H   H710      1.0  0.25315  0.87955  0.74959  1.0000
  C   C416      1.0  0.24324  0.88474  0.93234  1.0000
  H   H711      1.0  0.15222  0.99771  0.51757  1.0000
  C   C417      1.0  0.18370  0.68470  0.80397  1.0000
  C   C418      1.0  0.24619  0.71848  0.77870  1.0000
  H   H712      1.0  0.22595  0.98434  0.56570  1.0000
  C   C419      1.0  0.19119  0.97796  0.56278  1.0000
  C   C420      1.0  0.24567  0.83974  0.79173  1.0000
  C   C421      1.0  0.24011  0.72046  0.73059  1.0000
  C   C422      1.0  0.23184  0.72060  0.75661  1.0000
  H   H713      1.0  0.23208  0.00077  0.52023  1.0000
  H   H714      1.0  0.21691  0.80709  0.78804  1.0000
  H   H715      1.0  0.22893  0.72221  0.71371  1.0000
  H   H716      1.0  0.21428  0.72266  0.75961  1.0000
  C   C423      1.0  0.22933  0.79740  0.80061  1.0000
  S   S130      1.0  0.18025  0.97174  0.85411  1.0000
  H   H717      1.0  0.19390  0.98439  0.94958  1.0000
  H   H718      1.0  0.20812  0.67440  0.75994  1.0000
  C   C424      1.0  0.15640  0.99967  0.88846  1.0000
  Fe  Fe74      1.0  0.21064  0.94783  0.85167  1.0000
  C   C425      1.0  0.16345  0.96413  0.51642  1.0000
  H   H719      1.0  0.24227  0.87657  0.91248  1.0000
  H   H720      1.0  0.22822  0.71967  0.53813  1.0000
  C   C426      1.0  0.21961  0.89032  0.94244  1.0000
  H   H721      1.0  0.17859  0.97464  0.57765  1.0000
  H   H722      1.0  0.19460  0.69665  0.81206  1.0000
  C   C427      1.0  0.24050  0.84465  0.86478  1.0000
  C   C428      1.0  0.23414  0.82386  0.86927  1.0000
  C   C429      1.0  0.24999  0.80626  0.87402  1.0000
  H   H723      1.0  0.20860  0.99862  0.59097  1.0000
  H   H724      1.0  0.21941  0.68242  0.84153  1.0000
  H   H725      1.0  0.13109  0.98924  0.81640  1.0000
  H   H726      1.0  0.21688  0.82131  0.86886  1.0000
  H   H727      1.0  0.24486  0.79033  0.87733  1.0000
  H   H728      1.0  0.20438  0.98009  0.51343  1.0000
  C   C430      1.0  0.18343  0.98880  0.93256  1.0000
  H   H729      1.0  0.20269  0.96764  0.90541  1.0000
  H   H730      1.0  0.19634  0.96215  0.55284  1.0000
  H   H731      1.0  0.18785  0.00307  0.50219  1.0000
  C   C431      1.0  0.24059  0.81658  0.61377  1.0000
  C   C432      1.0  0.23407  0.83768  0.60481  1.0000
  H   H732      1.0  0.23815  0.89982  0.70741  1.0000
  H   H733      1.0  0.20862  0.86979  0.67792  1.0000
  C   C433      1.0  0.19253  0.99619  0.79190  1.0000
  H   H734      1.0  0.21677  0.84278  0.60185  1.0000
  H   H735      1.0  0.24444  0.86843  0.59275  1.0000
  C   C434      1.0  0.25136  0.79686  0.75928  1.0000
  H   H736      1.0  0.16310  0.99545  0.75285  1.0000
  H   H737      1.0  0.13422  0.99090  0.78121  1.0000
  H   H738      1.0  0.25195  0.84102  0.66126  1.0000
  C   C435      1.0  0.24979  0.84755  0.68196  1.0000
  N   N33       1.0  0.18151  0.99435  0.54276  1.0000
  H   H739      1.0  0.14871  0.98447  0.54798  1.0000
  C   C436      1.0  0.23314  0.83429  0.69559  1.0000
  H   H740      1.0  0.22276  0.86639  0.64723  1.0000
  C   C437      1.0  0.24328  0.77684  0.55295  1.0000
  C   C438      1.0  0.17816  0.68794  0.68403  1.0000
  N   N34       1.0  0.25932  0.78476  0.53353  1.0000
  H   H741      1.0  0.25322  0.77405  0.72570  1.0000
  C   C439      1.0  0.23885  0.94311  0.73980  1.0000
  Fe  Fe75      1.0  0.25441  0.93548  0.87840  1.0000
  C   C440      1.0  0.21896  0.78582  0.54907  1.0000
  C   C441      1.0  0.22081  0.77507  0.80471  1.0000
  C   C442      1.0  0.24999  0.72094  0.47572  1.0000
  H   H742      1.0  0.21216  0.78121  0.52943  1.0000
  H   H743      1.0  0.23714  0.89694  0.51172  1.0000
  H   H744      1.0  0.21257  0.91015  0.67749  1.0000
  S   S131      1.0  0.24386  0.95980  0.84669  1.0000
  C   C443      1.0  0.25123  0.77989  0.50566  1.0000
  H   H745      1.0  0.23167  0.84375  0.92466  1.0000
  C   C444      1.0  0.19705  0.99641  0.52002  1.0000
  H   H746      1.0  0.16140  0.71104  0.78801  1.0000
  C   C445      1.0  0.14337  0.99020  0.80044  1.0000
  C   C446      1.0  0.24056  0.71894  0.52281  1.0000
  H   H747      1.0  0.21543  0.95181  0.70814  1.0000
  N   N35       1.0  0.24388  0.87181  0.68130  1.0000
  C   C447      1.0  0.21461  0.89954  0.65954  1.0000
  C   C448      1.0  0.24974  0.85229  0.59974  1.0000
  H   H748      1.0  0.19711  0.99550  0.81340  1.0000
  H   H749      1.0  0.21778  0.83404  0.68358  1.0000
  H   H750      1.0  0.17856  0.67744  0.72483  1.0000
  H   H751      1.0  0.22552  0.87755  0.71819  1.0000
  H   H752      1.0  0.18728  0.97988  0.78704  1.0000
  H   H753      1.0  0.23639  0.82232  0.94805  1.0000
  H   H754      1.0  0.22627  0.98452  0.78263  1.0000
  H   H755      1.0  0.21790  0.90649  0.95251  1.0000
  S   S132      1.0  0.24891  0.91578  0.59414  1.0000
  H   H756      1.0  0.24764  0.78098  0.57384  1.0000
  H   H757      1.0  0.21376  0.87815  0.95577  1.0000
  H   H758      1.0  0.15880  0.68590  0.77124  1.0000
  C   C449      1.0  0.24087  0.88184  0.70877  1.0000
  H   H759      1.0  0.24028  0.81710  0.69698  1.0000
  H   H760      1.0  0.21693  0.72444  0.49066  1.0000
  H   H761      1.0  0.17858  0.67533  0.57538  1.0000
  H   H762      1.0  0.14713  0.96065  0.50836  1.0000
  H   H763      1.0  0.17168  0.68282  0.82003  1.0000
  H   H764      1.0  0.23875  0.80948  0.75155  1.0000
  C   C450      1.0  0.17477  0.98434  0.88548  1.0000
  H   H765      1.0  0.19831  0.90023  0.64936  1.0000
  Fe  Fe76      1.0  0.25873  0.72146  0.84599  1.0000
  H   H766      1.0  0.21127  0.99547  0.75444  1.0000
  H   H767      1.0  0.19341  0.69536  0.68594  1.0000
  C   C451      1.0  0.24765  0.89100  0.49472  1.0000
  C   C452      1.0  0.23420  0.72162  0.49589  1.0000
  C   C453      1.0  0.17089  0.69602  0.78046  1.0000
  H   H768      1.0  0.23196  0.94840  0.93104  1.0000
  C   C454      1.0  0.16494  0.00392  0.93565  1.0000
  H   H769      1.0  0.21935  0.88000  0.47580  1.0000
  H   H770      1.0  0.17433  0.96465  0.49898  1.0000
  C   C455      1.0  0.18841  0.97919  0.90755  1.0000
  C   C456      1.0  0.24410  0.83575  0.93858  1.0000
  H   H771      1.0  0.18197  0.70120  0.76501  1.0000
  H   H772      1.0  0.25832  0.82807  0.92727  1.0000
  H   H773      1.0  0.25968  0.90028  0.67018  1.0000
  C   C457      1.0  0.16072  0.98604  0.53176  1.0000
  N   N36       1.0  0.25940  0.87218  0.95075  1.0000
  C   C458      1.0  0.25986  0.87754  0.72913  1.0000
  H   H774      1.0  0.20804  0.89089  0.92511  1.0000
  H   H775      1.0  0.22788  0.77480  0.74381  1.0000
  C   C459      1.0  0.16972  0.67771  0.70608  1.0000
  H   H776      1.0  0.24919  0.90062  0.92738  1.0000
  H   H777      1.0  0.21628  0.97029  0.59299  1.0000
  C   C460      1.0  0.25121  0.85149  0.96043  1.0000
  H   H778      1.0  0.24394  0.76408  0.50511  1.0000
  C   C461      1.0  0.21381  0.99782  0.77618  1.0000
  C   C462      1.0  0.25973  0.80887  0.53802  1.0000
  C   C463      1.0  0.14689  0.67903  0.65761  1.0000
  H   H779      1.0  0.22490  0.68030  0.78680  1.0000
  H   H780      1.0  0.25402  0.85397  0.79884  1.0000
  H   H781      1.0  0.25329  0.76088  0.75627  1.0000
  C   C464      1.0  0.24591  0.77546  0.74589  1.0000
  C   C465      1.0  0.23867  0.95298  0.47275  1.0000
  H   H782      1.0  0.25689  0.75458  0.96232  1.0000
  H   H783      1.0  0.13759  0.68002  0.63913  1.0000
  H   H784      1.0  0.25620  0.87508  0.50047  1.0000
  H   H785      1.0  0.24240  0.84187  0.77012  1.0000
  N   N37       1.0  0.25211  0.79763  0.78934  1.0000
  H   H786      1.0  0.25077  0.78310  0.96547  1.0000
  Fe  Fe77      1.0  0.26016  0.93739  0.56248  1.0000
  C   C466      1.0  0.26075  0.81878  0.79777  1.0000
  H   H787      1.0  0.25978  0.90298  0.49245  1.0000
  H   H788      1.0  0.26161  0.76331  0.79763  1.0000
  Fe  Fe78      1.0  0.26127  0.93955  0.62368  1.0000
  C   C467      1.0  0.26092  0.93707  0.74629  1.0000
  H   H789      1.0  0.26126  0.81294  0.55959  1.0000
  C   C468      1.0  0.26098  0.88248  0.66603  1.0000
  S   S133      1.0  0.26182  0.74658  0.62664  1.0000
  Fe  Fe79      1.0  0.42699  0.09857  0.23735  1.0000
  S   S134      1.0  0.46081  0.10960  0.24465  1.0000
  Fe  Fe80      1.0  0.37885  0.11312  0.22460  1.0000
  S   S135      1.0  0.36946  0.07890  0.22421  1.0000
  S   S136      1.0  0.35158  0.14015  0.21845  1.0000
  Fe  Fe81      1.0  0.39090  0.07449  0.26101  1.0000
  H   H790      1.0  0.34985  0.11648  0.10427  1.0000
  S   S137      1.0  0.39805  0.10934  0.26332  1.0000
  S   S138      1.0  0.40852  0.10603  0.19902  1.0000
  H   H791      1.0  0.50836  0.06892  0.39665  1.0000
  H   H792      1.0  0.26854  0.29300  0.97812  1.0000
  S   S139      1.0  0.28488  0.28653  0.08774  1.0000
  Fe  Fe82      1.0  0.29889  0.20549  0.10029  1.0000
  H   H793      1.0  0.38333  0.15197  0.03979  1.0000
  S   S140      1.0  0.33059  0.18379  0.10572  1.0000
  H   H794      1.0  0.32818  0.17506  0.04312  1.0000
  S   S141      1.0  0.37629  0.06150  0.98751  1.0000
  N   N38       1.0  0.27561  0.29439  0.43344  1.0000
  S   S142      1.0  0.42099  0.06346  0.23737  1.0000
  S   S143      1.0  0.29243  0.22584  0.06355  1.0000
  S   S144      1.0  0.28735  0.23251  0.12850  1.0000
  H   H795      1.0  0.42687  0.09292  0.41237  1.0000
  H   H796      1.0  0.49780  0.10257  0.16706  1.0000
  H   H797      1.0  0.30410  0.25321  0.39502  1.0000
  H   H798      1.0  0.30561  0.31051  0.43396  1.0000
  C   C469      1.0  0.38070  0.05653  0.37695  1.0000
  H   H799      1.0  0.34640  0.04745  0.42213  1.0000
  H   H800      1.0  0.37336  0.01632  0.04123  1.0000
  C   C470      1.0  0.34828  0.02557  0.16087  1.0000
  H   H801      1.0  0.47174  0.08577  0.40450  1.0000
  C   C471      1.0  0.48146  0.07062  0.22659  1.0000
  H   H802      1.0  0.48054  0.09123  0.37197  1.0000
  H   H803      1.0  0.30523  0.12241  0.07359  1.0000
  H   H804      1.0  0.29059  0.31996  0.34271  1.0000
  C   C472      1.0  0.27382  0.32464  0.34865  1.0000
  C   C473      1.0  0.49418  0.06085  0.38866  1.0000
  C   C474      1.0  0.31966  0.14193  0.03212  1.0000
  C   C475      1.0  0.27783  0.21768  0.46166  1.0000
  C   C476      1.0  0.29513  0.28813  0.16560  1.0000
  C   C477      1.0  0.51021  0.05497  0.45744  1.0000
  H   H805      1.0  0.49797  0.04033  0.21244  1.0000
  H   H806      1.0  0.31823  0.05649  0.42998  1.0000
  C   C478      1.0  0.29617  0.27004  0.39773  1.0000
  C   C479      1.0  0.33034  0.04199  0.42783  1.0000
  H   H807      1.0  0.40554  0.03050  0.11208  1.0000
  H   H808      1.0  0.36379  0.02897  0.17120  1.0000
  H   H809      1.0  0.34088  0.11302  0.30663  1.0000
  H   H810      1.0  0.50285  0.07800  0.29512  1.0000
  H   H811      1.0  0.30371  0.13493  0.02931  1.0000
  C   C480      1.0  0.26292  0.21793  0.44004  1.0000
  H   H812      1.0  0.29064  0.27861  0.14786  1.0000
  H   H813      1.0  0.29255  0.21895  0.22297  1.0000
  C   C481      1.0  0.35518  0.13901  0.05729  1.0000
  H   H814      1.0  0.48917  0.10290  0.30825  1.0000
  H   H815      1.0  0.46605  0.06392  0.22926  1.0000
  H   H816      1.0  0.37482  0.11086  0.36568  1.0000
  H   H817      1.0  0.31631  0.12501  0.32132  1.0000
  C   C482      1.0  0.37868  0.08613  0.33485  1.0000
  S   S145      1.0  0.39809  0.09216  0.05060  1.0000
  C   C483      1.0  0.34564  0.15141  0.18663  1.0000
  C   C484      1.0  0.35917  0.14604  0.16477  1.0000
  C   C485      1.0  0.35438  0.15603  0.14002  1.0000
  C   C486      1.0  0.33589  0.17120  0.13687  1.0000
  C   C487      1.0  0.32209  0.17618  0.15854  1.0000
  C   C488      1.0  0.32705  0.16644  0.18336  1.0000
  H   H818      1.0  0.37354  0.13453  0.16704  1.0000
  H   H819      1.0  0.36518  0.15217  0.12337  1.0000
  H   H820      1.0  0.30780  0.18781  0.15631  1.0000
  H   H821      1.0  0.31651  0.17073  0.20011  1.0000
  C   C489      1.0  0.39586  0.08365  0.13036  1.0000
  C   C490      1.0  0.39518  0.09295  0.10495  1.0000
  H   H822      1.0  0.39344  0.09397  0.14778  1.0000
  H   H823      1.0  0.39266  0.11042  0.10311  1.0000
  H   H824      1.0  0.32336  0.11341  0.11700  1.0000
  H   H825      1.0  0.37821  0.09761  0.31875  1.0000
  H   H826      1.0  0.28569  0.18222  0.29770  1.0000
  S   S146      1.0  0.37672  0.08886  0.41577  1.0000
  C   C491      1.0  0.39806  0.07979  0.08204  1.0000
  H   H827      1.0  0.29525  0.21711  0.45791  1.0000
  C   C492      1.0  0.40142  0.05723  0.08470  1.0000
  C   C493      1.0  0.39986  0.06114  0.13309  1.0000
  S   S147      1.0  0.40267  0.04915  0.16478  1.0000
  H   H828      1.0  0.29277  0.02128  0.44614  1.0000
  H   H829      1.0  0.44429  0.08446  0.07270  1.0000
  Fe  Fe83      1.0  0.40036  0.07156  0.20080  1.0000
  Fe  Fe84      1.0  0.40389  0.07077  0.01401  1.0000
  C   C494      1.0  0.49360  0.09831  0.45187  1.0000
  S   S148      1.0  0.38314  0.05369  0.29608  1.0000
  C   C495      1.0  0.40245  0.04794  0.11017  1.0000
  H   H830      1.0  0.32402  0.00943  0.35345  1.0000
  H   H831      1.0  0.33518  0.03615  0.17120  1.0000
  H   H832      1.0  0.50177  0.07801  0.11270  1.0000
  C   C496      1.0  0.32208  0.02641  0.40635  1.0000
  H   H833      1.0  0.38356  0.03182  0.34605  1.0000
  H   H834      1.0  0.37375  0.13049  0.02038  1.0000
  N   N39       1.0  0.33424  0.12868  0.05159  1.0000
  H   H835      1.0  0.38165  0.04502  0.39305  1.0000
  Fe  Fe85      1.0  0.39066  0.06816  0.45012  1.0000
  H   H836      1.0  0.34852  0.10750  0.02027  1.0000
  H   H837      1.0  0.45448  0.02332  0.40881  1.0000
  H   H838      1.0  0.30331  0.16759  0.05810  1.0000
  Fe  Fe86      1.0  0.39598  0.02884  0.98606  1.0000
  H   H839      1.0  0.33232  0.03481  0.44790  1.0000
  H   H840      1.0  0.28161  0.13406  0.30681  1.0000
  H   H841      1.0  0.30504  0.27248  0.43929  1.0000
  C   C497      1.0  0.49964  0.05722  0.21716  1.0000
  H   H842      1.0  0.33285  0.00830  0.97574  1.0000
  C   C498      1.0  0.48752  0.06069  0.46027  1.0000
  H   H843      1.0  0.32912  0.03140  0.38733  1.0000
  H   H844      1.0  0.30365  0.17413  0.02369  1.0000
  C   C499      1.0  0.26620  0.21638  0.19452  1.0000
  C   C500      1.0  0.28856  0.31285  0.42557  1.0000
  S   S149      1.0  0.42260  0.03770  0.01444  1.0000
  C   C501      1.0  0.38177  0.04909  0.35032  1.0000
  C   C502      1.0  0.37682  0.09358  0.36145  1.0000
  H   H845      1.0  0.49051  0.04900  0.40396  1.0000
  N   N40       1.0  0.47180  0.07663  0.13467  1.0000
  C   C503      1.0  0.48037  0.05507  0.14653  1.0000
  H   H846      1.0  0.46981  0.02732  0.37991  1.0000
  C   C504      1.0  0.45855  0.07195  0.10995  1.0000
  C   C505      1.0  0.45756  0.08906  0.15517  1.0000
  C   C506      1.0  0.46284  0.04006  0.15446  1.0000
  H   H847      1.0  0.28169  0.26935  0.19571  1.0000
  C   C507      1.0  0.45538  0.08981  0.08868  1.0000
  C   C508      1.0  0.44927  0.11284  0.14894  1.0000
  H   H848      1.0  0.26800  0.25710  0.99022  1.0000
  H   H849      1.0  0.46849  0.09030  0.97457  1.0000
  H   H850      1.0  0.48681  0.10355  0.11699  1.0000
  H   H851      1.0  0.49184  0.04568  0.13255  1.0000
  H   H852      1.0  0.46611  0.05722  0.09923  1.0000
  H   H853      1.0  0.44186  0.06808  0.11540  1.0000
  H   H854      1.0  0.44246  0.08085  0.15857  1.0000
  H   H855      1.0  0.46565  0.08869  0.17521  1.0000
  H   H856      1.0  0.47126  0.02431  0.16122  1.0000
  H   H857      1.0  0.45294  0.04688  0.17152  1.0000
  H   H858      1.0  0.45180  0.03640  0.13763  1.0000
  H   H859      1.0  0.44144  0.02140  0.37731  1.0000
  C   C509      1.0  0.34017  0.10640  0.03969  1.0000
  C   C510      1.0  0.27029  0.32884  0.09853  1.0000
  S   S150      1.0  0.26663  0.19109  0.09765  1.0000
  H   H860      1.0  0.47103  0.09230  0.07880  1.0000
  H   H861      1.0  0.44755  0.10538  0.09665  1.0000
  H   H862      1.0  0.43300  0.11379  0.13865  1.0000
  H   H863      1.0  0.46066  0.12156  0.13723  1.0000
  H   H864      1.0  0.44738  0.12219  0.16799  1.0000
  C   C511      1.0  0.33331  0.11200  0.09858  1.0000
  H   H865      1.0  0.40347  0.04691  0.06719  1.0000
  H   H866      1.0  0.35980  0.00740  0.42828  1.0000
  H   H867      1.0  0.29638  0.30519  0.15975  1.0000
  H   H868      1.0  0.35893  0.15738  0.02022  1.0000
  H   H869      1.0  0.33452  0.09473  0.09210  1.0000
  H   H870      1.0  0.32766  0.07634  0.02667  1.0000
  H   H871      1.0  0.29038  0.31336  0.40352  1.0000
  H   H872      1.0  0.50528  0.11770  0.23410  1.0000
  C   C512      1.0  0.36822  0.14493  0.03273  1.0000
  C   C513      1.0  0.49153  0.08807  0.12734  1.0000
  H   H873      1.0  0.31936  0.14353  0.08712  1.0000
  C   C514      1.0  0.28958  0.27352  0.42714  1.0000
  C   C515      1.0  0.31360  0.16597  0.04002  1.0000
  H   H874      1.0  0.32710  0.14144  0.01196  1.0000
  H   H875      1.0  0.27595  0.15283  0.33348  1.0000
  C   C516      1.0  0.48338  0.09246  0.23269  1.0000
  C   C517      1.0  0.32203  0.12730  0.07734  1.0000
  C   C518      1.0  0.38100  0.06383  0.32917  1.0000
  C   C519      1.0  0.27916  0.28650  0.18891  1.0000
  S   S151      1.0  0.46989  0.03992  0.46490  1.0000
  H   H876      1.0  0.36675  0.12810  0.06944  1.0000
  H   H877      1.0  0.35200  0.15397  0.06968  1.0000
  H   H878      1.0  0.31173  0.08971  0.05263  1.0000
  H   H879      1.0  0.31187  0.28136  0.17196  1.0000
  C   C520      1.0  0.47934  0.08252  0.45785  1.0000
  H   H880      1.0  0.35229  0.09672  0.05258  1.0000
  C   C521      1.0  0.34892  0.03421  0.13220  1.0000
  H   H881      1.0  0.49016  0.05742  0.16491  1.0000
  N   N41       1.0  0.45389  0.07067  0.37298  1.0000
  C   C522      1.0  0.43747  0.09045  0.37018  1.0000
  C   C523      1.0  0.45836  0.06163  0.34526  1.0000
  C   C524      1.0  0.47473  0.07827  0.38454  1.0000
  C   C525      1.0  0.44451  0.05483  0.39134  1.0000
  C   C526      1.0  0.43162  0.10340  0.39610  1.0000
  C   C527      1.0  0.43817  0.05493  0.32961  1.0000
  H   H882      1.0  0.35088  0.05188  0.13314  1.0000
  H   H883      1.0  0.30831  0.28118  0.39169  1.0000
  H   H884      1.0  0.44322  0.10204  0.35559  1.0000
  H   H885      1.0  0.42163  0.08577  0.36201  1.0000
  H   H886      1.0  0.47068  0.04729  0.34526  1.0000
  H   H887      1.0  0.46580  0.07376  0.33289  1.0000
  H   H888      1.0  0.28152  0.25905  0.43282  1.0000
  H   H889      1.0  0.26201  0.29480  0.33434  1.0000
  H   H890      1.0  0.44684  0.05973  0.41259  1.0000
  H   H891      1.0  0.42639  0.05537  0.38821  1.0000
  H   H892      1.0  0.41718  0.11535  0.39211  1.0000
  H   H893      1.0  0.44516  0.11287  0.40299  1.0000
  H   H894      1.0  0.42803  0.04494  0.34160  1.0000
  H   H895      1.0  0.42781  0.06936  0.32203  1.0000
  H   H896      1.0  0.44369  0.04514  0.31178  1.0000
  C   C528      1.0  0.37818  0.07883  0.38261  1.0000
  H   H897      1.0  0.28428  0.17185  0.22982  1.0000
  S   S152      1.0  0.40800  0.03476  0.44560  1.0000
  H   H898      1.0  0.26810  0.14975  0.23359  1.0000
  H   H899      1.0  0.28724  0.33202  0.09609  1.0000
  C   C529      1.0  0.50541  0.09457  0.30257  1.0000
  N   N42       1.0  0.30978  0.15873  0.27992  1.0000
  C   C530      1.0  0.31842  0.17815  0.26719  1.0000
  C   C531      1.0  0.29785  0.14714  0.25833  1.0000
  C   C532      1.0  0.32943  0.14415  0.28964  1.0000
  C   C533      1.0  0.29514  0.16651  0.30283  1.0000
  C   C534      1.0  0.33198  0.19223  0.28543  1.0000
  H   H900      1.0  0.28174  0.27178  0.38415  1.0000
  C   C535      1.0  0.32489  0.12244  0.30205  1.0000
  H   H901      1.0  0.30934  0.01175  0.16274  1.0000
  H   H902      1.0  0.32876  0.17308  0.24968  1.0000
  H   H903      1.0  0.30479  0.18942  0.25913  1.0000
  H   H904      1.0  0.29139  0.13228  0.26562  1.0000
  H   H905      1.0  0.30945  0.14118  0.24232  1.0000
  H   H906      1.0  0.34117  0.14022  0.27310  1.0000
  H   H907      1.0  0.33872  0.15249  0.30523  1.0000
  H   H908      1.0  0.30519  0.17005  0.32076  1.0000
  H   H909      1.0  0.33360  0.03217  0.12080  1.0000
  H   H910      1.0  0.34830  0.18377  0.29056  1.0000
  H   H911      1.0  0.33514  0.20706  0.27442  1.0000
  H   H912      1.0  0.32304  0.19781  0.30373  1.0000
  H   H913      1.0  0.36318  0.02647  0.12105  1.0000
  C   C536      1.0  0.27778  0.15148  0.31149  1.0000
  C   C537      1.0  0.45334  0.03058  0.38861  1.0000
  H   H914      1.0  0.31603  0.11208  0.28831  1.0000
  C   C538      1.0  0.27838  0.16074  0.24471  1.0000
  H   H915      1.0  0.30404  0.03028  0.40333  1.0000
  C   C539      1.0  0.27505  0.21815  0.22031  1.0000
  H   H916      1.0  0.28416  0.20909  0.00586  1.0000
  S   S153      1.0  0.42263  0.08283  0.98002  1.0000
  H   H917      1.0  0.48703  0.11508  0.44954  1.0000
  H   H918      1.0  0.27777  0.33115  0.19061  1.0000
  Fe  Fe87      1.0  0.27751  0.25161  0.09173  1.0000
  C   C540      1.0  0.27890  0.33590  0.43397  1.0000
  S   S154      1.0  0.27307  0.22253  0.27443  1.0000
  C   C541      1.0  0.50681  0.09361  0.15065  1.0000
  C   C542      1.0  0.26438  0.30764  0.09521  1.0000
  C   C543      1.0  0.27292  0.20858  0.98909  1.0000
  C   C544      1.0  0.32090  0.09255  0.03432  1.0000
  C   C545      1.0  0.27143  0.29623  0.46306  1.0000
  H   H919      1.0  0.28507  0.29629  0.20583  1.0000
  H   H920      1.0  0.27694  0.21551  0.17762  1.0000
  H   H921      1.0  0.33357  0.02481  0.21357  1.0000
  S   S155      1.0  0.27303  0.21726  0.40708  1.0000
  Fe  Fe88      1.0  0.43949  0.04913  0.97826  1.0000
  H   H922      1.0  0.49962  0.05243  0.36995  1.0000
  C   C546      1.0  0.50368  0.10079  0.22944  1.0000
  S   S156      1.0  0.47632  0.04292  0.97124  1.0000
  H   H923      1.0  0.46197  0.08721  0.45995  1.0000
  H   H924      1.0  0.50995  0.06420  0.06385  1.0000
  H   H925      1.0  0.30950  0.09974  0.01873  1.0000
  H   H926      1.0  0.27823  0.33795  0.45592  1.0000
  H   H927      1.0  0.50299  0.05323  0.03170  1.0000
  H   H928      1.0  0.26768  0.17035  0.25910  1.0000
  H   H929      1.0  0.51067  0.10428  0.28597  1.0000
  H   H930      1.0  0.38933  0.00651  0.14877  1.0000
  C   C547      1.0  0.33164  0.00719  0.21206  1.0000
  Fe  Fe89      1.0  0.43280  0.10744  0.73135  1.0000
  S   S157      1.0  0.46670  0.11918  0.73434  1.0000
  Fe  Fe90      1.0  0.38374  0.11946  0.72172  1.0000
  S   S158      1.0  0.37605  0.08471  0.72403  1.0000
  S   S159      1.0  0.35561  0.14573  0.71603  1.0000
  Fe  Fe91      1.0  0.39919  0.08275  0.75960  1.0000
  H   H931      1.0  0.47634  0.03039  0.66452  1.0000
  S   S160      1.0  0.40493  0.11802  0.75907  1.0000
  S   S161      1.0  0.41218  0.11271  0.69417  1.0000
  H   H932      1.0  0.38840  0.15762  0.53168  1.0000
  H   H933      1.0  0.33467  0.01418  0.60083  1.0000
  S   S162      1.0  0.28865  0.29123  0.59807  1.0000
  Fe  Fe92      1.0  0.29747  0.20854  0.59931  1.0000
  H   H934      1.0  0.46851  0.04572  0.86015  1.0000
  S   S163      1.0  0.32713  0.18351  0.60197  1.0000
  H   H935      1.0  0.27976  0.02644  0.94198  1.0000
  H   H936      1.0  0.36236  0.06331  0.60884  1.0000
  N   N43       1.0  0.26244  0.28285  0.93749  1.0000
  H   H937      1.0  0.28586  0.30213  0.47375  1.0000
  S   S164      1.0  0.29248  0.23209  0.56522  1.0000
  S   S165      1.0  0.28828  0.23394  0.63058  1.0000
  H   H938      1.0  0.50262  0.04801  0.70687  1.0000
  H   H939      1.0  0.39475  0.04898  0.89242  1.0000
  H   H940      1.0  0.36053  0.05472  0.56196  1.0000
  H   H941      1.0  0.30914  0.18614  0.50601  1.0000
  H   H942      1.0  0.29910  0.30944  0.93455  1.0000
  C   C548      1.0  0.28250  0.31790  0.93783  1.0000
  C   C549      1.0  0.26629  0.20916  0.94089  1.0000
  C   C550      1.0  0.27595  0.32125  0.85309  1.0000
  C   C551      1.0  0.45881  0.05146  0.87793  1.0000
  C   C552      1.0  0.40747  0.05903  0.58334  1.0000
  H   H943      1.0  0.32524  0.17076  0.74903  1.0000
  C   C553      1.0  0.32605  0.19112  0.50571  1.0000
  H   H944      1.0  0.29292  0.31687  0.84780  1.0000
  H   H945      1.0  0.33820  0.03860  0.56534  1.0000
  S   S166      1.0  0.39538  0.06214  0.79628  1.0000
  H   H946      1.0  0.29802  0.21081  0.95968  1.0000
  H   H947      1.0  0.29215  0.33626  0.60924  1.0000
  H   H948      1.0  0.27604  0.21080  0.67792  1.0000
  H   H949      1.0  0.50956  0.06571  0.59443  1.0000
  H   H950      1.0  0.46152  0.10895  0.59802  1.0000
  H   H951      1.0  0.45660  0.04406  0.64275  1.0000
  C   C554      1.0  0.26832  0.31331  0.60225  1.0000
  N   N44       1.0  0.48614  0.07533  0.62563  1.0000
  H   H952      1.0  0.49445  0.06842  0.87291  1.0000
  C   C555      1.0  0.34743  0.05584  0.60210  1.0000
  C   C556      1.0  0.39275  0.07089  0.82997  1.0000
  C   C557      1.0  0.28683  0.28455  0.67494  1.0000
  C   C558      1.0  0.49035  0.05415  0.64030  1.0000
  C   C559      1.0  0.33930  0.14198  0.78594  1.0000
  C   C560      1.0  0.34111  0.17928  0.52694  1.0000
  H   H953      1.0  0.29225  0.20891  0.72347  1.0000
  S   S167      1.0  0.41724  0.03544  0.51037  1.0000
  C   C561      1.0  0.38099  0.15365  0.55075  1.0000
  H   H954      1.0  0.44939  0.11331  0.64351  1.0000
  H   H955      1.0  0.28961  0.17338  0.79225  1.0000
  H   H956      1.0  0.34722  0.07428  0.66735  1.0000
  C   C562      1.0  0.50456  0.06506  0.70997  1.0000
  H   H957      1.0  0.38634  0.10501  0.82187  1.0000
  C   C563      1.0  0.34772  0.15553  0.68399  1.0000
  C   C564      1.0  0.35902  0.14806  0.66105  1.0000
  C   C565      1.0  0.35253  0.15665  0.63596  1.0000
  C   C566      1.0  0.33465  0.17266  0.63363  1.0000
  C   C567      1.0  0.32315  0.17982  0.65651  1.0000
  C   C568      1.0  0.32969  0.17133  0.68157  1.0000
  H   H958      1.0  0.37291  0.13589  0.66266  1.0000
  H   H959      1.0  0.36153  0.15101  0.61839  1.0000
  H   H960      1.0  0.30932  0.19204  0.65494  1.0000
  H   H961      1.0  0.32081  0.17717  0.69914  1.0000
  C   C569      1.0  0.39793  0.08649  0.62743  1.0000
  C   C570      1.0  0.39408  0.09423  0.60141  1.0000
  H   H962      1.0  0.39381  0.09708  0.64430  1.0000
  H   H963      1.0  0.38718  0.11084  0.59846  1.0000
  H   H964      1.0  0.30158  0.13019  0.76199  1.0000
  H   H965      1.0  0.39863  0.03824  0.84471  1.0000
  H   H966      1.0  0.34394  0.15220  0.48088  1.0000
  H   H967      1.0  0.47566  0.09345  0.57139  1.0000
  C   C571      1.0  0.48175  0.09423  0.64484  1.0000
  C   C572      1.0  0.26704  0.27526  0.47761  1.0000
  S   S168      1.0  0.37082  0.05971  0.48516  1.0000
  H   H968      1.0  0.49257  0.09194  0.66281  1.0000
  H   H969      1.0  0.32539  0.12712  0.52389  1.0000
  C   C573      1.0  0.36585  0.12547  0.49488  1.0000
  H   H970      1.0  0.38052  0.16815  0.56415  1.0000
  C   C574      1.0  0.30710  0.15178  0.54712  1.0000
  H   H971      1.0  0.33748  0.13594  0.76514  1.0000
  C   C575      1.0  0.38547  0.09880  0.86426  1.0000
  C   C576      1.0  0.49033  0.10254  0.88153  1.0000
  C   C577      1.0  0.37139  0.01421  0.63201  1.0000
  C   C578      1.0  0.47100  0.04645  0.65569  1.0000
  S   S169      1.0  0.39226  0.09042  0.54705  1.0000
  H   H972      1.0  0.35346  0.19721  0.78613  1.0000
  C   C579      1.0  0.48660  0.07926  0.71827  1.0000
  H   H973      1.0  0.31972  0.11751  0.80348  1.0000
  H   H974      1.0  0.29499  0.27521  0.69164  1.0000
  H   H975      1.0  0.30886  0.06556  0.62877  1.0000
  N   N45       1.0  0.32434  0.16250  0.79079  1.0000
  C   C580      1.0  0.39292  0.06125  0.87718  1.0000
  C   C581      1.0  0.32982  0.17174  0.81775  1.0000
  C   C582      1.0  0.31750  0.19400  0.82506  1.0000
  H   H976      1.0  0.34778  0.17319  0.81978  1.0000
  H   H977      1.0  0.32603  0.16055  0.83385  1.0000
  S   S170      1.0  0.27671  0.21100  0.90835  1.0000
  C   C583      1.0  0.50670  0.07844  0.61031  1.0000
  H   H978      1.0  0.32341  0.19930  0.84491  1.0000
  H   H979      1.0  0.28183  0.21827  0.50465  1.0000
  H   H980      1.0  0.29672  0.14843  0.80816  1.0000
  H   H981      1.0  0.38070  0.01850  0.61451  1.0000
  H   H982      1.0  0.50379  0.05495  0.65532  1.0000
  H   H983      1.0  0.31327  0.14911  0.50498  1.0000
  H   H984      1.0  0.30232  0.16953  0.54817  1.0000
  C   C584      1.0  0.38810  0.09278  0.83717  1.0000
  H   H985      1.0  0.48384  0.03890  0.90785  1.0000
  C   C585      1.0  0.45788  0.09939  0.65455  1.0000
  H   H986      1.0  0.47690  0.11569  0.88371  1.0000
  H   H987      1.0  0.26281  0.31498  0.70916  1.0000
  H   H988      1.0  0.29345  0.15642  0.74721  1.0000
  H   H989      1.0  0.29956  0.19309  0.82684  1.0000
  H   H990      1.0  0.30003  0.02282  0.64457  1.0000
  H   H991      1.0  0.29165  0.14396  0.54416  1.0000
  C   C586      1.0  0.33427  0.07909  0.65226  1.0000
  H   H992      1.0  0.45844  0.10498  0.67565  1.0000
  H   H993      1.0  0.36520  0.02939  0.57824  1.0000
  C   C587      1.0  0.26551  0.21352  0.69499  1.0000
  H   H994      1.0  0.28389  0.25830  0.89434  1.0000
  C   C588      1.0  0.46779  0.07364  0.60550  1.0000
  C   C589      1.0  0.32266  0.14517  0.52376  1.0000
  C   C590      1.0  0.28073  0.20958  0.96290  1.0000
  H   H995      1.0  0.45564  0.03734  0.91763  1.0000
  H   H996      1.0  0.35924  0.12785  0.54770  1.0000
  C   C591      1.0  0.32705  0.01521  0.92061  1.0000
  H   H997      1.0  0.26750  0.33450  0.54774  1.0000
  H   H998      1.0  0.34796  0.10871  0.79842  1.0000
  H   H999      1.0  0.35092  0.19775  0.75066  1.0000
  N   N46       1.0  0.46023  0.07542  0.88306  1.0000
  H   H1000     1.0  0.31507  0.19251  0.76972  1.0000
  C   C592      1.0  0.44923  0.08738  0.85968  1.0000
  C   C593      1.0  0.44751  0.08150  0.90807  1.0000
  C   C594      1.0  0.48412  0.07929  0.88663  1.0000
  C   C595      1.0  0.45874  0.08095  0.83204  1.0000
  C   C596      1.0  0.44450  0.10576  0.91584  1.0000
  S   S171      1.0  0.27348  0.21586  0.77524  1.0000
  H   H1001     1.0  0.44936  0.10519  0.86161  1.0000
  H   H1002     1.0  0.43149  0.08483  0.85885  1.0000
  H   H1003     1.0  0.43082  0.07584  0.90657  1.0000
  H   H1004     1.0  0.45544  0.07314  0.92570  1.0000
  H   H1005     1.0  0.49000  0.07477  0.90710  1.0000
  H   H1006     1.0  0.37070  0.12229  0.47380  1.0000
  H   H1007     1.0  0.47689  0.08038  0.83183  1.0000
  H   H1008     1.0  0.45346  0.06512  0.82510  1.0000
  H   H1009     1.0  0.45206  0.09315  0.81717  1.0000
  H   H1010     1.0  0.43355  0.10783  0.93334  1.0000
  H   H1011     1.0  0.43621  0.11606  0.90010  1.0000
  H   H1012     1.0  0.46026  0.11172  0.92225  1.0000
  H   H1013     1.0  0.34962  0.02850  0.66186  1.0000
  H   H1014     1.0  0.39233  0.14040  0.55954  1.0000
  H   H1015     1.0  0.36396  0.17404  0.76600  1.0000
  H   H1016     1.0  0.33284  0.18869  0.48539  1.0000
  H   H1017     1.0  0.32660  0.00981  0.89936  1.0000
  H   H1018     1.0  0.35178  0.02798  0.94753  1.0000
  C   C597      1.0  0.32351  0.05922  0.64082  1.0000
  H   H1019     1.0  0.36749  0.04621  0.64872  1.0000
  C   C598      1.0  0.31337  0.01288  0.63402  1.0000
  Fe  Fe93      1.0  0.43341  0.04692  0.47354  1.0000
  C   C599      1.0  0.33646  0.12288  0.80466  1.0000
  C   C600      1.0  0.29254  0.14640  0.76527  1.0000
  H   H1020     1.0  0.28231  0.26404  0.47947  1.0000
  C   C601      1.0  0.46295  0.09327  0.58694  1.0000
  H   H1021     1.0  0.32473  0.20885  0.51010  1.0000
  H   H1022     1.0  0.35716  0.18631  0.52614  1.0000
  H   H1023     1.0  0.31415  0.14614  0.56658  1.0000
  H   H1024     1.0  0.44704  0.09193  0.57632  1.0000
  H   H1025     1.0  0.33458  0.18425  0.54688  1.0000
  H   H1026     1.0  0.41797  0.03463  0.61240  1.0000
  H   H1027     1.0  0.49244  0.11924  0.96491  1.0000
  H   H1028     1.0  0.27123  0.28004  0.72495  1.0000
  C   C602      1.0  0.46713  0.03608  0.90067  1.0000
  H   H1029     1.0  0.28830  0.30216  0.67767  1.0000
  H   H1030     1.0  0.31155  0.03378  0.59988  1.0000
  C   C603      1.0  0.35309  0.04361  0.57567  1.0000
  C   C604      1.0  0.35563  0.14916  0.49796  1.0000
  H   H1031     1.0  0.29616  0.27935  0.65671  1.0000
  Fe  Fe94      1.0  0.27964  0.25652  0.59641  1.0000
  H   H1032     1.0  0.47109  0.07302  0.72142  1.0000
  H   H1033     1.0  0.33551  0.06978  0.59605  1.0000
  H   H1034     1.0  0.34123  0.08881  0.63663  1.0000
  H   H1035     1.0  0.49779  0.10346  0.86158  1.0000
  H   H1036     1.0  0.32045  0.20688  0.81079  1.0000
  H   H1037     1.0  0.36885  0.15983  0.49414  1.0000
  H   H1038     1.0  0.45206  0.07119  0.61507  1.0000
  H   H1039     1.0  0.32157  0.09010  0.66262  1.0000
  H   H1040     1.0  0.35685  0.14513  0.78789  1.0000
  H   H1041     1.0  0.47134  0.05896  0.59254  1.0000
  S   S172      1.0  0.41481  0.03672  0.94950  1.0000
  H   H1042     1.0  0.44152  0.04823  0.87327  1.0000
  H   H1043     1.0  0.26594  0.28953  0.84344  1.0000
  Fe  Fe95      1.0  0.38999  0.02689  0.48272  1.0000
  N   N47       1.0  0.33835  0.04331  0.62453  1.0000
  C   C605      1.0  0.38792  0.08307  0.88438  1.0000
  H   H1044     1.0  0.50335  0.10629  0.89610  1.0000
  H   H1045     1.0  0.46785  0.01900  0.89334  1.0000
  H   H1046     1.0  0.35431  0.11350  0.50006  1.0000
  S   S173      1.0  0.38470  0.09131  0.91821  1.0000
  Fe  Fe96      1.0  0.40603  0.07788  0.69868  1.0000
  C   C606      1.0  0.27466  0.21232  0.72085  1.0000
  H   H1047     1.0  0.31658  0.03099  0.92115  1.0000
  C   C607      1.0  0.27484  0.33405  0.60777  1.0000
  H   H1048     1.0  0.34938  0.15054  0.56652  1.0000
  C   C608      1.0  0.39866  0.08049  0.57929  1.0000
  C   C609      1.0  0.39512  0.05521  0.85011  1.0000
  S   S174      1.0  0.42833  0.07213  0.73424  1.0000
  C   C610      1.0  0.30055  0.15800  0.79049  1.0000
  Fe  Fe97      1.0  0.39904  0.06881  0.51070  1.0000
  C   C611      1.0  0.40644  0.06495  0.63149  1.0000
  H   H1049     1.0  0.38165  0.11572  0.86967  1.0000
  C   C612      1.0  0.48891  0.10126  0.72284  1.0000
  C   C613      1.0  0.35038  0.18715  0.76830  1.0000
  C   C614      1.0  0.32766  0.17831  0.76892  1.0000
  Fe  Fe98      1.0  0.39705  0.07005  0.95310  1.0000
  S   S175      1.0  0.41016  0.05429  0.66381  1.0000
  C   C615      1.0  0.41133  0.05130  0.60938  1.0000
  H   H1050     1.0  0.41103  0.04830  0.56648  1.0000
  H   H1051     1.0  0.38384  0.00908  0.64762  1.0000
  H   H1052     1.0  0.31015  0.25552  0.91024  1.0000
  H   H1053     1.0  0.46621  0.05741  0.67271  1.0000
  H   H1054     1.0  0.34077  0.12668  0.82563  1.0000
  H   H1055     1.0  0.48615  0.10946  0.63557  1.0000
  H   H1056     1.0  0.50383  0.09356  0.77617  1.0000
  N   N48       1.0  0.34435  0.15490  0.52406  1.0000
  C   C616      1.0  0.28414  0.26907  0.93639  1.0000
  H   H1057     1.0  0.44756  0.08574  0.65402  1.0000
  C   C617      1.0  0.35782  0.14592  0.54751  1.0000
  H   H1058     1.0  0.27495  0.14386  0.76769  1.0000
  H   H1059     1.0  0.31701  0.05122  0.65836  1.0000
  H   H1060     1.0  0.50004  0.06729  0.78755  1.0000
  H   H1061     1.0  0.29640  0.27538  0.95032  1.0000
  H   H1062     1.0  0.50497  0.09425  0.59976  1.0000
  H   H1063     1.0  0.27844  0.02213  0.90646  1.0000
  C   C618      1.0  0.27032  0.21828  0.48812  1.0000
  H   H1064     1.0  0.29866  0.28191  0.90029  1.0000
  H   H1065     1.0  0.49609  0.04078  0.62618  1.0000
  S   S176      1.0  0.26375  0.19720  0.59544  1.0000
  H   H1066     1.0  0.28233  0.25239  0.94350  1.0000
  S   S177      1.0  0.41699  0.08084  0.47591  1.0000
  H   H1067     1.0  0.38105  0.12260  0.50716  1.0000
  C   C619      1.0  0.29457  0.26632  0.90859  1.0000
  C   C620      1.0  0.32467  0.02620  0.61340  1.0000
  H   H1068     1.0  0.28024  0.32172  0.95930  1.0000
  C   C621      1.0  0.35647  0.03373  0.64280  1.0000
  H   H1069     1.0  0.27600  0.33697  0.77089  1.0000
  H   H1070     1.0  0.26264  0.26184  0.66784  1.0000
  C   C622      1.0  0.49866  0.10236  0.96230  1.0000
  C   C623      1.0  0.50941  0.10897  0.71883  1.0000
  H   H1071     1.0  0.26656  0.30401  0.90429  1.0000
  S   S178      1.0  0.26322  0.24328  0.84461  1.0000
  C   C624      1.0  0.49285  0.06408  0.96448  1.0000
  C   C625      1.0  0.35065  0.02050  0.92741  1.0000
  C   C626      1.0  0.26412  0.30507  0.92614  1.0000
  H   H1072     1.0  0.28204  0.33367  0.92732  1.0000
  H   H1073     1.0  0.35561  0.03252  0.91296  1.0000
  C   C627      1.0  0.27805  0.01413  0.92612  1.0000
  C   C628      1.0  0.48501  0.08596  0.96772  1.0000
  C   C629      1.0  0.26274  0.27971  0.67089  1.0000
  H   H1074     1.0  0.51136  0.12599  0.72229  1.0000
  H   H1075     1.0  0.30982  0.02577  0.96652  1.0000
  C   C630      1.0  0.31626  0.00833  0.96644  1.0000
  H   H1076     1.0  0.27504  0.37138  0.98019  1.0000
  Fe  Fe99      1.0  0.42750  0.60399  0.23286  1.0000
  S   S179      1.0  0.41891  0.56971  0.23037  1.0000
  S   S180      1.0  0.46166  0.61302  0.22419  1.0000
  Fe  Fe100     1.0  0.38021  0.62158  0.24479  1.0000
  S   S181      1.0  0.36818  0.58843  0.24222  1.0000
  H   H1077     1.0  0.47119  0.60301  0.16518  1.0000
  Fe  Fe101     1.0  0.39852  0.57843  0.26655  1.0000
  S   S182      1.0  0.39908  0.55503  0.30087  1.0000
  Fe  Fe102     1.0  0.38971  0.58324  0.20609  1.0000
  S   S183      1.0  0.38101  0.56435  0.16877  1.0000
  S   S184      1.0  0.40945  0.61189  0.27112  1.0000
  S   S185      1.0  0.39928  0.61723  0.20663  1.0000
  Fe  Fe103     1.0  0.28048  0.39879  0.37264  1.0000
  C   C631      1.0  0.33408  0.63588  0.40474  1.0000
  Fe  Fe104     1.0  0.29648  0.44426  0.37873  1.0000
  H   H1078     1.0  0.42770  0.57368  0.40917  1.0000
  S   S186      1.0  0.32441  0.46606  0.37822  1.0000
  H   H1079     1.0  0.33382  0.62435  0.14079  1.0000
  C   C632      1.0  0.49807  0.55438  0.22117  1.0000
  C   C633      1.0  0.44472  0.54595  0.16887  1.0000
  C   C634      1.0  0.44381  0.57030  0.16213  1.0000
  S   S187      1.0  0.29082  0.41823  0.40821  1.0000
  S   S188      1.0  0.28982  0.42320  0.34291  1.0000
  H   H1080     1.0  0.38313  0.50788  0.30100  1.0000
  H   H1081     1.0  0.35221  0.63379  0.40217  1.0000
  H   H1082     1.0  0.28729  0.67164  0.21235  1.0000
  H   H1083     1.0  0.48699  0.57282  0.41354  1.0000
  S   S189      1.0  0.37285  0.49626  0.98302  1.0000
  H   H1084     1.0  0.36080  0.49511  0.28583  1.0000
  Fe  Fe105     1.0  0.39222  0.57307  0.45256  1.0000
  S   S190      1.0  0.38149  0.59395  0.41708  1.0000
  Fe  Fe106     1.0  0.39607  0.56981  0.01218  1.0000
  S   S191      1.0  0.39064  0.59274  0.04799  1.0000
  S   S192      1.0  0.40945  0.53946  0.44906  1.0000
  S   S193      1.0  0.41438  0.53648  0.01292  1.0000
  H   H1085     1.0  0.27461  0.44125  0.28707  1.0000
  H   H1086     1.0  0.29985  0.64658  0.19938  1.0000
  C   C635      1.0  0.27326  0.49578  0.05121  1.0000
  C   C636      1.0  0.49910  0.57105  0.37318  1.0000
  H   H1087     1.0  0.33269  0.60050  0.41028  1.0000
  H   H1088     1.0  0.29933  0.62821  0.44076  1.0000
  H   H1089     1.0  0.48833  0.61769  0.46408  1.0000
  C   C637      1.0  0.29090  0.48867  0.98877  1.0000
  H   H1090     1.0  0.43021  0.54323  0.18102  1.0000
  C   C638      1.0  0.35902  0.65188  0.30563  1.0000
  H   H1091     1.0  0.29458  0.36889  0.04635  1.0000
  C   C639      1.0  0.50901  0.55654  0.46609  1.0000
  H   H1092     1.0  0.28445  0.35752  0.29786  1.0000
  H   H1093     1.0  0.30639  0.48827  0.32982  1.0000
  C   C640      1.0  0.27215  0.43154  0.00394  1.0000
  C   C641      1.0  0.35317  0.66041  0.33100  1.0000
  H   H1094     1.0  0.46599  0.54253  0.36533  1.0000
  Fe  Fe107     1.0  0.38915  0.52771  0.98224  1.0000
  H   H1095     1.0  0.28972  0.42846  0.00694  1.0000
  H   H1096     1.0  0.45954  0.54078  0.18113  1.0000
  N   N49       1.0  0.32813  0.64472  0.43223  1.0000
  H   H1097     1.0  0.33221  0.66212  0.12716  1.0000
  H   H1098     1.0  0.48095  0.54644  0.14397  1.0000
  C   C642      1.0  0.34052  0.63015  0.45237  1.0000
  H   H1099     1.0  0.35110  0.49134  0.33980  1.0000
  H   H1100     1.0  0.27451  0.48182  0.06504  1.0000
  H   H1101     1.0  0.45139  0.57245  0.42983  1.0000
  H   H1102     1.0  0.33168  0.60920  0.37663  1.0000
  H   H1103     1.0  0.28591  0.43800  0.23973  1.0000
  H   H1104     1.0  0.32309  0.63625  0.97751  1.0000
  C   C643      1.0  0.33596  0.47610  0.40798  1.0000
  C   C644      1.0  0.35067  0.49210  0.40635  1.0000
  C   C645      1.0  0.36013  0.50058  0.42949  1.0000
  S   S194      1.0  0.41620  0.58168  0.97902  1.0000
  H   H1105     1.0  0.27986  0.38733  0.02401  1.0000
  C   C646      1.0  0.33110  0.46831  0.43304  1.0000
  H   H1106     1.0  0.35494  0.49784  0.38713  1.0000
  H   H1107     1.0  0.37133  0.51296  0.42789  1.0000
  C   C647      1.0  0.44128  0.61629  0.14595  1.0000
  H   H1108     1.0  0.32001  0.45581  0.43458  1.0000
  C   C648      1.0  0.38529  0.58282  0.38472  1.0000
  C   C649      1.0  0.38289  0.59656  0.36261  1.0000
  C   C650      1.0  0.38703  0.58824  0.33674  1.0000
  C   C651      1.0  0.39362  0.56613  0.33288  1.0000
  C   C652      1.0  0.39552  0.55234  0.35491  1.0000
  C   C653      1.0  0.39128  0.56063  0.38071  1.0000
  H   H1109     1.0  0.37813  0.61374  0.36547  1.0000
  H   H1110     1.0  0.38515  0.59896  0.31984  1.0000
  H   H1111     1.0  0.40036  0.53518  0.35202  1.0000
  H   H1112     1.0  0.39266  0.54979  0.39744  1.0000
  C   C654      1.0  0.38423  0.57256  0.13541  1.0000
  C   C655      1.0  0.38657  0.59415  0.12899  1.0000
  C   C656      1.0  0.38850  0.60005  0.10214  1.0000
  C   C657      1.0  0.38852  0.58442  0.08149  1.0000
  C   C658      1.0  0.38655  0.56278  0.08797  1.0000
  C   C659      1.0  0.38421  0.55695  0.11477  1.0000
  H   H1113     1.0  0.38653  0.60632  0.14466  1.0000
  H   H1114     1.0  0.38998  0.61683  0.09728  1.0000
  H   H1115     1.0  0.38651  0.55060  0.07229  1.0000
  H   H1116     1.0  0.38239  0.54022  0.11956  1.0000
  H   H1117     1.0  0.26501  0.34528  0.04711  1.0000
  C   C660      1.0  0.48321  0.59225  0.21956  1.0000
  H   H1118     1.0  0.50486  0.58598  0.12933  1.0000
  H   H1119     1.0  0.32633  0.45331  0.00140  1.0000
  H   H1120     1.0  0.43972  0.54542  0.37946  1.0000
  H   H1121     1.0  0.33872  0.52800  0.01931  1.0000
  C   C661      1.0  0.48073  0.57064  0.22560  1.0000
  H   H1122     1.0  0.48803  0.56701  0.16587  1.0000
  H   H1123     1.0  0.36193  0.65400  0.34851  1.0000
  C   C662      1.0  0.44021  0.60451  0.41671  1.0000
  H   H1124     1.0  0.46557  0.56640  0.23390  1.0000
  S   S195      1.0  0.46954  0.54057  0.97134  1.0000
  H   H1125     1.0  0.49050  0.61551  0.97802  1.0000
  H   H1126     1.0  0.47103  0.57088  0.33210  1.0000
  H   H1127     1.0  0.43332  0.58250  0.11226  1.0000
  H   H1128     1.0  0.37801  0.48044  0.30923  1.0000
  H   H1129     1.0  0.45371  0.60197  0.36324  1.0000
  C   C663      1.0  0.44848  0.58522  0.36345  1.0000
  H   H1130     1.0  0.47303  0.60662  0.13024  1.0000
  C   C664      1.0  0.30356  0.64468  0.43530  1.0000
  C   C665      1.0  0.33494  0.54197  0.36661  1.0000
  N   N50       1.0  0.31329  0.49181  0.03303  1.0000
  C   C666      1.0  0.33532  0.49835  0.04246  1.0000
  C   C667      1.0  0.31309  0.46798  0.03890  1.0000
  C   C668      1.0  0.29565  0.50512  0.04866  1.0000
  C   C669      1.0  0.31095  0.49650  0.00366  1.0000
  H   H1131     1.0  0.28979  0.34783  0.42658  1.0000
  C   C670      1.0  0.32952  0.45231  0.02317  1.0000
  C   C671      1.0  0.34347  0.64428  0.17489  1.0000
  C   C672      1.0  0.27781  0.37539  0.03981  1.0000
  H   H1132     1.0  0.33851  0.49370  0.06367  1.0000
  H   H1133     1.0  0.34897  0.48964  0.03099  1.0000
  H   H1134     1.0  0.29682  0.46228  0.03482  1.0000
  H   H1135     1.0  0.31608  0.46498  0.06058  1.0000
  H   H1136     1.0  0.30130  0.50772  0.06960  1.0000
  H   H1137     1.0  0.29225  0.52165  0.04009  1.0000
  H   H1138     1.0  0.26632  0.49075  0.03192  1.0000
  C   C673      1.0  0.32080  0.66813  0.14338  1.0000
  C   C674      1.0  0.50321  0.59752  0.20928  1.0000
  S   S196      1.0  0.26985  0.43341  0.05836  1.0000
  C   C675      1.0  0.44834  0.55099  0.10313  1.0000
  H   H1139     1.0  0.35269  0.53593  0.28980  1.0000
  H   H1140     1.0  0.34687  0.45484  0.02769  1.0000
  H   H1141     1.0  0.32736  0.43539  0.02900  1.0000
  C   C676      1.0  0.34109  0.47632  0.45615  1.0000
  H   H1142     1.0  0.44877  0.55098  0.08098  1.0000
  H   H1143     1.0  0.50522  0.61421  0.20449  1.0000
  H   H1144     1.0  0.35838  0.62770  0.44802  1.0000
  C   C677      1.0  0.29655  0.66409  0.19511  1.0000
  H   H1145     1.0  0.28601  0.47310  0.99593  1.0000
  H   H1146     1.0  0.37000  0.66071  0.44277  1.0000
  H   H1147     1.0  0.37442  0.66575  0.19794  1.0000
  C   C678      1.0  0.49414  0.60059  0.46440  1.0000
  H   H1148     1.0  0.48148  0.59645  0.39523  1.0000
  C   C679      1.0  0.48117  0.57854  0.39348  1.0000
  C   C680      1.0  0.50627  0.60327  0.29789  1.0000
  H   H1149     1.0  0.28614  0.38051  0.27588  1.0000
  H   H1150     1.0  0.45931  0.58294  0.09864  1.0000
  H   H1151     1.0  0.49155  0.54564  0.03841  1.0000
  H   H1152     1.0  0.44414  0.53530  0.15113  1.0000
  H   H1153     1.0  0.43139  0.61333  0.40004  1.0000
  H   H1154     1.0  0.30694  0.53525  0.34247  1.0000
  H   H1155     1.0  0.33979  0.65790  0.97581  1.0000
  H   H1156     1.0  0.50682  0.56246  0.01868  1.0000
  H   H1157     1.0  0.35579  0.54794  0.32145  1.0000
  H   H1158     1.0  0.44441  0.56039  0.33236  1.0000
  H   H1159     1.0  0.33352  0.57277  0.29324  1.0000
  C   C681      1.0  0.33863  0.52272  0.04035  1.0000
  H   H1160     1.0  0.42948  0.60733  0.43432  1.0000
  H   H1161     1.0  0.27921  0.43656  0.46170  1.0000
  H   H1162     1.0  0.31458  0.62558  0.16795  1.0000
  H   H1163     1.0  0.37220  0.63898  0.30370  1.0000
  N   N51       1.0  0.33282  0.66711  0.16991  1.0000
  H   H1164     1.0  0.33570  0.55854  0.35871  1.0000
  H   H1165     1.0  0.32519  0.54378  0.38517  1.0000
  H   H1166     1.0  0.27546  0.34702  0.01470  1.0000
  C   C682      1.0  0.50742  0.54630  0.02807  1.0000
  H   H1167     1.0  0.43269  0.61678  0.12633  1.0000
  N   N52       1.0  0.45956  0.57680  0.14140  1.0000
  C   C683      1.0  0.45028  0.57425  0.11363  1.0000
  H   H1168     1.0  0.44703  0.58682  0.32015  1.0000
  H   H1169     1.0  0.32873  0.47566  0.30980  1.0000
  H   H1170     1.0  0.34049  0.60963  0.17059  1.0000
  H   H1171     1.0  0.32636  0.53329  0.05184  1.0000
  C   C684      1.0  0.26840  0.34504  0.36069  1.0000
  S   S197      1.0  0.28926  0.36250  0.36641  1.0000
  H   H1172     1.0  0.30743  0.65722  0.14282  1.0000
  N   N53       1.0  0.45816  0.57291  0.38741  1.0000
  C   C685      1.0  0.28106  0.37535  0.29576  1.0000
  H   H1173     1.0  0.42988  0.61244  0.16176  1.0000
  C   C686      1.0  0.26333  0.43174  0.97794  1.0000
  H   H1174     1.0  0.49602  0.53768  0.22584  1.0000
  C   C687      1.0  0.44415  0.57979  0.41121  1.0000
  H   H1175     1.0  0.32664  0.67266  0.21207  1.0000
  H   H1176     1.0  0.46211  0.53912  0.10920  1.0000
  H   H1177     1.0  0.46605  0.51694  0.40022  1.0000
  H   H1178     1.0  0.35870  0.62581  0.99766  1.0000
  H   H1179     1.0  0.46460  0.58731  0.98298  1.0000
  H   H1180     1.0  0.43021  0.58735  0.36454  1.0000
  H   H1181     1.0  0.31540  0.56462  0.31799  1.0000
  H   H1182     1.0  0.44568  0.63299  0.15032  1.0000
  C   C688      1.0  0.26520  0.35636  0.02990  1.0000
  H   H1183     1.0  0.45565  0.61177  0.42161  1.0000
  H   H1184     1.0  0.36685  0.51334  0.34206  1.0000
  H   H1185     1.0  0.35168  0.53515  0.37255  1.0000
  H   H1186     1.0  0.49966  0.58317  0.35714  1.0000
  H   H1187     1.0  0.45524  0.53639  0.42411  1.0000
  H   H1188     1.0  0.29189  0.38265  0.31059  1.0000
  H   H1189     1.0  0.43251  0.54522  0.10915  1.0000
  Fe  Fe108     1.0  0.43292  0.54788  0.97808  1.0000
  H   H1190     1.0  0.31486  0.55333  0.28445  1.0000
  C   C689      1.0  0.49544  0.59888  0.97205  1.0000
  S   S198      1.0  0.35544  0.65087  0.25046  1.0000
  H   H1191     1.0  0.32591  0.49008  0.99281  1.0000
  H   H1192     1.0  0.36347  0.66670  0.40797  1.0000
  H   H1193     1.0  0.26996  0.38378  0.05742  1.0000
  S   S199      1.0  0.36949  0.56039  0.98390  1.0000
  H   H1194     1.0  0.29493  0.64854  0.41593  1.0000
  H   H1195     1.0  0.30224  0.48261  0.29526  1.0000
  H   H1196     1.0  0.44657  0.57871  0.18151  1.0000
  N   N54       1.0  0.33582  0.52098  0.32141  1.0000
  C   C690      1.0  0.32363  0.52709  0.34682  1.0000
  C   C691      1.0  0.32042  0.51072  0.30238  1.0000
  C   C692      1.0  0.34363  0.54060  0.30845  1.0000
  C   C693      1.0  0.35562  0.50546  0.32823  1.0000
  C   C694      1.0  0.45333  0.57502  0.33564  1.0000
  C   C695      1.0  0.31431  0.48804  0.31006  1.0000
  C   C696      1.0  0.32555  0.55869  0.30079  1.0000
  C   C697      1.0  0.37011  0.49694  0.30461  1.0000
  H   H1197     1.0  0.42656  0.57564  0.15627  1.0000
  H   H1198     1.0  0.32068  0.51226  0.35804  1.0000
  H   H1199     1.0  0.32700  0.50955  0.28179  1.0000
  H   H1200     1.0  0.30460  0.52117  0.30038  1.0000
  H   H1201     1.0  0.30769  0.61446  0.39640  1.0000
  C   C698      1.0  0.34808  0.66038  0.28281  1.0000
  C   C699      1.0  0.32587  0.61375  0.39704  1.0000
  C   C700      1.0  0.33213  0.62511  0.16281  1.0000
  H   H1202     1.0  0.35506  0.52538  0.04883  1.0000
  H   H1203     1.0  0.36042  0.64204  0.16671  1.0000
  C   C701      1.0  0.45705  0.54883  0.38331  1.0000
  H   H1204     1.0  0.48308  0.53688  0.41226  1.0000
  H   H1205     1.0  0.32756  0.64753  0.38916  1.0000
  H   H1206     1.0  0.31005  0.51427  0.00013  1.0000
  C   C702      1.0  0.46252  0.60055  0.14585  1.0000
  H   H1207     1.0  0.49479  0.56729  0.10476  1.0000
  C   C703      1.0  0.48177  0.56423  0.14529  1.0000
  C   C704      1.0  0.35548  0.49264  0.45454  1.0000
  C   C705      1.0  0.46598  0.53424  0.40649  1.0000
  H   H1208     1.0  0.50360  0.61822  0.28579  1.0000
  H   H1209     1.0  0.27660  0.50118  0.98960  1.0000
  C   C706      1.0  0.35758  0.62605  0.97552  1.0000
  C   C707      1.0  0.26863  0.43929  0.24458  1.0000
  H   H1210     1.0  0.48990  0.59710  0.29964  1.0000
  C   C708      1.0  0.26227  0.44111  0.27143  1.0000
  C   C709      1.0  0.29212  0.66108  0.45542  1.0000
  C   C710      1.0  0.33445  0.66768  0.43387  1.0000
  H   H1211     1.0  0.33542  0.61343  0.45084  1.0000
  H   H1212     1.0  0.28564  0.66681  0.17740  1.0000
  C   C711      1.0  0.48070  0.58295  0.97476  1.0000
  C   C712      1.0  0.35884  0.67049  0.42895  1.0000
  C   C713      1.0  0.49981  0.56943  0.12587  1.0000
  H   H1213     1.0  0.50818  0.53337  0.01251  1.0000
  S   S200      1.0  0.26189  0.46052  0.37973  1.0000
  H   H1214     1.0  0.34561  0.64124  0.19662  1.0000
  H   H1215     1.0  0.49745  0.55484  0.36436  1.0000
  H   H1216     1.0  0.27473  0.65766  0.45754  1.0000
  S   S201      1.0  0.26192  0.43720  0.19057  1.0000
  H   H1217     1.0  0.35625  0.60909  0.96886  1.0000
  H   H1218     1.0  0.35567  0.45607  0.96801  1.0000
  H   H1219     1.0  0.26249  0.34039  0.42486  1.0000
  H   H1220     1.0  0.37326  0.63140  0.96848  1.0000
  C   C714      1.0  0.42652  0.61893  0.91258  1.0000
  Fe  Fe109     1.0  0.43218  0.60411  0.73031  1.0000
  S   S202      1.0  0.42489  0.56939  0.72839  1.0000
  S   S203      1.0  0.46595  0.61415  0.72132  1.0000
  Fe  Fe110     1.0  0.38470  0.61994  0.74413  1.0000
  S   S204      1.0  0.37407  0.58618  0.74279  1.0000
  H   H1221     1.0  0.35896  0.55575  0.79811  1.0000
  Fe  Fe111     1.0  0.40553  0.57754  0.76549  1.0000
  S   S205      1.0  0.40937  0.55429  0.79987  1.0000
  Fe  Fe112     1.0  0.39443  0.58169  0.70567  1.0000
  S   S206      1.0  0.38511  0.56196  0.66945  1.0000
  S   S207      1.0  0.41500  0.61156  0.76925  1.0000
  S   S208      1.0  0.40276  0.61613  0.70522  1.0000
  Fe  Fe113     1.0  0.27828  0.39776  0.87111  1.0000
  C   C715      1.0  0.32858  0.48502  0.79889  1.0000
  Fe  Fe114     1.0  0.29196  0.44397  0.88035  1.0000
  H   H1222     1.0  0.34620  0.63721  0.66755  1.0000
  S   S209      1.0  0.31643  0.46946  0.88226  1.0000
  C   C716      1.0  0.26996  0.44244  0.74581  1.0000
  H   H1223     1.0  0.42961  0.60842  0.65330  1.0000
  C   C717      1.0  0.29191  0.65812  0.94152  1.0000
  C   C718      1.0  0.35712  0.48895  0.95497  1.0000
  S   S210      1.0  0.28687  0.41657  0.90807  1.0000
  S   S211      1.0  0.28728  0.42374  0.84320  1.0000
  H   H1224     1.0  0.29542  0.64085  0.67098  1.0000
  H   H1225     1.0  0.38332  0.64616  0.65918  1.0000
  H   H1226     1.0  0.32986  0.55218  0.79845  1.0000
  H   H1227     1.0  0.34950  0.64834  0.90056  1.0000
  C   C719      1.0  0.28166  0.50063  0.57299  1.0000
  H   H1228     1.0  0.45692  0.62780  0.89725  1.0000
  Fe  Fe115     1.0  0.39162  0.56878  0.95089  1.0000
  S   S212      1.0  0.37941  0.58834  0.91480  1.0000
  Fe  Fe116     1.0  0.39466  0.57302  0.51398  1.0000
  S   S213      1.0  0.38878  0.59524  0.55018  1.0000
  S   S214      1.0  0.40962  0.53559  0.94771  1.0000
  S   S215      1.0  0.41181  0.53927  0.51461  1.0000
  H   H1229     1.0  0.48834  0.58598  0.91659  1.0000
  H   H1230     1.0  0.45281  0.57598  0.93091  1.0000
  H   H1231     1.0  0.40026  0.48850  0.78955  1.0000
  C   C720      1.0  0.28202  0.37821  0.76963  1.0000
  C   C721      1.0  0.35308  0.64727  0.92232  1.0000
  C   C722      1.0  0.36948  0.65904  0.65671  1.0000
  C   C723      1.0  0.35142  0.65686  0.78274  1.0000
  C   C724      1.0  0.50814  0.55592  0.95715  1.0000
  C   C725      1.0  0.38224  0.48905  0.79263  1.0000
  H   H1232     1.0  0.34151  0.56988  0.82189  1.0000
  H   H1233     1.0  0.29971  0.66022  0.47553  1.0000
  C   C726      1.0  0.44701  0.54874  0.59033  1.0000
  C   C727      1.0  0.30488  0.64143  0.68993  1.0000
  C   C728      1.0  0.36323  0.64865  0.80511  1.0000
  C   C729      1.0  0.27724  0.44021  0.50450  1.0000
  H   H1234     1.0  0.50420  0.61827  0.78017  1.0000
  C   C730      1.0  0.34462  0.55415  0.81097  1.0000
  N   N55       1.0  0.32144  0.49393  0.55573  1.0000
  H   H1235     1.0  0.29487  0.43803  0.50753  1.0000
  Fe  Fe117     1.0  0.43204  0.55061  0.48120  1.0000
  S   S216      1.0  0.36874  0.56498  0.48414  1.0000
  C   C731      1.0  0.32636  0.47501  0.57437  1.0000
  C   C732      1.0  0.50708  0.60394  0.79335  1.0000
  C   C733      1.0  0.26333  0.44336  0.52653  1.0000
  H   H1236     1.0  0.33402  0.61384  0.88612  1.0000
  H   H1237     1.0  0.27472  0.34272  0.51480  1.0000
  H   H1238     1.0  0.30147  0.47327  0.53223  1.0000
  C   C734      1.0  0.47948  0.58524  0.47059  1.0000
  H   H1239     1.0  0.28744  0.44024  0.74217  1.0000
  C   C735      1.0  0.36354  0.66815  0.93022  1.0000
  C   C736      1.0  0.33062  0.47694  0.91153  1.0000
  C   C737      1.0  0.33703  0.49811  0.91386  1.0000
  C   C738      1.0  0.35027  0.50408  0.93538  1.0000
  H   H1240     1.0  0.31793  0.50650  0.49560  1.0000
  H   H1241     1.0  0.31788  0.62763  0.69078  1.0000
  C   C739      1.0  0.33706  0.46193  0.93145  1.0000
  H   H1242     1.0  0.33177  0.51003  0.89897  1.0000
  H   H1243     1.0  0.35511  0.52042  0.93686  1.0000
  H   H1244     1.0  0.33819  0.60846  0.93114  1.0000
  H   H1245     1.0  0.33241  0.44553  0.92981  1.0000
  C   C740      1.0  0.38734  0.57865  0.88274  1.0000
  C   C741      1.0  0.38317  0.59216  0.86060  1.0000
  C   C742      1.0  0.39002  0.58499  0.83502  1.0000
  C   C743      1.0  0.40109  0.56427  0.83152  1.0000
  C   C744      1.0  0.40523  0.55081  0.85362  1.0000
  C   C745      1.0  0.39819  0.55788  0.87904  1.0000
  H   H1246     1.0  0.37473  0.60826  0.86321  1.0000
  H   H1247     1.0  0.38662  0.59545  0.81803  1.0000
  H   H1248     1.0  0.41374  0.53475  0.85105  1.0000
  H   H1249     1.0  0.40118  0.54718  0.89569  1.0000
  C   C746      1.0  0.38624  0.57151  0.63645  1.0000
  C   C747      1.0  0.38716  0.59352  0.63111  1.0000
  C   C748      1.0  0.38799  0.60053  0.60458  1.0000
  C   C749      1.0  0.38814  0.58559  0.58319  1.0000
  C   C750      1.0  0.38746  0.56354  0.58855  1.0000
  C   C751      1.0  0.38634  0.55657  0.61507  1.0000
  H   H1250     1.0  0.38696  0.60515  0.64739  1.0000
  H   H1251     1.0  0.38846  0.61762  0.60057  1.0000
  H   H1252     1.0  0.38752  0.55191  0.57225  1.0000
  H   H1253     1.0  0.38563  0.53952  0.61907  1.0000
  H   H1254     1.0  0.37708  0.63656  0.80262  1.0000
  C   C752      1.0  0.48764  0.59378  0.71531  1.0000
  H   H1255     1.0  0.28499  0.64533  0.92926  1.0000
  C   C753      1.0  0.34532  0.45794  0.56616  1.0000
  C   C754      1.0  0.30411  0.50945  0.56879  1.0000
  H   H1256     1.0  0.36675  0.65032  0.84795  1.0000
  C   C755      1.0  0.48547  0.57194  0.72042  1.0000
  H   H1257     1.0  0.36844  0.66848  0.95154  1.0000
  H   H1258     1.0  0.29271  0.49379  0.49524  1.0000
  H   H1259     1.0  0.45965  0.61429  0.92807  1.0000
  H   H1260     1.0  0.47054  0.56730  0.72882  1.0000
  H   H1261     1.0  0.46555  0.55693  0.67420  1.0000
  C   C756      1.0  0.26233  0.44293  0.77217  1.0000
  H   H1262     1.0  0.28039  0.38871  0.57376  1.0000
  C   C757      1.0  0.50752  0.59957  0.70523  1.0000
  H   H1263     1.0  0.38768  0.51790  0.81558  1.0000
  H   H1264     1.0  0.35697  0.53313  0.53887  1.0000
  N   N56       1.0  0.33008  0.66969  0.67376  1.0000
  C   C758      1.0  0.44870  0.57484  0.90929  1.0000
  H   H1265     1.0  0.36592  0.63333  0.92404  1.0000
  H   H1266     1.0  0.49538  0.60504  0.86152  1.0000
  C   C759      1.0  0.34031  0.52846  0.54331  1.0000
  C   C760      1.0  0.33955  0.67238  0.83421  1.0000
  H   H1267     1.0  0.43442  0.62501  0.85728  1.0000
  H   H1268     1.0  0.36498  0.65925  0.63523  1.0000
  S   S217      1.0  0.28881  0.36190  0.86337  1.0000
  H   H1269     1.0  0.34158  0.44948  0.54726  1.0000
  H   H1270     1.0  0.41657  0.61513  0.89480  1.0000
  H   H1271     1.0  0.27452  0.49470  0.55415  1.0000
  H   H1272     1.0  0.27391  0.44115  0.78865  1.0000
  C   C761      1.0  0.50027  0.60520  0.54771  1.0000
  H   H1273     1.0  0.27546  0.34615  0.80460  1.0000
  H   H1274     1.0  0.49630  0.59442  0.56406  1.0000
  C   C762      1.0  0.44990  0.59194  0.86549  1.0000
  H   H1275     1.0  0.38032  0.47547  0.80619  1.0000
  C   C763      1.0  0.31381  0.48508  0.52942  1.0000
  N   N57       1.0  0.46640  0.56459  0.63198  1.0000
  C   C764      1.0  0.46848  0.55274  0.60542  1.0000
  H   H1276     1.0  0.51004  0.54669  0.65005  1.0000
  C   C765      1.0  0.35035  0.46790  0.95300  1.0000
  H   H1277     1.0  0.31125  0.61719  0.93945  1.0000
  C   C766      1.0  0.44241  0.53769  0.65447  1.0000
  H   H1278     1.0  0.45109  0.53824  0.57259  1.0000
  H   H1279     1.0  0.43844  0.56413  0.58264  1.0000
  H   H1280     1.0  0.44428  0.52226  0.64277  1.0000
  H   H1281     1.0  0.42788  0.54790  0.64713  1.0000
  H   H1282     1.0  0.43835  0.53401  0.67536  1.0000
  H   H1283     1.0  0.26437  0.36768  0.61655  1.0000
  H   H1284     1.0  0.48878  0.58870  0.62335  1.0000
  H   H1285     1.0  0.35181  0.50465  0.57176  1.0000
  N   N58       1.0  0.45817  0.59256  0.89402  1.0000
  C   C767      1.0  0.45588  0.55133  0.90003  1.0000
  H   H1286     1.0  0.33032  0.48088  0.59483  1.0000
  H   H1287     1.0  0.31305  0.38686  0.78656  1.0000
  S   S218      1.0  0.46915  0.54317  0.47916  1.0000
  H   H1288     1.0  0.50934  0.61645  0.70127  1.0000
  H   H1289     1.0  0.33040  0.53109  0.52487  1.0000
  C   C768      1.0  0.44795  0.58266  0.63077  1.0000
  H   H1290     1.0  0.44557  0.54010  0.90992  1.0000
  H   H1291     1.0  0.46029  0.57970  0.85354  1.0000
  H   H1292     1.0  0.31178  0.46580  0.57655  1.0000
  H   H1293     1.0  0.43554  0.54036  0.60241  1.0000
  H   H1294     1.0  0.47308  0.54617  0.90624  1.0000
  C   C769      1.0  0.31531  0.66185  0.93284  1.0000
  H   H1295     1.0  0.45378  0.54907  0.87822  1.0000
  H   H1296     1.0  0.48850  0.57253  0.88513  1.0000
  S   S219      1.0  0.26566  0.44330  0.69137  1.0000
  H   H1297     1.0  0.48519  0.60797  0.53509  1.0000
  H   H1298     1.0  0.29514  0.51616  0.51659  1.0000
  H   H1299     1.0  0.43995  0.58614  0.67351  1.0000
  H   H1300     1.0  0.33518  0.53709  0.84555  1.0000
  H   H1301     1.0  0.30601  0.60998  0.89453  1.0000
  C   C770      1.0  0.31943  0.62065  0.89759  1.0000
  H   H1302     1.0  0.49085  0.59758  0.79573  1.0000
  H   H1303     1.0  0.30064  0.52466  0.55741  1.0000
  H   H1304     1.0  0.35356  0.49524  0.53821  1.0000
  H   H1305     1.0  0.31014  0.51486  0.58863  1.0000
  H   H1306     1.0  0.31339  0.63647  0.88882  1.0000
  H   H1307     1.0  0.48756  0.58227  0.65767  1.0000
  C   C771      1.0  0.27621  0.38295  0.55342  1.0000
  H   H1308     1.0  0.28263  0.48760  0.58806  1.0000
  S   S220      1.0  0.36752  0.50254  0.48409  1.0000
  S   S221      1.0  0.41625  0.58474  0.48240  1.0000
  C   C772      1.0  0.34244  0.50464  0.55252  1.0000
  H   H1309     1.0  0.47724  0.53568  0.65430  1.0000
  H   H1310     1.0  0.50098  0.53910  0.71899  1.0000
  C   C773      1.0  0.31998  0.66937  0.64617  1.0000
  H   H1311     1.0  0.46256  0.59061  0.47493  1.0000
  H   H1312     1.0  0.33359  0.53969  0.55930  1.0000
  H   H1313     1.0  0.32758  0.47513  0.51957  1.0000
  H   H1314     1.0  0.44408  0.60990  0.82870  1.0000
  Fe  Fe118     1.0  0.38734  0.53176  0.48235  1.0000
  H   H1315     1.0  0.28407  0.39347  0.53939  1.0000
  C   C774      1.0  0.30460  0.50156  0.50830  1.0000
  C   C775      1.0  0.50905  0.55987  0.63520  1.0000
  C   C776      1.0  0.29966  0.37691  0.79201  1.0000
  H   H1316     1.0  0.35249  0.62907  0.49335  1.0000
  S   S222      1.0  0.27464  0.44289  0.55904  1.0000
  C   C777      1.0  0.48742  0.57501  0.63727  1.0000
  H   H1317     1.0  0.36124  0.46498  0.56464  1.0000
  C   C778      1.0  0.46370  0.54905  0.65434  1.0000
  H   H1318     1.0  0.27214  0.37553  0.50251  1.0000
  C   C779      1.0  0.50284  0.55597  0.71502  1.0000
  H   H1319     1.0  0.45080  0.59407  0.61445  1.0000
  H   H1320     1.0  0.43201  0.57658  0.62551  1.0000
  H   H1321     1.0  0.43317  0.58633  0.86442  1.0000
  H   H1322     1.0  0.31819  0.51728  0.81130  1.0000
  C   C780      1.0  0.32523  0.62200  0.92765  1.0000
  H   H1323     1.0  0.31796  0.65242  0.63953  1.0000
  S   S223      1.0  0.35885  0.64827  0.75011  1.0000
  H   H1324     1.0  0.46337  0.62151  0.85022  1.0000
  H   H1325     1.0  0.37184  0.52242  0.78671  1.0000
  H   H1326     1.0  0.37864  0.66894  0.91835  1.0000
  H   H1327     1.0  0.31532  0.48436  0.78361  1.0000
  N   N59       1.0  0.33279  0.64321  0.93740  1.0000
  H   H1328     1.0  0.33962  0.49978  0.85512  1.0000
  H   H1329     1.0  0.34287  0.47424  0.79188  1.0000
  H   H1330     1.0  0.47817  0.53663  0.60770  1.0000
  H   H1331     1.0  0.39047  0.49844  0.85335  1.0000
  H   H1332     1.0  0.32228  0.47845  0.81751  1.0000
  H   H1333     1.0  0.37414  0.48611  0.77314  1.0000
  C   C781      1.0  0.44806  0.61343  0.84992  1.0000
  H   H1334     1.0  0.47776  0.56194  0.59115  1.0000
  H   H1335     1.0  0.28950  0.36952  0.75186  1.0000
  C   C782      1.0  0.26839  0.43927  0.47852  1.0000
  H   H1336     1.0  0.34748  0.44528  0.58174  1.0000
  H   H1337     1.0  0.35662  0.48043  0.83730  1.0000
  H   H1338     1.0  0.42278  0.63647  0.91742  1.0000
  H   H1339     1.0  0.45800  0.60558  0.66190  1.0000
  C   C783      1.0  0.35736  0.65648  0.83077  1.0000
  H   H1340     1.0  0.36360  0.54014  0.84348  1.0000
  H   H1341     1.0  0.37473  0.48713  0.87831  1.0000
  C   C784      1.0  0.44397  0.59625  0.65652  1.0000
  H   H1342     1.0  0.33511  0.51579  0.78269  1.0000
  H   H1343     1.0  0.37221  0.51579  0.87466  1.0000
  N   N60       1.0  0.35320  0.51297  0.82028  1.0000
  C   C785      1.0  0.34925  0.53580  0.83151  1.0000
  C   C786      1.0  0.35508  0.49774  0.84361  1.0000
  C   C787      1.0  0.33358  0.50885  0.80288  1.0000
  C   C788      1.0  0.37393  0.51150  0.80420  1.0000
  C   C789      1.0  0.37433  0.50023  0.86330  1.0000
  C   C790      1.0  0.48287  0.58806  0.89547  1.0000
  C   C791      1.0  0.26562  0.34662  0.78576  1.0000
  H   H1344     1.0  0.42116  0.60977  0.92979  1.0000
  H   H1345     1.0  0.28362  0.36603  0.55158  1.0000
  C   C792      1.0  0.45142  0.61384  0.90809  1.0000
  H   H1346     1.0  0.43047  0.57670  0.90821  1.0000
  H   H1347     1.0  0.33789  0.65414  0.48600  1.0000
  C   C793      1.0  0.35027  0.65358  0.67426  1.0000
  H   H1348     1.0  0.29330  0.63904  0.70626  1.0000
  H   H1349     1.0  0.27941  0.39567  0.76409  1.0000
  H   H1350     1.0  0.30727  0.36003  0.79474  1.0000
  C   C794      1.0  0.49649  0.60512  0.88356  1.0000
  H   H1351     1.0  0.33773  0.46970  0.47526  1.0000
  H   H1352     1.0  0.50380  0.62124  0.55588  1.0000
  H   H1353     1.0  0.29124  0.65425  0.96298  1.0000
  C   C795      1.0  0.48686  0.56311  0.47143  1.0000
  C   C796      1.0  0.31434  0.66341  0.69453  1.0000
  C   C797      1.0  0.26932  0.34254  0.86184  1.0000
  H   H1354     1.0  0.35675  0.65115  0.69489  1.0000
  H   H1355     1.0  0.29296  0.38335  0.81123  1.0000
  H   H1356     1.0  0.32295  0.63055  0.49034  1.0000
  H   H1357     1.0  0.32246  0.66232  0.71450  1.0000
  H   H1358     1.0  0.27413  0.42905  0.96115  1.0000
  H   H1359     1.0  0.26985  0.51395  0.58076  1.0000
  H   H1360     1.0  0.49239  0.62166  0.89193  1.0000
  H   H1361     1.0  0.31425  0.66660  0.91160  1.0000
  C   C798      1.0  0.48705  0.56136  0.96738  1.0000
  C   C799      1.0  0.33795  0.63653  0.48203  1.0000
  C   C800      1.0  0.33346  0.67256  0.78624  1.0000
  C   C801      1.0  0.33746  0.64166  0.96698  1.0000
  H   H1362     1.0  0.51168  0.55286  0.61492  1.0000
  H   H1363     1.0  0.29521  0.48543  0.96752  1.0000
  C   C802      1.0  0.38497  0.98977  0.15164  1.0000
  N   N61       1.0  0.26663  0.79385  0.28002  1.0000
  H   H1364     1.0  0.37962  0.69260  0.18921  1.0000
  C   C803      1.0  0.26545  0.88615  0.97417  1.0000
  S   S224      1.0  0.29667  0.73681  0.40463  1.0000
  C   C804      1.0  0.27807  0.82398  0.10596  1.0000
  C   C805      1.0  0.27037  0.94488  0.99328  1.0000
  H   H1365     1.0  0.28199  0.88030  0.98239  1.0000
  H   H1366     1.0  0.35215  0.96271  0.99583  1.0000
  C   C806      1.0  0.36634  0.68211  0.19323  1.0000
  H   H1367     1.0  0.28114  0.94412  0.01054  1.0000
  C   C807      1.0  0.26860  0.85604  0.35293  1.0000
  Fe  Fe119     1.0  0.30158  0.94561  0.09008  1.0000
  H   H1368     1.0  0.26412  0.84242  0.97294  1.0000
  S   S225      1.0  0.32906  0.96801  0.08982  1.0000
  S   S226      1.0  0.29488  0.79559  0.37303  1.0000
  S   S227      1.0  0.29261  0.92113  0.05921  1.0000
  S   S228      1.0  0.29597  0.92372  0.12469  1.0000
  H   H1369     1.0  0.28466  0.99843  0.98057  1.0000
  C   C808      1.0  0.31922  0.99541  0.43704  1.0000
  H   H1370     1.0  0.33529  0.00038  0.23222  1.0000
  C   C809      1.0  0.36432  0.00217  0.03973  1.0000
  C   C810      1.0  0.27487  0.88734  0.41237  1.0000
  H   H1371     1.0  0.33041  0.67549  0.45341  1.0000
  H   H1372     1.0  0.30208  0.94462  0.46713  1.0000
  H   H1373     1.0  0.36154  0.68782  0.43236  1.0000
  N   N62       1.0  0.34448  0.00196  0.16332  1.0000
  H   H1374     1.0  0.28580  0.90024  0.40849  1.0000
  S   S229      1.0  0.32968  0.68816  0.36578  1.0000
  H   H1375     1.0  0.30003  0.94587  0.22963  1.0000
  H   H1376     1.0  0.30805  0.76919  0.06140  1.0000
  C   C811      1.0  0.26748  0.72023  0.27410  1.0000
  H   H1377     1.0  0.29377  0.71398  0.24597  1.0000
  H   H1378     1.0  0.27588  0.79593  0.05813  1.0000
  C   C812      1.0  0.35087  0.68206  0.16858  1.0000
  C   C813      1.0  0.34791  0.99551  0.19206  1.0000
  H   H1379     1.0  0.29546  0.81890  0.10799  1.0000
  H   H1380     1.0  0.28580  0.94538  0.18295  1.0000
  H   H1381     1.0  0.29164  0.67796  0.44797  1.0000
  S   S230      1.0  0.28408  0.94906  0.41407  1.0000
  H   H1382     1.0  0.29802  0.79569  0.26066  1.0000
  C   C814      1.0  0.28345  0.83785  0.35886  1.0000
  H   H1383     1.0  0.29145  0.79405  0.02845  1.0000
  H   H1384     1.0  0.32255  0.79173  0.29669  1.0000
  C   C815      1.0  0.26271  0.80882  0.10989  1.0000
  C   C816      1.0  0.31005  0.69069  0.13500  1.0000
  C   C817      1.0  0.35225  0.97206  0.01418  1.0000
  C   C818      1.0  0.34149  0.97684  0.06059  1.0000
  C   C819      1.0  0.34079  0.96542  0.03638  1.0000
  H   H1385     1.0  0.35696  0.96404  0.39773  1.0000
  C   C820      1.0  0.36197  0.97439  0.41448  1.0000
  H   H1386     1.0  0.30094  0.83932  0.35898  1.0000
  H   H1387     1.0  0.33201  0.95109  0.03499  1.0000
  H   H1388     1.0  0.32338  0.96336  0.14906  1.0000
  C   C821      1.0  0.27578  0.81784  0.36482  1.0000
  C   C822      1.0  0.29284  0.76467  0.05131  1.0000
  S   S231      1.0  0.27880  0.94978  0.28028  1.0000
  Fe  Fe120     1.0  0.28327  0.90100  0.09376  1.0000
  S   S232      1.0  0.29113  0.86426  0.09591  1.0000
  C   C823      1.0  0.33101  0.67715  0.28561  1.0000
  H   H1389     1.0  0.31195  0.69846  0.31284  1.0000
  C   C824      1.0  0.30239  0.99648  0.98599  1.0000
  H   H1390     1.0  0.30450  0.77850  0.31708  1.0000
  H   H1391     1.0  0.35380  0.00435  0.08055  1.0000
  C   C825      1.0  0.30508  0.79166  0.30240  1.0000
  H   H1392     1.0  0.35997  0.00485  0.39333  1.0000
  H   H1393     1.0  0.30056  0.70576  0.01357  1.0000
  S   S233      1.0  0.27762  0.70931  0.06329  1.0000
  Fe  Fe121     1.0  0.30035  0.71329  0.36977  1.0000
  H   H1394     1.0  0.32928  0.00037  0.45425  1.0000
  C   C826      1.0  0.26318  0.72452  0.22602  1.0000
  Fe  Fe122     1.0  0.28419  0.76152  0.37397  1.0000
  C   C827      1.0  0.27140  0.95036  0.44551  1.0000
  C   C828      1.0  0.29505  0.00345  0.44282  1.0000
  S   S234      1.0  0.27171  0.91960  0.34617  1.0000
  H   H1395     1.0  0.29246  0.83258  0.27986  1.0000
  H   H1396     1.0  0.26313  0.76432  0.30163  1.0000
  C   C829      1.0  0.28249  0.94765  0.22580  1.0000
  H   H1397     1.0  0.34754  0.97767  0.19436  1.0000
  H   H1398     1.0  0.31837  0.98225  0.34640  1.0000
  H   H1399     1.0  0.31989  0.97208  0.39304  1.0000
  H   H1400     1.0  0.27037  0.85677  0.46127  1.0000
  H   H1401     1.0  0.29801  0.75268  0.03544  1.0000
  C   C830      1.0  0.36412  0.99041  0.01575  1.0000
  C   C831      1.0  0.27449  0.94756  0.19934  1.0000
  H   H1402     1.0  0.38021  0.97344  0.41460  1.0000
  S   S235      1.0  0.26775  0.96337  0.09229  1.0000
  H   H1403     1.0  0.32044  0.97735  0.43810  1.0000
  H   H1404     1.0  0.35809  0.97020  0.14924  1.0000
  H   H1405     1.0  0.27455  0.89378  0.45398  1.0000
  H   H1406     1.0  0.27830  0.79321  0.22441  1.0000
  H   H1407     1.0  0.27675  0.88623  0.21088  1.0000
  N   N63       1.0  0.32804  0.00251  0.41093  1.0000
  H   H1408     1.0  0.28455  0.71668  0.46730  1.0000
  C   C832      1.0  0.31797  0.67494  0.19256  1.0000
  C   C833      1.0  0.29096  0.78737  0.27748  1.0000
  C   C834      1.0  0.27088  0.88821  0.18991  1.0000
  H   H1409     1.0  0.32451  0.67803  0.41926  1.0000
  H   H1410     1.0  0.29988  0.80735  0.31243  1.0000
  H   H1411     1.0  0.26849  0.85028  0.27274  1.0000
  S   S236      1.0  0.29134  0.73878  0.33922  1.0000
  H   H1412     1.0  0.28586  0.87214  0.41472  1.0000
  H   H1413     1.0  0.28240  0.77037  0.99348  1.0000
  S   S237      1.0  0.27516  0.72341  0.19425  1.0000
  H   H1414     1.0  0.30809  0.97897  0.98748  1.0000
  H   H1415     1.0  0.29407  0.76967  0.27262  1.0000
  H   H1416     1.0  0.31215  0.97341  0.18059  1.0000
  H   H1417     1.0  0.36454  0.99893  0.19926  1.0000
  C   C835      1.0  0.27983  0.78543  0.04039  1.0000
  C   C836      1.0  0.27594  0.83325  0.27034  1.0000
  H   H1418     1.0  0.27786  0.82993  0.24879  1.0000
  C   C837      1.0  0.36034  0.98764  0.14644  1.0000
  H   H1419     1.0  0.26602  0.84540  0.15604  1.0000
  C   C838      1.0  0.31317  0.97680  0.15905  1.0000
  H   H1420     1.0  0.29384  0.85990  0.17879  1.0000
  H   H1421     1.0  0.28639  0.87834  0.15137  1.0000
  H   H1422     1.0  0.29628  0.97668  0.15058  1.0000
  H   H1423     1.0  0.26761  0.82638  0.18215  1.0000
  H   H1424     1.0  0.27777  0.71558  0.29116  1.0000
  H   H1425     1.0  0.31339  0.69274  0.19128  1.0000
  H   H1426     1.0  0.28344  0.75686  0.06661  1.0000
  H   H1427     1.0  0.26701  0.78704  0.32240  1.0000
  C   C839      1.0  0.27587  0.70781  0.98221  1.0000
  C   C840      1.0  0.28968  0.87706  0.17305  1.0000
  C   C841      1.0  0.31806  0.98979  0.38878  1.0000
  H   H1428     1.0  0.30469  0.88543  0.17693  1.0000
  H   H1429     1.0  0.39471  0.97928  0.13706  1.0000
  H   H1430     1.0  0.27471  0.87136  0.34839  1.0000
  C   C842      1.0  0.26604  0.76707  0.00116  1.0000
  H   H1431     1.0  0.36132  0.67797  0.15083  1.0000
  C   C843      1.0  0.28314  0.70713  0.00901  1.0000
  H   H1432     1.0  0.35719  0.96768  0.43371  1.0000
  C   C844      1.0  0.26796  0.94974  0.24737  1.0000
  C   C845      1.0  0.32504  0.68552  0.31096  1.0000
  S   S238      1.0  0.26629  0.70286  0.37305  1.0000
  H   H1433     1.0  0.34395  0.69925  0.16617  1.0000
  C   C846      1.0  0.35273  0.99835  0.41145  1.0000
  C   C847      1.0  0.27112  0.84569  0.09981  1.0000
  H   H1434     1.0  0.29011  0.99582  0.46146  1.0000
  S   S239      1.0  0.37832  0.99811  0.98728  1.0000
  C   C848      1.0  0.27647  0.71915  0.24844  1.0000
  H   H1435     1.0  0.27003  0.90587  0.18570  1.0000
  H   H1436     1.0  0.35762  0.68906  0.21111  1.0000
  H   H1437     1.0  0.35703  0.99051  0.12488  1.0000
  C   C849      1.0  0.35321  0.99531  0.06206  1.0000
  H   H1438     1.0  0.26812  0.74998  0.00782  1.0000
  H   H1439     1.0  0.39034  0.98411  0.17177  1.0000
  H   H1440     1.0  0.26411  0.88667  0.39454  1.0000
  H   H1441     1.0  0.31982  0.00159  0.13192  1.0000
  H   H1442     1.0  0.29859  0.69817  0.15017  1.0000
  H   H1443     1.0  0.32243  0.68377  0.26809  1.0000
  C   C850      1.0  0.32141  0.99914  0.15382  1.0000
  C   C851      1.0  0.33625  0.67735  0.33374  1.0000
  H   H1444     1.0  0.26838  0.79227  0.11481  1.0000
  H   H1445     1.0  0.32241  0.70196  0.13019  1.0000
  H   H1446     1.0  0.28373  0.99869  0.42682  1.0000
  C   C852      1.0  0.26797  0.70881  0.02993  1.0000
  S   S240      1.0  0.26421  0.74726  0.12348  1.0000
  H   H1447     1.0  0.26541  0.84554  0.41147  1.0000
  H   H1448     1.0  0.34482  0.98687  0.35922  1.0000
  C   C853      1.0  0.32709  0.99251  0.36057  1.0000
  H   H1449     1.0  0.29999  0.99418  0.38737  1.0000
  H   H1450     1.0  0.26589  0.82464  0.43547  1.0000
  H   H1451     1.0  0.30406  0.00361  0.00628  1.0000
  H   H1452     1.0  0.30020  0.68884  0.11645  1.0000
  C   C854      1.0  0.26192  0.89341  0.43789  1.0000
  Fe  Fe123     1.0  0.26190  0.94421  0.37833  1.0000
  H   H1453     1.0  0.31430  0.00477  0.20734  1.0000
  H   H1454     1.0  0.26278  0.81107  0.00187  1.0000
  S   S241      1.0  0.29229  0.73255  0.84204  1.0000
  C   C855      1.0  0.27002  0.93826  0.69901  1.0000
  C   C856      1.0  0.33253  0.97793  0.93931  1.0000
  H   H1455     1.0  0.29597  0.81965  0.61529  1.0000
  C   C857      1.0  0.33572  0.69241  0.68007  1.0000
  C   C858      1.0  0.34009  0.97802  0.51289  1.0000
  H   H1456     1.0  0.37562  0.94082  0.58088  1.0000
  S   S242      1.0  0.27013  0.93219  0.77951  1.0000
  S   S243      1.0  0.27719  0.94210  0.91296  1.0000
  H   H1457     1.0  0.26590  0.84315  0.69182  1.0000
  S   S244      1.0  0.29238  0.86378  0.59735  1.0000
  C   C859      1.0  0.27214  0.84591  0.60354  1.0000
  Fe  Fe124     1.0  0.30249  0.94436  0.59116  1.0000
  H   H1458     1.0  0.35236  0.71243  0.70824  1.0000
  S   S245      1.0  0.33270  0.96303  0.59097  1.0000
  H   H1459     1.0  0.28765  0.70694  0.96627  1.0000
  S   S246      1.0  0.29404  0.91998  0.55998  1.0000
  S   S247      1.0  0.29552  0.92289  0.62545  1.0000
  H   H1460     1.0  0.38824  0.91623  0.59422  1.0000
  H   H1461     1.0  0.28468  0.67694  0.65507  1.0000
  H   H1462     1.0  0.29020  0.87307  0.69177  1.0000
  H   H1463     1.0  0.40963  0.94843  0.55922  1.0000
  Fe  Fe125     1.0  0.28352  0.90024  0.59416  1.0000
  C   C860      1.0  0.26300  0.81014  0.61744  1.0000
  S   S248      1.0  0.33297  0.68237  0.86655  1.0000
  Fe  Fe126     1.0  0.30255  0.70599  0.87090  1.0000
  H   H1464     1.0  0.33104  0.67570  0.63135  1.0000
  S   S249      1.0  0.29266  0.78774  0.88039  1.0000
  C   C861      1.0  0.27231  0.80941  0.87469  1.0000
  H   H1465     1.0  0.29353  0.93014  0.73064  1.0000
  S   S250      1.0  0.27385  0.71887  0.69433  1.0000
  C   C862      1.0  0.27226  0.71716  0.48265  1.0000
  H   H1466     1.0  0.27672  0.82074  0.78818  1.0000
  C   C863      1.0  0.36025  0.98562  0.56185  1.0000
  H   H1467     1.0  0.30768  0.87790  0.91519  1.0000
  C   C864      1.0  0.28523  0.87368  0.67055  1.0000
  H   H1468     1.0  0.37585  0.67457  0.66269  1.0000
  H   H1469     1.0  0.29203  0.68148  0.62144  1.0000
  C   C865      1.0  0.28437  0.94707  0.46865  1.0000
  H   H1470     1.0  0.40912  0.89603  0.53873  1.0000
  C   C866      1.0  0.27860  0.71404  0.50956  1.0000
  H   H1471     1.0  0.36448  0.68502  0.70720  1.0000
  H   H1472     1.0  0.37825  0.90643  0.49351  1.0000
  S   S251      1.0  0.27157  0.71241  0.56347  1.0000
  H   H1473     1.0  0.34497  0.92623  0.55786  1.0000
  N   N64       1.0  0.37899  0.91407  0.55226  1.0000
  C   C867      1.0  0.33142  0.97043  0.53650  1.0000
  C   C868      1.0  0.34163  0.97404  0.56108  1.0000
  H   H1474     1.0  0.26820  0.78123  0.82325  1.0000
  C   C869      1.0  0.35540  0.91045  0.55762  1.0000
  H   H1475     1.0  0.29437  0.79337  0.56993  1.0000
  H   H1476     1.0  0.31714  0.96141  0.53561  1.0000
  C   C870      1.0  0.34858  0.69528  0.70638  1.0000
  H   H1477     1.0  0.27674  0.85569  0.91763  1.0000
  C   C871      1.0  0.36909  0.92112  0.50223  1.0000
  C   C872      1.0  0.26280  0.71513  0.52977  1.0000
  H   H1478     1.0  0.30554  0.99971  0.62336  1.0000
  H   H1479     1.0  0.39872  0.88642  0.56878  1.0000
  H   H1480     1.0  0.29694  0.94200  0.96524  1.0000
  H   H1481     1.0  0.41550  0.94081  0.59284  1.0000
  H   H1482     1.0  0.35202  0.91028  0.60123  1.0000
  H   H1483     1.0  0.32371  0.96175  0.90158  1.0000
  H   H1484     1.0  0.30031  0.67616  0.69691  1.0000
  C   C873      1.0  0.33836  0.96702  0.91214  1.0000
  H   H1485     1.0  0.26806  0.86084  0.72843  1.0000
  C   C874      1.0  0.36856  0.99373  0.53836  1.0000
  C   C875      1.0  0.35865  0.98977  0.51372  1.0000
  H   H1486     1.0  0.26421  0.81891  0.81957  1.0000
  C   C876      1.0  0.27866  0.83029  0.87069  1.0000
  H   H1487     1.0  0.37723  0.86299  0.54799  1.0000
  H   H1488     1.0  0.28462  0.94370  0.51138  1.0000
  C   C877      1.0  0.38004  0.92835  0.52823  1.0000
  C   C878      1.0  0.27868  0.82474  0.61227  1.0000
  C   C879      1.0  0.29208  0.88467  0.92453  1.0000
  H   H1489     1.0  0.27220  0.88939  0.72693  1.0000
  H   H1490     1.0  0.29585  0.71111  0.51479  1.0000
  H   H1491     1.0  0.28091  0.67328  0.93827  1.0000
  H   H1492     1.0  0.28228  0.89358  0.90865  1.0000
  H   H1493     1.0  0.29858  0.70037  0.64673  1.0000
  S   S252      1.0  0.37017  0.99760  0.48361  1.0000
  H   H1494     1.0  0.26792  0.86377  0.86221  1.0000
  H   H1495     1.0  0.39737  0.93027  0.52302  1.0000
  H   H1496     1.0  0.28220  0.77004  0.58279  1.0000
  H   H1497     1.0  0.34807  0.90098  0.54154  1.0000
  Fe  Fe127     1.0  0.28364  0.75313  0.87830  1.0000
  H   H1498     1.0  0.29210  0.77573  0.76899  1.0000
  H   H1499     1.0  0.31367  0.69234  0.81432  1.0000
  H   H1500     1.0  0.29291  0.81011  0.52045  1.0000
  H   H1501     1.0  0.28140  0.83451  0.53496  1.0000
  C   C880      1.0  0.29758  0.68286  0.64254  1.0000
  H   H1502     1.0  0.32416  0.67890  0.76907  1.0000
  C   C881      1.0  0.38728  0.92637  0.57600  1.0000
  H   H1503     1.0  0.29378  0.77558  0.52404  1.0000
  C   C882      1.0  0.27930  0.94392  0.96756  1.0000
  H   H1504     1.0  0.28218  0.93646  0.68350  1.0000
  H   H1505     1.0  0.33472  0.89329  0.58357  1.0000
  H   H1506     1.0  0.33243  0.97465  0.49392  1.0000
  H   H1507     1.0  0.28001  0.75450  0.53673  1.0000
  H   H1508     1.0  0.27979  0.76318  0.48505  1.0000
  H   H1509     1.0  0.29592  0.83284  0.87119  1.0000
  H   H1510     1.0  0.29227  0.85554  0.94774  1.0000
  H   H1511     1.0  0.29473  0.71370  0.74563  1.0000
  S   S253      1.0  0.29728  0.72758  0.90730  1.0000
  C   C883      1.0  0.28135  0.77223  0.53887  1.0000
  C   C884      1.0  0.29184  0.77607  0.56643  1.0000
  H   H1512     1.0  0.34513  0.69883  0.66361  1.0000
  H   H1513     1.0  0.30827  0.76666  0.56741  1.0000
  H   H1514     1.0  0.36856  0.98804  0.58064  1.0000
  H   H1515     1.0  0.37086  0.87932  0.51872  1.0000
  H   H1516     1.0  0.28887  0.98135  0.93885  1.0000
  H   H1517     1.0  0.35145  0.91896  0.50454  1.0000
  H   H1518     1.0  0.30006  0.79182  0.79759  1.0000
  C   C885      1.0  0.27642  0.93472  0.72577  1.0000
  H   H1519     1.0  0.39700  0.86449  0.52289  1.0000
  H   H1520     1.0  0.34960  0.95207  0.91570  1.0000
  S   S254      1.0  0.26905  0.96287  0.59184  1.0000
  C   C886      1.0  0.35145  0.89890  0.58396  1.0000
  H   H1521     1.0  0.32483  0.96565  0.95104  1.0000
  C   C887      1.0  0.41016  0.93458  0.57316  1.0000
  H   H1522     1.0  0.27753  0.79247  0.48185  1.0000
  S   S255      1.0  0.26938  0.69340  0.87267  1.0000
  C   C888      1.0  0.27450  0.94642  0.49373  1.0000
  C   C889      1.0  0.27715  0.71567  0.74861  1.0000
  H   H1523     1.0  0.32053  0.70381  0.68164  1.0000
  C   C890      1.0  0.26750  0.77951  0.80108  1.0000
  H   H1524     1.0  0.36334  0.88445  0.58721  1.0000
  H   H1525     1.0  0.31960  0.67678  0.94356  1.0000
  C   C891      1.0  0.29132  0.77779  0.79095  1.0000
  H   H1526     1.0  0.36221  0.99999  0.62752  1.0000
  H   H1527     1.0  0.42278  0.92150  0.56680  1.0000
  H   H1528     1.0  0.37245  0.94502  0.53284  1.0000
  C   C892      1.0  0.38367  0.87432  0.53372  1.0000
  H   H1529     1.0  0.35246  0.68291  0.92535  1.0000
  H   H1530     1.0  0.27072  0.82590  0.50323  1.0000
  H   H1531     1.0  0.30061  0.76315  0.79958  1.0000
  H   H1532     1.0  0.36975  0.93419  0.48732  1.0000
  C   C893      1.0  0.26282  0.71820  0.72655  1.0000
  C   C894      1.0  0.29567  0.99448  0.92768  1.0000
  H   H1533     1.0  0.38305  0.00245  0.53920  1.0000
  H   H1534     1.0  0.33873  0.69207  0.72403  1.0000
  H   H1535     1.0  0.29701  0.98779  0.90701  1.0000
  H   H1536     1.0  0.28007  0.71371  0.79140  1.0000
  H   H1537     1.0  0.29646  0.89621  0.94037  1.0000
  H   H1538     1.0  0.34827  0.98005  0.94994  1.0000
  C   C895      1.0  0.39361  0.89308  0.54885  1.0000
  N   N65       1.0  0.31787  0.99903  0.93848  1.0000
  C   C896      1.0  0.28015  0.86580  0.93534  1.0000
  H   H1539     1.0  0.26690  0.80140  0.75056  1.0000
  H   H1540     1.0  0.26824  0.79404  0.62460  1.0000
  C   C897      1.0  0.26823  0.77811  0.48310  1.0000
  H   H1541     1.0  0.28881  0.85736  0.66118  1.0000
  C   C898      1.0  0.26887  0.71581  0.77461  1.0000
  C   C899      1.0  0.27714  0.82020  0.52299  1.0000
  H   H1542     1.0  0.34722  0.97745  0.89910  1.0000
  C   C900      1.0  0.32747  0.68021  0.81189  1.0000
  H   H1543     1.0  0.29594  0.88450  0.66058  1.0000
  C   C901      1.0  0.26551  0.94469  0.94494  1.0000
  S   S256      1.0  0.26382  0.90879  0.84873  1.0000
  C   C902      1.0  0.26281  0.84785  0.86561  1.0000
  Fe  Fe128     1.0  0.26320  0.71711  0.90684  1.0000
  H   H1544     1.0  0.26682  0.90301  0.96767  1.0000
  H   H1545     1.0  0.36281  0.00602  0.92590  1.0000
  H   H1546     1.0  0.32520  0.00485  0.64858  1.0000
  H   H1547     1.0  0.57334  0.05991  0.08443  1.0000
  S   S257      1.0  0.74083  0.24416  0.07653  1.0000
  H   H1548     1.0  0.70853  0.07425  0.28363  1.0000
  H   H1549     1.0  0.70477  0.25599  0.98404  1.0000
  H   H1550     1.0  0.69381  0.18919  0.98584  1.0000
  H   H1551     1.0  0.55103  0.12578  0.03942  1.0000
  H   H1552     1.0  0.67585  0.02085  0.35901  1.0000
  S   S258      1.0  0.72751  0.21312  0.01049  1.0000
  H   H1553     1.0  0.70879  0.27029  0.25939  1.0000
  S   S259      1.0  0.73476  0.21523  0.14314  1.0000
  C   C903      1.0  0.75713  0.29745  0.98835  1.0000
  C   C904      1.0  0.65675  0.17201  0.01262  1.0000
  Fe  Fe129     1.0  0.72080  0.25672  0.32325  1.0000
  C   C905      1.0  0.51669  0.05843  0.04431  1.0000
  C   C906      1.0  0.66740  0.12384  0.01384  1.0000
  Fe  Fe130     1.0  0.70515  0.21119  0.33052  1.0000
  S   S260      1.0  0.73989  0.19542  0.33245  1.0000
  S   S261      1.0  0.67882  0.18751  0.33064  1.0000
  Fe  Fe131     1.0  0.74569  0.22365  0.35925  1.0000
  H   H1554     1.0  0.54164  0.09964  0.06906  1.0000
  Fe  Fe132     1.0  0.74631  0.21700  0.29826  1.0000
  C   C907      1.0  0.51624  0.09256  0.44873  1.0000
  S   S262      1.0  0.71073  0.23856  0.35920  1.0000
  S   S263      1.0  0.71126  0.23098  0.29426  1.0000
  Fe  Fe133     1.0  0.61321  0.13085  0.43865  1.0000
  S   S264      1.0  0.63460  0.09937  0.44250  1.0000
  S   S265      1.0  0.63020  0.16187  0.43575  1.0000
  C   C908      1.0  0.73272  0.31052  0.31022  1.0000
  Fe  Fe134     1.0  0.62428  0.04525  0.20150  1.0000
  H   H1555     1.0  0.51519  0.10718  0.34085  1.0000
  H   H1556     1.0  0.66002  0.20676  0.00403  1.0000
  S   S266      1.0  0.62500  0.07451  0.01192  1.0000
  Fe  Fe135     1.0  0.61066  0.08671  0.41342  1.0000
  S   S267      1.0  0.62089  0.06398  0.37942  1.0000
  H   H1557     1.0  0.52353  0.07516  0.00830  1.0000
  S   S268      1.0  0.59055  0.11856  0.40751  1.0000
  Fe  Fe136     1.0  0.60744  0.08461  0.16815  1.0000
  S   S269      1.0  0.60949  0.10633  0.13218  1.0000
  Fe  Fe137     1.0  0.60689  0.08665  0.22967  1.0000
  S   S270      1.0  0.59883  0.05229  0.23292  1.0000
  S   S271      1.0  0.61147  0.10796  0.26600  1.0000
  Fe  Fe138     1.0  0.57536  0.06038  0.19898  1.0000
  H   H1558     1.0  0.66484  0.15845  0.21931  1.0000
  S   S272      1.0  0.63376  0.07941  0.19991  1.0000
  S   S273      1.0  0.58134  0.09548  0.19802  1.0000
  H   H1559     1.0  0.66892  0.01770  0.09998  1.0000
  H   H1560     1.0  0.70499  0.31552  0.00817  1.0000
  H   H1561     1.0  0.70584  0.22128  0.45788  1.0000
  H   H1562     1.0  0.61530  0.15344  0.26072  1.0000
  H   H1563     1.0  0.66459  0.04843  0.35644  1.0000
  H   H1564     1.0  0.53724  0.09411  0.21676  1.0000
  H   H1565     1.0  0.73061  0.32044  0.24223  1.0000
  Fe  Fe139     1.0  0.75505  0.21938  0.10620  1.0000
  C   C909      1.0  0.55179  0.06994  0.27852  1.0000
  H   H1566     1.0  0.66675  0.05042  0.12749  1.0000
  N   N66       1.0  0.64446  0.01905  0.45370  1.0000
  H   H1567     1.0  0.54395  0.11141  0.28465  1.0000
  C   C910      1.0  0.68463  0.17550  0.97880  1.0000
  C   C911      1.0  0.61897  0.07628  0.34800  1.0000
  C   C912      1.0  0.61900  0.09878  0.34551  1.0000
  C   C913      1.0  0.61698  0.10833  0.32022  1.0000
  C   C914      1.0  0.61507  0.09542  0.29729  1.0000
  C   C915      1.0  0.61574  0.07288  0.29978  1.0000
  C   C916      1.0  0.61762  0.06334  0.32505  1.0000
  H   H1568     1.0  0.62057  0.10884  0.36306  1.0000
  H   H1569     1.0  0.61668  0.12578  0.31852  1.0000
  H   H1570     1.0  0.61478  0.06270  0.28234  1.0000
  H   H1571     1.0  0.61782  0.04589  0.32679  1.0000
  C   C917      1.0  0.62035  0.08368  0.04517  1.0000
  C   C918      1.0  0.61437  0.10555  0.05136  1.0000
  C   C919      1.0  0.61115  0.11220  0.07811  1.0000
  C   C920      1.0  0.61350  0.09705  0.09887  1.0000
  C   C921      1.0  0.61915  0.07512  0.09264  1.0000
  C   C922      1.0  0.62272  0.06852  0.06592  1.0000
  H   H1572     1.0  0.61246  0.11738  0.03561  1.0000
  H   H1573     1.0  0.60680  0.12920  0.08277  1.0000
  H   H1574     1.0  0.62105  0.06332  0.10843  1.0000
  H   H1575     1.0  0.62735  0.05157  0.06129  1.0000
  C   C923      1.0  0.66640  0.17998  0.36046  1.0000
  C   C924      1.0  0.65516  0.16120  0.36056  1.0000
  C   C925      1.0  0.64427  0.15530  0.38357  1.0000
  C   C926      1.0  0.64421  0.16834  0.40658  1.0000
  C   C927      1.0  0.65549  0.18708  0.40647  1.0000
  C   C928      1.0  0.66675  0.19274  0.38366  1.0000
  H   H1576     1.0  0.65483  0.15115  0.34280  1.0000
  H   H1577     1.0  0.63565  0.14087  0.38340  1.0000
  H   H1578     1.0  0.65527  0.19748  0.42396  1.0000
  H   H1579     1.0  0.67516  0.20733  0.38381  1.0000
  H   H1580     1.0  0.55432  0.12921  0.00462  1.0000
  H   H1581     1.0  0.69664  0.02217  0.31829  1.0000
  C   C929      1.0  0.71169  0.32201  0.98985  1.0000
  H   H1582     1.0  0.71877  0.13444  0.01243  1.0000
  S   S274      1.0  0.71213  0.29270  0.31493  1.0000
  C   C930      1.0  0.70567  0.26751  0.00101  1.0000
  H   H1583     1.0  0.74305  0.33175  0.13143  1.0000
  C   C931      1.0  0.67539  0.13915  0.99278  1.0000
  H   H1584     1.0  0.64097  0.13679  0.19631  1.0000
  C   C932      1.0  0.52107  0.09367  0.32701  1.0000
  C   C933      1.0  0.74481  0.21303  0.17634  1.0000
  C   C934      1.0  0.72964  0.21442  0.19724  1.0000
  C   C935      1.0  0.73681  0.21278  0.22398  1.0000
  H   H1585     1.0  0.65025  0.12885  0.01990  1.0000
  C   C936      1.0  0.55503  0.08703  0.06320  1.0000
  C   C937      1.0  0.55744  0.07022  0.08576  1.0000
  H   H1586     1.0  0.71223  0.21688  0.19268  1.0000
  H   H1587     1.0  0.72495  0.21394  0.23982  1.0000
  H   H1588     1.0  0.54527  0.04306  0.99909  1.0000
  C   C938      1.0  0.69536  0.16237  0.02420  1.0000
  H   H1589     1.0  0.74900  0.33333  0.22132  1.0000
  H   H1590     1.0  0.69535  0.02256  0.11168  1.0000
  H   H1591     1.0  0.61775  0.14554  0.21619  1.0000
  N   N67       1.0  0.64661  0.16656  0.25568  1.0000
  C   C939      1.0  0.65537  0.18827  0.26060  1.0000
  C   C940      1.0  0.65868  0.14908  0.27263  1.0000
  C   C941      1.0  0.67961  0.18993  0.25374  1.0000
  C   C942      1.0  0.67951  0.13656  0.26080  1.0000
  H   H1592     1.0  0.64531  0.20124  0.24938  1.0000
  H   H1593     1.0  0.65403  0.19317  0.28194  1.0000
  H   H1594     1.0  0.66359  0.15601  0.29216  1.0000
  H   H1595     1.0  0.61967  0.19374  0.29579  1.0000
  H   H1596     1.0  0.60044  0.17397  0.29698  1.0000
  H   H1597     1.0  0.54708  0.14729  0.30172  1.0000
  H   H1598     1.0  0.68283  0.20727  0.25522  1.0000
  H   H1599     1.0  0.68390  0.18451  0.23320  1.0000
  H   H1600     1.0  0.67543  0.12546  0.24434  1.0000
  H   H1601     1.0  0.68788  0.12626  0.27659  1.0000
  H   H1602     1.0  0.69154  0.14728  0.25367  1.0000
  C   C943      1.0  0.62268  0.16905  0.26340  1.0000
  N   N68       1.0  0.68778  0.05576  0.30752  1.0000
  C   C944      1.0  0.67229  0.04875  0.28624  1.0000
  C   C945      1.0  0.69124  0.03805  0.32799  1.0000
  C   C946      1.0  0.70974  0.05929  0.29590  1.0000
  C   C947      1.0  0.67791  0.07680  0.31980  1.0000
  C   C948      1.0  0.66773  0.06428  0.26255  1.0000
  C   C949      1.0  0.67100  0.03402  0.34462  1.0000
  H   H1603     1.0  0.68353  0.03345  0.43392  1.0000
  C   C950      1.0  0.69022  0.08513  0.34434  1.0000
  H   H1604     1.0  0.67834  0.03257  0.27802  1.0000
  H   H1605     1.0  0.65601  0.04655  0.29471  1.0000
  H   H1606     1.0  0.70477  0.04113  0.34218  1.0000
  C   C951      1.0  0.72861  0.27572  0.00410  1.0000
  H   H1607     1.0  0.54375  0.05986  0.08623  1.0000
  H   H1608     1.0  0.72182  0.06216  0.31204  1.0000
  H   H1609     1.0  0.67690  0.09012  0.30503  1.0000
  H   H1610     1.0  0.66069  0.07548  0.32570  1.0000
  H   H1611     1.0  0.68285  0.06723  0.25186  1.0000
  H   H1612     1.0  0.65695  0.05661  0.24795  1.0000
  H   H1613     1.0  0.65867  0.07992  0.26871  1.0000
  H   H1614     1.0  0.65763  0.02823  0.33212  1.0000
  H   H1615     1.0  0.64336  0.17025  0.99763  1.0000
  S   S275      1.0  0.59606  0.12713  0.97511  1.0000
  C   C952      1.0  0.72065  0.04043  0.27865  1.0000
  H   H1616     1.0  0.51645  0.07887  0.15847  1.0000
  H   H1617     1.0  0.71112  0.03773  0.26012  1.0000
  H   H1618     1.0  0.69038  0.07389  0.36138  1.0000
  H   H1619     1.0  0.68152  0.10083  0.35112  1.0000
  H   H1620     1.0  0.70729  0.08819  0.33965  1.0000
  C   C953      1.0  0.55842  0.09525  0.01607  1.0000
  H   H1621     1.0  0.74452  0.27920  0.27088  1.0000
  N   N69       1.0  0.55120  0.07873  0.03519  1.0000
  C   C954      1.0  0.51978  0.06563  0.21332  1.0000
  H   H1622     1.0  0.66965  0.18338  0.96879  1.0000
  H   H1623     1.0  0.55508  0.09060  0.99505  1.0000
  H   H1624     1.0  0.64031  0.17552  0.21446  1.0000
  C   C955      1.0  0.67034  0.04668  0.43771  1.0000
  S   S276      1.0  0.60002  0.04979  0.16723  1.0000
  H   H1625     1.0  0.75349  0.25335  0.20308  1.0000
  C   C956      1.0  0.52183  0.08744  0.21967  1.0000
  C   C957      1.0  0.64764  0.16136  0.22621  1.0000
  H   H1626     1.0  0.69300  0.15483  0.43901  1.0000
  H   H1627     1.0  0.56252  0.08045  0.26799  1.0000
  H   H1628     1.0  0.71858  0.16646  0.43839  1.0000
  H   H1629     1.0  0.63985  0.12731  0.22980  1.0000
  C   C958      1.0  0.63586  0.14157  0.21691  1.0000
  H   H1630     1.0  0.66200  0.05168  0.41865  1.0000
  H   H1631     1.0  0.72475  0.33254  0.99538  1.0000
  H   H1632     1.0  0.56888  0.11148  0.30236  1.0000
  C   C959      1.0  0.55429  0.07211  0.30905  1.0000
  C   C960      1.0  0.54752  0.11872  0.01958  1.0000
  H   H1633     1.0  0.57654  0.09598  0.01750  1.0000
  H   H1634     1.0  0.62792  0.01784  0.25392  1.0000
  H   H1635     1.0  0.66720  0.10732  0.00488  1.0000
  H   H1636     1.0  0.71616  0.26086  0.22667  1.0000
  H   H1637     1.0  0.67841  0.12225  0.03157  1.0000
  H   H1638     1.0  0.62821  0.16648  0.30713  1.0000
  S   S277      1.0  0.54154  0.04872  0.19914  1.0000
  N   N70       1.0  0.54536  0.09335  0.32191  1.0000
  C   C961      1.0  0.55686  0.09540  0.34861  1.0000
  C   C962      1.0  0.55077  0.11217  0.30519  1.0000
  H   H1639     1.0  0.52957  0.11989  0.01561  1.0000
  H   H1640     1.0  0.71926  0.28037  0.43088  1.0000
  C   C963      1.0  0.55782  0.07541  0.36689  1.0000
  H   H1641     1.0  0.73484  0.31235  0.20767  1.0000
  C   C964      1.0  0.74017  0.29486  0.46021  1.0000
  H   H1642     1.0  0.57415  0.09900  0.34587  1.0000
  H   H1643     1.0  0.54900  0.10932  0.36052  1.0000
  H   H1644     1.0  0.57226  0.06900  0.31303  1.0000
  H   H1645     1.0  0.66613  0.19910  0.03827  1.0000
  H   H1646     1.0  0.58306  0.06030  0.03255  1.0000
  H   H1647     1.0  0.55782  0.07895  0.10526  1.0000
  H   H1648     1.0  0.51672  0.03815  0.45931  1.0000
  Fe  Fe140     1.0  0.57058  0.10825  0.44176  1.0000
  H   H1649     1.0  0.54140  0.07019  0.37072  1.0000
  H   H1650     1.0  0.72632  0.16088  0.00226  1.0000
  H   H1651     1.0  0.56490  0.07973  0.38656  1.0000
  S   S278      1.0  0.75609  0.24353  0.32549  1.0000
  S   S279      1.0  0.65216  0.01838  0.20431  1.0000
  C   C965      1.0  0.73259  0.21943  0.43010  1.0000
  H   H1652     1.0  0.57042  0.09529  0.06427  1.0000
  H   H1653     1.0  0.69077  0.13076  0.98463  1.0000
  H   H1654     1.0  0.68970  0.15451  0.04233  1.0000
  C   C966      1.0  0.61781  0.17624  0.29253  1.0000
  H   H1655     1.0  0.64773  0.13642  0.27782  1.0000
  H   H1656     1.0  0.56272  0.04518  0.04499  1.0000
  H   H1657     1.0  0.61297  0.18086  0.25016  1.0000
  H   H1658     1.0  0.72193  0.22125  0.41276  1.0000
  H   H1659     1.0  0.55155  0.13859  0.33521  1.0000
  H   H1660     1.0  0.69074  0.18125  0.26860  1.0000
  H   H1661     1.0  0.69758  0.17937  0.03038  1.0000
  C   C967      1.0  0.65565  0.19634  0.02057  1.0000
  C   C968      1.0  0.63192  0.02100  0.42749  1.0000
  C   C969      1.0  0.74231  0.30652  0.06692  1.0000
  Fe  Fe141     1.0  0.61488  0.09421  0.97495  1.0000
  N   N71       1.0  0.67850  0.16200  0.00202  1.0000
  H   H1662     1.0  0.72074  0.31975  0.36985  1.0000
  C   C970      1.0  0.75925  0.20936  0.23008  1.0000
  H   H1663     1.0  0.70218  0.25856  0.01929  1.0000
  Fe  Fe142     1.0  0.75045  0.21894  0.04510  1.0000
  C   C971      1.0  0.71992  0.30404  0.96967  1.0000
  C   C972      1.0  0.52712  0.07671  0.02999  1.0000
  C   C973      1.0  0.73163  0.27486  0.44640  1.0000
  H   H1664     1.0  0.74724  0.25298  0.25615  1.0000
  C   C974      1.0  0.65376  0.04048  0.45851  1.0000
  H   H1665     1.0  0.71387  0.28957  0.23490  1.0000
  C   C975      1.0  0.71934  0.27316  0.24221  1.0000
  C   C976      1.0  0.67950  0.01710  0.11827  1.0000
  H   H1666     1.0  0.52788  0.04348  0.04710  1.0000
  H   H1667     1.0  0.72816  0.28656  0.02194  1.0000
  H   H1668     1.0  0.69245  0.28100  0.99901  1.0000
  H   H1669     1.0  0.66326  0.13960  0.97596  1.0000
  S   S280      1.0  0.58921  0.07542  0.44517  1.0000
  H   H1670     1.0  0.74753  0.30379  0.44406  1.0000
  C   C977      1.0  0.54299  0.13496  0.31627  1.0000
  C   C978      1.0  0.71858  0.15186  0.01793  1.0000
  N   N72       1.0  0.76040  0.27769  0.23238  1.0000
  H   H1671     1.0  0.75356  0.30865  0.00561  1.0000
  H   H1672     1.0  0.65198  0.03086  0.14339  1.0000
  C   C979      1.0  0.56537  0.05772  0.03016  1.0000
  H   H1673     1.0  0.56881  0.06156  0.35887  1.0000
  C   C980      1.0  0.75542  0.21782  0.42716  1.0000
  H   H1674     1.0  0.61982  0.03572  0.42759  1.0000
  H   H1675     1.0  0.73828  0.27846  0.19775  1.0000
  H   H1676     1.0  0.64316  0.02321  0.41070  1.0000
  C   C981      1.0  0.74364  0.27054  0.25142  1.0000
  N   N73       1.0  0.73690  0.28681  0.98016  1.0000
  H   H1677     1.0  0.75944  0.28895  0.32583  1.0000
  H   H1678     1.0  0.70994  0.33595  0.29398  1.0000
  C   C982      1.0  0.72651  0.32405  0.06160  1.0000
  C   C983      1.0  0.56239  0.04691  0.00265  1.0000
  H   H1679     1.0  0.73727  0.29158  0.07457  1.0000
  H   H1680     1.0  0.67829  0.06099  0.44528  1.0000
  H   H1681     1.0  0.72338  0.26470  0.46038  1.0000
  H   H1682     1.0  0.71704  0.02001  0.14878  1.0000
  H   H1683     1.0  0.54682  0.05822  0.31796  1.0000
  H   H1684     1.0  0.72911  0.15283  0.03607  1.0000
  H   H1685     1.0  0.65206  0.16351  0.03077  1.0000
  C   C984      1.0  0.74292  0.31752  0.22617  1.0000
  S   S281      1.0  0.53319  0.11272  0.43898  1.0000
  H   H1686     1.0  0.51901  0.10425  0.14334  1.0000
  H   H1687     1.0  0.70931  0.32241  0.06495  1.0000
  H   H1688     1.0  0.74498  0.26473  0.43606  1.0000
  C   C985      1.0  0.72244  0.33465  0.38207  1.0000
  H   H1689     1.0  0.57305  0.03131  0.00181  1.0000
  H   H1690     1.0  0.52494  0.13717  0.31894  1.0000
  C   C986      1.0  0.75471  0.30459  0.31715  1.0000
  H   H1691     1.0  0.67883  0.03644  0.15578  1.0000
  H   H1692     1.0  0.54187  0.06611  0.44947  1.0000
  C   C987      1.0  0.75473  0.27116  0.20422  1.0000
  H   H1693     1.0  0.56766  0.05688  0.98622  1.0000
  C   C988      1.0  0.72690  0.33118  0.29942  1.0000
  H   H1694     1.0  0.64019  0.05387  0.45914  1.0000
  C   C989      1.0  0.66867  0.03446  0.13760  1.0000
  H   H1695     1.0  0.73706  0.04456  0.27238  1.0000
  H   H1696     1.0  0.72610  0.32926  0.40276  1.0000
  H   H1697     1.0  0.63849  0.20202  0.02612  1.0000
  H   H1698     1.0  0.53467  0.07334  0.27144  1.0000
  C   C990      1.0  0.72349  0.21928  0.45570  1.0000
  H   H1699     1.0  0.74006  0.26129  0.00965  1.0000
  H   H1700     1.0  0.51767  0.07893  0.33802  1.0000
  H   H1701     1.0  0.51707  0.09198  0.03571  1.0000
  H   H1702     1.0  0.69816  0.33273  0.98050  1.0000
  H   H1703     1.0  0.72335  0.02500  0.28978  1.0000
  C   C991      1.0  0.52452  0.07082  0.45187  1.0000
  H   H1704     1.0  0.55724  0.05296  0.27234  1.0000
  H   H1705     1.0  0.69401  0.18384  0.44304  1.0000
  C   C992      1.0  0.73937  0.21270  0.97861  1.0000
  H   H1706     1.0  0.75611  0.33488  0.37131  1.0000
  C   C993      1.0  0.65866  0.00655  0.23570  1.0000
  S   S282      1.0  0.76145  0.19320  0.07484  1.0000
  C   C994      1.0  0.64390  0.00913  0.25684  1.0000
  H   H1707     1.0  0.72577  0.30583  0.46711  1.0000
  H   H1708     1.0  0.66794  0.14627  0.46713  1.0000
  C   C995      1.0  0.70228  0.16763  0.44810  1.0000
  H   H1709     1.0  0.76068  0.33313  0.46108  1.0000
  H   H1710     1.0  0.72360  0.14549  0.52448  1.0000
  S   S283      1.0  0.75869  0.24489  0.82792  1.0000
  H   H1711     1.0  0.52220  0.09674  0.81517  1.0000
  C   C996      1.0  0.72988  0.32940  0.57263  1.0000
  H   H1712     1.0  0.65194  0.12381  0.50465  1.0000
  S   S284      1.0  0.54694  0.05426  0.69521  1.0000
  H   H1713     1.0  0.68117  0.19976  0.48455  1.0000
  S   S285      1.0  0.72541  0.21873  0.51040  1.0000
  H   H1714     1.0  0.71020  0.14880  0.55571  1.0000
  S   S286      1.0  0.73265  0.22400  0.64387  1.0000
  C   C997      1.0  0.69550  0.05204  0.89239  1.0000
  H   H1715     1.0  0.69150  0.18413  0.73021  1.0000
  Fe  Fe143     1.0  0.72406  0.26023  0.82761  1.0000
  H   H1716     1.0  0.66321  0.04471  0.90065  1.0000
  H   H1717     1.0  0.65771  0.17119  0.71258  1.0000
  Fe  Fe144     1.0  0.70546  0.21593  0.83234  1.0000
  S   S287      1.0  0.73920  0.19786  0.83204  1.0000
  S   S288      1.0  0.67700  0.19484  0.83197  1.0000
  Fe  Fe145     1.0  0.74646  0.22046  0.79926  1.0000
  C   C998      1.0  0.52820  0.07828  0.62695  1.0000
  H   H1718     1.0  0.73623  0.32462  0.89404  1.0000
  H   H1719     1.0  0.67358  0.03524  0.66013  1.0000
  S   S289      1.0  0.71366  0.24122  0.86262  1.0000
  S   S290      1.0  0.71213  0.23671  0.79723  1.0000
  Fe  Fe146     1.0  0.61719  0.13438  0.94038  1.0000
  S   S291      1.0  0.63788  0.10231  0.94265  1.0000
  S   S292      1.0  0.63460  0.16520  0.93945  1.0000
  Fe  Fe147     1.0  0.57414  0.11281  0.94445  1.0000
  S   S293      1.0  0.60724  0.05092  0.66838  1.0000
  S   S294      1.0  0.71661  0.29673  0.82236  1.0000
  H   H1720     1.0  0.54473  0.07093  0.94362  1.0000
  S   S295      1.0  0.62220  0.07072  0.51018  1.0000
  Fe  Fe148     1.0  0.61291  0.09111  0.91366  1.0000
  S   S296      1.0  0.62242  0.06918  0.87837  1.0000
  C   C999      1.0  0.65366  0.19521  0.50847  1.0000
  S   S297      1.0  0.59326  0.12355  0.90971  1.0000
  Fe  Fe149     1.0  0.61686  0.08497  0.66781  1.0000
  S   S298      1.0  0.62436  0.10391  0.63096  1.0000
  Fe  Fe150     1.0  0.61301  0.08995  0.72887  1.0000
  S   S299      1.0  0.60249  0.05657  0.73368  1.0000
  S   S300      1.0  0.61649  0.11246  0.76427  1.0000
  Fe  Fe151     1.0  0.58142  0.06434  0.69741  1.0000
  C   C1000     1.0  0.68536  0.03182  0.83180  1.0000
  S   S301      1.0  0.64115  0.07968  0.70186  1.0000
  S   S302      1.0  0.58965  0.09872  0.69481  1.0000
  C   C1001     1.0  0.75781  0.21452  0.92757  1.0000
  C   C1002     1.0  0.75314  0.27757  0.93348  1.0000
  H   H1721     1.0  0.68546  0.13070  0.48857  1.0000
  H   H1722     1.0  0.67593  0.03948  0.81469  1.0000
  H   H1723     1.0  0.65976  0.01292  0.84224  1.0000
  H   H1724     1.0  0.54304  0.10092  0.70687  1.0000
  H   H1725     1.0  0.71438  0.01365  0.61202  1.0000
  H   H1726     1.0  0.69674  0.04038  0.64099  1.0000
  Fe  Fe152     1.0  0.62926  0.04661  0.70473  1.0000
  H   H1727     1.0  0.71147  0.28450  0.49821  1.0000
  H   H1728     1.0  0.68284  0.15465  0.70435  1.0000
  C   C1003     1.0  0.63737  0.01300  0.50390  1.0000
  H   H1729     1.0  0.54633  0.07807  0.85654  1.0000
  C   C1004     1.0  0.62272  0.08150  0.84686  1.0000
  C   C1005     1.0  0.62047  0.10411  0.84431  1.0000
  C   C1006     1.0  0.61928  0.11349  0.81889  1.0000
  C   C1007     1.0  0.62044  0.10033  0.79584  1.0000
  C   C1008     1.0  0.62364  0.07775  0.79843  1.0000
  C   C1009     1.0  0.62461  0.06836  0.82383  1.0000
  H   H1730     1.0  0.61937  0.11440  0.86189  1.0000
  H   H1731     1.0  0.61685  0.13099  0.81715  1.0000
  H   H1732     1.0  0.62516  0.06744  0.78090  1.0000
  H   H1733     1.0  0.62638  0.05086  0.82552  1.0000
  C   C1010     1.0  0.62070  0.08048  0.54360  1.0000
  C   C1011     1.0  0.62059  0.06552  0.56448  1.0000
  C   C1012     1.0  0.62067  0.07257  0.59133  1.0000
  C   C1013     1.0  0.62172  0.09456  0.59757  1.0000
  C   C1014     1.0  0.62174  0.10950  0.57668  1.0000
  C   C1015     1.0  0.62088  0.10256  0.54983  1.0000
  H   H1734     1.0  0.62035  0.04842  0.55987  1.0000
  H   H1735     1.0  0.62034  0.06097  0.60720  1.0000
  H   H1736     1.0  0.62243  0.12655  0.58132  1.0000
  H   H1737     1.0  0.62082  0.11425  0.53400  1.0000
  C   C1016     1.0  0.66552  0.18665  0.86208  1.0000
  C   C1017     1.0  0.65146  0.16996  0.86150  1.0000
  C   C1018     1.0  0.64222  0.16302  0.88509  1.0000
  C   C1019     1.0  0.64629  0.17326  0.90941  1.0000
  C   C1020     1.0  0.65982  0.19039  0.90987  1.0000
  C   C1021     1.0  0.66974  0.19677  0.88645  1.0000
  H   H1738     1.0  0.64750  0.16237  0.84281  1.0000
  H   H1739     1.0  0.63160  0.15005  0.88435  1.0000
  H   H1740     1.0  0.66257  0.19897  0.92829  1.0000
  H   H1741     1.0  0.68021  0.20988  0.88714  1.0000
  H   H1742     1.0  0.63102  0.01689  0.87307  1.0000
  C   C1022     1.0  0.52739  0.09478  0.71019  1.0000
  C   C1023     1.0  0.70724  0.14673  0.53395  1.0000
  C   C1024     1.0  0.72399  0.01257  0.66840  1.0000
  H   H1743     1.0  0.71296  0.32820  0.57793  1.0000
  C   C1025     1.0  0.73497  0.21650  0.93044  1.0000
  H   H1744     1.0  0.70018  0.06016  0.91121  1.0000
  H   H1745     1.0  0.67800  0.16837  0.53751  1.0000
  H   H1746     1.0  0.69533  0.01731  0.82363  1.0000
  H   H1747     1.0  0.72436  0.21885  0.91311  1.0000
  H   H1748     1.0  0.56109  0.04883  0.81792  1.0000
  C   C1026     1.0  0.72814  0.22348  0.69809  1.0000
  C   C1027     1.0  0.73550  0.22065  0.72464  1.0000
  C   C1028     1.0  0.75273  0.32188  0.73705  1.0000
  H   H1749     1.0  0.75250  0.25570  0.96649  1.0000
  N   N74       1.0  0.68518  0.16568  0.49502  1.0000
  H   H1750     1.0  0.71093  0.22826  0.69399  1.0000
  H   H1751     1.0  0.72400  0.22337  0.74077  1.0000
  H   H1752     1.0  0.65613  0.14573  0.69731  1.0000
  H   H1753     1.0  0.69953  0.13136  0.53116  1.0000
  C   C1029     1.0  0.51448  0.05880  0.95577  1.0000
  H   H1754     1.0  0.71605  0.14915  0.48107  1.0000
  C   C1030     1.0  0.52818  0.07522  0.95048  1.0000
  H   H1755     1.0  0.52067  0.04192  0.95310  1.0000
  C   C1031     1.0  0.74287  0.22026  0.67682  1.0000
  S   S303      1.0  0.75772  0.19732  0.57586  1.0000
  H   H1756     1.0  0.56623  0.02691  0.77730  1.0000
  C   C1032     1.0  0.67085  0.18616  0.48792  1.0000
  H   H1757     1.0  0.74688  0.25926  0.49651  1.0000
  N   N75       1.0  0.67822  0.01674  0.87905  1.0000
  H   H1758     1.0  0.66176  0.04156  0.47831  1.0000
  C   C1033     1.0  0.74520  0.31095  0.57418  1.0000
  H   H1759     1.0  0.52550  0.06830  0.82078  1.0000
  H   H1760     1.0  0.68296  0.02917  0.91943  1.0000
  C   C1034     1.0  0.72432  0.28429  0.51400  1.0000
  H   H1761     1.0  0.71627  0.17763  0.48530  1.0000
  H   H1762     1.0  0.64289  0.20865  0.49922  1.0000
  H   H1763     1.0  0.55905  0.12620  0.78679  1.0000
  C   C1035     1.0  0.52500  0.07274  0.70587  1.0000
  H   H1764     1.0  0.53140  0.11933  0.77912  1.0000
  H   H1765     1.0  0.63625  0.02425  0.90748  1.0000
  H   H1766     1.0  0.62336  0.01230  0.51764  1.0000
  Fe  Fe153     1.0  0.74771  0.22410  0.86052  1.0000
  H   H1767     1.0  0.72653  0.31265  0.95270  1.0000
  H   H1768     1.0  0.71970  0.26887  0.73230  1.0000
  C   C1036     1.0  0.70576  0.16485  0.47851  1.0000
  H   H1769     1.0  0.70096  0.18128  0.52789  1.0000
  C   C1037     1.0  0.52837  0.08086  0.80588  1.0000
  S   S304      1.0  0.74072  0.24916  0.57617  1.0000
  H   H1770     1.0  0.74326  0.28645  0.70426  1.0000
  N   N76       1.0  0.68920  0.00681  0.63983  1.0000
  H   H1771     1.0  0.67595  0.03987  0.59912  1.0000
  C   C1038     1.0  0.69790  0.16369  0.95597  1.0000
  H   H1772     1.0  0.66167  0.20227  0.52612  1.0000
  H   H1773     1.0  0.68762  0.06455  0.87867  1.0000
  H   H1774     1.0  0.55731  0.04913  0.75660  1.0000
  H   H1775     1.0  0.72669  0.26323  0.95140  1.0000
  H   H1776     1.0  0.69622  0.04372  0.83968  1.0000
  H   H1777     1.0  0.74004  0.29572  0.58074  1.0000
  C   C1039     1.0  0.67382  0.14571  0.48818  1.0000
  C   C1040     1.0  0.74196  0.26992  0.95859  1.0000
  H   H1778     1.0  0.63831  0.14984  0.49565  1.0000
  H   H1779     1.0  0.70538  0.29664  0.96131  1.0000
  C   C1041     1.0  0.67951  0.03514  0.89881  1.0000
  H   H1780     1.0  0.75059  0.25652  0.76028  1.0000
  H   H1781     1.0  0.53407  0.06171  0.63383  1.0000
  H   H1782     1.0  0.71463  0.18540  0.75205  1.0000
  H   H1783     1.0  0.66244  0.05787  0.62290  1.0000
  H   H1784     1.0  0.65169  0.03267  0.61653  1.0000
  C   C1042     1.0  0.73715  0.31452  0.81735  1.0000
  N   N77       1.0  0.55261  0.08049  0.80033  1.0000
  C   C1043     1.0  0.56323  0.09217  0.82299  1.0000
  C   C1044     1.0  0.55742  0.09196  0.77500  1.0000
  C   C1045     1.0  0.56354  0.05754  0.79913  1.0000
  H   H1785     1.0  0.54138  0.08356  0.61423  1.0000
  C   C1046     1.0  0.56298  0.08168  0.85074  1.0000
  H   H1786     1.0  0.63196  0.02209  0.76007  1.0000
  C   C1047     1.0  0.55571  0.04262  0.77686  1.0000
  C   C1048     1.0  0.73716  0.21730  0.47841  1.0000
  H   H1787     1.0  0.58063  0.09396  0.81847  1.0000
  H   H1788     1.0  0.55527  0.10902  0.82556  1.0000
  H   H1789     1.0  0.55085  0.08417  0.75707  1.0000
  H   H1790     1.0  0.57548  0.09076  0.77164  1.0000
  H   H1791     1.0  0.58167  0.05768  0.79706  1.0000
  H   H1792     1.0  0.75506  0.25950  0.70688  1.0000
  H   H1793     1.0  0.72045  0.03012  0.67309  1.0000
  H   H1794     1.0  0.71224  0.01306  0.86559  1.0000
  H   H1795     1.0  0.55070  0.12205  0.75319  1.0000
  H   H1796     1.0  0.57472  0.06683  0.85199  1.0000
  H   H1797     1.0  0.56872  0.09321  0.86590  1.0000
  H   H1798     1.0  0.71969  0.27279  0.52927  1.0000
  H   H1799     1.0  0.70812  0.21763  0.95798  1.0000
  Fe  Fe154     1.0  0.61113  0.09132  0.47430  1.0000
  H   H1800     1.0  0.74236  0.28991  0.92241  1.0000
  H   H1801     1.0  0.70326  0.17596  0.94214  1.0000
  H   H1802     1.0  0.68873  0.19853  0.76191  1.0000
  C   C1049     1.0  0.75884  0.27666  0.70947  1.0000
  C   C1050     1.0  0.65356  0.14155  0.50461  1.0000
  H   H1803     1.0  0.53865  0.03874  0.78015  1.0000
  H   H1804     1.0  0.64616  0.02684  0.51094  1.0000
  C   C1051     1.0  0.54898  0.11626  0.77386  1.0000
  S   S305      1.0  0.59198  0.07954  0.94599  1.0000
  S   S306      1.0  0.53694  0.11833  0.94774  1.0000
  H   H1805     1.0  0.71119  0.04483  0.88398  1.0000
  C   C1052     1.0  0.68224  0.03090  0.64107  1.0000
  C   C1053     1.0  0.75951  0.30795  0.82127  1.0000
  S   S307      1.0  0.59127  0.12385  0.47289  1.0000
  H   H1806     1.0  0.65474  0.14616  0.52588  1.0000
  H   H1807     1.0  0.76025  0.33731  0.73436  1.0000
  H   H1808     1.0  0.71389  0.27718  0.76584  1.0000
  C   C1054     1.0  0.69221  0.16653  0.52394  1.0000
  C   C1055     1.0  0.63835  0.01102  0.89232  1.0000
  C   C1056     1.0  0.52035  0.09709  0.95387  1.0000
  H   H1809     1.0  0.74118  0.32419  0.75397  1.0000
  H   H1810     1.0  0.65674  0.03950  0.85574  1.0000
  H   H1811     1.0  0.68744  0.15337  0.94401  1.0000
  H   H1812     1.0  0.72050  0.29690  0.74269  1.0000
  C   C1057     1.0  0.74742  0.27629  0.50366  1.0000
  C   C1058     1.0  0.66899  0.02523  0.85261  1.0000
  C   C1059     1.0  0.72447  0.27984  0.74862  1.0000
  N   N78       1.0  0.66909  0.15615  0.76382  1.0000
  C   C1060     1.0  0.66590  0.14220  0.78765  1.0000
  C   C1061     1.0  0.65232  0.17572  0.76570  1.0000
  C   C1062     1.0  0.69216  0.16298  0.76575  1.0000
  C   C1063     1.0  0.66613  0.14272  0.73895  1.0000
  C   C1064     1.0  0.68174  0.12130  0.79030  1.0000
  C   C1065     1.0  0.62799  0.17112  0.76348  1.0000
  C   C1066     1.0  0.69666  0.18395  0.75140  1.0000
  C   C1067     1.0  0.66592  0.15448  0.71203  1.0000
  H   H1813     1.0  0.66744  0.15176  0.80642  1.0000
  H   H1814     1.0  0.64919  0.13678  0.78767  1.0000
  H   H1815     1.0  0.65465  0.18787  0.75026  1.0000
  H   H1816     1.0  0.65438  0.18454  0.78491  1.0000
  H   H1817     1.0  0.69697  0.16575  0.78699  1.0000
  H   H1818     1.0  0.70433  0.14982  0.75821  1.0000
  H   H1819     1.0  0.67955  0.12928  0.73741  1.0000
  H   H1820     1.0  0.65111  0.13395  0.73987  1.0000
  H   H1821     1.0  0.69922  0.12461  0.79074  1.0000
  H   H1822     1.0  0.67849  0.11348  0.80948  1.0000
  H   H1823     1.0  0.67879  0.10929  0.77434  1.0000
  H   H1824     1.0  0.62441  0.16197  0.74503  1.0000
  H   H1825     1.0  0.62267  0.16248  0.78112  1.0000
  H   H1826     1.0  0.61753  0.18684  0.76279  1.0000
  H   H1827     1.0  0.64285  0.18306  0.51494  1.0000
  H   H1828     1.0  0.52661  0.08959  0.64430  1.0000
  H   H1829     1.0  0.73492  0.01010  0.65096  1.0000
  H   H1830     1.0  0.74661  0.32019  0.50376  1.0000
  Fe  Fe155     1.0  0.74863  0.22303  0.54534  1.0000
  C   C1068     1.0  0.74879  0.27437  0.75691  1.0000
  C   C1069     1.0  0.66722  0.04040  0.61837  1.0000
  Fe  Fe156     1.0  0.75329  0.22433  0.60656  1.0000
  H   H1831     1.0  0.72385  0.30046  0.52380  1.0000
  H   H1832     1.0  0.75645  0.26344  0.91969  1.0000
  H   H1833     1.0  0.67978  0.01154  0.48828  1.0000
  C   C1070     1.0  0.64626  0.01052  0.76230  1.0000
  C   C1071     1.0  0.72578  0.21563  0.95591  1.0000
  H   H1834     1.0  0.74359  0.31938  0.71830  1.0000
  C   C1072     1.0  0.73079  0.33591  0.80934  1.0000
  C   C1073     1.0  0.51288  0.07778  0.78177  1.0000
  H   H1835     1.0  0.75098  0.28183  0.77692  1.0000
  H   H1836     1.0  0.74955  0.32756  0.63094  1.0000
  C   C1074     1.0  0.75994  0.21475  0.47529  1.0000
  H   H1837     1.0  0.52080  0.07011  0.76396  1.0000
  C   C1075     1.0  0.62818  0.01573  0.47524  1.0000
  S   S308      1.0  0.65504  0.01813  0.70942  1.0000
  H   H1838     1.0  0.61496  0.02953  0.47560  1.0000
  H   H1839     1.0  0.71280  0.15369  0.96291  1.0000
  C   C1076     1.0  0.75761  0.21413  0.73015  1.0000
  H   H1840     1.0  0.76131  0.32980  0.66402  1.0000
  N   N79       1.0  0.75652  0.29004  0.48262  1.0000
  H   H1841     1.0  0.75841  0.27505  0.52154  1.0000
  H   H1842     1.0  0.71513  0.00730  0.91537  1.0000
  H   H1843     1.0  0.66181  0.18388  0.46885  1.0000
  C   C1077     1.0  0.76166  0.31113  0.49549  1.0000
  C   C1078     1.0  0.64538  0.48202  0.24221  1.0000
  S   S309      1.0  0.62279  0.55938  0.01315  1.0000
  Fe  Fe157     1.0  0.70528  0.44777  0.05159  1.0000
  S   S310      1.0  0.73903  0.45896  0.04835  1.0000
  S   S311      1.0  0.67584  0.47276  0.05634  1.0000
  Fe  Fe158     1.0  0.72252  0.39988  0.04630  1.0000
  C   C1079     1.0  0.71042  0.49530  0.21385  1.0000
  S   S312      1.0  0.71260  0.36555  0.04676  1.0000
  H   H1844     1.0  0.60737  0.66170  0.06539  1.0000
  C   C1080     1.0  0.69221  0.51754  0.01343  1.0000
  H   H1845     1.0  0.67738  0.52022  0.27969  1.0000
  H   H1846     1.0  0.71237  0.37771  0.39851  1.0000
  S   S313      1.0  0.71501  0.42194  0.08158  1.0000
  S   S314      1.0  0.70940  0.42478  0.01621  1.0000
  Fe  Fe159     1.0  0.61260  0.56632  0.22233  1.0000
  S   S315      1.0  0.60212  0.53267  0.22088  1.0000
  S   S316      1.0  0.62383  0.58365  0.25968  1.0000
  Fe  Fe160     1.0  0.60217  0.57304  0.16260  1.0000
  S   S317      1.0  0.59038  0.54005  0.15709  1.0000
  H   H1847     1.0  0.70755  0.46480  0.26638  1.0000
  Fe  Fe161     1.0  0.57350  0.54723  0.19623  1.0000
  Fe  Fe162     1.0  0.62012  0.52901  0.18187  1.0000
  S   S318      1.0  0.64389  0.49941  0.17356  1.0000
  S   S319      1.0  0.58293  0.58116  0.19981  1.0000
  S   S320      1.0  0.63302  0.56171  0.18519  1.0000
  H   H1848     1.0  0.60876  0.53398  0.33205  1.0000
  H   H1849     1.0  0.53569  0.58544  0.19637  1.0000
  H   H1850     1.0  0.64542  0.62028  0.00449  1.0000
  C   C1081     1.0  0.63227  0.64333  0.09082  1.0000
  H   H1851     1.0  0.54270  0.56614  0.00357  1.0000
  H   H1852     1.0  0.64381  0.54085  0.43348  1.0000
  H   H1853     1.0  0.54067  0.56654  0.45620  1.0000
  S   S321      1.0  0.63442  0.58866  0.44599  1.0000
  C   C1082     1.0  0.56073  0.55405  0.08650  1.0000
  H   H1854     1.0  0.56807  0.56831  0.01903  1.0000
  C   C1083     1.0  0.74374  0.43939  0.19504  1.0000
  C   C1084     1.0  0.54152  0.58747  0.03788  1.0000
  H   H1855     1.0  0.62640  0.62215  0.04610  1.0000
  H   H1856     1.0  0.53857  0.60952  0.24814  1.0000
  H   H1857     1.0  0.52588  0.52647  0.05729  1.0000
  Fe  Fe163     1.0  0.61734  0.62261  0.44808  1.0000
  H   H1858     1.0  0.52800  0.58574  0.05175  1.0000
  C   C1085     1.0  0.57757  0.52415  0.00657  1.0000
  C   C1086     1.0  0.56594  0.54189  0.05997  1.0000
  C   C1087     1.0  0.74969  0.64917  0.45360  1.0000
  N   N80       1.0  0.68485  0.49213  0.25406  1.0000
  H   H1859     1.0  0.70212  0.64096  0.08042  1.0000
  H   H1860     1.0  0.51470  0.55800  0.12961  1.0000
  H   H1861     1.0  0.63086  0.47642  0.25212  1.0000
  H   H1862     1.0  0.53445  0.59918  0.02266  1.0000
  H   H1863     1.0  0.64887  0.53145  0.25071  1.0000
  H   H1864     1.0  0.71587  0.47628  0.31150  1.0000
  C   C1088     1.0  0.71249  0.38733  0.35723  1.0000
  S   S322      1.0  0.74331  0.40922  0.29399  1.0000
  C   C1089     1.0  0.72988  0.44236  0.17262  1.0000
  H   H1865     1.0  0.66342  0.60594  0.02763  1.0000
  H   H1866     1.0  0.71228  0.44518  0.17514  1.0000
  H   H1867     1.0  0.72780  0.44359  0.12975  1.0000
  H   H1868     1.0  0.63943  0.48671  0.46356  1.0000
  H   H1869     1.0  0.67636  0.49129  0.21178  1.0000
  C   C1090     1.0  0.73287  0.34381  0.05253  1.0000
  C   C1091     1.0  0.61865  0.58671  0.34051  1.0000
  H   H1870     1.0  0.75740  0.37895  0.34638  1.0000
  C   C1092     1.0  0.66733  0.65123  0.07188  1.0000
  H   H1871     1.0  0.71072  0.44498  0.40888  1.0000
  C   C1093     1.0  0.66748  0.48064  0.08902  1.0000
  C   C1094     1.0  0.64966  0.49653  0.09262  1.0000
  C   C1095     1.0  0.64253  0.50284  0.11843  1.0000
  C   C1096     1.0  0.65299  0.49302  0.14081  1.0000
  C   C1097     1.0  0.67087  0.47724  0.13719  1.0000
  C   C1098     1.0  0.67818  0.47121  0.11145  1.0000
  H   H1872     1.0  0.64118  0.50380  0.07541  1.0000
  H   H1873     1.0  0.62869  0.51494  0.12098  1.0000
  H   H1874     1.0  0.67905  0.46959  0.15438  1.0000
  H   H1875     1.0  0.69196  0.45908  0.10900  1.0000
  C   C1099     1.0  0.61641  0.56972  0.04531  1.0000
  C   C1100     1.0  0.62494  0.55844  0.06785  1.0000
  C   C1101     1.0  0.61959  0.56630  0.09364  1.0000
  C   C1102     1.0  0.60590  0.58562  0.09692  1.0000
  H   H1876     1.0  0.63562  0.54357  0.06543  1.0000
  H   H1877     1.0  0.62632  0.55759  0.11095  1.0000
  H   H1878     1.0  0.59513  0.59717  0.03169  1.0000
  C   C1103     1.0  0.61967  0.57634  0.29319  1.0000
  C   C1104     1.0  0.61474  0.55551  0.29997  1.0000
  C   C1105     1.0  0.61222  0.55022  0.32694  1.0000
  H   H1879     1.0  0.61324  0.54338  0.28450  1.0000
  S   S323      1.0  0.61121  0.55817  0.38103  1.0000
  H   H1880     1.0  0.73494  0.35329  0.16800  1.0000
  H   H1881     1.0  0.56674  0.56436  0.33361  1.0000
  C   C1106     1.0  0.55907  0.57202  0.26872  1.0000
  N   N81       1.0  0.75574  0.36314  0.13648  1.0000
  C   C1107     1.0  0.70103  0.48451  0.30152  1.0000
  C   C1108     1.0  0.55503  0.54854  0.27564  1.0000
  C   C1109     1.0  0.59725  0.59672  0.07442  1.0000
  H   H1882     1.0  0.51575  0.58365  0.26342  1.0000
  H   H1883     1.0  0.55583  0.57338  0.24687  1.0000
  H   H1884     1.0  0.57696  0.57324  0.27142  1.0000
  H   H1885     1.0  0.75628  0.65945  0.00635  1.0000
  H   H1886     1.0  0.65319  0.51293  0.43394  1.0000
  H   H1887     1.0  0.57554  0.55201  0.09963  1.0000
  H   H1888     1.0  0.69961  0.50166  0.30849  1.0000
  H   H1889     1.0  0.73976  0.35707  0.42369  1.0000
  H   H1890     1.0  0.55705  0.54504  0.29707  1.0000
  H   H1891     1.0  0.67327  0.60545  0.06981  1.0000
  S   S324      1.0  0.59977  0.59674  0.12866  1.0000
  H   H1892     1.0  0.73821  0.36156  0.28719  1.0000
  H   H1893     1.0  0.70901  0.51329  0.21479  1.0000
  H   H1894     1.0  0.66126  0.49088  0.00668  1.0000
  N   N82       1.0  0.54586  0.59016  0.28356  1.0000
  H   H1895     1.0  0.57885  0.51076  0.99153  1.0000
  H   H1896     1.0  0.69841  0.52337  0.25732  1.0000
  H   H1897     1.0  0.54973  0.60999  0.31924  1.0000
  C   C1110     1.0  0.75744  0.34023  0.12553  1.0000
  H   H1898     1.0  0.71164  0.49054  0.19243  1.0000
  N   N83       1.0  0.74513  0.36788  0.38368  1.0000
  H   H1899     1.0  0.64022  0.49823  0.23408  1.0000
  C   C1111     1.0  0.51803  0.55962  0.21078  1.0000
  C   C1112     1.0  0.51636  0.59402  0.45938  1.0000
  C   C1113     1.0  0.67420  0.53602  0.97313  1.0000
  C   C1114     1.0  0.73863  0.44123  0.14684  1.0000
  H   H1900     1.0  0.69189  0.53618  0.05071  1.0000
  C   C1115     1.0  0.68238  0.51638  0.25879  1.0000
  H   H1901     1.0  0.62094  0.66421  0.99005  1.0000
  C   C1116     1.0  0.55065  0.56625  0.02364  1.0000
  H   H1902     1.0  0.70644  0.37245  0.34849  1.0000
  H   H1903     1.0  0.64957  0.47045  0.22549  1.0000
  S   S325      1.0  0.63880  0.65066  0.44566  1.0000
  S   S326      1.0  0.73204  0.43892  0.22688  1.0000
  H   H1904     1.0  0.56899  0.52437  0.06519  1.0000
  H   H1905     1.0  0.54288  0.52900  0.99989  1.0000
  H   H1906     1.0  0.68686  0.47634  0.30855  1.0000
  C   C1117     1.0  0.70391  0.48246  0.27099  1.0000
  H   H1907     1.0  0.72385  0.44302  0.45609  1.0000
  H   H1908     1.0  0.53867  0.54455  0.26833  1.0000
  C   C1118     1.0  0.61416  0.56578  0.34736  1.0000
  H   H1909     1.0  0.70432  0.51497  0.44529  1.0000
  H   H1910     1.0  0.62057  0.63087  0.09369  1.0000
  Fe  Fe164     1.0  0.61080  0.57991  0.97778  1.0000
  C   C1119     1.0  0.65553  0.62231  0.02279  1.0000
  H   H1911     1.0  0.58203  0.54663  0.05341  1.0000
  Fe  Fe165     1.0  0.60772  0.58168  0.41657  1.0000
  H   H1912     1.0  0.66782  0.63344  0.01727  1.0000
  C   C1120     1.0  0.60227  0.58866  0.04875  1.0000
  N   N84       1.0  0.67935  0.51491  0.98788  1.0000
  C   C1121     1.0  0.52054  0.58125  0.20480  1.0000
  C   C1122     1.0  0.64037  0.63224  0.04495  1.0000
  S   S327      1.0  0.53925  0.53871  0.20528  1.0000
  H   H1913     1.0  0.72592  0.48842  0.22350  1.0000
  H   H1914     1.0  0.69231  0.62801  0.05067  1.0000
  H   H1915     1.0  0.70836  0.37222  0.14258  1.0000
  Fe  Fe166     1.0  0.57159  0.60577  0.45032  1.0000
  S   S328      1.0  0.58601  0.57120  0.44885  1.0000
  H   H1916     1.0  0.55095  0.51089  0.02628  1.0000
  C   C1123     1.0  0.66832  0.61251  0.11129  1.0000
  H   H1917     1.0  0.52223  0.55431  0.06511  1.0000
  C   C1124     1.0  0.75808  0.43945  0.44589  1.0000
  C   C1125     1.0  0.71501  0.37027  0.12216  1.0000
  C   C1126     1.0  0.69009  0.48607  0.22545  1.0000
  H   H1918     1.0  0.69793  0.39930  0.36024  1.0000
  H   H1919     1.0  0.71388  0.35347  0.11466  1.0000
  H   H1920     1.0  0.56728  0.53719  0.26505  1.0000
  C   C1127     1.0  0.75275  0.66558  0.39731  1.0000
  H   H1921     1.0  0.73135  0.39494  0.17025  1.0000
  C   C1128     1.0  0.73554  0.44194  0.44004  1.0000
  H   H1922     1.0  0.70409  0.38107  0.10908  1.0000
  H   H1923     1.0  0.51976  0.57014  0.29373  1.0000
  H   H1924     1.0  0.67039  0.54599  0.02781  1.0000
  H   H1925     1.0  0.72591  0.50667  0.97819  1.0000
  N   N85       1.0  0.65052  0.63490  0.07222  1.0000
  C   C1129     1.0  0.65972  0.61293  0.08225  1.0000
  C   C1130     1.0  0.72969  0.66532  0.46097  1.0000
  C   C1131     1.0  0.52647  0.54284  0.04844  1.0000
  H   H1926     1.0  0.69230  0.46807  0.22293  1.0000
  C   C1132     1.0  0.67991  0.53118  0.03556  1.0000
  Fe  Fe167     1.0  0.74899  0.43170  0.07647  1.0000
  H   H1927     1.0  0.74411  0.63763  0.43833  1.0000
  C   C1133     1.0  0.65127  0.66191  0.96860  1.0000
  H   H1928     1.0  0.65764  0.49022  0.28102  1.0000
  C   C1134     1.0  0.72816  0.44304  0.41330  1.0000
  H   H1929     1.0  0.69760  0.50134  0.02209  1.0000
  H   H1930     1.0  0.55665  0.57170  0.08403  1.0000
  H   H1931     1.0  0.64795  0.51766  0.00804  1.0000
  H   H1932     1.0  0.74286  0.37637  0.09902  1.0000
  C   C1135     1.0  0.62163  0.59187  0.31359  1.0000
  H   H1933     1.0  0.53726  0.56855  0.33047  1.0000
  H   H1934     1.0  0.65452  0.61395  0.12559  1.0000
  H   H1935     1.0  0.62028  0.59882  0.35600  1.0000
  H   H1936     1.0  0.66145  0.66518  0.05903  1.0000
  H   H1937     1.0  0.64696  0.60127  0.08078  1.0000
  H   H1938     1.0  0.65834  0.54463  0.97978  1.0000
  H   H1939     1.0  0.62552  0.60800  0.30857  1.0000
  H   H1940     1.0  0.67405  0.48832  0.45375  1.0000
  H   H1941     1.0  0.76019  0.36081  0.04081  1.0000
  H   H1942     1.0  0.66868  0.46468  0.26777  1.0000
  N   N86       1.0  0.54906  0.54504  0.03774  1.0000
  H   H1943     1.0  0.54753  0.54700  0.09741  1.0000
  H   H1944     1.0  0.58651  0.61158  0.07685  1.0000
  H   H1945     1.0  0.67046  0.54674  0.23957  1.0000
  H   H1946     1.0  0.62657  0.49780  0.97931  1.0000
  C   C1136     1.0  0.55398  0.52683  0.01763  1.0000
  H   H1947     1.0  0.59012  0.51966  0.02225  1.0000
  C   C1137     1.0  0.55555  0.59366  0.31096  1.0000
  S   S329      1.0  0.59684  0.61465  0.98176  1.0000
  H   H1948     1.0  0.69101  0.56053  0.99579  1.0000
  C   C1138     1.0  0.72440  0.38323  0.38428  1.0000
  S   S330      1.0  0.59191  0.61604  0.41635  1.0000
  S   S331      1.0  0.73319  0.44186  0.35894  1.0000
  C   C1139     1.0  0.76129  0.43706  0.14333  1.0000
  H   H1949     1.0  0.73971  0.38175  0.20055  1.0000
  C   C1140     1.0  0.73863  0.37687  0.12058  1.0000
  H   H1950     1.0  0.53808  0.62494  0.27834  1.0000
  H   H1951     1.0  0.57364  0.59422  0.30971  1.0000
  Fe  Fe168     1.0  0.75443  0.43065  0.26214  1.0000
  H   H1952     1.0  0.57994  0.60525  0.25020  1.0000
  C   C1141     1.0  0.54693  0.61075  0.26794  1.0000
  C   C1142     1.0  0.74321  0.44135  0.39223  1.0000
  H   H1953     1.0  0.67111  0.53270  0.42380  1.0000
  H   H1954     1.0  0.67930  0.62542  0.11546  1.0000
  C   C1143     1.0  0.55237  0.57678  0.33262  1.0000
  H   H1955     1.0  0.57938  0.62040  0.28132  1.0000
  H   H1956     1.0  0.71923  0.48998  0.26658  1.0000
  H   H1957     1.0  0.55478  0.59509  0.04864  1.0000
  H   H1958     1.0  0.72302  0.39460  0.34274  1.0000
  H   H1959     1.0  0.74526  0.39544  0.43155  1.0000
  C   C1144     1.0  0.57016  0.61739  0.26267  1.0000
  H   H1960     1.0  0.51531  0.56933  0.38369  1.0000
  H   H1961     1.0  0.56866  0.63281  0.25138  1.0000
  H   H1962     1.0  0.66407  0.52410  0.22068  1.0000
  C   C1145     1.0  0.66535  0.53008  0.24143  1.0000
  C   C1146     1.0  0.66451  0.48210  0.26259  1.0000
  Fe  Fe169     1.0  0.74403  0.43391  0.01536  1.0000
  C   C1147     1.0  0.65834  0.52922  0.43823  1.0000
  C   C1148     1.0  0.52368  0.57189  0.46010  1.0000
  C   C1149     1.0  0.65803  0.50607  0.99498  1.0000
  C   C1150     1.0  0.61853  0.66451  0.08246  1.0000
  H   H1963     1.0  0.70768  0.52492  0.00990  1.0000
  H   H1964     1.0  0.66858  0.52135  0.04611  1.0000
  H   H1965     1.0  0.70629  0.34447  0.38111  1.0000
  H   H1966     1.0  0.72797  0.39949  0.39187  1.0000
  H   H1967     1.0  0.55112  0.58513  0.35238  1.0000
  C   C1151     1.0  0.74290  0.34575  0.29560  1.0000
  C   C1152     1.0  0.52205  0.58574  0.28411  1.0000
  C   C1153     1.0  0.69102  0.55303  0.97561  1.0000
  H   H1968     1.0  0.73831  0.39434  0.12636  1.0000
  C   C1154     1.0  0.64276  0.50112  0.97136  1.0000
  H   H1969     1.0  0.67785  0.59659  0.11510  1.0000
  C   C1155     1.0  0.69084  0.64301  0.06289  1.0000
  H   H1970     1.0  0.63891  0.64667  0.11107  1.0000
  H   H1971     1.0  0.73702  0.65913  0.40210  1.0000
  C   C1156     1.0  0.74489  0.38444  0.17982  1.0000
  H   H1972     1.0  0.58169  0.53890  0.99626  1.0000
  C   C1157     1.0  0.74111  0.34658  0.37048  1.0000
  H   H1973     1.0  0.70795  0.54647  0.97066  1.0000
  H   H1974     1.0  0.63321  0.64810  0.03721  1.0000
  C   C1158     1.0  0.75512  0.34579  0.04818  1.0000
  H   H1975     1.0  0.73751  0.34888  0.34895  1.0000
  Fe  Fe170     1.0  0.75523  0.43327  0.32340  1.0000
  C   C1159     1.0  0.75289  0.36353  0.41192  1.0000
  S   S332      1.0  0.75736  0.40758  0.04345  1.0000
  C   C1160     1.0  0.74960  0.36235  0.16545  1.0000
  C   C1161     1.0  0.70599  0.49976  0.45686  1.0000
  H   H1976     1.0  0.71149  0.48630  0.44287  1.0000
  S   S333      1.0  0.53458  0.61405  0.45406  1.0000
  C   C1162     1.0  0.69196  0.49801  0.97053  1.0000
  H   H1977     1.0  0.69419  0.48208  0.98095  1.0000
  H   H1978     1.0  0.75984  0.39311  0.18145  1.0000
  H   H1979     1.0  0.69728  0.65578  0.05062  1.0000
  C   C1163     1.0  0.63744  0.66908  0.98954  1.0000
  H   H1980     1.0  0.51488  0.53946  0.46664  1.0000
  H   H1981     1.0  0.66925  0.65842  0.09217  1.0000
  C   C1164     1.0  0.67244  0.66895  0.96778  1.0000
  C   C1165     1.0  0.75957  0.38339  0.42788  1.0000
  H   H1982     1.0  0.75869  0.50439  0.11632  1.0000
  H   H1983     1.0  0.60785  0.67048  0.09929  1.0000
  C   C1166     1.0  0.66616  0.53339  0.46724  1.0000
  H   H1984     1.0  0.68050  0.54308  0.46561  1.0000
  H   H1985     1.0  0.51198  0.60730  0.31826  1.0000
  H   H1986     1.0  0.75658  0.34014  0.10351  1.0000
  H   H1987     1.0  0.62588  0.51426  0.46700  1.0000
  H   H1988     1.0  0.66924  0.55202  0.51697  1.0000
  S   S334      1.0  0.62005  0.56025  0.51338  1.0000
  Fe  Fe171     1.0  0.71026  0.45257  0.55229  1.0000
  H   H1989     1.0  0.64634  0.45775  0.62263  1.0000
  S   S335      1.0  0.67934  0.47556  0.55652  1.0000
  Fe  Fe172     1.0  0.72827  0.40480  0.55330  1.0000
  H   H1990     1.0  0.56628  0.61173  0.55864  1.0000
  S   S336      1.0  0.71677  0.37221  0.56300  1.0000
  H   H1991     1.0  0.75760  0.40246  0.86626  1.0000
  C   C1167     1.0  0.73335  0.44358  0.93805  1.0000
  C   C1168     1.0  0.67246  0.43401  0.65478  1.0000
  H   H1992     1.0  0.64919  0.48630  0.96018  1.0000
  S   S337      1.0  0.72132  0.42995  0.58518  1.0000
  S   S338      1.0  0.71405  0.42648  0.52038  1.0000
  Fe  Fe173     1.0  0.61608  0.56872  0.72295  1.0000
  S   S339      1.0  0.60587  0.53501  0.71952  1.0000
  S   S340      1.0  0.62571  0.58542  0.76141  1.0000
  Fe  Fe174     1.0  0.60903  0.57657  0.66281  1.0000
  S   S341      1.0  0.59749  0.54367  0.65524  1.0000
  H   H1993     1.0  0.51780  0.58431  0.75942  1.0000
  Fe  Fe175     1.0  0.57859  0.55013  0.69312  1.0000
  Fe  Fe176     1.0  0.62583  0.53205  0.68199  1.0000
  S   S342      1.0  0.65067  0.50319  0.67387  1.0000
  S   S343      1.0  0.58770  0.58407  0.69857  1.0000
  S   S344      1.0  0.63849  0.56465  0.68758  1.0000
  H   H1994     1.0  0.60416  0.53481  0.82945  1.0000
  H   H1995     1.0  0.65318  0.54458  0.47689  1.0000
  S   S345      1.0  0.73629  0.43833  0.72534  1.0000
  C   C1169     1.0  0.74398  0.44782  0.64679  1.0000
  H   H1996     1.0  0.55520  0.64554  0.53789  1.0000
  C   C1170     1.0  0.56295  0.57313  0.58254  1.0000
  H   H1997     1.0  0.56782  0.55240  0.50030  1.0000
  N   N87       1.0  0.75819  0.37451  0.89207  1.0000
  C   C1171     1.0  0.63519  0.44531  0.61696  1.0000
  H   H1998     1.0  0.68554  0.43746  0.64083  1.0000
  H   H1999     1.0  0.64370  0.41669  0.65749  1.0000
  H   H2000     1.0  0.53401  0.56231  0.56251  1.0000
  H   H2001     1.0  0.74139  0.36684  0.79851  1.0000
  C   C1172     1.0  0.54094  0.57791  0.56731  1.0000
  C   C1173     1.0  0.72001  0.49779  0.70839  1.0000
  H   H2002     1.0  0.57475  0.58476  0.52776  1.0000
  H   H2003     1.0  0.52942  0.63748  0.52635  1.0000
  C   C1174     1.0  0.71481  0.50312  0.96142  1.0000
  H   H2004     1.0  0.63967  0.51502  0.95762  1.0000
  C   C1175     1.0  0.62355  0.45391  0.59127  1.0000
  H   H2005     1.0  0.70723  0.38853  0.64975  1.0000
  H   H2006     1.0  0.67884  0.47957  0.70951  1.0000
  C   C1176     1.0  0.54681  0.63145  0.53051  1.0000
  H   H2007     1.0  0.58224  0.61715  0.78450  1.0000
  H   H2008     1.0  0.62260  0.44594  0.63289  1.0000
  S   S346      1.0  0.59029  0.61447  0.91653  1.0000
  C   C1177     1.0  0.72467  0.39199  0.64888  1.0000
  H   H2009     1.0  0.68849  0.51648  0.70575  1.0000
  N   N88       1.0  0.68314  0.67042  0.61979  1.0000
  C   C1178     1.0  0.73495  0.44560  0.67198  1.0000
  H   H2010     1.0  0.61453  0.47002  0.59576  1.0000
  H   H2011     1.0  0.71731  0.44702  0.67416  1.0000
  H   H2012     1.0  0.73328  0.45157  0.62996  1.0000
  H   H2013     1.0  0.67077  0.42837  0.55372  1.0000
  C   C1179     1.0  0.64595  0.65958  0.49949  1.0000
  C   C1180     1.0  0.72703  0.44606  0.91102  1.0000
  H   H2014     1.0  0.54242  0.56016  0.82185  1.0000
  H   H2015     1.0  0.73261  0.36486  0.62203  1.0000
  Fe  Fe177     1.0  0.75801  0.43292  0.76186  1.0000
  H   H2016     1.0  0.70977  0.44846  0.90565  1.0000
  C   C1181     1.0  0.67297  0.48590  0.58880  1.0000
  C   C1182     1.0  0.65319  0.49895  0.59297  1.0000
  C   C1183     1.0  0.64668  0.50538  0.61893  1.0000
  C   C1184     1.0  0.65988  0.49864  0.64089  1.0000
  C   C1185     1.0  0.68008  0.48635  0.63659  1.0000
  C   C1186     1.0  0.68667  0.48015  0.61064  1.0000
  H   H2017     1.0  0.64256  0.50359  0.57616  1.0000
  H   H2018     1.0  0.63108  0.51488  0.62199  1.0000
  H   H2019     1.0  0.69053  0.48131  0.65341  1.0000
  H   H2020     1.0  0.70219  0.47064  0.60759  1.0000
  C   C1187     1.0  0.61984  0.57207  0.54558  1.0000
  C   C1188     1.0  0.62284  0.55853  0.56780  1.0000
  C   C1189     1.0  0.62079  0.56727  0.59375  1.0000
  C   C1190     1.0  0.61563  0.58963  0.59761  1.0000
  H   H2021     1.0  0.62628  0.54117  0.56496  1.0000
  H   H2022     1.0  0.62300  0.55669  0.61071  1.0000
  H   H2023     1.0  0.53952  0.62017  0.56963  1.0000
  C   C1191     1.0  0.62001  0.57721  0.79414  1.0000
  C   C1192     1.0  0.61340  0.55667  0.79928  1.0000
  C   C1193     1.0  0.60909  0.55078  0.82561  1.0000
  H   H2024     1.0  0.61181  0.54525  0.78303  1.0000
  C   C1194     1.0  0.61118  0.56539  0.84703  1.0000
  C   C1195     1.0  0.75751  0.35033  0.88842  1.0000
  H   H2025     1.0  0.75980  0.40413  0.62249  1.0000
  H   H2026     1.0  0.56522  0.58587  0.59790  1.0000
  H   H2027     1.0  0.71624  0.65605  0.46800  1.0000
  H   H2028     1.0  0.73356  0.49287  0.72261  1.0000
  H   H2029     1.0  0.70755  0.64630  0.60309  1.0000
  C   C1196     1.0  0.52319  0.58616  0.78052  1.0000
  H   H2030     1.0  0.53477  0.58370  0.84279  1.0000
  H   H2031     1.0  0.69342  0.50556  0.51866  1.0000
  H   H2032     1.0  0.75362  0.63919  0.47165  1.0000
  C   C1197     1.0  0.54908  0.61175  0.76863  1.0000
  C   C1198     1.0  0.74290  0.44530  0.89090  1.0000
  C   C1199     1.0  0.55753  0.58192  0.52261  1.0000
  H   H2033     1.0  0.71507  0.48329  0.69760  1.0000
  H   H2034     1.0  0.71884  0.40442  0.87655  1.0000
  H   H2035     1.0  0.72822  0.67079  0.57689  1.0000
  H   H2036     1.0  0.55454  0.58987  0.50293  1.0000
  H   H2037     1.0  0.65658  0.49198  0.50997  1.0000
  C   C1200     1.0  0.51904  0.59455  0.53029  1.0000
  H   H2038     1.0  0.61120  0.44339  0.58359  1.0000
  N   N89       1.0  0.68882  0.49910  0.74308  1.0000
  C   C1201     1.0  0.70029  0.51086  0.72197  1.0000
  C   C1202     1.0  0.66840  0.51350  0.75064  1.0000
  C   C1203     1.0  0.68274  0.47786  0.73115  1.0000
  C   C1204     1.0  0.70460  0.49494  0.76625  1.0000
  C   C1205     1.0  0.67217  0.53590  0.76273  1.0000
  C   C1206     1.0  0.66286  0.46802  0.74300  1.0000
  C   C1207     1.0  0.69582  0.48459  0.79122  1.0000
  H   H2039     1.0  0.70671  0.52576  0.73035  1.0000
  H   H2040     1.0  0.65831  0.50572  0.76520  1.0000
  H   H2041     1.0  0.65742  0.51641  0.73282  1.0000
  H   H2042     1.0  0.69691  0.46518  0.73223  1.0000
  H   H2043     1.0  0.71899  0.48361  0.76013  1.0000
  H   H2044     1.0  0.71223  0.50984  0.77252  1.0000
  H   H2045     1.0  0.72678  0.50815  0.69324  1.0000
  H   H2046     1.0  0.65612  0.54412  0.76923  1.0000
  H   H2047     1.0  0.68301  0.53459  0.78064  1.0000
  H   H2048     1.0  0.67857  0.54673  0.74788  1.0000
  H   H2049     1.0  0.62735  0.60768  0.81182  1.0000
  H   H2050     1.0  0.66198  0.45149  0.73437  1.0000
  H   H2051     1.0  0.64724  0.47774  0.73742  1.0000
  H   H2052     1.0  0.69695  0.46660  0.78909  1.0000
  H   H2053     1.0  0.67888  0.49097  0.79634  1.0000
  H   H2054     1.0  0.70593  0.48869  0.80883  1.0000
  H   H2055     1.0  0.73875  0.38015  0.95764  1.0000
  H   H2056     1.0  0.61936  0.59736  0.85814  1.0000
  H   H2057     1.0  0.56855  0.53854  0.75869  1.0000
  C   C1208     1.0  0.68715  0.52006  0.50686  1.0000
  C   C1209     1.0  0.52499  0.58360  0.70002  1.0000
  C   C1210     1.0  0.75565  0.44075  0.94516  1.0000
  C   C1211     1.0  0.62215  0.59178  0.81556  1.0000
  H   H2058     1.0  0.68076  0.42687  0.67294  1.0000
  C   C1212     1.0  0.61761  0.58598  0.84185  1.0000
  H   H2059     1.0  0.54013  0.62527  0.78013  1.0000
  H   H2060     1.0  0.57721  0.57201  0.56922  1.0000
  C   C1213     1.0  0.52277  0.57187  0.95424  1.0000
  N   N90       1.0  0.54158  0.59197  0.54310  1.0000
  S   S347      1.0  0.60555  0.55719  0.87979  1.0000
  H   H2061     1.0  0.70198  0.52658  0.49876  1.0000
  S   S348      1.0  0.54399  0.54112  0.69837  1.0000
  C   C1214     1.0  0.54876  0.61361  0.55186  1.0000
  H   H2062     1.0  0.55471  0.62586  0.51160  1.0000
  H   H2063     1.0  0.72854  0.34144  0.86595  1.0000
  H   H2064     1.0  0.72103  0.44406  0.95337  1.0000
  H   H2065     1.0  0.71349  0.51635  0.94663  1.0000
  H   H2066     1.0  0.72540  0.40468  0.63371  1.0000
  H   H2067     1.0  0.64364  0.42241  0.55997  1.0000
  H   H2068     1.0  0.72222  0.35041  0.89963  1.0000
  C   C1215     1.0  0.75095  0.37339  0.94273  1.0000
  N   N91       1.0  0.54713  0.59016  0.78174  1.0000
  C   C1216     1.0  0.61568  0.59452  0.54949  1.0000
  C   C1217     1.0  0.63368  0.49985  0.47772  1.0000
  C   C1218     1.0  0.56028  0.57299  0.76538  1.0000
  C   C1219     1.0  0.55614  0.59113  0.80991  1.0000
  S   S349      1.0  0.61070  0.60080  0.62973  1.0000
  C   C1220     1.0  0.55911  0.54920  0.77335  1.0000
  C   C1221     1.0  0.54791  0.57529  0.83030  1.0000
  H   H2069     1.0  0.55522  0.57423  0.74400  1.0000
  H   H2070     1.0  0.57803  0.57545  0.76596  1.0000
  H   H2071     1.0  0.57440  0.58852  0.80994  1.0000
  Fe  Fe178     1.0  0.60465  0.57964  0.91633  1.0000
  H   H2072     1.0  0.72288  0.48859  0.95095  1.0000
  H   H2073     1.0  0.65081  0.66808  0.54087  1.0000
  Fe  Fe179     1.0  0.61092  0.58181  0.47811  1.0000
  H   H2074     1.0  0.56707  0.54572  0.79300  1.0000
  H   H2075     1.0  0.66638  0.40125  0.56042  1.0000
  H   H2076     1.0  0.54217  0.54430  0.77262  1.0000
  H   H2077     1.0  0.56158  0.57028  0.84446  1.0000
  S   S350      1.0  0.53469  0.61387  0.95896  1.0000
  Fe  Fe180     1.0  0.74840  0.43615  0.51675  1.0000
  H   H2078     1.0  0.64363  0.51886  0.51009  1.0000
  H   H2079     1.0  0.75053  0.35552  0.94232  1.0000
  C   C1222     1.0  0.72574  0.39158  0.86250  1.0000
  C   C1223     1.0  0.65122  0.66356  0.47306  1.0000
  H   H2080     1.0  0.60980  0.62060  0.57828  1.0000
  H   H2081     1.0  0.54009  0.58820  0.69187  1.0000
  H   H2082     1.0  0.71653  0.37718  0.86380  1.0000
  C   C1224     1.0  0.51662  0.59340  0.96198  1.0000
  S   S351      1.0  0.63293  0.58556  0.94377  1.0000
  H   H2083     1.0  0.61390  0.60518  0.53260  1.0000
  S   S352      1.0  0.73435  0.44817  0.85713  1.0000
  N   N92       1.0  0.64766  0.42304  0.61541  1.0000
  C   C1225     1.0  0.65711  0.41788  0.64288  1.0000
  C   C1226     1.0  0.63182  0.40644  0.60892  1.0000
  C   C1227     1.0  0.66631  0.42261  0.59592  1.0000
  C   C1228     1.0  0.64186  0.38253  0.60875  1.0000
  Fe  Fe181     1.0  0.61748  0.62013  0.94627  1.0000
  H   H2084     1.0  0.69124  0.66143  0.57876  1.0000
  H   H2085     1.0  0.66696  0.40178  0.64287  1.0000
  H   H2086     1.0  0.62356  0.40931  0.58935  1.0000
  H   H2087     1.0  0.61810  0.40781  0.62345  1.0000
  H   H2088     1.0  0.67398  0.43817  0.59708  1.0000
  H   H2089     1.0  0.67956  0.40970  0.60146  1.0000
  H   H2090     1.0  0.65742  0.38007  0.59753  1.0000
  H   H2091     1.0  0.64473  0.37642  0.62934  1.0000
  H   H2092     1.0  0.63007  0.37223  0.59906  1.0000
  S   S353      1.0  0.64246  0.64491  0.94262  1.0000
  H   H2093     1.0  0.55211  0.60770  0.81858  1.0000
  N   N93       1.0  0.67207  0.51378  0.48450  1.0000
  Fe  Fe182     1.0  0.75735  0.43827  0.82288  1.0000
  H   H2094     1.0  0.66734  0.63688  0.58479  1.0000
  H   H2095     1.0  0.68009  0.63772  0.63295  1.0000
  H   H2096     1.0  0.54131  0.61211  0.74836  1.0000
  H   H2097     1.0  0.62048  0.49367  0.48963  1.0000
  H   H2098     1.0  0.72901  0.39842  0.66879  1.0000
  H   H2099     1.0  0.63555  0.45682  0.57566  1.0000
  C   C1229     1.0  0.57263  0.61829  0.76558  1.0000
  C   C1230     1.0  0.74658  0.35053  0.80496  1.0000
  H   H2100     1.0  0.66310  0.44941  0.66134  1.0000
  C   C1231     1.0  0.65191  0.50614  0.49693  1.0000
  H   H2101     1.0  0.72271  0.39824  0.84220  1.0000
  H   H2102     1.0  0.63425  0.64807  0.50363  1.0000
  S   S354      1.0  0.59526  0.61597  0.48186  1.0000
  H   H2103     1.0  0.56353  0.55708  0.59233  1.0000
  H   H2104     1.0  0.56409  0.54773  0.53477  1.0000
  H   H2105     1.0  0.71353  0.34119  0.80636  1.0000
  H   H2106     1.0  0.53873  0.56748  0.94579  1.0000
  H   H2107     1.0  0.54049  0.55282  0.51264  1.0000
  H   H2108     1.0  0.57178  0.63546  0.75909  1.0000
  C   C1232     1.0  0.66091  0.41832  0.56616  1.0000
  C   C1233     1.0  0.67736  0.53742  0.52692  1.0000
  C   C1234     1.0  0.61350  0.60327  0.57543  1.0000
  H   H2109     1.0  0.68617  0.56642  0.96150  1.0000
  S   S355      1.0  0.74658  0.41272  0.79475  1.0000
  H   H2110     1.0  0.52310  0.56950  0.63975  1.0000
  H   H2111     1.0  0.64713  0.63022  0.60765  1.0000
  H   H2112     1.0  0.66401  0.46636  0.76489  1.0000
  S   S356      1.0  0.58420  0.57003  0.95044  1.0000
  H   H2113     1.0  0.66575  0.53070  0.54068  1.0000
  H   H2114     1.0  0.72704  0.38262  0.91242  1.0000
  H   H2115     1.0  0.58169  0.60850  0.74989  1.0000
  H   H2116     1.0  0.52944  0.58582  0.58230  1.0000
  H   H2117     1.0  0.75025  0.36867  0.69519  1.0000
  C   C1235     1.0  0.66944  0.65194  0.62505  1.0000
  C   C1236     1.0  0.52268  0.56173  0.70493  1.0000
  H   H2118     1.0  0.51316  0.53929  0.95129  1.0000
  H   H2119     1.0  0.52012  0.57065  0.78980  1.0000
  S   S357      1.0  0.74348  0.46412  0.54607  1.0000
  H   H2120     1.0  0.69081  0.54285  0.53970  1.0000
  C   C1237     1.0  0.55718  0.55730  0.51755  1.0000
  Fe  Fe183     1.0  0.57125  0.60508  0.95214  1.0000
  C   C1238     1.0  0.69955  0.66285  0.59853  1.0000
  C   C1239     1.0  0.73475  0.34161  0.88684  1.0000
  H   H2121     1.0  0.68477  0.65591  0.67687  1.0000
  C   C1240     1.0  0.65646  0.64368  0.60097  1.0000
  C   C1241     1.0  0.75072  0.38644  0.86693  1.0000
  C   C1242     1.0  0.74860  0.44176  0.69439  1.0000
  H   H2122     1.0  0.65711  0.65624  0.64075  1.0000
  H   H2123     1.0  0.71158  0.66544  0.64635  1.0000
  Fe  Fe184     1.0  0.75481  0.43975  0.57736  1.0000
  C   C1243     1.0  0.74487  0.38367  0.91544  1.0000
  H   H2124     1.0  0.73474  0.35877  0.65645  1.0000
  C   C1244     1.0  0.65538  0.67096  0.52058  1.0000
  H   H2125     1.0  0.68313  0.66379  0.95141  1.0000
  C   C1245     1.0  0.73635  0.34933  0.56424  1.0000
  H   H2126     1.0  0.51408  0.60065  0.88876  1.0000
  H   H2127     1.0  0.64416  0.65641  0.59301  1.0000
  H   H2128     1.0  0.68816  0.48099  0.48336  1.0000
  H   H2129     1.0  0.51916  0.60428  0.51186  1.0000
  C   C1246     1.0  0.73886  0.37077  0.64155  1.0000
  H   H2130     1.0  0.74636  0.40138  0.91751  1.0000
  H   H2131     1.0  0.68271  0.49509  0.95181  1.0000
  H   H2132     1.0  0.67164  0.53283  0.95145  1.0000
  C   C1247     1.0  0.75825  0.35070  0.55742  1.0000
  H   H2133     1.0  0.51398  0.57856  0.52354  1.0000
  H   H2134     1.0  0.75719  0.37739  0.84896  1.0000
  H   H2135     1.0  0.51283  0.60912  0.81325  1.0000
  H   H2136     1.0  0.75943  0.38241  0.59921  1.0000
  H   H2137     1.0  0.71925  0.50046  0.47211  1.0000
  C   C1248     1.0  0.68421  0.49497  0.46968  1.0000
  C   C1249     1.0  0.73460  0.83379  0.31074  1.0000
  S   S358      1.0  0.71531  0.74926  0.01202  1.0000
  H   H2138     1.0  0.69642  0.78506  0.34944  1.0000
  S   S359      1.0  0.71348  0.74019  0.07634  1.0000
  C   C1250     1.0  0.74077  0.83205  0.23929  1.0000
  Fe  Fe185     1.0  0.70687  0.72194  0.03818  1.0000
  S   S360      1.0  0.67501  0.70557  0.03605  1.0000
  Fe  Fe186     1.0  0.72520  0.76579  0.04999  1.0000
  S   S361      1.0  0.74068  0.70380  0.03744  1.0000
  C   C1251     1.0  0.75972  0.78593  0.37158  1.0000
  S   S362      1.0  0.71980  0.93164  0.29213  1.0000
  C   C1252     1.0  0.75922  0.88064  0.43190  1.0000
  C   C1253     1.0  0.75616  0.77772  0.14628  1.0000
  H   H2139     1.0  0.70116  0.97721  0.26798  1.0000
  S   S363      1.0  0.71694  0.80171  0.05935  1.0000
  S   S364      1.0  0.73624  0.72716  0.36153  1.0000
  C   C1254     1.0  0.71769  0.89614  0.01622  1.0000
  Fe  Fe187     1.0  0.74783  0.72399  0.07372  1.0000
  C   C1255     1.0  0.72086  0.83407  0.39929  1.0000
  H   H2140     1.0  0.75608  0.77285  0.41840  1.0000
  C   C1256     1.0  0.71081  0.87851  0.24947  1.0000
  S   S365      1.0  0.67801  0.97966  0.31843  1.0000
  C   C1257     1.0  0.73215  0.94988  0.20307  1.0000
  C   C1258     1.0  0.67995  0.68254  0.98806  1.0000
  H   H2141     1.0  0.73679  0.85113  0.01675  1.0000
  H   H2142     1.0  0.67187  0.95593  0.15469  1.0000
  H   H2143     1.0  0.72334  0.95098  0.41702  1.0000
  S   S366      1.0  0.74400  0.91736  0.07935  1.0000
  C   C1259     1.0  0.68514  0.98593  0.26490  1.0000
  C   C1260     1.0  0.75711  0.84921  0.24421  1.0000
  H   H2144     1.0  0.70690  0.79205  0.39438  1.0000
  S   S367      1.0  0.73014  0.95166  0.01661  1.0000
  C   C1261     1.0  0.72076  0.78667  0.38114  1.0000
  C   C1262     1.0  0.74032  0.82033  0.38618  1.0000
  C   C1263     1.0  0.67921  0.99469  0.23975  1.0000
  C   C1264     1.0  0.73184  0.73005  0.41577  1.0000
  Fe  Fe188     1.0  0.70920  0.95702  0.32281  1.0000
  S   S368      1.0  0.74369  0.72608  0.22978  1.0000
  C   C1265     1.0  0.74074  0.72034  0.14915  1.0000
  H   H2145     1.0  0.68892  0.99118  0.06721  1.0000
  C   C1266     1.0  0.73463  0.88480  0.24977  1.0000
  C   C1267     1.0  0.74651  0.72834  0.39441  1.0000
  S   S369      1.0  0.71459  0.93412  0.35742  1.0000
  C   C1268     1.0  0.61918  0.00161  0.41911  1.0000
  H   H2146     1.0  0.73397  0.90241  0.24504  1.0000
  S   S370      1.0  0.71959  0.87524  0.32532  1.0000
  H   H2147     1.0  0.67057  0.68188  0.44770  1.0000
  S   S371      1.0  0.74221  0.96988  0.32709  1.0000
  H   H2148     1.0  0.74828  0.86892  0.42353  1.0000
  C   C1269     1.0  0.66058  0.98670  0.13441  1.0000
  H   H2149     1.0  0.74874  0.67899  0.38296  1.0000
  H   H2150     1.0  0.71534  0.90775  0.03323  1.0000
  N   N94       1.0  0.68277  0.99430  0.12883  1.0000
  C   C1270     1.0  0.74158  0.95043  0.22871  1.0000
  H   H2151     1.0  0.73013  0.78848  0.11677  1.0000
  H   H2152     1.0  0.60431  0.00078  0.43132  1.0000
  H   H2153     1.0  0.71487  0.84546  0.07872  1.0000
  H   H2154     1.0  0.71734  0.84939  0.38796  1.0000
  H   H2155     1.0  0.63391  0.68856  0.02553  1.0000
  H   H2156     1.0  0.71437  0.73016  0.41191  1.0000
  H   H2157     1.0  0.72604  0.90233  0.20030  1.0000
  H   H2158     1.0  0.74614  0.80105  0.29912  1.0000
  H   H2159     1.0  0.72272  0.76873  0.38321  1.0000
  H   H2160     1.0  0.71745  0.83137  0.30775  1.0000
  C   C1271     1.0  0.64482  0.68292  0.00957  1.0000
  C   C1272     1.0  0.69507  0.97999  0.10834  1.0000
  H   H2161     1.0  0.70879  0.95351  0.46314  1.0000
  C   C1273     1.0  0.73891  0.77336  0.12472  1.0000
  H   H2162     1.0  0.73888  0.82789  0.21790  1.0000
  S   S372      1.0  0.75989  0.75072  0.04980  1.0000
  H   H2163     1.0  0.72367  0.78350  0.33740  1.0000
  C   C1274     1.0  0.72918  0.79016  0.43817  1.0000
  H   H2164     1.0  0.75342  0.68911  0.42923  1.0000
  H   H2165     1.0  0.75061  0.81672  0.11699  1.0000
  H   H2166     1.0  0.75949  0.85032  0.26614  1.0000
  N   N95       1.0  0.74885  0.87430  0.98982  1.0000
  H   H2167     1.0  0.69636  0.68762  0.98734  1.0000
  H   H2168     1.0  0.75679  0.85982  0.19240  1.0000
  H   H2169     1.0  0.75672  0.79080  0.35054  1.0000
  N   N96       1.0  0.75126  0.87152  0.23277  1.0000
  H   H2170     1.0  0.74802  0.81923  0.15170  1.0000
  H   H2171     1.0  0.72633  0.76391  0.13349  1.0000
  Fe  Fe189     1.0  0.75306  0.94326  0.05184  1.0000
  C   C1275     1.0  0.73448  0.95168  0.43388  1.0000
  S   S373      1.0  0.73291  0.94351  0.14907  1.0000
  H   H2172     1.0  0.64358  0.95880  0.14488  1.0000
  H   H2173     1.0  0.76007  0.76790  0.37142  1.0000
  Fe  Fe190     1.0  0.72855  0.90982  0.32687  1.0000
  H   H2174     1.0  0.72788  0.72041  0.13412  1.0000
  C   C1276     1.0  0.73530  0.72349  0.17618  1.0000
  H   H2175     1.0  0.73121  0.95405  0.24573  1.0000
  C   C1277     1.0  0.64976  0.00025  0.28190  1.0000
  H   H2176     1.0  0.66923  0.99914  0.43154  1.0000
  H   H2177     1.0  0.73070  0.88780  0.16962  1.0000
  H   H2178     1.0  0.69908  0.97638  0.16146  1.0000
  H   H2179     1.0  0.72002  0.85638  0.98798  1.0000
  H   H2180     1.0  0.76027  0.80015  0.42617  1.0000
  H   H2181     1.0  0.72481  0.83824  0.42027  1.0000
  C   C1278     1.0  0.75174  0.72312  0.19606  1.0000
  H   H2182     1.0  0.66395  0.95264  0.12004  1.0000
  C   C1279     1.0  0.73746  0.85415  0.99494  1.0000
  H   H2183     1.0  0.71863  0.77684  0.43411  1.0000
  C   C1280     1.0  0.74791  0.78975  0.41783  1.0000
  N   N97       1.0  0.74172  0.79603  0.38948  1.0000
  C   C1281     1.0  0.72626  0.95323  0.46002  1.0000
  H   H2184     1.0  0.69698  0.00105  0.46142  1.0000
  C   C1282     1.0  0.66030  0.96207  0.13869  1.0000
  H   H2185     1.0  0.74270  0.87178  0.08357  1.0000
  C   C1283     1.0  0.74543  0.94556  0.18069  1.0000
  Fe  Fe191     1.0  0.74854  0.94492  0.35941  1.0000
  H   H2186     1.0  0.74689  0.78370  0.16432  1.0000
  H   H2187     1.0  0.74057  0.82482  0.36480  1.0000
  H   H2188     1.0  0.72295  0.67486  0.44364  1.0000
  H   H2189     1.0  0.71449  0.95263  0.20064  1.0000
  C   C1284     1.0  0.74045  0.85415  0.31915  1.0000
  H   H2190     1.0  0.63828  0.00243  0.29816  1.0000
  C   C1285     1.0  0.74260  0.89048  0.01191  1.0000
  C   C1286     1.0  0.71254  0.79166  0.35249  1.0000
  H   H2191     1.0  0.75309  0.89928  0.18537  1.0000
  C   C1287     1.0  0.73155  0.84095  0.07230  1.0000
  H   H2192     1.0  0.74649  0.76336  0.10814  1.0000
  C   C1288     1.0  0.73970  0.73151  0.44215  1.0000
  C   C1289     1.0  0.73726  0.82007  0.06174  1.0000
  H   H2193     1.0  0.71819  0.72597  0.18176  1.0000
  H   H2194     1.0  0.70526  0.82650  0.39843  1.0000
  C   C1290     1.0  0.66616  0.68952  0.00914  1.0000
  C   C1291     1.0  0.74768  0.83247  0.98286  1.0000
  H   H2195     1.0  0.73991  0.88421  0.27108  1.0000
  C   C1292     1.0  0.74729  0.85596  0.07494  1.0000
  H   H2196     1.0  0.70996  0.80935  0.34880  1.0000
  C   C1293     1.0  0.74385  0.86955  0.20410  1.0000
  C   C1294     1.0  0.66187  0.00001  0.45179  1.0000
  C   C1295     1.0  0.73969  0.94767  0.98356  1.0000
  C   C1296     1.0  0.75084  0.81654  0.30597  1.0000
  H   H2197     1.0  0.73005  0.99313  0.14032  1.0000
  Fe  Fe192     1.0  0.74948  0.73227  0.01377  1.0000
  C   C1297     1.0  0.71846  0.00256  0.15390  1.0000
  C   C1298     1.0  0.76044  0.81568  0.13584  1.0000
  H   H2198     1.0  0.69944  0.96325  0.11579  1.0000
  H   H2199     1.0  0.70922  0.88177  0.02147  1.0000
  H   H2200     1.0  0.72922  0.86047  0.20195  1.0000
  C   C1299     1.0  0.73816  0.89113  0.18940  1.0000
  Fe  Fe193     1.0  0.75991  0.73084  0.32807  1.0000
  C   C1300     1.0  0.67046  0.98879  0.28610  1.0000
  H   H2201     1.0  0.68857  0.96229  0.07161  1.0000
  H   H2202     1.0  0.73644  0.78711  0.45839  1.0000
  H   H2203     1.0  0.70802  0.86824  0.26688  1.0000
  H   H2204     1.0  0.69072  0.99250  0.22352  1.0000
  H   H2205     1.0  0.70953  0.90449  0.99879  1.0000
  H   H2206     1.0  0.72833  0.73255  0.45853  1.0000
  H   H2207     1.0  0.71892  0.80586  0.43898  1.0000
  C   C1301     1.0  0.75886  0.81439  0.05353  1.0000
  H   H2208     1.0  0.69929  0.89352  0.25113  1.0000
  H   H2209     1.0  0.65429  0.98448  0.45380  1.0000
  H   H2210     1.0  0.72457  0.83674  0.24822  1.0000
  H   H2211     1.0  0.74984  0.88460  0.03129  1.0000
  H   H2212     1.0  0.70575  0.87022  0.23116  1.0000
  H   H2213     1.0  0.76059  0.89351  0.41688  1.0000
  H   H2214     1.0  0.72604  0.00110  0.17414  1.0000
  Fe  Fe194     1.0  0.75450  0.93841  0.11295  1.0000
  S   S374      1.0  0.75094  0.75517  0.29605  1.0000
  C   C1302     1.0  0.75708  0.95136  0.42964  1.0000
  Fe  Fe195     1.0  0.75325  0.94287  0.29845  1.0000
  H   H2215     1.0  0.62960  0.98591  0.41953  1.0000
  C   C1303     1.0  0.68379  0.97854  0.08070  1.0000
  H   H2216     1.0  0.74941  0.90617  0.00846  1.0000
  H   H2217     1.0  0.73644  0.81977  0.98641  1.0000
  H   H2218     1.0  0.61325  0.00403  0.39820  1.0000
  H   H2219     1.0  0.65339  0.99484  0.15266  1.0000
  H   H2220     1.0  0.75532  0.82685  0.39448  1.0000
  C   C1304     1.0  0.74968  0.89130  0.45777  1.0000
  H   H2221     1.0  0.74740  0.81673  0.24908  1.0000
  C   C1305     1.0  0.69591  0.99337  0.15454  1.0000
  H   H2222     1.0  0.68647  0.00193  0.17094  1.0000
  H   H2223     1.0  0.62891  0.67763  0.07769  1.0000
  H   H2224     1.0  0.71131  0.98583  0.10437  1.0000
  S   S375      1.0  0.75964  0.96593  0.08578  1.0000
  H   H2225     1.0  0.73152  0.89200  0.45534  1.0000
  H   H2226     1.0  0.75282  0.90873  0.45766  1.0000
  H   H2227     1.0  0.64843  0.99153  0.11833  1.0000
  H   H2228     1.0  0.66565  0.98013  0.08155  1.0000
  C   C1306     1.0  0.74976  0.71508  0.69636  1.0000
  S   S376      1.0  0.71477  0.74966  0.51308  1.0000
  C   C1307     1.0  0.74056  0.95430  0.48208  1.0000
  S   S377      1.0  0.71507  0.74282  0.57797  1.0000
  H   H2229     1.0  0.68598  0.96270  0.62848  1.0000
  Fe  Fe196     1.0  0.70889  0.72264  0.54116  1.0000
  S   S378      1.0  0.68096  0.70084  0.54278  1.0000
  Fe  Fe197     1.0  0.72471  0.76816  0.54967  1.0000
  H   H2230     1.0  0.70084  0.00189  0.57244  1.0000
  H   H2231     1.0  0.71231  0.84985  0.56923  1.0000
  H   H2232     1.0  0.71877  0.75698  0.88942  1.0000
  C   C1308     1.0  0.73797  0.94530  0.72788  1.0000
  H   H2233     1.0  0.74352  0.81200  0.74535  1.0000
  C   C1309     1.0  0.66930  0.69010  0.60931  1.0000
  H   H2234     1.0  0.73899  0.87449  0.77156  1.0000
  H   H2235     1.0  0.75161  0.83407  0.65002  1.0000
  S   S379      1.0  0.74352  0.70657  0.53993  1.0000
  C   C1310     1.0  0.75856  0.77152  0.68256  1.0000
  H   H2236     1.0  0.64137  0.71365  0.61661  1.0000
  H   H2237     1.0  0.72138  0.78051  0.64762  1.0000
  C   C1311     1.0  0.72606  0.78862  0.62929  1.0000
  S   S380      1.0  0.67395  0.97141  0.82058  1.0000
  S   S381      1.0  0.73798  0.96060  0.82781  1.0000
  S   S382      1.0  0.74275  0.92158  0.57704  1.0000
  S   S383      1.0  0.71506  0.86599  0.82410  1.0000
  H   H2238     1.0  0.63914  0.68846  0.63268  1.0000
  C   C1312     1.0  0.74716  0.85951  0.48721  1.0000
  C   C1313     1.0  0.69112  0.99646  0.58921  1.0000
  C   C1314     1.0  0.68313  0.98015  0.76835  1.0000
  C   C1315     1.0  0.75425  0.94233  0.93035  1.0000
  H   H2239     1.0  0.72174  0.81251  0.86158  1.0000
  N   N98       1.0  0.73494  0.78656  0.88752  1.0000
  C   C1316     1.0  0.73788  0.82883  0.73908  1.0000
  H   H2240     1.0  0.75830  0.82340  0.87148  1.0000
  H   H2241     1.0  0.71996  0.94426  0.91951  1.0000
  C   C1317     1.0  0.68138  0.99939  0.47197  1.0000
  C   C1318     1.0  0.75774  0.83046  0.62965  1.0000
  C   C1319     1.0  0.70272  0.00128  0.66472  1.0000
  H   H2242     1.0  0.75014  0.83321  0.96114  1.0000
  H   H2243     1.0  0.65770  0.70751  0.64568  1.0000
  H   H2244     1.0  0.70537  0.89304  0.73287  1.0000
  C   C1320     1.0  0.75726  0.84280  0.74230  1.0000
  H   H2245     1.0  0.72777  0.98556  0.89546  1.0000
  H   H2246     1.0  0.68751  0.70158  0.48497  1.0000
  H   H2247     1.0  0.71156  0.77692  0.93635  1.0000
  H   H2248     1.0  0.75632  0.79197  0.92158  1.0000
  H   H2249     1.0  0.73941  0.89665  0.74963  1.0000
  H   H2250     1.0  0.73555  0.86068  0.93235  1.0000
  H   H2251     1.0  0.71188  0.95153  0.69882  1.0000
  C   C1321     1.0  0.73022  0.82461  0.80916  1.0000
  C   C1322     1.0  0.74514  0.82623  0.88645  1.0000
  S   S384      1.0  0.71483  0.92309  0.79235  1.0000
  C   C1323     1.0  0.71535  0.77394  0.88228  1.0000
  C   C1324     1.0  0.70018  0.00363  0.87534  1.0000
  C   C1325     1.0  0.72939  0.94773  0.70182  1.0000
  C   C1326     1.0  0.74120  0.72158  0.94267  1.0000
  C   C1327     1.0  0.65048  0.99980  0.78666  1.0000
  C   C1328     1.0  0.73360  0.71829  0.91648  1.0000
  Fe  Fe198     1.0  0.74421  0.93530  0.85973  1.0000
  H   H2252     1.0  0.71668  0.71515  0.91301  1.0000
  C   C1329     1.0  0.73601  0.82321  0.55840  1.0000
  C   C1330     1.0  0.67870  0.99057  0.74386  1.0000
  Fe  Fe199     1.0  0.74847  0.93385  0.79853  1.0000
  H   H2253     1.0  0.71344  0.81591  0.89506  1.0000
  C   C1331     1.0  0.66893  0.98458  0.78976  1.0000
  H   H2254     1.0  0.71932  0.91073  0.52596  1.0000
  H   H2255     1.0  0.70275  0.87734  0.76167  1.0000
  H   H2256     1.0  0.66779  0.99591  0.91008  1.0000
  S   S385      1.0  0.71600  0.80435  0.55702  1.0000
  S   S386      1.0  0.74057  0.71351  0.72943  1.0000
  H   H2257     1.0  0.69448  0.68087  0.68780  1.0000
  H   H2258     1.0  0.67960  0.70342  0.60494  1.0000
  H   H2259     1.0  0.74961  0.77559  0.70138  1.0000
  C   C1332     1.0  0.75312  0.77803  0.86886  1.0000
  C   C1333     1.0  0.72771  0.81019  0.88244  1.0000
  C   C1334     1.0  0.70751  0.77247  0.85293  1.0000
  H   H2260     1.0  0.73022  0.72080  0.95928  1.0000
  H   H2261     1.0  0.73723  0.88788  0.67101  1.0000
  S   S387      1.0  0.73176  0.94675  0.64735  1.0000
  H   H2262     1.0  0.73197  0.82756  0.71823  1.0000
  C   C1335     1.0  0.76049  0.93995  0.73200  1.0000
  S   S388      1.0  0.75878  0.96984  0.58472  1.0000
  Fe  Fe200     1.0  0.75210  0.94780  0.55021  1.0000
  H   H2263     1.0  0.75178  0.78600  0.60023  1.0000
  H   H2264     1.0  0.74894  0.76052  0.67066  1.0000
  H   H2265     1.0  0.69365  0.76213  0.85191  1.0000
  H   H2266     1.0  0.72297  0.88720  0.96290  1.0000
  S   S389      1.0  0.74792  0.74536  0.79490  1.0000
  H   H2267     1.0  0.71768  0.80516  0.93718  1.0000
  H   H2268     1.0  0.70130  0.78850  0.84479  1.0000
  H   H2269     1.0  0.72713  0.94753  0.74472  1.0000
  H   H2270     1.0  0.72039  0.76451  0.83980  1.0000
  S   S390      1.0  0.73716  0.71707  0.86202  1.0000
  H   H2271     1.0  0.73268  0.78520  0.95756  1.0000
  C   C1336     1.0  0.71220  0.87791  0.74294  1.0000
  H   H2272     1.0  0.73486  0.90103  0.70292  1.0000
  C   C1337     1.0  0.73674  0.87909  0.75024  1.0000
  H   H2273     1.0  0.71216  0.69429  0.58897  1.0000
  S   S391      1.0  0.71016  0.92475  0.85781  1.0000
  C   C1338     1.0  0.74761  0.86634  0.70390  1.0000
  C   C1339     1.0  0.70322  0.00086  0.61576  1.0000
  H   H2274     1.0  0.72879  0.72048  0.63288  1.0000
  C   C1340     1.0  0.67609  0.68982  0.48917  1.0000
  C   C1341     1.0  0.72477  0.78799  0.93765  1.0000
  C   C1342     1.0  0.73599  0.84502  0.81755  1.0000
  C   C1343     1.0  0.73175  0.94451  0.93576  1.0000
  H   H2275     1.0  0.65804  0.96213  0.63849  1.0000
  H   H2276     1.0  0.70078  0.78103  0.89360  1.0000
  C   C1344     1.0  0.71166  0.99435  0.90089  1.0000
  H   H2277     1.0  0.74188  0.79217  0.79631  1.0000
  C   C1345     1.0  0.74768  0.71931  0.89476  1.0000
  H   H2278     1.0  0.72263  0.80637  0.63181  1.0000
  H   H2279     1.0  0.69067  0.97871  0.58586  1.0000
  H   H2280     1.0  0.73963  0.87665  0.57392  1.0000
  C   C1346     1.0  0.74328  0.94487  0.67974  1.0000
  H   H2281     1.0  0.67872  0.96469  0.66334  1.0000
  H   H2282     1.0  0.66148  0.68623  0.58991  1.0000
  C   C1347     1.0  0.75820  0.84826  0.82053  1.0000
  H   H2283     1.0  0.70708  0.94946  0.96628  1.0000
  H   H2284     1.0  0.70840  0.86371  0.73086  1.0000
  H   H2285     1.0  0.72979  0.67768  0.61137  1.0000
  H   H2286     1.0  0.70043  0.69295  0.64380  1.0000
  Fe  Fe201     1.0  0.72367  0.90073  0.82659  1.0000
  S   S392      1.0  0.72975  0.95686  0.51463  1.0000
  H   H2287     1.0  0.65805  0.99782  0.62343  1.0000
  H   H2288     1.0  0.73731  0.84299  0.88307  1.0000
  C   C1348     1.0  0.71832  0.67742  0.59407  1.0000
  C   C1349     1.0  0.72945  0.84492  0.56533  1.0000
  C   C1350     1.0  0.74089  0.71847  0.64880  1.0000
  H   H2289     1.0  0.71306  0.82198  0.80679  1.0000
  H   H2290     1.0  0.69739  0.96851  0.77058  1.0000
  H   H2291     1.0  0.71687  0.71840  0.67996  1.0000
  Fe  Fe202     1.0  0.70477  0.94813  0.82369  1.0000
  C   C1351     1.0  0.73419  0.71730  0.67544  1.0000
  H   H2292     1.0  0.71416  0.98573  0.61976  1.0000
  C   C1352     1.0  0.74520  0.88892  0.69098  1.0000
  H   H2293     1.0  0.74849  0.76533  0.91859  1.0000
  H   H2294     1.0  0.74622  0.90131  0.96215  1.0000
  H   H2295     1.0  0.66774  0.68114  0.67297  1.0000
  C   C1353     1.0  0.67038  0.68623  0.51554  1.0000
  Fe  Fe203     1.0  0.74977  0.73476  0.51431  1.0000
  C   C1354     1.0  0.74496  0.86021  0.56796  1.0000
  H   H2296     1.0  0.71487  0.78372  0.61315  1.0000
  C   C1355     1.0  0.67350  0.96962  0.64283  1.0000
  C   C1356     1.0  0.66644  0.67863  0.46806  1.0000
  H   H2297     1.0  0.62853  0.99797  0.89903  1.0000
  H   H2298     1.0  0.70797  0.98368  0.66551  1.0000
  H   H2299     1.0  0.74860  0.82545  0.47569  1.0000
  H   H2300     1.0  0.67441  0.00483  0.58705  1.0000
  H   H2301     1.0  0.64793  0.99749  0.50615  1.0000
  C   C1357     1.0  0.65091  0.70020  0.62747  1.0000
  H   H2302     1.0  0.69838  0.98968  0.86151  1.0000
  C   C1358     1.0  0.74854  0.89588  0.50613  1.0000
  Fe  Fe204     1.0  0.75341  0.94196  0.61124  1.0000
  H   H2303     1.0  0.75412  0.91229  0.50396  1.0000
  H   H2304     1.0  0.69278  0.00483  0.68288  1.0000
  C   C1359     1.0  0.74653  0.80765  0.80335  1.0000
  H   H2305     1.0  0.75254  0.76035  0.86483  1.0000
  H   H2306     1.0  0.68960  0.98675  0.72730  1.0000
  H   H2307     1.0  0.74397  0.82876  0.61551  1.0000
  H   H2308     1.0  0.72424  0.83459  0.75254  1.0000
  H   H2309     1.0  0.75124  0.76323  0.62085  1.0000
  H   H2310     1.0  0.66276  0.98667  0.87701  1.0000
  N   N99       1.0  0.75356  0.86603  0.73320  1.0000
  C   C1360     1.0  0.74790  0.87199  0.93797  1.0000
  C   C1361     1.0  0.74228  0.78271  0.91607  1.0000
  H   H2311     1.0  0.75084  0.78581  0.84909  1.0000
  H   H2312     1.0  0.75221  0.82579  0.90688  1.0000
  S   S393      1.0  0.75809  0.90970  0.83065  1.0000
  H   H2313     1.0  0.73349  0.67652  0.47745  1.0000
  H   H2314     1.0  0.73207  0.85916  0.69965  1.0000
  H   H2315     1.0  0.73328  0.00524  0.68579  1.0000
  Fe  Fe205     1.0  0.75923  0.72187  0.82719  1.0000
  C   C1362     1.0  0.69577  0.67601  0.64473  1.0000
  C   C1363     1.0  0.75824  0.81708  0.55341  1.0000
  H   H2316     1.0  0.65876  0.00017  0.65818  1.0000
  C   C1364     1.0  0.66908  0.99454  0.64086  1.0000
  S   S394      1.0  0.75990  0.75481  0.54897  1.0000
  Fe  Fe206     1.0  0.74993  0.72831  0.57488  1.0000
  C   C1365     1.0  0.66262  0.00159  0.88981  1.0000
  C   C1366     1.0  0.75904  0.83907  0.47396  1.0000
  H   H2317     1.0  0.68356  0.98326  0.48167  1.0000
  C   C1367     1.0  0.66026  0.00580  0.74073  1.0000
  H   H2318     1.0  0.70225  0.98225  0.91053  1.0000
  H   H2319     1.0  0.74642  0.85547  0.50878  1.0000
  H   H2320     1.0  0.71519  0.90724  0.49115  1.0000
  C   C1368     1.0  0.75002  0.78132  0.62141  1.0000
  C   C1369     1.0  0.72451  0.94741  0.96226  1.0000
  C   C1370     1.0  0.74121  0.88456  0.96379  1.0000
  N   N100      1.0  0.75698  0.88080  0.48381  1.0000
  H   H2321     1.0  0.61983  0.00084  0.47128  1.0000
  H   H2322     1.0  0.74655  0.80352  0.66981  1.0000
  H   H2323     1.0  0.74881  0.88380  0.92157  1.0000
  H   H2324     1.0  0.72983  0.86079  0.47981  1.0000
  C   C1371     1.0  0.72330  0.89943  0.50895  1.0000
  H   H2325     1.0  0.63927  0.00315  0.80300  1.0000
  H   H2326     1.0  0.75531  0.88996  0.52572  1.0000
  H   H2327     1.0  0.71601  0.88421  0.51354  1.0000
  H   H2328     1.0  0.76025  0.85602  0.69241  1.0000
  Fe  Fe207     1.0  0.76170  0.71962  0.76595  1.0000
  H   H2329     1.0  0.76149  0.89481  0.68770  1.0000
  H   H2330     1.0  0.76157  0.84217  0.76382  1.0000
  C   C1372     1.0  0.68476  0.67336  0.67189  1.0000
  Fe  Fe208     1.0  0.89264  0.07902  0.41430  1.0000
  S   S395      1.0  0.90085  0.11361  0.41587  1.0000
  S   S396      1.0  0.88957  0.05843  0.37673  1.0000
  H   H2331     1.0  0.86720  0.02051  0.13543  1.0000
  H   H2332     1.0  0.83007  0.01464  0.30583  1.0000
  S   S397      1.0  0.89029  0.05374  0.00905  1.0000
  Fe  Fe209     1.0  0.87654  0.11786  0.44949  1.0000
  H   H2333     1.0  0.80865  0.12931  0.37923  1.0000
  H   H2334     1.0  0.81329  0.19701  0.01444  1.0000
  N   N101      1.0  0.81474  0.16315  0.38366  1.0000
  H   H2335     1.0  0.98291  0.08469  0.03166  1.0000
  C   C1373     1.0  0.94449  0.10793  0.27726  1.0000
  Fe  Fe210     1.0  0.89194  0.03107  0.18774  1.0000
  S   S398      1.0  0.87231  0.06373  0.18859  1.0000
  Fe  Fe211     1.0  0.93590  0.05102  0.19278  1.0000
  S   S399      1.0  0.91930  0.08487  0.19352  1.0000
  S   S400      1.0  0.97289  0.04368  0.19743  1.0000
  Fe  Fe212     1.0  0.89548  0.07200  0.22159  1.0000
  S   S401      1.0  0.88532  0.09308  0.25762  1.0000
  Fe  Fe213     1.0  0.89798  0.07319  0.16054  1.0000
  S   S402      1.0  0.88938  0.09494  0.12528  1.0000
  S   S403      1.0  0.91335  0.03865  0.22299  1.0000
  S   S404      1.0  0.91634  0.04001  0.15758  1.0000
  H   H2336     1.0  0.79574  0.01478  0.21726  1.0000
  H   H2337     1.0  0.84459  0.16949  0.40481  1.0000
  C   C1374     1.0  0.83804  0.13226  0.35828  1.0000
  H   H2338     1.0  0.97660  0.13216  0.05190  1.0000
  H   H2339     1.0  0.93984  0.13300  0.03586  1.0000
  C   C1375     1.0  0.99122  0.06409  0.19888  1.0000
  C   C1376     1.0  0.98437  0.08578  0.19302  1.0000
  C   C1377     1.0  0.76729  0.20983  0.18241  1.0000
  H   H2340     1.0  0.95098  0.10543  0.23376  1.0000
  H   H2341     1.0  0.94023  0.08931  0.35293  1.0000
  H   H2342     1.0  0.96754  0.09036  0.18697  1.0000
  H   H2343     1.0  0.99396  0.11836  0.19045  1.0000
  H   H2344     1.0  0.76368  0.27315  0.16262  1.0000
  H   H2345     1.0  0.84373  0.20908  0.39070  1.0000
  H   H2346     1.0  0.82939  0.13423  0.33876  1.0000
  H   H2347     1.0  0.84614  0.01000  0.09563  1.0000
  S   S405      1.0  0.86629  0.08405  0.44537  1.0000
  H   H2348     1.0  0.77280  0.20709  0.99277  1.0000
  C   C1378     1.0  0.98046  0.08878  0.29143  1.0000
  H   H2349     1.0  0.96011  0.10444  0.33746  1.0000
  H   H2350     1.0  0.96101  0.04550  0.04926  1.0000
  H   H2351     1.0  0.85330  0.14053  0.35861  1.0000
  C   C1379     1.0  0.88723  0.06500  0.04140  1.0000
  C   C1380     1.0  0.88337  0.08745  0.04532  1.0000
  C   C1381     1.0  0.88360  0.09638  0.07119  1.0000
  C   C1382     1.0  0.88742  0.08291  0.09337  1.0000
  C   C1383     1.0  0.89019  0.06036  0.08958  1.0000
  C   C1384     1.0  0.89006  0.05142  0.06364  1.0000
  H   H2352     1.0  0.88052  0.09799  0.02840  1.0000
  H   H2353     1.0  0.88130  0.11383  0.07390  1.0000
  H   H2354     1.0  0.89282  0.04979  0.10655  1.0000
  H   H2355     1.0  0.89294  0.03401  0.06079  1.0000
  C   C1385     1.0  0.88843  0.06846  0.34380  1.0000
  C   C1386     1.0  0.88596  0.09073  0.33858  1.0000
  C   C1387     1.0  0.88461  0.09802  0.31206  1.0000
  C   C1388     1.0  0.88619  0.08315  0.29056  1.0000
  C   C1389     1.0  0.88896  0.06089  0.29577  1.0000
  C   C1390     1.0  0.88988  0.05361  0.32228  1.0000
  H   H2356     1.0  0.88494  0.10230  0.35497  1.0000
  H   H2357     1.0  0.88256  0.11527  0.30817  1.0000
  H   H2358     1.0  0.89039  0.04931  0.27941  1.0000
  H   H2359     1.0  0.89183  0.03635  0.32617  1.0000
  C   C1391     1.0  0.84985  0.15509  0.03382  1.0000
  C   C1392     1.0  0.85735  0.14767  0.00864  1.0000
  C   C1393     1.0  0.84932  0.15826  0.98552  1.0000
  C   C1394     1.0  0.83341  0.17615  0.98786  1.0000
  C   C1395     1.0  0.82548  0.18323  0.01300  1.0000
  H   H2360     1.0  0.85658  0.14703  0.05152  1.0000
  H   H2361     1.0  0.86948  0.13387  0.00720  1.0000
  C   C1396     1.0  0.97156  0.09879  0.03851  1.0000
  H   H2362     1.0  0.78664  0.26603  0.18393  1.0000
  H   H2363     1.0  0.77360  0.27256  0.01473  1.0000
  H   H2364     1.0  0.87076  0.01442  0.24529  1.0000
  C   C1397     1.0  0.84549  0.01059  0.03288  1.0000
  H   H2365     1.0  0.77059  0.15940  0.42700  1.0000
  H   H2366     1.0  0.81586  0.20809  0.37957  1.0000
  H   H2367     1.0  0.78815  0.32990  0.05021  1.0000
  C   C1398     1.0  0.98118  0.07159  0.45259  1.0000
  H   H2368     1.0  0.76942  0.15716  0.39157  1.0000
  H   H2369     1.0  0.98711  0.07738  0.30725  1.0000
  C   C1399     1.0  0.94445  0.09717  0.33412  1.0000
  H   H2370     1.0  0.79957  0.16419  0.16392  1.0000
  C   C1400     1.0  0.95268  0.06945  0.26504  1.0000
  S   S406      1.0  0.78385  0.22996  0.03940  1.0000
  H   H2371     1.0  0.83425  0.08654  0.11626  1.0000
  H   H2372     1.0  0.81104  0.16145  0.42652  1.0000
  H   H2373     1.0  0.79184  0.20513  0.21374  1.0000
  Fe  Fe214     1.0  0.77528  0.25310  0.07332  1.0000
  H   H2374     1.0  0.94729  0.05555  0.09321  1.0000
  H   H2375     1.0  0.78330  0.27065  0.98074  1.0000
  C   C1401     1.0  0.99939  0.10161  0.19493  1.0000
  H   H2376     1.0  0.77634  0.30857  0.12696  1.0000
  H   H2377     1.0  0.79499  0.18345  0.41167  1.0000
  C   C1402     1.0  0.77445  0.20777  0.20918  1.0000
  C   C1403     1.0  0.79054  0.26839  0.26842  1.0000
  C   C1404     1.0  0.80064  0.17046  0.35983  1.0000
  H   H2378     1.0  0.78901  0.18471  0.36551  1.0000
  C   C1405     1.0  0.99712  0.10186  0.38450  1.0000
  N   N102      1.0  0.82222  0.13284  0.12791  1.0000
  C   C1406     1.0  0.83796  0.13993  0.14899  1.0000
  C   C1407     1.0  0.81325  0.11241  0.13723  1.0000
  C   C1408     1.0  0.80337  0.15003  0.12326  1.0000
  C   C1409     1.0  0.83453  0.12894  0.10223  1.0000
  C   C1410     1.0  0.84637  0.16241  0.14508  1.0000
  C   C1411     1.0  0.82951  0.09167  0.13684  1.0000
  C   C1412     1.0  0.78963  0.15714  0.14799  1.0000
  C   C1413     1.0  0.82135  0.12081  0.07823  1.0000
  H   H2379     1.0  0.83056  0.14005  0.16915  1.0000
  H   H2380     1.0  0.85287  0.12807  0.15028  1.0000
  H   H2381     1.0  0.79841  0.10891  0.12549  1.0000
  H   H2382     1.0  0.80739  0.11448  0.15811  1.0000
  H   H2383     1.0  0.80919  0.16484  0.11462  1.0000
  H   H2384     1.0  0.79171  0.14444  0.10801  1.0000
  H   H2385     1.0  0.84087  0.14410  0.09552  1.0000
  H   H2386     1.0  0.84977  0.11784  0.10498  1.0000
  H   H2387     1.0  0.85572  0.16320  0.12641  1.0000
  H   H2388     1.0  0.83296  0.17583  0.14564  1.0000
  H   H2389     1.0  0.85790  0.16548  0.16171  1.0000
  H   H2390     1.0  0.77912  0.20878  0.16649  1.0000
  H   H2391     1.0  0.84450  0.09369  0.14889  1.0000
  H   H2392     1.0  0.82156  0.07808  0.14564  1.0000
  H   H2393     1.0  0.96100  0.07232  0.24610  1.0000
  H   H2394     1.0  0.77397  0.29388  0.18309  1.0000
  H   H2395     1.0  0.81317  0.13474  0.06689  1.0000
  H   H2396     1.0  0.80880  0.11010  0.08387  1.0000
  H   H2397     1.0  0.83274  0.11091  0.06475  1.0000
  H   H2398     1.0  0.79307  0.33036  0.12401  1.0000
  H   H2399     1.0  0.99890  0.03964  0.45305  1.0000
  S   S407      1.0  0.76756  0.21989  0.39580  1.0000
  Fe  Fe215     1.0  0.89741  0.07680  0.97627  1.0000
  C   C1414     1.0  0.77093  0.32821  0.05336  1.0000
  C   C1415     1.0  0.98629  0.11644  0.04753  1.0000
  H   H2400     1.0  0.88494  0.00745  0.00757  1.0000
  H   H2401     1.0  0.78672  0.21367  0.44773  1.0000
  C   C1416     1.0  0.77069  0.31908  0.31326  1.0000
  H   H2402     1.0  0.92908  0.07570  0.30737  1.0000
  H   H2403     1.0  0.80325  0.17312  0.31677  1.0000
  C   C1417     1.0  0.95139  0.11711  0.25060  1.0000
  H   H2404     1.0  0.77657  0.17004  0.14206  1.0000
  C   C1418     1.0  0.85578  0.02300  0.25427  1.0000
  S   S408      1.0  0.85005  0.14604  0.45322  1.0000
  H   H2405     1.0  0.83146  0.13379  0.40028  1.0000
  H   H2406     1.0  0.93489  0.07014  0.25956  1.0000
  N   N103      1.0  0.95640  0.08656  0.28589  1.0000
  C   C1419     1.0  0.77719  0.28192  0.99694  1.0000
  C   C1420     1.0  0.83379  0.17283  0.03612  1.0000
  H   H2407     1.0  0.01085  0.11966  0.97602  1.0000
  H   H2408     1.0  0.95506  0.06517  0.31979  1.0000
  S   S409      1.0  0.78489  0.28738  0.07062  1.0000
  S   S410      1.0  0.82472  0.18175  0.06810  1.0000
  H   H2409     1.0  0.96770  0.12342  0.25236  1.0000
  H   H2410     1.0  0.93952  0.13122  0.24534  1.0000
  C   C1421     1.0  0.98873  0.09499  0.96988  1.0000
  C   C1422     1.0  0.78029  0.15378  0.40920  1.0000
  C   C1423     1.0  0.96004  0.04583  0.27311  1.0000
  C   C1424     1.0  0.83423  0.17607  0.38777  1.0000
  Fe  Fe216     1.0  0.79449  0.20581  0.07100  1.0000
  N   N104      1.0  0.95599  0.09190  0.05910  1.0000
  C   C1425     1.0  0.94083  0.07722  0.04575  1.0000
  C   C1426     1.0  0.94234  0.11121  0.07101  1.0000
  C   C1427     1.0  0.96914  0.08028  0.08123  1.0000
  H   H2411     1.0  0.99393  0.09918  0.36302  1.0000
  C   C1428     1.0  0.95181  0.05570  0.03407  1.0000
  C   C1429     1.0  0.92936  0.12649  0.05105  1.0000
  C   C1430     1.0  0.95576  0.06905  0.10202  1.0000
  H   H2412     1.0  0.76507  0.30596  0.25682  1.0000
  H   H2413     1.0  0.92804  0.07320  0.05976  1.0000
  H   H2414     1.0  0.93171  0.08557  0.02888  1.0000
  H   H2415     1.0  0.95266  0.12123  0.08363  1.0000
  H   H2416     1.0  0.92985  0.10583  0.08473  1.0000
  H   H2417     1.0  0.98174  0.06782  0.07305  1.0000
  H   H2418     1.0  0.97857  0.09182  0.09275  1.0000
  H   H2419     1.0  0.86271  0.01068  0.03998  1.0000
  S   S411      1.0  0.95950  0.11290  0.45150  1.0000
  H   H2420     1.0  0.00782  0.06870  0.39309  1.0000
  H   H2421     1.0  0.96267  0.05849  0.01719  1.0000
  H   H2422     1.0  0.84720  0.01330  0.97627  1.0000
  H   H2423     1.0  0.81217  0.19557  0.33434  1.0000
  H   H2424     1.0  0.91606  0.11844  0.04106  1.0000
  H   H2425     1.0  0.77890  0.26305  0.28306  1.0000
  H   H2426     1.0  0.96711  0.06177  0.11769  1.0000
  S   S412      1.0  0.90678  0.11023  0.98522  1.0000
  H   H2427     1.0  0.94359  0.08059  0.11237  1.0000
  H   H2428     1.0  0.96243  0.10466  0.02021  1.0000
  H   H2429     1.0  0.79563  0.27094  0.22668  1.0000
  H   H2430     1.0  0.77763  0.30642  0.22592  1.0000
  H   H2431     1.0  0.92648  0.10659  0.27588  1.0000
  C   C1431     1.0  0.81258  0.17758  0.33488  1.0000
  H   H2432     1.0  0.97641  0.04419  0.28301  1.0000
  H   H2433     1.0  0.81255  0.00993  0.99540  1.0000
  H   H2434     1.0  0.82960  0.17016  0.33239  1.0000
  H   H2435     1.0  0.94659  0.12098  0.29225  1.0000
  H   H2436     1.0  0.98139  0.10060  0.39497  1.0000
  S   S413      1.0  0.78911  0.22993  0.10498  1.0000
  C   C1432     1.0  0.99971  0.05674  0.45730  1.0000
  H   H2437     1.0  0.78764  0.31432  0.31876  1.0000
  H   H2438     1.0  0.98270  0.10528  0.29952  1.0000
  C   C1433     1.0  0.77818  0.32548  0.13379  1.0000
  C   C1434     1.0  0.80100  0.16614  0.40849  1.0000
  C   C1435     1.0  0.94599  0.08008  0.31136  1.0000
  H   H2439     1.0  0.93099  0.11020  0.33020  1.0000
  Fe  Fe217     1.0  0.92543  0.10177  0.44763  1.0000
  H   H2440     1.0  0.84546  0.17459  0.37062  1.0000
  C   C1436     1.0  0.82872  0.20060  0.39327  1.0000
  H   H2441     1.0  0.00871  0.05772  0.12451  1.0000
  H   H2442     1.0  0.84329  0.11461  0.36014  1.0000
  H   H2443     1.0  0.78082  0.32521  0.15565  1.0000
  C   C1437     1.0  0.99635  0.08459  0.26787  1.0000
  H   H2444     1.0  0.81954  0.03689  0.02322  1.0000
  C   C1438     1.0  0.82269  0.13931  0.38153  1.0000
  S   S414      1.0  0.91863  0.06694  0.44432  1.0000
  H   H2445     1.0  0.85691  0.02196  0.27620  1.0000
  H   H2446     1.0  0.82345  0.20367  0.41419  1.0000
  H   H2447     1.0  0.84218  0.04515  0.04213  1.0000
  H   H2448     1.0  0.80621  0.25791  0.27128  1.0000
  H   H2449     1.0  0.79016  0.15754  0.35343  1.0000
  H   H2450     1.0  0.88487  0.01091  0.97300  1.0000
  H   H2451     1.0  0.84572  0.03958  0.00748  1.0000
  H   H2452     1.0  0.83620  0.00667  0.05080  1.0000
  H   H2453     1.0  0.78124  0.14359  0.15605  1.0000
  H   H2454     1.0  0.93877  0.04609  0.02589  1.0000
  C   C1439     1.0  0.78242  0.26569  0.23939  1.0000
  H   H2455     1.0  0.92120  0.14065  0.06215  1.0000
  H   H2456     1.0  0.79403  0.28530  0.27302  1.0000
  H   H2457     1.0  0.83656  0.03770  0.45625  1.0000
  H   H2458     1.0  0.78452  0.13605  0.41145  1.0000
  H   H2459     1.0  0.82081  0.02668  0.24800  1.0000
  C   C1440     1.0  0.83474  0.01457  0.24244  1.0000
  H   H2460     1.0  0.79086  0.29165  0.00279  1.0000
  H   H2461     1.0  0.96099  0.03526  0.25498  1.0000
  H   H2462     1.0  0.94781  0.03953  0.28641  1.0000
  C   C1441     1.0  0.83766  0.03427  0.02556  1.0000
  H   H2463     1.0  0.78219  0.24794  0.23554  1.0000
  H   H2464     1.0  0.99129  0.09439  0.25024  1.0000
  H   H2465     1.0  0.96628  0.06590  0.44456  1.0000
  C   C1442     1.0  0.98216  0.09374  0.45781  1.0000
  S   S415      1.0  0.76889  0.20748  0.26352  1.0000
  C   C1443     1.0  0.76904  0.21519  0.44981  1.0000
  H   H2466     1.0  0.83633  0.01586  0.22040  1.0000
  H   H2467     1.0  0.82733  0.18482  0.97031  1.0000
  H   H2468     1.0  0.00143  0.11866  0.38802  1.0000
  H   H2469     1.0  0.85593  0.04042  0.24914  1.0000
  H   H2470     1.0  0.99672  0.11141  0.06501  1.0000
  H   H2471     1.0  0.99836  0.06721  0.26184  1.0000
  C   C1444     1.0  0.77089  0.27655  0.18254  1.0000
  H   H2472     1.0  0.99746  0.11941  0.03096  1.0000
  H   H2473     1.0  0.78207  0.28534  0.45276  1.0000
  C   C1445     1.0  0.76458  0.30858  0.06286  1.0000
  C   C1446     1.0  0.00924  0.10239  0.97557  1.0000
  H   H2474     1.0  0.00368  0.04057  0.97382  1.0000
  C   C1447     1.0  0.00527  0.05785  0.97439  1.0000
  C   C1448     1.0  0.98673  0.07267  0.96957  1.0000
  H   H2475     1.0  0.76237  0.30793  0.97225  1.0000
  C   C1449     1.0  0.76217  0.21005  0.97559  1.0000
  C   C1450     1.0  0.76250  0.30170  0.23546  1.0000
  H   H2476     1.0  0.77360  0.26097  0.46524  1.0000
  Fe  Fe218     1.0  0.90177  0.08213  0.91573  1.0000
  S   S416      1.0  0.91088  0.11630  0.92045  1.0000
  S   S417      1.0  0.90194  0.06196  0.87735  1.0000
  H   H2477     1.0  0.86206  0.02579  0.63831  1.0000
  H   H2478     1.0  0.99365  0.10151  0.64536  1.0000
  S   S418      1.0  0.88882  0.05338  0.51043  1.0000
  H   H2479     1.0  0.99421  0.08732  0.61338  1.0000
  C   C1451     1.0  0.79590  0.26539  0.77177  1.0000
  S   S419      1.0  0.78676  0.28953  0.56848  1.0000
  H   H2480     1.0  0.95416  0.04110  0.59522  1.0000
  H   H2481     1.0  0.98742  0.08661  0.55384  1.0000
  H   H2482     1.0  0.81817  0.20515  0.87341  1.0000
  Fe  Fe219     1.0  0.89462  0.03120  0.68710  1.0000
  S   S420      1.0  0.87492  0.06387  0.68663  1.0000
  Fe  Fe220     1.0  0.93817  0.05108  0.69715  1.0000
  S   S421      1.0  0.92155  0.08489  0.69661  1.0000
  S   S422      1.0  0.97471  0.04383  0.70565  1.0000
  Fe  Fe221     1.0  0.89592  0.07197  0.72202  1.0000
  S   S423      1.0  0.88394  0.09284  0.75762  1.0000
  Fe  Fe222     1.0  0.90254  0.07331  0.66152  1.0000
  S   S424      1.0  0.89740  0.09511  0.62585  1.0000
  S   S425      1.0  0.91356  0.03856  0.72452  1.0000
  S   S426      1.0  0.92114  0.04023  0.65991  1.0000
  S   S427      1.0  0.90197  0.10952  0.48112  1.0000
  H   H2483     1.0  0.78954  0.20590  0.71299  1.0000
  C   C1452     1.0  0.78383  0.14908  0.86313  1.0000
  H   H2484     1.0  0.79185  0.01745  0.69101  1.0000
  C   C1453     1.0  0.98529  0.08640  0.70589  1.0000
  C   C1454     1.0  0.99235  0.06455  0.71050  1.0000
  C   C1455     1.0  0.84688  0.01435  0.48713  1.0000
  C   C1456     1.0  0.77539  0.28092  0.68771  1.0000
  H   H2485     1.0  0.99420  0.11932  0.70672  1.0000
  H   H2486     1.0  0.96872  0.09097  0.69891  1.0000
  C   C1457     1.0  0.83628  0.17432  0.88671  1.0000
  H   H2487     1.0  0.00260  0.11805  0.47194  1.0000
  H   H2488     1.0  0.01109  0.06479  0.77840  1.0000
  H   H2489     1.0  0.84363  0.20796  0.89017  1.0000
  H   H2490     1.0  0.82042  0.20277  0.90927  1.0000
  C   C1458     1.0  0.95507  0.06361  0.56252  1.0000
  H   H2491     1.0  0.76466  0.29165  0.82778  1.0000
  S   S428      1.0  0.78824  0.23246  0.60497  1.0000
  C   C1459     1.0  0.77531  0.32258  0.81688  1.0000
  C   C1460     1.0  0.82887  0.19883  0.89015  1.0000
  C   C1461     1.0  0.76712  0.31235  0.56748  1.0000
  H   H2492     1.0  0.81051  0.25323  0.77293  1.0000
  C   C1462     1.0  0.89028  0.06499  0.54266  1.0000
  C   C1463     1.0  0.88945  0.08748  0.54628  1.0000
  C   C1464     1.0  0.89180  0.09645  0.57184  1.0000
  C   C1465     1.0  0.89451  0.08304  0.59416  1.0000
  C   C1466     1.0  0.89481  0.06052  0.59076  1.0000
  C   C1467     1.0  0.89278  0.05151  0.56503  1.0000
  H   H2493     1.0  0.88670  0.09809  0.52949  1.0000
  H   H2494     1.0  0.89141  0.11389  0.57428  1.0000
  H   H2495     1.0  0.89667  0.05004  0.60788  1.0000
  H   H2496     1.0  0.89343  0.03407  0.56251  1.0000
  C   C1468     1.0  0.89664  0.07113  0.84438  1.0000
  C   C1469     1.0  0.89763  0.05573  0.82346  1.0000
  C   C1470     1.0  0.89392  0.06219  0.79684  1.0000
  C   C1471     1.0  0.88891  0.08415  0.79088  1.0000
  C   C1472     1.0  0.88782  0.09958  0.81180  1.0000
  C   C1473     1.0  0.89186  0.09314  0.83843  1.0000
  H   H2497     1.0  0.90128  0.03868  0.82790  1.0000
  H   H2498     1.0  0.89461  0.05013  0.78100  1.0000
  H   H2499     1.0  0.88397  0.11661  0.80735  1.0000
  H   H2500     1.0  0.89124  0.10514  0.85435  1.0000
  C   C1474     1.0  0.84713  0.15659  0.53363  1.0000
  C   C1475     1.0  0.85356  0.14832  0.50836  1.0000
  C   C1476     1.0  0.84199  0.15566  0.48543  1.0000
  C   C1477     1.0  0.82373  0.17118  0.48810  1.0000
  C   C1478     1.0  0.81704  0.17914  0.51343  1.0000
  H   H2501     1.0  0.85661  0.15117  0.55103  1.0000
  H   H2502     1.0  0.86766  0.13650  0.50668  1.0000
  H   H2503     1.0  0.86401  0.02104  0.53401  1.0000
  Fe  Fe223     1.0  0.88413  0.12027  0.95121  1.0000
  H   H2504     1.0  0.86480  0.01611  0.48863  1.0000
  H   H2505     1.0  0.83238  0.01575  0.70574  1.0000
  H   H2506     1.0  0.83068  0.05023  0.52821  1.0000
  Fe  Fe224     1.0  0.77584  0.25580  0.57283  1.0000
  H   H2507     1.0  0.97345  0.04758  0.49949  1.0000
  C   C1479     1.0  0.76485  0.32966  0.64248  1.0000
  H   H2508     1.0  0.84836  0.11201  0.86344  1.0000
  C   C1480     1.0  0.80253  0.16388  0.86582  1.0000
  Fe  Fe225     1.0  0.79186  0.20736  0.57175  1.0000
  H   H2509     1.0  0.93422  0.04457  0.49912  1.0000
  Fe  Fe226     1.0  0.93261  0.10304  0.95430  1.0000
  H   H2510     1.0  0.81134  0.16327  0.84654  1.0000
  C   C1481     1.0  0.00712  0.05770  0.54095  1.0000
  C   C1482     1.0  0.84263  0.12960  0.86238  1.0000
  H   H2511     1.0  0.83264  0.13189  0.84386  1.0000
  H   H2512     1.0  0.79257  0.31734  0.81991  1.0000
  H   H2513     1.0  0.78904  0.20937  0.94817  1.0000
  C   C1483     1.0  0.99711  0.08555  0.63513  1.0000
  C   C1484     1.0  0.94448  0.03503  0.51405  1.0000
  H   H2514     1.0  0.78390  0.26019  0.78602  1.0000
  H   H2515     1.0  0.84948  0.17011  0.90187  1.0000
  H   H2516     1.0  0.85765  0.13821  0.86113  1.0000
  H   H2517     1.0  0.99033  0.08338  0.51879  1.0000
  C   C1485     1.0  0.83334  0.03866  0.54476  1.0000
  C   C1486     1.0  0.99979  0.10244  0.71027  1.0000
  C   C1487     1.0  0.82934  0.13620  0.88764  1.0000
  H   H2518     1.0  0.84438  0.17263  0.86698  1.0000
  N   N105      1.0  0.96348  0.07716  0.78784  1.0000
  C   C1488     1.0  0.94682  0.08335  0.76605  1.0000
  C   C1489     1.0  0.96992  0.05302  0.78530  1.0000
  C   C1490     1.0  0.98317  0.08975  0.78353  1.0000
  C   C1491     1.0  0.95288  0.08318  0.81422  1.0000
  C   C1492     1.0  0.93924  0.10788  0.76388  1.0000
  C   C1493     1.0  0.95148  0.03813  0.78956  1.0000
  H   H2519     1.0  0.94427  0.04018  0.80969  1.0000
  C   C1494     1.0  0.96620  0.07601  0.83934  1.0000
  H   H2520     1.0  0.95332  0.07768  0.74625  1.0000
  H   H2521     1.0  0.93160  0.07526  0.76861  1.0000
  H   H2522     1.0  0.98307  0.04747  0.79980  1.0000
  H   H2523     1.0  0.97695  0.04904  0.76523  1.0000
  H   H2524     1.0  0.77063  0.21237  0.49245  1.0000
  H   H2525     1.0  0.98096  0.10594  0.79366  1.0000
  H   H2526     1.0  0.94907  0.10107  0.81621  1.0000
  H   H2527     1.0  0.93674  0.07645  0.81545  1.0000
  H   H2528     1.0  0.92930  0.11391  0.78125  1.0000
  H   H2529     1.0  0.95304  0.11794  0.76117  1.0000
  H   H2530     1.0  0.97204  0.03063  0.57020  1.0000
  H   H2531     1.0  0.85248  0.12508  0.69596  1.0000
  H   H2532     1.0  0.77641  0.31506  0.63812  1.0000
  C   C1495     1.0  0.79717  0.27510  0.49021  1.0000
  N   N106      1.0  0.96462  0.06596  0.53527  1.0000
  H   H2533     1.0  0.98026  0.05198  0.59209  1.0000
  H   H2534     1.0  0.81840  0.17005  0.93013  1.0000
  H   H2535     1.0  0.84532  0.05004  0.48664  1.0000
  H   H2536     1.0  0.95611  0.08074  0.85715  1.0000
  H   H2537     1.0  0.98135  0.08432  0.84117  1.0000
  H   H2538     1.0  0.78970  0.26839  0.68773  1.0000
  C   C1496     1.0  0.94938  0.08239  0.52023  1.0000
  H   H2539     1.0  0.81721  0.12413  0.88949  1.0000
  C   C1497     1.0  0.98694  0.07451  0.53726  1.0000
  C   C1498     1.0  0.76509  0.21414  0.68232  1.0000
  C   C1499     1.0  0.94757  0.10589  0.53152  1.0000
  S   S429      1.0  0.87314  0.08706  0.94375  1.0000
  H   H2540     1.0  0.93947  0.10713  0.55119  1.0000
  S   S430      1.0  0.82095  0.18181  0.56849  1.0000
  H   H2541     1.0  0.93232  0.07757  0.51948  1.0000
  S   S431      1.0  0.92520  0.06862  0.94790  1.0000
  C   C1500     1.0  0.79811  0.14437  0.92930  1.0000
  S   S432      1.0  0.78299  0.23155  0.53966  1.0000
  H   H2542     1.0  0.80451  0.29063  0.49344  1.0000
  H   H2543     1.0  0.93726  0.06138  0.56132  1.0000
  C   C1501     1.0  0.96621  0.04504  0.51930  1.0000
  H   H2544     1.0  0.96363  0.11274  0.53267  1.0000
  H   H2545     1.0  0.93714  0.11659  0.51787  1.0000
  C   C1502     1.0  0.80704  0.16365  0.91517  1.0000
  S   S433      1.0  0.77000  0.21675  0.89621  1.0000
  H   H2546     1.0  0.80284  0.19086  0.51521  1.0000
  S   S434      1.0  0.96625  0.11412  0.96258  1.0000
  C   C1503     1.0  0.82878  0.17197  0.53632  1.0000
  H   H2547     1.0  0.84080  0.13326  0.90497  1.0000
  C   C1504     1.0  0.96638  0.04589  0.58074  1.0000
  H   H2548     1.0  0.81163  0.02408  0.72922  1.0000
  C   C1505     1.0  0.85635  0.00984  0.63624  1.0000
  H   H2549     1.0  0.79321  0.17664  0.91321  1.0000
  H   H2550     1.0  0.78625  0.30741  0.73261  1.0000
  H   H2551     1.0  0.80137  0.28122  0.77827  1.0000
  H   H2552     1.0  0.97760  0.03218  0.52856  1.0000
  H   H2553     1.0  0.93836  0.04038  0.77419  1.0000
  C   C1506     1.0  0.84679  0.01724  0.53666  1.0000
  H   H2554     1.0  0.78808  0.17221  0.64741  1.0000
  H   H2555     1.0  0.92829  0.11049  0.74615  1.0000
  H   H2556     1.0  0.84563  0.03517  0.74538  1.0000
  H   H2557     1.0  0.81736  0.03553  0.55343  1.0000
  H   H2558     1.0  0.80566  0.02156  0.51381  1.0000
  H   H2559     1.0  0.84070  0.01319  0.76646  1.0000
  C   C1507     1.0  0.78689  0.26589  0.74286  1.0000
  H   H2560     1.0  0.78455  0.24883  0.73705  1.0000
  H   H2561     1.0  0.81863  0.04011  0.48338  1.0000
  C   C1508     1.0  0.77237  0.21087  0.70888  1.0000
  H   H2562     1.0  0.79431  0.18069  0.86739  1.0000
  H   H2563     1.0  0.01024  0.04762  0.52264  1.0000
  N   N107      1.0  0.81844  0.15919  0.88874  1.0000
  N   N108      1.0  0.76603  0.28058  0.73787  1.0000
  C   C1509     1.0  0.82602  0.01195  0.72574  1.0000
  H   H2564     1.0  0.84720  0.00682  0.55464  1.0000
  H   H2565     1.0  0.78745  0.13520  0.91634  1.0000
  H   H2566     1.0  0.93506  0.03334  0.53249  1.0000
  C   C1510     1.0  0.77110  0.30366  0.74293  1.0000
  H   H2567     1.0  0.81204  0.16827  0.66819  1.0000
  H   H2568     1.0  0.76922  0.28368  0.93801  1.0000
  H   H2569     1.0  0.79002  0.13180  0.86007  1.0000
  H   H2570     1.0  0.77278  0.15101  0.88047  1.0000
  H   H2571     1.0  0.79055  0.33351  0.55400  1.0000
  H   H2572     1.0  0.79334  0.26853  0.50980  1.0000
  H   H2573     1.0  0.98481  0.07504  0.64256  1.0000
  H   H2574     1.0  0.86046  0.00936  0.73982  1.0000
  H   H2575     1.0  0.97009  0.05815  0.84014  1.0000
  H   H2576     1.0  0.98489  0.09340  0.76203  1.0000
  H   H2577     1.0  0.95525  0.07903  0.57415  1.0000
  H   H2578     1.0  0.95442  0.08315  0.49905  1.0000
  H   H2579     1.0  0.81218  0.18395  0.63789  1.0000
  H   H2580     1.0  0.84254  0.04679  0.56062  1.0000
  H   H2581     1.0  0.78819  0.15071  0.94662  1.0000
  H   H2582     1.0  0.81182  0.13312  0.93742  1.0000
  H   H2583     1.0  0.80054  0.27056  0.73040  1.0000
  H   H2584     1.0  0.84767  0.15154  0.68370  1.0000
  N   N109      1.0  0.83723  0.14021  0.63107  1.0000
  C   C1511     1.0  0.84181  0.12734  0.60563  1.0000
  C   C1512     1.0  0.85151  0.15879  0.63101  1.0000
  C   C1513     1.0  0.81315  0.14872  0.63064  1.0000
  C   C1514     1.0  0.84243  0.12518  0.65422  1.0000
  C   C1515     1.0  0.82796  0.10810  0.60051  1.0000
  C   C1516     1.0  0.87655  0.15242  0.63178  1.0000
  C   C1517     1.0  0.80632  0.16941  0.64722  1.0000
  C   C1518     1.0  0.84144  0.13540  0.68243  1.0000
  H   H2585     1.0  0.83935  0.13814  0.58804  1.0000
  H   H2586     1.0  0.85915  0.12027  0.60498  1.0000
  H   H2587     1.0  0.84802  0.17016  0.64799  1.0000
  H   H2588     1.0  0.84782  0.16893  0.61303  1.0000
  H   H2589     1.0  0.80745  0.15276  0.60991  1.0000
  H   H2590     1.0  0.80279  0.13601  0.63725  1.0000
  H   H2591     1.0  0.83081  0.11245  0.65447  1.0000
  H   H2592     1.0  0.85868  0.11554  0.65199  1.0000
  H   H2593     1.0  0.83222  0.10092  0.58060  1.0000
  H   H2594     1.0  0.83185  0.09498  0.61518  1.0000
  H   H2595     1.0  0.81007  0.11322  0.60009  1.0000
  H   H2596     1.0  0.88178  0.14208  0.64905  1.0000
  H   H2597     1.0  0.88249  0.14431  0.61303  1.0000
  H   H2598     1.0  0.88507  0.16742  0.63378  1.0000
  S   S435      1.0  0.85889  0.14961  0.95359  1.0000
  H   H2599     1.0  0.77536  0.30603  0.76430  1.0000
  H   H2600     1.0  0.77296  0.30791  0.51281  1.0000
  H   H2601     1.0  0.82449  0.13642  0.69031  1.0000
  C   C1519     1.0  0.77136  0.21108  0.95020  1.0000
  H   H2602     1.0  0.81467  0.17710  0.47059  1.0000
  H   H2603     1.0  0.78774  0.31996  0.46863  1.0000
  H   H2604     1.0  0.77658  0.21172  0.66611  1.0000
  Fe  Fe227     1.0  0.89311  0.07549  0.47553  1.0000
  H   H2605     1.0  0.76727  0.27966  0.66785  1.0000
  S   S436      1.0  0.76755  0.21048  0.76328  1.0000
  C   C1520     1.0  0.00607  0.07887  0.79167  1.0000
  H   H2606     1.0  0.95854  0.02094  0.78775  1.0000
  H   H2607     1.0  0.97100  0.06677  0.96527  1.0000
  C   C1521     1.0  0.77361  0.33233  0.55928  1.0000
  C   C1522     1.0  0.84416  0.01741  0.74572  1.0000
  H   H2608     1.0  0.94808  0.01850  0.50529  1.0000
  H   H2609     1.0  0.00572  0.04705  0.55822  1.0000
  C   C1523     1.0  0.77206  0.32713  0.47729  1.0000
  H   H2610     1.0  0.77365  0.15405  0.84531  1.0000
  H   H2611     1.0  0.99108  0.08326  0.89889  1.0000
  H   H2612     1.0  0.83813  0.01747  0.59996  1.0000
  C   C1524     1.0  0.00580  0.09199  0.90314  1.0000
  C   C1525     1.0  0.00174  0.10092  0.46784  1.0000
  H   H2613     1.0  0.78102  0.29735  0.68949  1.0000
  H   H2614     1.0  0.00706  0.07359  0.81263  1.0000
  C   C1526     1.0  0.83615  0.03681  0.47835  1.0000
  H   H2615     1.0  0.00026  0.10949  0.90614  1.0000
  C   C1527     1.0  0.77693  0.27772  0.47135  1.0000
  H   H2616     1.0  0.81003  0.26348  0.48110  1.0000
  H   H2617     1.0  0.96275  0.56290  0.43762  1.0000
  H   H2618     1.0  0.95317  0.59727  0.34686  1.0000
  H   H2619     1.0  0.94913  0.58163  0.99291  1.0000
  S   S437      1.0  0.97033  0.53898  0.20262  1.0000
  H   H2620     1.0  0.83521  0.53603  0.29778  1.0000
  H   H2621     1.0  0.79673  0.55453  0.38453  1.0000
  C   C1528     1.0  0.99995  0.55771  0.03895  1.0000
  C   C1529     1.0  0.94791  0.56585  0.27120  1.0000
  Fe  Fe228     1.0  0.89156  0.57315  0.40387  1.0000
  S   S438      1.0  0.90117  0.60690  0.39913  1.0000
  S   S439      1.0  0.88949  0.54958  0.36936  1.0000
  H   H2622     1.0  0.00547  0.61307  0.35945  1.0000
  H   H2623     1.0  0.84004  0.46544  0.10038  1.0000
  S   S440      1.0  0.88083  0.55913  0.00004  1.0000
  Fe  Fe229     1.0  0.87359  0.61617  0.42736  1.0000
  S   S441      1.0  0.84731  0.64429  0.42131  1.0000
  H   H2624     1.0  0.94483  0.54338  0.09101  1.0000
  C   C1530     1.0  0.85393  0.66134  0.34370  1.0000
  S   S442      1.0  0.86275  0.58256  0.43017  1.0000
  H   H2625     1.0  0.80527  0.52172  0.16522  1.0000
  H   H2626     1.0  0.77271  0.39143  0.41817  1.0000
  S   S443      1.0  0.78957  0.41701  0.32540  1.0000
  S   S444      1.0  0.78854  0.41365  0.25986  1.0000
  Fe  Fe230     1.0  0.79651  0.43840  0.29091  1.0000
  S   S445      1.0  0.82548  0.45887  0.29219  1.0000
  N   N110      1.0  0.76978  0.65916  0.44445  1.0000
  Fe  Fe231     1.0  0.89707  0.56500  0.15886  1.0000
  S   S446      1.0  0.91492  0.53154  0.16101  1.0000
  S   S447      1.0  0.89323  0.58624  0.12199  1.0000
  Fe  Fe232     1.0  0.89186  0.56775  0.21993  1.0000
  S   S448      1.0  0.90970  0.53474  0.22611  1.0000
  S   S449      1.0  0.87957  0.58983  0.25396  1.0000
  Fe  Fe233     1.0  0.93337  0.54497  0.19580  1.0000
  Fe  Fe234     1.0  0.88926  0.52494  0.19127  1.0000
  S   S450      1.0  0.86972  0.49538  0.18958  1.0000
  S   S451      1.0  0.91685  0.57865  0.19216  1.0000
  S   S452      1.0  0.87010  0.55768  0.18653  1.0000
  H   H2627     1.0  0.96211  0.58596  0.19548  1.0000
  C   C1531     1.0  0.83702  0.46930  0.26332  1.0000
  C   C1532     1.0  0.85200  0.48505  0.26631  1.0000
  C   C1533     1.0  0.86177  0.49350  0.24392  1.0000
  C   C1534     1.0  0.85715  0.48581  0.21830  1.0000
  C   C1535     1.0  0.84231  0.46991  0.21535  1.0000
  C   C1536     1.0  0.83204  0.46192  0.23768  1.0000
  H   H2628     1.0  0.85624  0.49062  0.28603  1.0000
  H   H2629     1.0  0.87327  0.50559  0.24655  1.0000
  H   H2630     1.0  0.83886  0.46357  0.19575  1.0000
  H   H2631     1.0  0.82072  0.44966  0.23510  1.0000
  H   H2632     1.0  0.79278  0.43146  0.16327  1.0000
  H   H2633     1.0  0.77734  0.43402  0.20873  1.0000
  H   H2634     1.0  0.77986  0.38901  0.09581  1.0000
  H   H2635     1.0  0.77745  0.43762  0.38210  1.0000
  H   H2636     1.0  0.83630  0.53492  0.15121  1.0000
  C   C1537     1.0  0.88482  0.56091  0.33753  1.0000
  C   C1538     1.0  0.88673  0.54722  0.31502  1.0000
  C   C1539     1.0  0.88427  0.55588  0.28932  1.0000
  C   C1540     1.0  0.88016  0.57832  0.28593  1.0000
  C   C1541     1.0  0.87740  0.59196  0.30845  1.0000
  C   C1542     1.0  0.87967  0.58327  0.33421  1.0000
  H   H2637     1.0  0.89058  0.52990  0.31742  1.0000
  H   H2638     1.0  0.88572  0.54516  0.27219  1.0000
  H   H2639     1.0  0.87396  0.60933  0.30601  1.0000
  H   H2640     1.0  0.87767  0.59392  0.35142  1.0000
  C   C1543     1.0  0.88430  0.56685  0.03387  1.0000
  C   C1544     1.0  0.88753  0.58819  0.04123  1.0000
  C   C1545     1.0  0.89023  0.59377  0.06830  1.0000
  C   C1546     1.0  0.88989  0.57810  0.08830  1.0000
  C   C1547     1.0  0.88684  0.55669  0.08096  1.0000
  C   C1548     1.0  0.88388  0.55116  0.05386  1.0000
  H   H2641     1.0  0.88770  0.60047  0.02611  1.0000
  H   H2642     1.0  0.89247  0.61039  0.07382  1.0000
  H   H2643     1.0  0.88658  0.54448  0.09616  1.0000
  H   H2644     1.0  0.88136  0.53461  0.04834  1.0000
  C   C1549     1.0  0.80187  0.65028  0.22804  1.0000
  C   C1550     1.0  0.79603  0.62502  0.45563  1.0000
  S   S453      1.0  0.76473  0.43792  0.97871  1.0000
  H   H2645     1.0  0.93945  0.61651  0.30070  1.0000
  H   H2646     1.0  0.92918  0.53187  0.02975  1.0000
  H   H2647     1.0  0.82454  0.50021  0.17594  1.0000
  H   H2648     1.0  0.92705  0.54342  0.99666  1.0000
  H   H2649     1.0  0.92001  0.60189  0.28323  1.0000
  Fe  Fe235     1.0  0.88670  0.57797  0.46470  1.0000
  H   H2650     1.0  0.00426  0.61623  0.97581  1.0000
  H   H2651     1.0  0.79628  0.37494  0.35559  1.0000
  H   H2652     1.0  0.93220  0.58194  0.35909  1.0000
  H   H2653     1.0  0.79750  0.61980  0.29300  1.0000
  C   C1551     1.0  0.85709  0.65062  0.36825  1.0000
  H   H2654     1.0  0.00420  0.62032  0.39438  1.0000
  C   C1552     1.0  0.00336  0.59943  0.97000  1.0000
  C   C1553     1.0  0.94703  0.56466  0.05731  1.0000
  H   H2655     1.0  0.87009  0.63763  0.37048  1.0000
  H   H2656     1.0  0.78908  0.63879  0.22815  1.0000
  H   H2657     1.0  0.96116  0.61981  0.26067  1.0000
  H   H2658     1.0  0.00294  0.59605  0.28061  1.0000
  C   C1554     1.0  0.97748  0.56892  0.44573  1.0000
  C   C1555     1.0  0.83001  0.62222  0.24570  1.0000
  H   H2659     1.0  0.98797  0.56709  0.14703  1.0000
  H   H2660     1.0  0.77434  0.49986  0.17091  1.0000
  H   H2661     1.0  0.92446  0.60423  0.33781  1.0000
  H   H2662     1.0  0.82346  0.64488  0.29221  1.0000
  H   H2663     1.0  0.92296  0.57038  0.31254  1.0000
  C   C1556     1.0  0.84367  0.65702  0.38988  1.0000
  H   H2664     1.0  0.80390  0.61914  0.99100  1.0000
  C   C1557     1.0  0.97862  0.59128  0.44881  1.0000
  C   C1558     1.0  0.77720  0.37303  0.13442  1.0000
  H   H2665     1.0  0.93018  0.56528  0.26597  1.0000
  H   H2666     1.0  0.79009  0.36507  0.14792  1.0000
  H   H2667     1.0  0.80478  0.37361  0.10733  1.0000
  S   S454      1.0  0.78560  0.35747  0.29872  1.0000
  N   N111      1.0  0.83211  0.51088  0.35992  1.0000
  C   C1559     1.0  0.84162  0.52222  0.33698  1.0000
  C   C1560     1.0  0.84879  0.50943  0.38246  1.0000
  C   C1561     1.0  0.81122  0.52325  0.36959  1.0000
  C   C1562     1.0  0.82693  0.48871  0.35053  1.0000
  C   C1563     1.0  0.82606  0.52776  0.31301  1.0000
  C   C1564     1.0  0.86947  0.49348  0.37803  1.0000
  C   C1565     1.0  0.81306  0.54715  0.37784  1.0000
  C   C1566     1.0  0.81784  0.47412  0.37167  1.0000
  H   H2668     1.0  0.84799  0.53760  0.34380  1.0000
  H   H2669     1.0  0.85612  0.51216  0.32880  1.0000
  H   H2670     1.0  0.84135  0.50519  0.40156  1.0000
  H   H2671     1.0  0.85477  0.52556  0.38658  1.0000
  H   H2672     1.0  0.79785  0.52296  0.35433  1.0000
  H   H2673     1.0  0.80498  0.51519  0.38728  1.0000
  H   H2674     1.0  0.81415  0.49018  0.33451  1.0000
  H   H2675     1.0  0.84124  0.47955  0.34061  1.0000
  H   H2676     1.0  0.87859  0.49752  0.36011  1.0000
  H   H2677     1.0  0.88085  0.49472  0.39533  1.0000
  H   H2678     1.0  0.86553  0.47637  0.37677  1.0000
  H   H2679     1.0  0.82468  0.54853  0.39482  1.0000
  H   H2680     1.0  0.98552  0.60296  0.38051  1.0000
  H   H2681     1.0  0.81794  0.55705  0.36106  1.0000
  H   H2682     1.0  0.99766  0.54740  0.05630  1.0000
  H   H2683     1.0  0.82478  0.47626  0.39188  1.0000
  C   C1567     1.0  0.77367  0.49267  0.11640  1.0000
  H   H2684     1.0  0.76869  0.64007  0.98412  1.0000
  H   H2685     1.0  0.79316  0.36707  0.38918  1.0000
  H   H2686     1.0  0.97985  0.58709  0.04945  1.0000
  C   C1568     1.0  0.93969  0.57476  0.31753  1.0000
  H   H2687     1.0  0.96386  0.53217  0.06756  1.0000
  C   C1569     1.0  0.98001  0.57443  0.03343  1.0000
  H   H2688     1.0  0.96712  0.54634  0.99581  1.0000
  C   C1570     1.0  0.93746  0.59073  0.34146  1.0000
  H   H2689     1.0  0.76697  0.35068  0.41246  1.0000
  C   C1571     1.0  0.78664  0.66938  0.99075  1.0000
  H   H2690     1.0  0.83904  0.61677  0.26426  1.0000
  H   H2691     1.0  0.94880  0.55961  0.32525  1.0000
  H   H2692     1.0  0.97095  0.55441  0.08888  1.0000
  H   H2693     1.0  0.93300  0.62863  0.25494  1.0000
  C   C1572     1.0  0.78660  0.37396  0.10605  1.0000
  H   H2694     1.0  0.97526  0.60112  0.31074  1.0000
  C   C1573     1.0  0.95739  0.54246  0.27770  1.0000
  N   N112      1.0  0.81930  0.64516  0.24923  1.0000
  C   C1574     1.0  0.77522  0.43471  0.16578  1.0000
  C   C1575     1.0  0.78639  0.64136  0.43454  1.0000
  H   H2695     1.0  0.79055  0.43618  0.42920  1.0000
  C   C1576     1.0  0.77256  0.65163  0.00003  1.0000
  H   H2696     1.0  0.77535  0.39017  0.14166  1.0000
  H   H2697     1.0  0.77931  0.63381  0.26850  1.0000
  C   C1577     1.0  0.99040  0.58455  0.27653  1.0000
  H   H2698     1.0  0.94664  0.58051  0.06812  1.0000
  H   H2699     1.0  0.92933  0.56222  0.05520  1.0000
  H   H2700     1.0  0.79963  0.47702  0.37261  1.0000
  Fe  Fe236     1.0  0.92197  0.59985  0.43589  1.0000
  H   H2701     1.0  0.82060  0.51303  0.30316  1.0000
  S   S455      1.0  0.91465  0.56522  0.43832  1.0000
  H   H2702     1.0  0.99970  0.56824  0.27487  1.0000
  C   C1578     1.0  0.99796  0.59883  0.45904  1.0000
  H   H2703     1.0  0.94672  0.53475  0.29174  1.0000
  H   H2704     1.0  0.80120  0.60349  0.25123  1.0000
  N   N113      1.0  0.81311  0.49652  0.13536  1.0000
  C   C1579     1.0  0.83388  0.50554  0.12637  1.0000
  C   C1580     1.0  0.81737  0.47209  0.13401  1.0000
  C   C1581     1.0  0.80925  0.50380  0.16390  1.0000
  C   C1582     1.0  0.79432  0.50531  0.11747  1.0000
  C   C1583     1.0  0.83465  0.53030  0.12987  1.0000
  H   H2705     1.0  0.80864  0.61340  0.44599  1.0000
  C   C1584     1.0  0.79122  0.63587  0.28487  1.0000
  C   C1585     1.0  0.83677  0.66055  0.24558  1.0000
  H   H2706     1.0  0.84855  0.49757  0.13713  1.0000
  H   H2707     1.0  0.83685  0.50199  0.10485  1.0000
  H   H2708     1.0  0.86884  0.66878  0.25963  1.0000
  H   H2709     1.0  0.83104  0.46640  0.14795  1.0000
  H   H2710     1.0  0.92619  0.57729  0.01245  1.0000
  H   H2711     1.0  0.78883  0.52245  0.12301  1.0000
  H   H2712     1.0  0.80000  0.50587  0.09650  1.0000
  H   H2713     1.0  0.82020  0.53974  0.12071  1.0000
  H   H2714     1.0  0.84951  0.53514  0.11990  1.0000
  C   C1586     1.0  0.77309  0.43807  0.42482  1.0000
  H   H2715     1.0  0.82241  0.45680  0.36620  1.0000
  H   H2716     1.0  0.78635  0.34947  0.36174  1.0000
  H   H2717     1.0  0.85664  0.65133  0.28179  1.0000
  H   H2718     1.0  0.78050  0.64267  0.01721  1.0000
  C   C1587     1.0  0.99558  0.55423  0.45286  1.0000
  H   H2719     1.0  0.81118  0.46833  0.09066  1.0000
  H   H2720     1.0  0.83297  0.61430  0.99573  1.0000
  H   H2721     1.0  0.80926  0.64827  0.20785  1.0000
  C   C1588     1.0  0.97411  0.58545  0.29987  1.0000
  H   H2722     1.0  0.97439  0.54174  0.28577  1.0000
  H   H2723     1.0  0.95546  0.57005  0.25229  1.0000
  H   H2724     1.0  0.80520  0.66627  0.28093  1.0000
  C   C1589     1.0  0.99269  0.59897  0.20533  1.0000
  H   H2725     1.0  0.82515  0.58839  0.23841  1.0000
  H   H2726     1.0  0.93094  0.61583  0.00920  1.0000
  C   C1590     1.0  0.97891  0.58218  0.20203  1.0000
  H   H2727     1.0  0.99892  0.61611  0.46158  1.0000
  C   C1591     1.0  0.81514  0.60440  0.23771  1.0000
  H   H2728     1.0  0.77908  0.63150  0.41867  1.0000
  C   C1592     1.0  0.98700  0.56063  0.20687  1.0000
  C   C1593     1.0  0.94146  0.60583  0.02349  1.0000
  H   H2729     1.0  0.84087  0.66180  0.22410  1.0000
  H   H2730     1.0  0.79113  0.49997  0.20002  1.0000
  H   H2731     1.0  0.78330  0.35997  0.09323  1.0000
  C   C1594     1.0  0.82259  0.64751  0.98402  1.0000
  H   H2732     1.0  0.97099  0.53206  0.02585  1.0000
  Fe  Fe237     1.0  0.77797  0.39401  0.29418  1.0000
  H   H2733     1.0  0.95754  0.61268  0.02391  1.0000
  S   S456      1.0  0.95641  0.61028  0.43991  1.0000
  H   H2734     1.0  0.80903  0.60645  0.21685  1.0000
  C   C1595     1.0  0.81035  0.64880  0.27696  1.0000
  H   H2735     1.0  0.98422  0.58267  0.01485  1.0000
  C   C1596     1.0  0.94328  0.58189  0.01383  1.0000
  H   H2736     1.0  0.84259  0.62153  0.22974  1.0000
  H   H2737     1.0  0.94182  0.51765  0.00191  1.0000
  C   C1597     1.0  0.78567  0.36651  0.36898  1.0000
  C   C1598     1.0  0.94461  0.61402  0.25895  1.0000
  H   H2738     1.0  0.80320  0.46396  0.14075  1.0000
  H   H2739     1.0  0.98293  0.58908  0.25712  1.0000
  H   H2740     1.0  0.99696  0.57910  0.11774  1.0000
  H   H2741     1.0  0.98626  0.61560  0.20156  1.0000
  N   N114      1.0  0.95771  0.56595  0.03054  1.0000
  C   C1599     1.0  0.82322  0.46234  0.10624  1.0000
  C   C1600     1.0  0.93803  0.53404  0.01100  1.0000
  H   H2742     1.0  0.80031  0.64830  0.42481  1.0000
  C   C1601     1.0  0.95764  0.54774  0.07705  1.0000
  C   C1602     1.0  0.95966  0.54448  0.01570  1.0000
  H   H2743     1.0  0.93347  0.60805  0.04316  1.0000
  N   N115      1.0  0.95043  0.58255  0.29298  1.0000
  C   C1603     1.0  0.79081  0.49412  0.17899  1.0000
  H   H2744     1.0  0.81164  0.53911  0.31849  1.0000
  C   C1604     1.0  0.93791  0.60381  0.28507  1.0000
  H   H2745     1.0  0.95783  0.53244  0.25913  1.0000
  H   H2746     1.0  0.82298  0.44441  0.10695  1.0000
  H   H2747     1.0  0.98086  0.57247  0.31377  1.0000
  H   H2748     1.0  0.86477  0.65659  0.32738  1.0000
  H   H2749     1.0  0.83870  0.64893  0.97433  1.0000
  H   H2750     1.0  0.94341  0.60314  0.24139  1.0000
  H   H2751     1.0  0.79312  0.47617  0.17996  1.0000
  S   S457      1.0  0.89522  0.61243  0.46422  1.0000
  C   C1605     1.0  0.85884  0.65475  0.26049  1.0000
  C   C1606     1.0  0.00148  0.57566  0.13880  1.0000
  H   H2752     1.0  0.82507  0.65213  0.00531  1.0000
  H   H2753     1.0  0.00394  0.54732  0.02107  1.0000
  H   H2754     1.0  0.77190  0.48154  0.13304  1.0000
  H   H2755     1.0  0.77300  0.48332  0.09737  1.0000
  H   H2756     1.0  0.86862  0.64067  0.25109  1.0000
  H   H2757     1.0  0.76297  0.35321  0.17714  1.0000
  H   H2758     1.0  0.00175  0.59090  0.15058  1.0000
  C   C1607     1.0  0.00903  0.55605  0.21499  1.0000
  S   S458      1.0  0.77266  0.43436  0.11123  1.0000
  C   C1608     1.0  0.00281  0.60699  0.37963  1.0000
  H   H2759     1.0  0.99459  0.53695  0.45039  1.0000
  H   H2760     1.0  0.78332  0.61537  0.46365  1.0000
  C   C1609     1.0  0.81985  0.62298  0.98320  1.0000
  C   C1610     1.0  0.76571  0.43885  0.39811  1.0000
  H   H2761     1.0  0.81481  0.66665  0.46067  1.0000
  C   C1611     1.0  0.76213  0.37814  0.36788  1.0000
  N   N116      1.0  0.80461  0.66263  0.97118  1.0000
  C   C1612     1.0  0.76649  0.43603  0.19159  1.0000
  H   H2762     1.0  0.78148  0.64516  0.30054  1.0000
  C   C1613     1.0  0.76488  0.33978  0.30268  1.0000
  H   H2763     1.0  0.76373  0.65304  0.38677  1.0000
  H   H2764     1.0  0.76608  0.37804  0.44776  1.0000
  S   S459      1.0  0.76275  0.45645  0.29137  1.0000
  H   H2765     1.0  0.76311  0.39535  0.37419  1.0000
  C   C1614     1.0  0.77886  0.67146  0.46760  1.0000
  H   H2766     1.0  0.76329  0.67153  0.94361  1.0000
  C   C1615     1.0  0.00438  0.57509  0.62121  1.0000
  H   H2767     1.0  0.77488  0.37772  0.70869  1.0000
  C   C1616     1.0  0.98202  0.58540  0.70156  1.0000
  H   H2768     1.0  0.80579  0.49183  0.83668  1.0000
  H   H2769     1.0  0.93614  0.63674  0.51421  1.0000
  H   H2770     1.0  0.96801  0.56620  0.94227  1.0000
  H   H2771     1.0  0.77647  0.35234  0.69121  1.0000
  Fe  Fe238     1.0  0.90181  0.57448  0.90540  1.0000
  S   S460      1.0  0.91112  0.60856  0.90267  1.0000
  S   S461      1.0  0.90415  0.55121  0.87030  1.0000
  C   C1617     1.0  0.79594  0.65241  0.94617  1.0000
  H   H2772     1.0  0.78288  0.39619  0.90258  1.0000
  S   S462      1.0  0.88128  0.55765  0.50124  1.0000
  Fe  Fe239     1.0  0.88064  0.61699  0.92661  1.0000
  S   S463      1.0  0.85459  0.64493  0.91917  1.0000
  Fe  Fe240     1.0  0.92803  0.60168  0.94226  1.0000
  H   H2773     1.0  0.99025  0.61842  0.70607  1.0000
  S   S464      1.0  0.87029  0.58314  0.92708  1.0000
  S   S465      1.0  0.92124  0.56679  0.94302  1.0000
  H   H2774     1.0  0.83340  0.59866  0.75689  1.0000
  S   S466      1.0  0.79187  0.42270  0.82688  1.0000
  S   S467      1.0  0.79239  0.41647  0.76166  1.0000
  Fe  Fe241     1.0  0.79920  0.44278  0.79130  1.0000
  S   S468      1.0  0.82806  0.46351  0.79216  1.0000
  C   C1618     1.0  0.79814  0.37265  0.87490  1.0000
  Fe  Fe242     1.0  0.89670  0.56866  0.65827  1.0000
  S   S469      1.0  0.91519  0.53547  0.65794  1.0000
  S   S470      1.0  0.88880  0.58994  0.62204  1.0000
  Fe  Fe243     1.0  0.89496  0.56984  0.71973  1.0000
  S   S471      1.0  0.91345  0.53687  0.72327  1.0000
  S   S472      1.0  0.88367  0.59048  0.75553  1.0000
  Fe  Fe244     1.0  0.93523  0.54841  0.69168  1.0000
  Fe  Fe245     1.0  0.89137  0.52766  0.68978  1.0000
  S   S473      1.0  0.87206  0.49802  0.68829  1.0000
  S   S474      1.0  0.91805  0.58198  0.69024  1.0000
  S   S475      1.0  0.87159  0.56023  0.68781  1.0000
  H   H2775     1.0  0.96533  0.59012  0.69508  1.0000
  C   C1619     1.0  0.83956  0.47330  0.76288  1.0000
  C   C1620     1.0  0.83340  0.46655  0.73736  1.0000
  C   C1621     1.0  0.84347  0.47422  0.71467  1.0000
  C   C1622     1.0  0.85935  0.48913  0.71722  1.0000
  C   C1623     1.0  0.86517  0.49620  0.74270  1.0000
  C   C1624     1.0  0.85558  0.48805  0.76536  1.0000
  H   H2776     1.0  0.82122  0.45508  0.73512  1.0000
  H   H2777     1.0  0.83904  0.46844  0.69512  1.0000
  H   H2778     1.0  0.87753  0.50746  0.74499  1.0000
  H   H2779     1.0  0.86088  0.49301  0.78489  1.0000
  H   H2780     1.0  0.79815  0.44094  0.66382  1.0000
  H   H2781     1.0  0.78212  0.43779  0.70873  1.0000
  C   C1625     1.0  0.97558  0.58221  0.52985  1.0000
  H   H2782     1.0  0.81147  0.51084  0.55953  1.0000
  N   N117      1.0  0.95097  0.58233  0.53198  1.0000
  C   C1626     1.0  0.89786  0.56238  0.83873  1.0000
  C   C1627     1.0  0.90086  0.54899  0.81609  1.0000
  C   C1628     1.0  0.89595  0.55734  0.79061  1.0000
  C   C1629     1.0  0.88809  0.57916  0.78750  1.0000
  C   C1630     1.0  0.88449  0.59245  0.81023  1.0000
  C   C1631     1.0  0.88937  0.58408  0.83581  1.0000
  H   H2783     1.0  0.90709  0.53210  0.81824  1.0000
  H   H2784     1.0  0.89817  0.54677  0.77346  1.0000
  H   H2785     1.0  0.87823  0.60933  0.80811  1.0000
  H   H2786     1.0  0.88655  0.59443  0.85322  1.0000
  C   C1632     1.0  0.88299  0.56693  0.53472  1.0000
  C   C1633     1.0  0.88237  0.58903  0.54118  1.0000
  C   C1634     1.0  0.88397  0.59578  0.56803  1.0000
  C   C1635     1.0  0.88646  0.58053  0.58867  1.0000
  C   C1636     1.0  0.88715  0.55839  0.58221  1.0000
  C   C1637     1.0  0.88520  0.55166  0.55538  1.0000
  H   H2787     1.0  0.88046  0.60095  0.52551  1.0000
  H   H2788     1.0  0.88330  0.61293  0.57283  1.0000
  H   H2789     1.0  0.88919  0.54649  0.59787  1.0000
  H   H2790     1.0  0.88571  0.53452  0.55055  1.0000
  C   C1638     1.0  0.00118  0.55608  0.95501  1.0000
  H   H2791     1.0  0.98934  0.56955  0.63008  1.0000
  S   S476      1.0  0.97247  0.54257  0.69584  1.0000
  C   C1639     1.0  0.84721  0.62776  0.71789  1.0000
  H   H2792     1.0  0.94803  0.56826  0.59931  1.0000
  H   H2793     1.0  0.94104  0.59532  0.58845  1.0000
  H   H2794     1.0  0.83031  0.64560  0.77963  1.0000
  C   C1640     1.0  0.80893  0.64060  0.72805  1.0000
  C   C1641     1.0  0.95111  0.57991  0.58342  1.0000
  H   H2795     1.0  0.80452  0.63288  0.47223  1.0000
  H   H2796     1.0  0.79885  0.48306  0.63511  1.0000
  C   C1642     1.0  0.76894  0.34393  0.80865  1.0000
  H   H2797     1.0  0.85295  0.65126  0.68636  1.0000
  C   C1643     1.0  0.86154  0.64824  0.86478  1.0000
  H   H2798     1.0  0.96202  0.62221  0.50670  1.0000
  H   H2799     1.0  0.92330  0.60658  0.53804  1.0000
  H   H2800     1.0  0.76580  0.34469  0.86961  1.0000
  H   H2801     1.0  0.87534  0.63608  0.86729  1.0000
  H   H2802     1.0  0.85476  0.63116  0.76890  1.0000
  H   H2803     1.0  0.81472  0.37668  0.88134  1.0000
  H   H2804     1.0  0.92950  0.54194  0.51978  1.0000
  H   H2805     1.0  0.85438  0.45803  0.61330  1.0000
  H   H2806     1.0  0.83516  0.52276  0.57293  1.0000
  H   H2807     1.0  0.79249  0.34878  0.64111  1.0000
  C   C1644     1.0  0.83730  0.66519  0.73551  1.0000
  H   H2808     1.0  0.86635  0.66428  0.76229  1.0000
  H   H2809     1.0  0.95698  0.57808  0.74481  1.0000
  H   H2810     1.0  0.80091  0.52127  0.65610  1.0000
  H   H2811     1.0  0.79662  0.65536  0.76661  1.0000
  N   N118      1.0  0.83825  0.52232  0.84615  1.0000
  C   C1645     1.0  0.85852  0.50653  0.84307  1.0000
  C   C1646     1.0  0.82775  0.52590  0.81893  1.0000
  C   C1647     1.0  0.82192  0.51358  0.86437  1.0000
  C   C1648     1.0  0.84494  0.54317  0.85810  1.0000
  C   C1649     1.0  0.87028  0.49864  0.86910  1.0000
  C   C1650     1.0  0.83988  0.53979  0.79970  1.0000
  C   C1651     1.0  0.81445  0.49127  0.85627  1.0000
  C   C1652     1.0  0.82637  0.56173  0.86196  1.0000
  H   H2812     1.0  0.85474  0.49179  0.83159  1.0000
  H   H2813     1.0  0.87107  0.51381  0.83116  1.0000
  H   H2814     1.0  0.81050  0.53336  0.82034  1.0000
  H   H2815     1.0  0.82629  0.51009  0.80851  1.0000
  H   H2816     1.0  0.82838  0.51249  0.88522  1.0000
  H   H2817     1.0  0.80671  0.52501  0.86558  1.0000
  H   H2818     1.0  0.85248  0.54036  0.87822  1.0000
  H   H2819     1.0  0.85827  0.54944  0.84661  1.0000
  H   H2820     1.0  0.87696  0.51207  0.88046  1.0000
  H   H2821     1.0  0.85965  0.48987  0.88201  1.0000
  H   H2822     1.0  0.88461  0.48696  0.86390  1.0000
  H   H2823     1.0  0.85718  0.53317  0.79681  1.0000
  H   H2824     1.0  0.83168  0.53971  0.77979  1.0000
  H   H2825     1.0  0.83931  0.55699  0.80645  1.0000
  H   H2826     1.0  0.82827  0.47825  0.85584  1.0000
  H   H2827     1.0  0.81924  0.56114  0.88216  1.0000
  H   H2828     1.0  0.81294  0.56155  0.84701  1.0000
  H   H2829     1.0  0.83318  0.57761  0.85965  1.0000
  H   H2830     1.0  0.93088  0.60810  0.73570  1.0000
  H   H2831     1.0  0.92371  0.57902  0.50453  1.0000
  C   C1653     1.0  0.99712  0.58657  0.88677  1.0000
  H   H2832     1.0  0.83440  0.48181  0.57656  1.0000
  C   C1654     1.0  0.99644  0.58338  0.78730  1.0000
  C   C1655     1.0  0.98281  0.57128  0.95132  1.0000
  H   H2833     1.0  0.92346  0.63464  0.74858  1.0000
  H   H2834     1.0  0.98293  0.59650  0.89587  1.0000
  H   H2835     1.0  0.92598  0.57086  0.55646  1.0000
  H   H2836     1.0  0.84272  0.61076  0.71759  1.0000
  C   C1656     1.0  0.83787  0.45610  0.60472  1.0000
  H   H2837     1.0  0.80486  0.62350  0.72612  1.0000
  H   H2838     1.0  0.97888  0.61535  0.79187  1.0000
  C   C1657     1.0  0.98954  0.56336  0.70358  1.0000
  H   H2839     1.0  0.97483  0.54922  0.77841  1.0000
  H   H2840     1.0  0.86457  0.62651  0.72508  1.0000
  S   S477      1.0  0.78942  0.36168  0.80310  1.0000
  H   H2841     1.0  0.97910  0.60447  0.75972  1.0000
  C   C1658     1.0  0.94155  0.54770  0.50581  1.0000
  H   H2842     1.0  0.78874  0.43802  0.93040  1.0000
  H   H2843     1.0  0.80900  0.47469  0.58888  1.0000
  H   H2844     1.0  0.80601  0.64710  0.70761  1.0000
  Fe  Fe246     1.0  0.78143  0.39808  0.79691  1.0000
  H   H2845     1.0  0.78856  0.36952  0.91527  1.0000
  H   H2846     1.0  0.83097  0.63435  0.67867  1.0000
  H   H2847     1.0  0.79261  0.39987  0.59405  1.0000
  H   H2848     1.0  0.98234  0.59329  0.54483  1.0000
  H   H2849     1.0  0.83263  0.67241  0.71579  1.0000
  C   C1659     1.0  0.77144  0.44046  0.69149  1.0000
  H   H2850     1.0  0.82633  0.50995  0.67228  1.0000
  C   C1660     1.0  0.76737  0.38744  0.61811  1.0000
  H   H2851     1.0  0.78945  0.63671  0.95012  1.0000
  H   H2852     1.0  0.99573  0.56952  0.89259  1.0000
  H   H2853     1.0  0.94962  0.57769  0.48902  1.0000
  C   C1661     1.0  0.86127  0.66946  0.74185  1.0000
  H   H2854     1.0  0.95180  0.62622  0.74306  1.0000
  H   H2855     1.0  0.83345  0.60675  0.79116  1.0000
  C   C1662     1.0  0.81076  0.50624  0.66254  1.0000
  H   H2856     1.0  0.92076  0.60891  0.78429  1.0000
  H   H2857     1.0  0.80260  0.48647  0.87117  1.0000
  S   S478      1.0  0.77807  0.44623  0.61147  1.0000
  H   H2858     1.0  0.79347  0.51128  0.60187  1.0000
  H   H2859     1.0  0.94127  0.62662  0.79130  1.0000
  H   H2860     1.0  0.84007  0.44471  0.58744  1.0000
  C   C1663     1.0  0.94131  0.57267  0.50716  1.0000
  N   N119      1.0  0.76334  0.37210  0.64028  1.0000
  H   H2861     1.0  0.82211  0.61629  0.96264  1.0000
  C   C1664     1.0  0.94448  0.62025  0.51028  1.0000
  H   H2862     1.0  0.94849  0.61397  0.55182  1.0000
  C   C1665     1.0  0.85673  0.65744  0.83953  1.0000
  C   C1666     1.0  0.77235  0.38113  0.66579  1.0000
  C   C1667     1.0  0.99620  0.60142  0.70774  1.0000
  H   H2863     1.0  0.93689  0.61416  0.49190  1.0000
  H   H2864     1.0  0.77753  0.44176  0.88280  1.0000
  C   C1668     1.0  0.77146  0.44012  0.92504  1.0000
  C   C1669     1.0  0.76802  0.36900  0.69144  1.0000
  C   C1670     1.0  0.94131  0.60571  0.53441  1.0000
  C   C1671     1.0  0.85172  0.52562  0.62881  1.0000
  H   H2865     1.0  0.80936  0.61375  0.77137  1.0000
  C   C1672     1.0  0.81721  0.52210  0.57496  1.0000
  C   C1673     1.0  0.83680  0.63353  0.76447  1.0000
  H   H2866     1.0  0.00641  0.56271  0.53824  1.0000
  H   H2867     1.0  0.01094  0.59227  0.79223  1.0000
  C   C1674     1.0  0.79176  0.38982  0.61211  1.0000
  C   C1675     1.0  0.81086  0.51527  0.60312  1.0000
  H   H2868     1.0  0.80899  0.53853  0.57061  1.0000
  N   N120      1.0  0.95399  0.59296  0.78420  1.0000
  C   C1676     1.0  0.93762  0.61240  0.77879  1.0000
  C   C1677     1.0  0.95013  0.58563  0.81216  1.0000
  C   C1678     1.0  0.94963  0.57518  0.76440  1.0000
  C   C1679     1.0  0.97670  0.59999  0.78077  1.0000
  H   H2869     1.0  0.95794  0.53909  0.50957  1.0000
  C   C1680     1.0  0.95211  0.60270  0.83452  1.0000
  C   C1681     1.0  0.95740  0.55157  0.77218  1.0000
  C   C1682     1.0  0.98385  0.59303  0.95865  1.0000
  C   C1683     1.0  0.79148  0.65366  0.74553  1.0000
  H   H2870     1.0  0.85662  0.49114  0.63581  1.0000
  H   H2871     1.0  0.96127  0.57114  0.81773  1.0000
  H   H2872     1.0  0.93339  0.58019  0.81344  1.0000
  H   H2873     1.0  0.93166  0.57522  0.76036  1.0000
  C   C1684     1.0  0.94415  0.57069  0.55627  1.0000
  H   H2874     1.0  0.94698  0.54583  0.78806  1.0000
  H   H2875     1.0  0.95089  0.59473  0.85411  1.0000
  H   H2876     1.0  0.96805  0.60977  0.83421  1.0000
  H   H2877     1.0  0.93833  0.61578  0.83370  1.0000
  H   H2878     1.0  0.98372  0.54860  0.54535  1.0000
  H   H2879     1.0  0.81043  0.53000  0.61604  1.0000
  H   H2880     1.0  0.77631  0.64517  0.74588  1.0000
  H   H2881     1.0  0.96877  0.58235  0.58411  1.0000
  H   H2882     1.0  0.82789  0.44820  0.61937  1.0000
  C   C1685     1.0  0.78049  0.44236  0.66605  1.0000
  H   H2883     1.0  0.76715  0.37770  0.95016  1.0000
  H   H2884     1.0  0.97983  0.58925  0.51053  1.0000
  S   S479      1.0  0.76835  0.43755  0.47901  1.0000
  C   C1686     1.0  0.83086  0.67101  0.88317  1.0000
  H   H2885     1.0  0.79971  0.39859  0.62844  1.0000
  H   H2886     1.0  0.82531  0.47555  0.64925  1.0000
  C   C1687     1.0  0.78178  0.37870  0.89761  1.0000
  H   H2887     1.0  0.95011  0.55320  0.55594  1.0000
  N   N121      1.0  0.82534  0.49658  0.61491  1.0000
  C   C1688     1.0  0.82598  0.47786  0.59515  1.0000
  H   H2888     1.0  0.76742  0.34106  0.90405  1.0000
  C   C1689     1.0  0.81495  0.48929  0.63998  1.0000
  C   C1690     1.0  0.84859  0.50200  0.62028  1.0000
  H   H2889     1.0  0.85895  0.62340  0.67733  1.0000
  C   C1691     1.0  0.82758  0.61190  0.77093  1.0000
  C   C1692     1.0  0.93617  0.62055  0.74978  1.0000
  H   H2890     1.0  0.99413  0.57353  0.80504  1.0000
  C   C1693     1.0  0.98958  0.56009  0.53108  1.0000
  H   H2891     1.0  0.80954  0.64822  0.93195  1.0000
  H   H2892     1.0  0.00071  0.59266  0.61727  1.0000
  H   H2893     1.0  0.77136  0.65625  0.91435  1.0000
  C   C1694     1.0  0.84873  0.65519  0.88678  1.0000
  N   N122      1.0  0.83253  0.64179  0.73648  1.0000
  H   H2894     1.0  0.00031  0.53932  0.94898  1.0000
  C   C1695     1.0  0.84723  0.63493  0.68853  1.0000
  H   H2895     1.0  0.95562  0.54078  0.75457  1.0000
  H   H2896     1.0  0.80147  0.37410  0.60787  1.0000
  H   H2897     1.0  0.99528  0.58815  0.86490  1.0000
  H   H2898     1.0  0.79048  0.38136  0.66484  1.0000
  H   H2899     1.0  0.85902  0.49872  0.60236  1.0000
  S   S480      1.0  0.96131  0.61262  0.95347  1.0000
  C   C1696     1.0  0.77523  0.35008  0.63343  1.0000
  H   H2900     1.0  0.84162  0.53151  0.64596  1.0000
  H   H2901     1.0  0.78727  0.67026  0.73752  1.0000
  H   H2902     1.0  0.87294  0.66160  0.72713  1.0000
  C   C1697     1.0  0.77755  0.66620  0.93090  1.0000
  H   H2903     1.0  0.84850  0.53711  0.61212  1.0000
  H   H2904     1.0  0.86914  0.52640  0.63500  1.0000
  C   C1698     1.0  0.76673  0.44569  0.64356  1.0000
  H   H2905     1.0  0.78021  0.66140  0.48589  1.0000
  H   H2906     1.0  0.79386  0.38207  0.85664  1.0000
  H   H2907     1.0  0.80124  0.49907  0.67832  1.0000
  H   H2908     1.0  0.00062  0.57259  0.76984  1.0000
  H   H2909     1.0  0.86689  0.65229  0.82271  1.0000
  H   H2910     1.0  0.77670  0.34783  0.61145  1.0000
  H   H2911     1.0  0.00732  0.56575  0.60243  1.0000
  H   H2912     1.0  0.93629  0.54281  0.48552  1.0000
  H   H2913     1.0  0.79961  0.35505  0.86998  1.0000
  H   H2914     1.0  0.99107  0.55233  0.51102  1.0000
  C   C1699     1.0  0.76515  0.44220  0.89803  1.0000
  H   H2915     1.0  0.76578  0.39840  0.66873  1.0000
  S   S481      1.0  0.76513  0.46020  0.78957  1.0000
  Fe  Fe247     1.0  0.89054  0.57892  0.96489  1.0000
  S   S482      1.0  0.89831  0.61356  0.96631  1.0000
  H   H2916     1.0  0.76340  0.36588  0.55069  1.0000
  S   S483      1.0  0.76286  0.41266  0.54780  1.0000
  H   H2917     1.0  0.77581  0.34152  0.48942  1.0000
  C   C1700     1.0  0.01141  0.55756  0.71159  1.0000
  Fe  Fe248     1.0  0.78548  0.76365  0.30049  1.0000
  C   C1701     1.0  0.83707  0.67827  0.34038  1.0000
  S   S484      1.0  0.79394  0.79847  0.30313  1.0000
  S   S485      1.0  0.79363  0.74122  0.33480  1.0000
  C   C1702     1.0  0.85080  0.97661  0.24967  1.0000
  C   C1703     1.0  0.82342  0.68443  0.36187  1.0000
  N   N123      1.0  0.77246  0.79329  0.13871  1.0000
  C   C1704     1.0  0.81818  0.99200  0.27605  1.0000
  S   S486      1.0  0.78966  0.92398  0.11350  1.0000
  H   H2918     1.0  0.77540  0.68332  0.98334  1.0000
  H   H2919     1.0  0.78054  0.72610  0.38343  1.0000
  S   S487      1.0  0.78822  0.92967  0.04837  1.0000
  C   C1705     1.0  0.79313  0.99808  0.22336  1.0000
  Fe  Fe249     1.0  0.77946  0.90470  0.07767  1.0000
  S   S488      1.0  0.78914  0.86882  0.06961  1.0000
  Fe  Fe250     1.0  0.79448  0.95050  0.08444  1.0000
  S   S489      1.0  0.82064  0.97420  0.08419  1.0000
  H   H2920     1.0  0.76737  0.87274  0.32938  1.0000
  H   H2921     1.0  0.79478  0.78323  0.36381  1.0000
  H   H2922     1.0  0.78660  0.71979  0.20371  1.0000
  C   C1706     1.0  0.77891  0.83998  0.31778  1.0000
  H   H2923     1.0  0.80912  0.99318  0.02339  1.0000
  H   H2924     1.0  0.78411  0.87506  0.21852  1.0000
  C   C1707     1.0  0.84834  0.95291  0.25742  1.0000
  C   C1708     1.0  0.78325  0.79149  0.37848  1.0000
  H   H2925     1.0  0.79128  0.90374  0.46114  1.0000
  C   C1709     1.0  0.77307  0.81956  0.30951  1.0000
  H   H2926     1.0  0.77605  0.87255  0.43410  1.0000
  H   H2927     1.0  0.76343  0.82686  0.99306  1.0000
  H   H2928     1.0  0.86365  0.98222  0.26312  1.0000
  S   S490      1.0  0.76826  0.95027  0.39728  1.0000
  H   H2929     1.0  0.78885  0.95189  0.44859  1.0000
  C   C1710     1.0  0.77197  0.88302  0.23284  1.0000
  N   N124      1.0  0.84300  0.99369  0.01135  1.0000
  C   C1711     1.0  0.77762  0.94224  0.20979  1.0000
  H   H2930     1.0  0.77744  0.78504  0.19939  1.0000
  H   H2931     1.0  0.81472  0.70201  0.00048  1.0000
  Fe  Fe251     1.0  0.80372  0.71592  0.30385  1.0000
  H   H2932     1.0  0.77861  0.93861  0.16702  1.0000
  H   H2933     1.0  0.79519  0.93868  0.21225  1.0000
  H   H2934     1.0  0.80368  0.80242  0.15459  1.0000
  H   H2935     1.0  0.79036  0.86842  0.26773  1.0000
  C   C1712     1.0  0.77464  0.82942  0.05620  1.0000
  H   H2936     1.0  0.85831  0.97615  0.22954  1.0000
  H   H2937     1.0  0.78214  0.99850  0.24080  1.0000
  H   H2938     1.0  0.79827  0.77598  0.16221  1.0000
  C   C1713     1.0  0.85486  0.99840  0.98625  1.0000
  H   H2939     1.0  0.84100  0.95179  0.27738  1.0000
  H   H2940     1.0  0.78326  0.83692  0.15507  1.0000
  H   H2941     1.0  0.88912  0.98375  0.98618  1.0000
  H   H2942     1.0  0.79850  0.89386  0.25733  1.0000
  C   C1714     1.0  0.77349  0.86914  0.99126  1.0000
  C   C1715     1.0  0.83473  0.98167  0.11349  1.0000
  H   H2943     1.0  0.78493  0.80908  0.37675  1.0000
  S   S491      1.0  0.77645  0.94628  0.26428  1.0000
  H   H2944     1.0  0.87554  0.95154  0.04429  1.0000
  C   C1716     1.0  0.84755  0.97502  0.15905  1.0000
  C   C1717     1.0  0.83522  0.96920  0.13660  1.0000
  H   H2945     1.0  0.77316  0.84188  0.23630  1.0000
  H   H2946     1.0  0.85309  0.98545  0.97103  1.0000
  H   H2947     1.0  0.78735  0.83289  0.11958  1.0000
  H   H2948     1.0  0.82656  0.95478  0.13693  1.0000
  H   H2949     1.0  0.84841  0.96489  0.17650  1.0000
  C   C1718     1.0  0.82689  0.67401  0.38656  1.0000
  C   C1719     1.0  0.82638  0.69497  0.98522  1.0000
  H   H2950     1.0  0.78888  0.78556  0.39843  1.0000
  H   H2951     1.0  0.81045  0.69749  0.35966  1.0000
  H   H2952     1.0  0.77856  0.86280  0.01134  1.0000
  H   H2953     1.0  0.79460  0.79880  0.10660  1.0000
  H   H2954     1.0  0.81202  0.76426  0.12240  1.0000
  H   H2955     1.0  0.79132  0.82488  0.04986  1.0000
  H   H2956     1.0  0.78472  0.90134  0.00054  1.0000
  H   H2957     1.0  0.81576  0.95978  0.99384  1.0000
  C   C1720     1.0  0.77495  0.83473  0.13557  1.0000
  C   C1721     1.0  0.81876  0.99427  0.00477  1.0000
  S   S492      1.0  0.79910  0.73937  0.26955  1.0000
  C   C1722     1.0  0.85070  0.97122  0.02142  1.0000
  H   H2958     1.0  0.86697  0.97681  0.06004  1.0000
  H   H2959     1.0  0.79608  0.84244  0.32052  1.0000
  S   S493      1.0  0.87420  0.00052  0.18749  1.0000
  H   H2960     1.0  0.79439  0.72937  0.42961  1.0000
  S   S494      1.0  0.77321  0.73017  0.97958  1.0000
  H   H2961     1.0  0.78682  0.75147  0.11858  1.0000
  C   C1723     1.0  0.85908  0.99358  0.15882  1.0000
  C   C1724     1.0  0.76273  0.71648  0.14176  1.0000
  H   H2962     1.0  0.80132  0.69111  0.44636  1.0000
  H   H2963     1.0  0.79631  0.71330  0.15600  1.0000
  S   S495      1.0  0.77014  0.71167  0.10806  1.0000
  S   S496      1.0  0.83358  0.69153  0.30930  1.0000
  H   H2964     1.0  0.78423  0.99069  0.20663  1.0000
  C   C1725     1.0  0.87981  0.99998  0.98871  1.0000
  S   S497      1.0  0.76290  0.91907  0.33095  1.0000
  C   C1726     1.0  0.76905  0.72799  0.39956  1.0000
  H   H2965     1.0  0.82356  0.98191  0.20907  1.0000
  C   C1727     1.0  0.77924  0.71626  0.16159  1.0000
  C   C1728     1.0  0.79624  0.76442  0.11119  1.0000
  C   C1729     1.0  0.76822  0.94200  0.18410  1.0000
  H   H2966     1.0  0.86492  0.94379  0.25830  1.0000
  H   H2967     1.0  0.79376  0.97864  0.98270  1.0000
  H   H2968     1.0  0.77365  0.89366  0.27515  1.0000
  C   C1730     1.0  0.78717  0.88816  0.98544  1.0000
  H   H2969     1.0  0.77939  0.85594  0.97725  1.0000
  C   C1731     1.0  0.78304  0.78695  0.11239  1.0000
  H   H2970     1.0  0.83077  0.67734  0.25215  1.0000
  H   H2971     1.0  0.84004  0.68465  0.99481  1.0000
  H   H2972     1.0  0.77398  0.94499  0.99432  1.0000
  H   H2973     1.0  0.80489  0.88214  0.98638  1.0000
  H   H2974     1.0  0.83874  0.94443  0.24235  1.0000
  H   H2975     1.0  0.83745  0.96441  0.03273  1.0000
  H   H2976     1.0  0.81018  0.96758  0.23350  1.0000
  C   C1732     1.0  0.77688  0.72965  0.42582  1.0000
  C   C1733     1.0  0.79002  0.79276  0.16010  1.0000
  H   H2977     1.0  0.85433  0.95967  0.00447  1.0000
  H   H2978     1.0  0.80036  0.76028  0.09011  1.0000
  C   C1734     1.0  0.84636  0.00018  0.11327  1.0000
  C   C1735     1.0  0.78204  0.79941  0.18842  1.0000
  H   H2979     1.0  0.81069  0.97651  0.27909  1.0000
  H   H2980     1.0  0.88543  0.97564  0.03200  1.0000
  C   C1736     1.0  0.87090  0.96904  0.04036  1.0000
  C   C1737     1.0  0.81495  0.98386  0.22851  1.0000
  C   C1738     1.0  0.76410  0.67478  0.42205  1.0000
  H   H2981     1.0  0.79537  0.80664  0.19965  1.0000
  C   C1739     1.0  0.76891  0.85030  0.06681  1.0000
  C   C1740     1.0  0.78403  0.88459  0.25998  1.0000
  H   H2982     1.0  0.76785  0.81191  0.18840  1.0000
  C   C1741     1.0  0.81188  0.97629  0.98562  1.0000
  H   H2983     1.0  0.81676  0.67940  0.40325  1.0000
  H   H2984     1.0  0.80050  0.68623  0.22790  1.0000
  N   N125      1.0  0.82996  0.99189  0.24982  1.0000
  H   H2985     1.0  0.79364  0.67602  0.00936  1.0000
  S   S498      1.0  0.77029  0.70409  0.29890  1.0000
  H   H2986     1.0  0.76461  0.76177  0.15233  1.0000
  H   H2987     1.0  0.83367  0.70889  0.97623  1.0000
  C   C1742     1.0  0.77380  0.71989  0.18862  1.0000
  H   H2988     1.0  0.77056  0.78751  0.09602  1.0000
  C   C1743     1.0  0.80147  0.67993  0.46338  1.0000
  H   H2989     1.0  0.80369  0.00436  0.27593  1.0000
  C   C1744     1.0  0.77136  0.95217  0.45173  1.0000
  C   C1745     1.0  0.76215  0.94484  0.97815  1.0000
  H   H2990     1.0  0.77904  0.68142  0.41457  1.0000
  H   H2991     1.0  0.82470  0.98861  0.31859  1.0000
  C   C1746     1.0  0.76266  0.85721  0.32266  1.0000
  H   H2992     1.0  0.76841  0.90005  0.22604  1.0000
  H   H2993     1.0  0.76341  0.79844  0.04507  1.0000
  H   H2994     1.0  0.84892  0.99057  0.30083  1.0000
  C   C1747     1.0  0.76433  0.94644  0.23220  1.0000
  H   H2995     1.0  0.77977  0.67563  0.24817  1.0000
  H   H2996     1.0  0.77746  0.67521  0.21277  1.0000
  Fe  Fe252     1.0  0.76475  0.72951  0.26703  1.0000
  C   C1748     1.0  0.83141  0.99692  0.30144  1.0000
  H   H2997     1.0  0.76439  0.85004  0.13155  1.0000
  C   C1749     1.0  0.85834  0.00622  0.13588  1.0000
  C   C1750     1.0  0.76228  0.73130  0.44718  1.0000
  H   H2998     1.0  0.76211  0.84116  0.45256  1.0000
  C   C1751     1.0  0.78943  0.67320  0.22965  1.0000
  Fe  Fe253     1.0  0.78208  0.75531  0.79702  1.0000
  H   H2999     1.0  0.79965  0.88530  0.76489  1.0000
  S   S499      1.0  0.78967  0.79041  0.79793  1.0000
  S   S500      1.0  0.79252  0.73381  0.83154  1.0000
  H   H3000     1.0  0.79617  0.71322  0.65930  1.0000
  H   H3001     1.0  0.80213  0.69490  0.95431  1.0000
  H   H3002     1.0  0.77155  0.83406  0.73184  1.0000
  C   C1752     1.0  0.86248  0.99397  0.65524  1.0000
  S   S501      1.0  0.78852  0.92741  0.61159  1.0000
  H   H3003     1.0  0.78374  0.68043  0.92144  1.0000
  C   C1753     1.0  0.77519  0.87577  0.73629  1.0000
  S   S502      1.0  0.78718  0.93397  0.54665  1.0000
  H   H3004     1.0  0.80833  0.78312  0.60462  1.0000
  Fe  Fe254     1.0  0.77813  0.90864  0.57532  1.0000
  S   S503      1.0  0.78736  0.87270  0.56672  1.0000
  Fe  Fe255     1.0  0.79359  0.95429  0.58310  1.0000
  S   S504      1.0  0.81900  0.97881  0.58318  1.0000
  H   H3005     1.0  0.78423  0.71193  0.70640  1.0000
  H   H3006     1.0  0.77995  0.79608  0.88647  1.0000
  C   C1754     1.0  0.76723  0.85403  0.56334  1.0000
  H   H3007     1.0  0.86254  0.68723  0.74111  1.0000
  H   H3008     1.0  0.78994  0.81500  0.63885  1.0000
  Fe  Fe256     1.0  0.80252  0.70835  0.80072  1.0000
  C   C1755     1.0  0.76937  0.94238  0.95168  1.0000
  H   H3009     1.0  0.78919  0.86473  0.47327  1.0000
  H   H3010     1.0  0.80864  0.00357  0.78485  1.0000
  H   H3011     1.0  0.80819  0.99977  0.46991  1.0000
  C   C1756     1.0  0.78840  0.00020  0.69130  1.0000
  S   S505      1.0  0.76971  0.69497  0.79820  1.0000
  H   H3012     1.0  0.82085  0.67656  0.89991  1.0000
  H   H3013     1.0  0.85034  0.93881  0.73490  1.0000
  C   C1757     1.0  0.81471  0.68279  0.96294  1.0000
  H   H3014     1.0  0.82698  0.67885  0.94697  1.0000
  H   H3015     1.0  0.81184  0.89325  0.48448  1.0000
  C   C1758     1.0  0.77438  0.93731  0.70995  1.0000
  H   H3016     1.0  0.82098  0.98570  0.68299  1.0000
  H   H3017     1.0  0.78062  0.72371  0.88304  1.0000
  H   H3018     1.0  0.77388  0.88246  0.77980  1.0000
  H   H3019     1.0  0.77671  0.93768  0.66708  1.0000
  H   H3020     1.0  0.79173  0.93277  0.71300  1.0000
  S   S506      1.0  0.77187  0.93619  0.76428  1.0000
  H   H3021     1.0  0.87907  0.96052  0.51864  1.0000
  H   H3022     1.0  0.84499  0.97238  0.49619  1.0000
  H   H3023     1.0  0.76555  0.84497  0.62316  1.0000
  H   H3024     1.0  0.78880  0.00015  0.74563  1.0000
  C   C1759     1.0  0.76875  0.81092  0.80622  1.0000
  C   C1760     1.0  0.77452  0.83126  0.81491  1.0000
  H   H3025     1.0  0.77469  0.83386  0.48462  1.0000
  H   H3026     1.0  0.78635  0.87154  0.50722  1.0000
  H   H3027     1.0  0.85985  0.96084  0.66663  1.0000
  H   H3028     1.0  0.78234  0.76749  0.89322  1.0000
  H   H3029     1.0  0.84139  0.97350  0.53129  1.0000
  C   C1761     1.0  0.83497  0.98450  0.61168  1.0000
  H   H3030     1.0  0.77458  0.76262  0.68823  1.0000
  H   H3031     1.0  0.77471  0.80064  0.67875  1.0000
  H   H3032     1.0  0.80357  0.96819  0.69785  1.0000
  H   H3033     1.0  0.81069  0.75457  0.61052  1.0000
  C   C1762     1.0  0.84098  0.96868  0.63079  1.0000
  H   H3034     1.0  0.76743  0.68595  0.47288  1.0000
  H   H3035     1.0  0.78667  0.76677  0.59403  1.0000
  S   S507      1.0  0.87866  0.99963  0.68354  1.0000
  H   H3036     1.0  0.83536  0.95270  0.62863  1.0000
  N   N126      1.0  0.81923  0.98909  0.72595  1.0000
  H   H3037     1.0  0.80107  0.77745  0.65177  1.0000
  H   H3038     1.0  0.78390  0.75674  0.64366  1.0000
  H   H3039     1.0  0.81210  0.69214  0.85558  1.0000
  C   C1763     1.0  0.81004  0.98681  0.77643  1.0000
  H   H3040     1.0  0.79208  0.85865  0.77040  1.0000
  C   C1764     1.0  0.80230  0.98676  0.74703  1.0000
  C   C1765     1.0  0.83479  0.94875  0.72960  1.0000
  H   H3041     1.0  0.79091  0.82746  0.55210  1.0000
  C   C1766     1.0  0.84874  0.98179  0.51445  1.0000
  H   H3042     1.0  0.82688  0.67523  0.74993  1.0000
  H   H3043     1.0  0.80583  0.68934  0.48137  1.0000
  C   C1767     1.0  0.77488  0.81055  0.62815  1.0000
  H   H3044     1.0  0.78317  0.99589  0.67074  1.0000
  H   H3045     1.0  0.78680  0.94062  0.94766  1.0000
  H   H3046     1.0  0.78584  0.99538  0.49105  1.0000
  H   H3047     1.0  0.79169  0.83389  0.81720  1.0000
  C   C1768     1.0  0.77213  0.71375  0.69045  1.0000
  S   S508      1.0  0.79547  0.73099  0.76603  1.0000
  C   C1769     1.0  0.79887  0.76941  0.60993  1.0000
  H   H3048     1.0  0.78815  0.77695  0.86083  1.0000
  H   H3049     1.0  0.87929  0.98489  0.53786  1.0000
  H   H3050     1.0  0.77338  0.89318  0.73061  1.0000
  C   C1770     1.0  0.87395  0.97826  0.51843  1.0000
  H   H3051     1.0  0.78772  0.86759  0.72261  1.0000
  H   H3052     1.0  0.77431  0.95436  0.49460  1.0000
  C   C1771     1.0  0.77375  0.83242  0.55586  1.0000
  C   C1772     1.0  0.85494  0.97332  0.65225  1.0000
  H   H3053     1.0  0.82968  0.94282  0.70974  1.0000
  S   S509      1.0  0.77253  0.71842  0.60982  1.0000
  H   H3054     1.0  0.79363  0.97198  0.74349  1.0000
  H   H3055     1.0  0.82686  0.97903  0.77984  1.0000
  C   C1773     1.0  0.80403  0.99313  0.48942  1.0000
  H   H3056     1.0  0.78934  0.91106  0.49610  1.0000
  H   H3057     1.0  0.77935  0.80890  0.60674  1.0000
  H   H3058     1.0  0.84892  0.97586  0.74715  1.0000
  H   H3059     1.0  0.79942  0.97696  0.78816  1.0000
  C   C1774     1.0  0.76586  0.93994  0.68391  1.0000
  S   S510      1.0  0.77299  0.73229  0.47975  1.0000
  H   H3060     1.0  0.82256  0.94558  0.74483  1.0000
  S   S511      1.0  0.76437  0.94009  0.89745  1.0000
  H   H3061     1.0  0.77430  0.99818  0.70440  1.0000
  C   C1775     1.0  0.80885  0.98483  0.69912  1.0000
  C   C1776     1.0  0.83920  0.97286  0.72892  1.0000
  S   S512      1.0  0.83360  0.68535  0.80452  1.0000
  C   C1777     1.0  0.76952  0.72325  0.89945  1.0000
  H   H3062     1.0  0.79398  0.72993  0.92894  1.0000
  C   C1778     1.0  0.78168  0.87754  0.48685  1.0000
  N   N127      1.0  0.76812  0.78945  0.63860  1.0000
  C   C1779     1.0  0.77883  0.71445  0.66377  1.0000
  C   C1780     1.0  0.78808  0.77300  0.63746  1.0000
  H   H3063     1.0  0.85079  0.97463  0.71238  1.0000
  C   C1781     1.0  0.79391  0.89772  0.48178  1.0000
  H   H3064     1.0  0.88289  0.98517  0.50200  1.0000
  H   H3065     1.0  0.80876  0.97536  0.48977  1.0000
  C   C1782     1.0  0.77709  0.72668  0.92555  1.0000
  H   H3066     1.0  0.81912  0.97716  0.96559  1.0000
  C   C1783     1.0  0.82590  0.67996  0.85797  1.0000
  C   C1784     1.0  0.76297  0.72587  0.94721  1.0000
  C   C1785     1.0  0.78551  0.87531  0.76459  1.0000
  C   C1786     1.0  0.77709  0.78000  0.87815  1.0000
  H   H3067     1.0  0.76442  0.86305  0.93891  1.0000
  C   C1787     1.0  0.76327  0.71692  0.64289  1.0000
  H   H3068     1.0  0.76355  0.80053  0.54771  1.0000
  C   C1788     1.0  0.76317  0.95351  0.47782  1.0000
  H   H3069     1.0  0.80927  0.99732  0.53169  1.0000
  C   C1789     1.0  0.84277  0.00506  0.61449  1.0000
  H   H3070     1.0  0.76287  0.86376  0.82740  1.0000
  C   C1790     1.0  0.76187  0.79253  0.66750  1.0000
  H   H3071     1.0  0.78381  0.89477  0.96520  1.0000
  N   N128      1.0  0.83893  0.00514  0.51256  1.0000
  H   H3072     1.0  0.84573  0.00286  0.47000  1.0000
  C   C1791     1.0  0.81428  0.00497  0.51304  1.0000
  C   C1792     1.0  0.83897  0.67346  0.83611  1.0000
