data_image0
_chemical_formula_structural       CFeS2FeSFeSCHFeS2HS2FeSFeSHSFeCSFeCSFeH2SFeHSFeCSFeSCS2H2CH2NHC7H4C2FeSC2H7CH4CHNCH2CH2CH2C3NC8SH4C6H5C2HCH2C2H8C2H3CH2NH3C2HCSHCHCH3CHCH3SC2H2NHCH4C2H4SH3CH3CH2SHCH2NC8H13CH7C2H2CH4C2HCH6C2NH4C2H7CHCH2CH2CHCHC3H2NCH4CH2FeH2CHC4H6SH3SHCHCH3C2H4SCHFeNHFeS2FeCFeS3FeSFeSCFeS2FeHFeSCSFeSC6H8CH2C3H4CH2C6H7CHC2H5C2H2C2H4C2H2CHCH3CH4CH3NH3CH7C3H3CH5C2SC2H2CH6CH3CH2SC2HNHCSCNCH3C2HCHCHCH5CH9CSH2CH3CHCH5CH2SHCH2CHCHCHCH2CHSH4CFeS2FeS2FeSH2S3FeHSHSHFeSHSCS2CNHCH2CH3C2H4C3H4C2HC3H5C2H4C3SHC2H3CHC2FeC2HCHC3HC2HCH2C2H3CNC2H2NH4CHCHCSHCHCHCSCH2C2NHFeH8NHCH6C2H2CHCSCH2CHC2HFeC2HCH3CH3CHSC3SH2CH3CH2CHCH5CH5CHC2H2C2NH4C2H3CH3CHCH7CHSFeHSCHSHSFeSHSCS2HSFeSFeS2HFeHSFeHSFeSHS2C2SCHSFeSFeSHC7H4SH2C2H2C3H3C6H5CH4FeSH2C6H4C6H2SH3CH6SH2CH2C4H2CH3C2H2CH3CHNC4HC3H8NSH10CHFeH2CH3CSH2CH3CNHCSH4CHCH2CFeHCH2CH2NHC3NCH2CH3CHC3FeH2CH5CH7C5HFeH2CHFeH3CH2CHCSH4SH4CFeHCH2SHCHCSCHSCSHCHFeSHFe2S2CSCFeSFeSFeSFeHSFeCSFeSCSFeHSFeCSFeSHS3CH2CH3C6H5C2H5CH3C3H4CHCHCSHC6HCH2C2HC4H4C6H7CH4CH3C2H2NCH2CH2CSC3NC8H18FeC2H2SH2CH4CH3CHCH2NC8H19NCHCHNH2SH3CH2C2S2HCSCH2C4HC2H5CFeCH2CH4C2H2C2H5NH2C2HSH3C2H6CSH3FeCHFeS2FeHFeS3FeSFeSHFeS2FeHFeS3FeSC6H4C8H8C7H4CH4C2H3CHC2NH3NCH4C2H2CHCHCH10SCHSH2CHNH2CHCH2CH3CH11CSCHCNC8H11CH2CH7CNHCH5C2HC2H3SH2CH2CH8C2SH4CH2CH4C2HCFeCSFeS2FeSCS4FeHSFeCHSNFeSHS2H2C2H2C2HCHC2H4NHCHCHCH6SCHC2HCH2CH2CH2C2H2CH7NCHC2H2FeHCH2C2H2NH2CH3C2H4CH2C2NHC2H2C2H2C2H2C2HC2H2C3HCHFeCH5CH6NH4SCH6CH2C2HC2H3C2H2CH4CSH3CHCSCH3C2H2CH6CH2CH4C2HC5H3SH2CHC2HSCH2NH4CHCHCH4CSHFeS2FeH3SFeHS2CSCHSFeSFeS2HFeCSFeS2FeSCS3HSCHSCSFeSH2C6H5SC2H3C2H4C6H6C2HCNHCHC6H4C6H4C2H2CHCH3C3H2SH5CH4SH2NCH3NC7H17NHCH4SHC5H2FeHCSH3NH2CHCFeH3FeHCHCSH3CHCH3CH4CHC2H2SC3NHC3HFeH5CH5C2SHCH3NH3Fe2CH9C2H2SHCHC2H2C2HSCH3CHN2H3CHFeS2FeSFeSCHFeS2C2SFeSFeSHSCHCFeS2CSHSFeHSFeS2FeSHS3NH2CH2C7H4CHCNHC2H3C5H9CHC2SC5NH3CH2CHCH2C7H4C4H2CHSHCHNC7H15C2H2CHCH4SCH3SC3H3CH11CHCHFeH4SCHC2H2SHC7H3CH3C2H2CH3CH2CH4NC2H5CHCH3FeH4NC2HCH2NH2CH2CH3CH5CHCH4C3H5NC2SHFeHFeH3C2H5C2H2FeH2FeS2FeCFeS3FeSFeSHFeS2FeHFeSHSFeSC6H5CH2C7H3C2HC6H7CH10CH5CHSH6C2H3CSHC2H2C2HSCH3CSH4CHCHCH6C2H2CHCH7NSC3HNH3SH6CHCH2CHCHC4H3CFeHSFeS2FeCH2S3FeHSHCSCHCHFeSHCHC2H2CHC2SCH4C5H2C2HC3H5SHSH2CSNHCH3C2FeH4CH2C2HCH2FeHCHCH2CHCHCH2C2H3CH2CH2NHCSHSH3C3H2SHNHCH2C4H4CHCH2C3HCH4NHCHSCH2CHSC2HCH3NHFeH2C2H2NH3CH4CHC3H2CH7CH5CHCH2C2H2CH14SC3H3NH4CH3FeS2FeS2C2FeS3HSCHSFeSFeS2NFeCSFeS2FeSHS3HSHCSHSFeSNC7H6CFeHCSHCSH3C6H4CHSHC2NH3C6H4C6H5CHSNH5CNH2CFeCH4C2H2CH5CHCNH4C2H6FeH3CH2CHNH2CHCH7CH9CHC2H2FeH5CH10C2H2SC3H2Fe2CHCH2C3H5CHC2HSCH4C2HCH2C3H2CH2CHCH2SCFeCH3CHCH3NHC2HC3H2C2H2CHC2H2C2HSHFeSFeSCHFeSH2CSFeSFeS3FeH2FeS2H2S2FeHSFeHSFeH2S2HNH2CH3C6H5CHC3H4CHC3H6CHCHCHC3HC2H2CHSH2CHC3H2C6H5C3SH6SH4FeCHNC4H6NC2H2CH3SC2H2CH5CHCHC2HNC8H8CHCH9CHSHC4H3SCHC2H2NHCH5CH2CHFeCH3CH4FeSH2SCH5CH5C2SH6C2HCH2CHCHCH3CH2CH4C2H3CHCH2NH3FeCH3SH2CHSFeS2FeHFeHS2FeSFeSHFeSH3FeSHSFeSC6H4CH2SC2HC3H5SHC6H6SC2HCH3SH2CHC2NC8H25CHCSHCHCHCH2CH2CHFeHNH2C2NCSHC2H2C2HCHFeCH3CHCH2NH5SH4CHCH3CH8C3SH5CHCH3CHCH2C2HCH4FeCSFeS2FeSHCS3FeHSFeC2S2NCS3CHC2H2CSH2C2H4C2H6CHCH3CH2C3FeHC2H2CHC3H7CH7C2HC2SHNHC2H8CH2C4H2C2H2CHCH3CH2CHCH3CHC2H5CHCHNCH4CHCHCHFeCH2CHC2H4CHCFeHCH2SH3C2HC3H2C3HCNH2CSNH2SH8C2NH2SH4CH3CHCNCHSH2C3H5CH3C2H3CH3C4HCH3CH2FeCSFeCS3FeSHSCSCHSFeSFeS2CFeHSFeS2FeSHS2H2SHS2FeSFeSCHC6H5FeHCHCHC2H4C6H5C2H7C6H4C6H4CH2C3H2FeH2CH2FeHNHCH4CH5FeCFeH2NH2SCHCH7SH4C2HC3H9CH2CHCSHC2HCH2SCSHCH8NC2H5FeC2H3C2NCH3C2SH4C3H9C2H8CHC2HC2H2CH2CH3C2HCH2CH3C2FeH
_chemical_formula_sum              "C1344 Fe192 S384 H2304 N96"
_cell_length_a       58.6013
_cell_length_b       58.6887
_cell_length_c       56.3058
_cell_angle_alpha    90.055
_cell_angle_beta     90.0008
_cell_angle_gamma    119.881

_space_group_name_H-M_alt    "P 1"
_space_group_IT_number       1

loop_
  _space_group_symop_operation_xyz
  'x, y, z'

loop_
  _atom_site_type_symbol
  _atom_site_label
  _atom_site_symmetry_multiplicity
  _atom_site_fract_x
  _atom_site_fract_y
  _atom_site_fract_z
  _atom_site_occupancy
  C   C1        1.0  0.35081  0.46442  0.02213  1.0000
  Fe  Fe1       1.0  0.34085  0.35410  0.23517  1.0000
  S   S1        1.0  0.33626  0.32658  0.20536  1.0000
  S   S2        1.0  0.33356  0.38819  0.23357  1.0000
  Fe  Fe2       1.0  0.31766  0.29482  0.23339  1.0000
  S   S3        1.0  0.28191  0.25276  0.23265  1.0000
  Fe  Fe3       1.0  0.37629  0.33381  0.21742  1.0000
  S   S4        1.0  0.40867  0.34072  0.19000  1.0000
  C   C2        1.0  0.98374  0.35868  0.12518  1.0000
  H   H1        1.0  0.07176  0.02356  0.15172  1.0000
  Fe  Fe4       1.0  0.38398  0.02515  0.09887  1.0000
  S   S5        1.0  0.38462  0.05430  0.12547  1.0000
  S   S6        1.0  0.39542  0.03648  0.06040  1.0000
  H   H2        1.0  0.26554  0.37683  0.18595  1.0000
  S   S7        1.0  0.36627  0.00864  0.16498  1.0000
  S   S8        1.0  0.34601  0.43714  0.13148  1.0000
  Fe  Fe5       1.0  0.34569  0.02061  0.13809  1.0000
  S   S9        1.0  0.31093  0.02677  0.14756  1.0000
  Fe  Fe6       1.0  0.40533  0.03977  0.15002  1.0000
  S   S10       1.0  0.43889  0.06391  0.17688  1.0000
  H   H3        1.0  0.45730  0.06158  0.11041  1.0000
  S   S11       1.0  0.40707  0.01302  0.12241  1.0000
  Fe  Fe7       1.0  0.12432  0.16366  0.23122  1.0000
  C   C3        1.0  0.38764  0.01749  0.01454  1.0000
  S   S12       1.0  0.15777  0.20394  0.21928  1.0000
  Fe  Fe8       1.0  0.06727  0.11511  0.22266  1.0000
  C   C4        1.0  0.43648  0.99578  0.18477  1.0000
  S   S13       1.0  0.03264  0.09141  0.19641  1.0000
  Fe  Fe9       1.0  0.11360  0.10778  0.23737  1.0000
  H   H4        1.0  0.04758  0.34265  0.13592  1.0000
  H   H5        1.0  0.44524  0.32666  0.20914  1.0000
  S   S14       1.0  0.10763  0.12866  0.20685  1.0000
  Fe  Fe10      1.0  0.14626  0.45816  0.13005  1.0000
  H   H6        1.0  0.26316  0.99875  0.07305  1.0000
  S   S15       1.0  0.18073  0.44988  0.12805  1.0000
  Fe  Fe11      1.0  0.08997  0.44485  0.14822  1.0000
  C   C5        1.0  0.20967  0.24355  0.21608  1.0000
  S   S16       1.0  0.05679  0.42024  0.17517  1.0000
  Fe  Fe12      1.0  0.10509  0.45797  0.09586  1.0000
  S   S17       1.0  0.08980  0.44726  0.05827  1.0000
  C   C6        1.0  0.45561  0.36265  0.16487  1.0000
  S   S18       1.0  0.13233  0.03726  0.13483  1.0000
  S   S19       1.0  0.10458  0.42737  0.12026  1.0000
  H   H7        1.0  0.41946  0.43574  0.20069  1.0000
  H   H8        1.0  0.99720  0.06192  0.15829  1.0000
  C   C7        1.0  0.22983  0.21800  0.24329  1.0000
  H   H9        1.0  0.08513  0.44524  0.00735  1.0000
  H   H10       1.0  0.16507  0.03021  0.03249  1.0000
  N   N1        1.0  0.01014  0.36042  0.12156  1.0000
  H   H11       1.0  0.26205  0.43221  0.12964  1.0000
  C   C8        1.0  0.14984  0.01050  0.02793  1.0000
  C   C9        1.0  0.13477  0.07183  0.20771  1.0000
  C   C10       1.0  0.14316  0.05342  0.20510  1.0000
  C   C11       1.0  0.14251  0.04263  0.18269  1.0000
  C   C12       1.0  0.13390  0.05061  0.16289  1.0000
  C   C13       1.0  0.12604  0.06936  0.16541  1.0000
  C   C14       1.0  0.12628  0.07975  0.18781  1.0000
  H   H12       1.0  0.14970  0.04713  0.22045  1.0000
  H   H13       1.0  0.14897  0.02841  0.18074  1.0000
  H   H14       1.0  0.11925  0.07548  0.15013  1.0000
  H   H15       1.0  0.11955  0.09361  0.18956  1.0000
  C   C15       1.0  0.27612  0.00644  0.14416  1.0000
  C   C16       1.0  0.10354  0.47226  0.03640  1.0000
  Fe  Fe13      1.0  0.12756  0.99698  0.13632  1.0000
  S   S20       1.0  0.13359  0.08354  0.23604  1.0000
  C   C17       1.0  0.22054  0.43295  0.19100  1.0000
  C   C18       1.0  0.25957  0.01617  0.15145  1.0000
  H   H16       1.0  0.40842  0.45578  0.11489  1.0000
  H   H17       1.0  0.26193  0.48406  0.02117  1.0000
  H   H18       1.0  0.45117  0.06336  0.07921  1.0000
  H   H19       1.0  0.26827  0.03597  0.15835  1.0000
  H   H20       1.0  0.45585  0.09629  0.05280  1.0000
  H   H21       1.0  0.45148  0.47816  0.14951  1.0000
  H   H22       1.0  0.21336  0.16308  0.23045  1.0000
  C   C19       1.0  0.99918  0.08302  0.19032  1.0000
  H   H23       1.0  0.07568  0.05783  0.09795  1.0000
  H   H24       1.0  0.25042  0.27333  0.21038  1.0000
  H   H25       1.0  0.11332  0.05663  0.09452  1.0000
  H   H26       1.0  0.47553  0.36966  0.23764  1.0000
  C   C20       1.0  0.47387  0.07878  0.18118  1.0000
  H   H27       1.0  0.01662  0.36633  0.15944  1.0000
  N   N2        1.0  0.26538  0.43591  0.18182  1.0000
  C   C21       1.0  0.38335  0.01104  0.03879  1.0000
  H   H28       1.0  0.43615  0.99259  0.20418  1.0000
  H   H29       1.0  0.20128  0.13011  0.21906  1.0000
  C   C22       1.0  0.28599  0.44597  0.16249  1.0000
  H   H30       1.0  0.03130  0.32702  0.08515  1.0000
  H   H31       1.0  0.41041  0.47572  0.18447  1.0000
  C   C23       1.0  0.24752  0.24202  0.23233  1.0000
  H   H32       1.0  0.40509  0.40746  0.13630  1.0000
  H   H33       1.0  0.01398  0.46783  0.19089  1.0000
  C   C24       1.0  0.19202  0.21912  0.22636  1.0000
  C   C25       1.0  0.20229  0.20677  0.24058  1.0000
  C   C26       1.0  0.06217  0.03864  0.08949  1.0000
  N   N3        1.0  0.42540  0.43833  0.16243  1.0000
  C   C27       1.0  0.44074  0.10355  0.08647  1.0000
  C   C28       1.0  0.98254  0.41120  0.16896  1.0000
  C   C29       1.0  0.40816  0.42674  0.18406  1.0000
  C   C30       1.0  0.44252  0.36510  0.18489  1.0000
  C   C31       1.0  0.44605  0.31376  0.22313  1.0000
  C   C32       1.0  0.00962  0.39614  0.19991  1.0000
  C   C33       1.0  0.02327  0.41207  0.18030  1.0000
  C   C34       1.0  0.00952  0.41982  0.16498  1.0000
  S   S21       1.0  0.34411  0.99283  0.10989  1.0000
  H   H34       1.0  0.44478  0.34672  0.15248  1.0000
  H   H35       1.0  0.01986  0.38991  0.21194  1.0000
  H   H36       1.0  0.01950  0.43201  0.14980  1.0000
  H   H37       1.0  0.47533  0.29482  0.24424  1.0000
  C   C35       1.0  0.33689  0.40156  0.20518  1.0000
  C   C36       1.0  0.34594  0.42845  0.20280  1.0000
  C   C37       1.0  0.34899  0.43959  0.18021  1.0000
  C   C38       1.0  0.34256  0.42378  0.15995  1.0000
  C   C39       1.0  0.33349  0.39687  0.16233  1.0000
  C   C40       1.0  0.33070  0.38576  0.18492  1.0000
  H   H38       1.0  0.35102  0.44075  0.21846  1.0000
  H   H39       1.0  0.35660  0.46039  0.17858  1.0000
  H   H40       1.0  0.32854  0.38457  0.14669  1.0000
  H   H41       1.0  0.32335  0.36493  0.18667  1.0000
  H   H42       1.0  0.03399  0.35559  0.07197  1.0000
  C   C41       1.0  0.30444  0.45927  0.21164  1.0000
  C   C42       1.0  0.98482  0.09050  0.20511  1.0000
  H   H43       1.0  0.27794  0.39801  0.21147  1.0000
  C   C43       1.0  0.44198  0.11973  0.13877  1.0000
  H   H44       1.0  0.39807  0.03790  0.00924  1.0000
  H   H45       1.0  0.06598  0.02308  0.22751  1.0000
  C   C44       1.0  0.14460  0.05753  0.07449  1.0000
  C   C45       1.0  0.01813  0.35410  0.14506  1.0000
  H   H46       1.0  0.20588  0.43707  0.18241  1.0000
  H   H47       1.0  0.35602  0.47799  0.05855  1.0000
  H   H48       1.0  0.00451  0.33335  0.15022  1.0000
  H   H49       1.0  0.14346  0.03886  0.08001  1.0000
  H   H50       1.0  0.01486  0.98805  0.21760  1.0000
  H   H51       1.0  0.99344  0.33989  0.08863  1.0000
  H   H52       1.0  0.05657  0.04233  0.17943  1.0000
  H   H53       1.0  0.24110  0.39467  0.17221  1.0000
  C   C46       1.0  0.39495  0.39669  0.18690  1.0000
  C   C47       1.0  0.07153  0.03685  0.06427  1.0000
  H   H54       1.0  0.01668  0.99815  0.18792  1.0000
  H   H55       1.0  0.20995  0.41182  0.19576  1.0000
  H   H56       1.0  0.08041  0.48008  0.19986  1.0000
  C   C48       1.0  0.40854  0.42750  0.14045  1.0000
  H   H57       1.0  0.12041  0.07495  0.06773  1.0000
  H   H58       1.0  0.04942  0.35411  0.16545  1.0000
  N   N4        1.0  0.09500  0.03282  0.06317  1.0000
  H   H59       1.0  0.26336  0.44221  0.21958  1.0000
  H   H60       1.0  0.43728  0.40870  0.16205  1.0000
  H   H61       1.0  0.47192  0.08940  0.21749  1.0000
  C   C49       1.0  0.27637  0.45219  0.20410  1.0000
  C   C50       1.0  0.41951  0.28782  0.22254  1.0000
  H   H62       1.0  0.25075  0.46058  0.16808  1.0000
  C   C51       1.0  0.00899  0.47991  0.17920  1.0000
  S   S22       1.0  0.13185  0.47280  0.16035  1.0000
  H   H63       1.0  0.42960  0.11380  0.09067  1.0000
  C   C52       1.0  0.13784  0.99157  0.04585  1.0000
  H   H64       1.0  0.45701  0.00853  0.17864  1.0000
  C   C53       1.0  0.02945  0.38841  0.11469  1.0000
  H   H65       1.0  0.40296  0.46986  0.15316  1.0000
  H   H66       1.0  0.22642  0.45155  0.10710  1.0000
  H   H67       1.0  0.20921  0.10763  0.17261  1.0000
  C   C54       1.0  0.26083  0.48369  0.12348  1.0000
  H   H68       1.0  0.24096  0.40104  0.20255  1.0000
  C   C55       1.0  0.27391  0.39746  0.19213  1.0000
  H   H69       1.0  0.03893  0.03788  0.20706  1.0000
  H   H70       1.0  0.48064  0.06439  0.08868  1.0000
  H   H71       1.0  0.15816  0.07284  0.08717  1.0000
  S   S23       1.0  0.08821  0.47359  0.12301  1.0000
  C   C56       1.0  0.47925  0.35392  0.24417  1.0000
  C   C57       1.0  0.45701  0.38591  0.20063  1.0000
  H   H72       1.0  0.99515  0.46637  0.16567  1.0000
  H   H73       1.0  0.44743  0.38833  0.21607  1.0000
  N   N5        1.0  0.46484  0.11349  0.10196  1.0000
  H   H74       1.0  0.09337  0.01163  0.09510  1.0000
  C   C58       1.0  0.14162  0.00442  0.00425  1.0000
  H   H75       1.0  0.45677  0.43613  0.18074  1.0000
  H   H76       1.0  0.10671  0.05188  0.02883  1.0000
  H   H77       1.0  0.42640  0.09772  0.05017  1.0000
  H   H78       1.0  0.98396  0.03511  0.22742  1.0000
  C   C59       1.0  0.19621  0.14563  0.22272  1.0000
  C   C60       1.0  0.06600  0.02186  0.20773  1.0000
  H   H79       1.0  0.21953  0.00816  0.15633  1.0000
  H   H80       1.0  0.20205  0.25339  0.20513  1.0000
  H   H81       1.0  0.27189  0.40954  0.14146  1.0000
  H   H82       1.0  0.41730  0.27834  0.20495  1.0000
  S   S24       1.0  0.08352  0.15268  0.24451  1.0000
  H   H83       1.0  0.46103  0.30906  0.21656  1.0000
  H   H84       1.0  0.29244  0.46692  0.15839  1.0000
  H   H85       1.0  0.07277  0.06171  0.20483  1.0000
  C   C61       1.0  0.44628  0.43043  0.16333  1.0000
  H   H86       1.0  0.30427  0.44632  0.16809  1.0000
  H   H87       1.0  0.18072  0.13783  0.23663  1.0000
  H   H88       1.0  0.41832  0.27370  0.23620  1.0000
  C   C62       1.0  0.41848  0.44414  0.11750  1.0000
  H   H89       1.0  0.23857  0.02535  0.06051  1.0000
  H   H90       1.0  0.03214  0.40198  0.12957  1.0000
  S   S25       1.0  0.07306  0.09236  0.25222  1.0000
  H   H91       1.0  0.07587  0.05525  0.05477  1.0000
  C   C63       1.0  0.10264  0.03316  0.03752  1.0000
  H   H92       1.0  0.33953  0.44386  0.02689  1.0000
  H   H93       1.0  0.29511  0.47973  0.04661  1.0000
  N   N6        1.0  0.20393  0.16377  0.17981  1.0000
  C   C64       1.0  0.22525  0.19083  0.18735  1.0000
  C   C65       1.0  0.18516  0.15211  0.20045  1.0000
  C   C66       1.0  0.19001  0.16722  0.15866  1.0000
  C   C67       1.0  0.21690  0.14797  0.17330  1.0000
  C   C68       1.0  0.24567  0.20756  0.16824  1.0000
  C   C69       1.0  0.43817  0.46782  0.16455  1.0000
  C   C70       1.0  0.16185  0.14489  0.15324  1.0000
  C   C71       1.0  0.19873  0.11847  0.16812  1.0000
  H   H94       1.0  0.21637  0.20266  0.19357  1.0000
  H   H95       1.0  0.23686  0.18988  0.20253  1.0000
  H   H96       1.0  0.16722  0.13352  0.19568  1.0000
  H   H97       1.0  0.17760  0.16542  0.20586  1.0000
  H   H98       1.0  0.18814  0.18514  0.16091  1.0000
  H   H99       1.0  0.20175  0.17052  0.14217  1.0000
  H   H100      1.0  0.22911  0.15611  0.15705  1.0000
  H   H101      1.0  0.23142  0.14987  0.18706  1.0000
  H   H102      1.0  0.25764  0.19873  0.16246  1.0000
  H   H103      1.0  0.23653  0.21147  0.15269  1.0000
  H   H104      1.0  0.25961  0.22702  0.17613  1.0000
  H   H105      1.0  0.31476  0.00288  0.19566  1.0000
  H   H106      1.0  0.14399  0.99681  0.06401  1.0000
  C   C72       1.0  0.11758  0.05617  0.07532  1.0000
  H   H107      1.0  0.16021  0.12536  0.15224  1.0000
  H   H108      1.0  0.15557  0.14864  0.13576  1.0000
  H   H109      1.0  0.14765  0.14452  0.16651  1.0000
  H   H110      1.0  0.19308  0.11501  0.14907  1.0000
  H   H111      1.0  0.18087  0.10922  0.17921  1.0000
  H   H112      1.0  0.18906  0.18817  0.24883  1.0000
  H   H113      1.0  0.15389  0.06348  0.05671  1.0000
  C   C73       1.0  0.09773  0.46559  0.01232  1.0000
  C   C74       1.0  0.46641  0.07097  0.09331  1.0000
  H   H114      1.0  0.22740  0.44525  0.20724  1.0000
  H   H115      1.0  0.04260  0.03730  0.08831  1.0000
  C   C75       1.0  0.09034  0.00807  0.07562  1.0000
  H   H116      1.0  0.98570  0.37466  0.13716  1.0000
  H   H117      1.0  0.12116  0.03259  0.03610  1.0000
  H   H118      1.0  0.29501  0.43889  0.12678  1.0000
  H   H119      1.0  0.38444  0.38587  0.17066  1.0000
  C   C76       1.0  0.48126  0.14286  0.09910  1.0000
  C   C77       1.0  0.27779  0.43049  0.13892  1.0000
  H   H120      1.0  0.39183  0.43115  0.18401  1.0000
  C   C78       1.0  0.45616  0.10624  0.12738  1.0000
  H   H121      1.0  0.09470  0.00379  0.22886  1.0000
  H   H122      1.0  0.42672  0.08244  0.09002  1.0000
  H   H123      1.0  0.21112  0.02555  0.07468  1.0000
  H   H124      1.0  0.27463  0.48006  0.11376  1.0000
  H   H125      1.0  0.45110  0.47485  0.18053  1.0000
  H   H126      1.0  0.23364  0.42788  0.15706  1.0000
  C   C79       1.0  0.24311  0.43977  0.17322  1.0000
  C   C80       1.0  0.05484  0.00335  0.15403  1.0000
  N   N7        1.0  0.45368  0.32815  0.24659  1.0000
  H   H127      1.0  0.06002  0.02254  0.10119  1.0000
  H   H128      1.0  0.38868  0.42496  0.14376  1.0000
  H   H129      1.0  0.29264  0.40835  0.18247  1.0000
  H   H130      1.0  0.31944  0.47389  0.19942  1.0000
  C   C81       1.0  0.25425  0.40704  0.18686  1.0000
  C   C82       1.0  0.23718  0.25499  0.21912  1.0000
  H   H131      1.0  0.40932  0.39073  0.19248  1.0000
  H   H132      1.0  0.23978  0.03101  0.09145  1.0000
  H   H133      1.0  0.08687  0.02981  0.20265  1.0000
  H   H134      1.0  0.45674  0.12763  0.05403  1.0000
  H   H135      1.0  0.43998  0.45711  0.11620  1.0000
  H   H136      1.0  0.38011  0.39037  0.20131  1.0000
  H   H137      1.0  0.44248  0.08477  0.12900  1.0000
  C   C83       1.0  0.04586  0.35750  0.14673  1.0000
  H   H138      1.0  0.43591  0.11195  0.15708  1.0000
  C   C84       1.0  0.22627  0.01957  0.07670  1.0000
  H   H139      1.0  0.06352  0.00886  0.02076  1.0000
  H   H140      1.0  0.40263  0.29131  0.22421  1.0000
  C   C85       1.0  0.02215  0.39884  0.09251  1.0000
  H   H141      1.0  0.01675  0.38527  0.07718  1.0000
  H   H142      1.0  0.00600  0.40300  0.09636  1.0000
  C   C86       1.0  0.03260  0.34612  0.08940  1.0000
  H   H143      1.0  0.05429  0.02125  0.05474  1.0000
  C   C87       1.0  0.41905  0.47869  0.16641  1.0000
  H   H144      1.0  0.99818  0.32067  0.11033  1.0000
  C   C88       1.0  0.05779  0.04167  0.19896  1.0000
  C   C89       1.0  0.23186  0.00043  0.15029  1.0000
  C   C90       1.0  0.98645  0.06785  0.16999  1.0000
  H   H145      1.0  0.42606  0.00700  0.18173  1.0000
  H   H146      1.0  0.42383  0.11548  0.12909  1.0000
  N   N8        1.0  0.04981  0.99370  0.19946  1.0000
  C   C91       1.0  0.36005  0.48373  0.04009  1.0000
  H   H147      1.0  0.46906  0.15239  0.10159  1.0000
  H   H148      1.0  0.41251  0.43065  0.10199  1.0000
  H   H149      1.0  0.04936  0.39151  0.11144  1.0000
  H   H150      1.0  0.03944  0.41783  0.08710  1.0000
  C   C92       1.0  0.21509  0.47183  0.13227  1.0000
  H   H151      1.0  0.30702  0.44197  0.21316  1.0000
  H   H152      1.0  0.42820  0.34402  0.23825  1.0000
  Fe  Fe14      1.0  0.35841  0.48006  0.12971  1.0000
  H   H153      1.0  0.06160  0.37767  0.14239  1.0000
  H   H154      1.0  0.45500  0.14126  0.14046  1.0000
  C   C93       1.0  0.08309  0.01038  0.02168  1.0000
  H   H155      1.0  0.05122  0.35776  0.09921  1.0000
  C   C94       1.0  0.98276  0.38788  0.20409  1.0000
  C   C95       1.0  0.44573  0.10671  0.05943  1.0000
  C   C96       1.0  0.23345  0.46756  0.11973  1.0000
  C   C97       1.0  0.00727  0.34083  0.10270  1.0000
  H   H156      1.0  0.19732  0.99623  0.03892  1.0000
  H   H157      1.0  0.08140  0.99145  0.02723  1.0000
  H   H158      1.0  0.30868  0.46872  0.22944  1.0000
  H   H159      1.0  0.08081  0.99746  0.17602  1.0000
  H   H160      1.0  0.27700  0.47144  0.20224  1.0000
  H   H161      1.0  0.99408  0.10215  0.22079  1.0000
  S   S26       1.0  0.35732  0.29933  0.24280  1.0000
  H   H162      1.0  0.47848  0.46311  0.14316  1.0000
  H   H163      1.0  0.05318  0.99182  0.13782  1.0000
  H   H164      1.0  0.10520  0.00273  0.06997  1.0000
  S   S27       1.0  0.38146  0.36298  0.24571  1.0000
  H   H165      1.0  0.47313  0.11035  0.13902  1.0000
  C   C98       1.0  0.05921  0.98987  0.17562  1.0000
  H   H166      1.0  0.05711  0.47232  0.17662  1.0000
  C   C99       1.0  0.21322  0.98994  0.08234  1.0000
  H   H167      1.0  0.03635  0.00398  0.15465  1.0000
  H   H168      1.0  0.31768  0.48459  0.01294  1.0000
  H   H169      1.0  0.23785  0.99547  0.03647  1.0000
  C   C100      1.0  0.46738  0.44137  0.14375  1.0000
  C   C101      1.0  0.48122  0.10126  0.09501  1.0000
  H   H170      1.0  0.45881  0.43298  0.12615  1.0000
  H   H171      1.0  0.26466  0.45294  0.00396  1.0000
  H   H172      1.0  0.48204  0.43505  0.14751  1.0000
  H   H173      1.0  0.27997  0.98714  0.19518  1.0000
  S   S28       1.0  0.14705  0.48709  0.10372  1.0000
  C   C102      1.0  0.43230  0.33424  0.25327  1.0000
  H   H174      1.0  0.23755  0.20777  0.25353  1.0000
  Fe  Fe15      1.0  0.35971  0.34997  0.46318  1.0000
  N   N9        1.0  0.42943  0.40796  0.40277  1.0000
  H   H175      1.0  0.15511  0.07663  0.31587  1.0000
  Fe  Fe16      1.0  0.33312  0.36555  0.42638  1.0000
  S   S29       1.0  0.30225  0.36191  0.45224  1.0000
  S   S30       1.0  0.33346  0.37626  0.38773  1.0000
  Fe  Fe17      1.0  0.33551  0.38253  0.47880  1.0000
  C   C103      1.0  0.23829  0.27472  0.36836  1.0000
  Fe  Fe18      1.0  0.29955  0.32339  0.46286  1.0000
  S   S31       1.0  0.25775  0.28721  0.45980  1.0000
  S   S32       1.0  0.36616  0.38924  0.45165  1.0000
  S   S33       1.0  0.32925  0.32689  0.43579  1.0000
  Fe  Fe19      1.0  0.35980  0.32848  0.27010  1.0000
  S   S34       1.0  0.37247  0.32701  0.30778  1.0000
  Fe  Fe20      1.0  0.11634  0.07265  0.48026  1.0000
  S   S35       1.0  0.09062  0.07549  0.45201  1.0000
  C   C104      1.0  0.43818  0.44109  0.43743  1.0000
  Fe  Fe21      1.0  0.16264  0.12933  0.46692  1.0000
  S   S36       1.0  0.13919  0.13483  0.43840  1.0000
  S   S37       1.0  0.20448  0.16257  0.47577  1.0000
  Fe  Fe22      1.0  0.10587  0.11678  0.46436  1.0000
  H   H176      1.0  0.19853  0.10559  0.31719  1.0000
  Fe  Fe23      1.0  0.12616  0.09315  0.42839  1.0000
  S   S38       1.0  0.12172  0.07995  0.38990  1.0000
  C   C105      1.0  0.25748  0.24163  0.47521  1.0000
  S   S39       1.0  0.15162  0.08787  0.45552  1.0000
  Fe  Fe24      1.0  0.09150  0.13019  0.27285  1.0000
  S   S40       1.0  0.08660  0.13485  0.31224  1.0000
  C   C106      1.0  0.11196  0.09537  0.36849  1.0000
  C   C107      1.0  0.10298  0.08344  0.34620  1.0000
  C   C108      1.0  0.09554  0.09554  0.32862  1.0000
  C   C109      1.0  0.09738  0.11984  0.33313  1.0000
  C   C110      1.0  0.10674  0.13193  0.35527  1.0000
  C   C111      1.0  0.11377  0.11967  0.37296  1.0000
  H   H177      1.0  0.10149  0.06463  0.34263  1.0000
  H   H178      1.0  0.08809  0.08594  0.31169  1.0000
  H   H179      1.0  0.10852  0.15088  0.35874  1.0000
  H   H180      1.0  0.12096  0.12922  0.38989  1.0000
  H   H181      1.0  0.27666  0.25444  0.48285  1.0000
  H   H182      1.0  0.20854  0.28107  0.38625  1.0000
  H   H183      1.0  0.22822  0.27657  0.35235  1.0000
  H   H184      1.0  0.45084  0.41120  0.37020  1.0000
  C   C112      1.0  0.24462  0.25250  0.46260  1.0000
  H   H185      1.0  0.30296  0.30940  0.35159  1.0000
  H   H186      1.0  0.22969  0.27672  0.40684  1.0000
  C   C113      1.0  0.21989  0.19700  0.46944  1.0000
  C   C114      1.0  0.20739  0.20781  0.45618  1.0000
  C   C115      1.0  0.21958  0.23533  0.45297  1.0000
  H   H187      1.0  0.15084  0.15608  0.30974  1.0000
  H   H188      1.0  0.41576  0.43626  0.39808  1.0000
  H   H189      1.0  0.18812  0.19499  0.44877  1.0000
  H   H190      1.0  0.20933  0.24341  0.44324  1.0000
  C   C116      1.0  0.47527  0.30176  0.26246  1.0000
  H   H191      1.0  0.43030  0.44699  0.49985  1.0000
  H   H192      1.0  0.16154  0.11763  0.27933  1.0000
  C   C117      1.0  0.34344  0.36152  0.36577  1.0000
  C   C118      1.0  0.34132  0.36647  0.34173  1.0000
  C   C119      1.0  0.34971  0.35558  0.32382  1.0000
  C   C120      1.0  0.36061  0.33989  0.32985  1.0000
  C   C121      1.0  0.36257  0.33478  0.35389  1.0000
  C   C122      1.0  0.35383  0.34538  0.37178  1.0000
  H   H193      1.0  0.33337  0.37899  0.33690  1.0000
  H   H194      1.0  0.34824  0.35979  0.30536  1.0000
  H   H195      1.0  0.37088  0.32258  0.35868  1.0000
  H   H196      1.0  0.35549  0.34132  0.39019  1.0000
  H   H197      1.0  0.04586  0.07959  0.49547  1.0000
  H   H198      1.0  0.43605  0.29462  0.27073  1.0000
  H   H199      1.0  0.12589  0.07140  0.30133  1.0000
  C   C123      1.0  0.40799  0.03370  0.50312  1.0000
  H   H200      1.0  0.43084  0.16717  0.48449  1.0000
  C   C124      1.0  0.17178  0.16929  0.31433  1.0000
  C   C125      1.0  0.45873  0.00262  0.50220  1.0000
  H   H201      1.0  0.23804  0.25584  0.36534  1.0000
  H   H202      1.0  0.14489  0.19306  0.45939  1.0000
  H   H203      1.0  0.28623  0.29593  0.31120  1.0000
  H   H204      1.0  0.02199  0.13356  0.40647  1.0000
  H   H205      1.0  0.41091  0.37178  0.38203  1.0000
  C   C126      1.0  0.41002  0.41573  0.39356  1.0000
  C   C127      1.0  0.99018  0.06003  0.40709  1.0000
  H   H206      1.0  0.45387  0.41506  0.43405  1.0000
  H   H207      1.0  0.25310  0.28494  0.31998  1.0000
  C   C128      1.0  0.28159  0.29503  0.34955  1.0000
  C   C129      1.0  0.04934  0.09360  0.40838  1.0000
  H   H208      1.0  0.43787  0.34169  0.29196  1.0000
  H   H209      1.0  0.24239  0.32143  0.39837  1.0000
  H   H210      1.0  0.41866  0.43987  0.43835  1.0000
  H   H211      1.0  0.28907  0.27364  0.41570  1.0000
  C   C130      1.0  0.45441  0.41986  0.38839  1.0000
  C   C131      1.0  0.40573  0.41378  0.36639  1.0000
  H   H212      1.0  0.45592  0.37106  0.27392  1.0000
  H   H213      1.0  0.25965  0.35267  0.38415  1.0000
  C   C132      1.0  0.43544  0.41486  0.42882  1.0000
  H   H214      1.0  0.30053  0.31377  0.39211  1.0000
  C   C133      1.0  0.05004  0.07129  0.39438  1.0000
  H   H215      1.0  0.40849  0.04619  0.48878  1.0000
  H   H216      1.0  0.45171  0.45810  0.42649  1.0000
  H   H217      1.0  0.05703  0.07679  0.37592  1.0000
  C   C134      1.0  0.04793  0.12012  0.37607  1.0000
  H   H218      1.0  0.22102  0.13962  0.31933  1.0000
  H   H219      1.0  0.25975  0.25463  0.39916  1.0000
  H   H220      1.0  0.00757  0.07418  0.37262  1.0000
  H   H221      1.0  0.20947  0.13659  0.35840  1.0000
  C   C135      1.0  0.07300  0.14176  0.49415  1.0000
  H   H222      1.0  0.29187  0.26799  0.38503  1.0000
  H   H223      1.0  0.27797  0.31953  0.32155  1.0000
  H   H224      1.0  0.37698  0.12109  0.48561  1.0000
  N   N10       1.0  0.26604  0.29752  0.36984  1.0000
  H   H225      1.0  0.07013  0.10968  0.41078  1.0000
  H   H226      1.0  0.15274  0.07541  0.28390  1.0000
  H   H227      1.0  0.02182  0.09959  0.44797  1.0000
  C   C136      1.0  0.03123  0.12303  0.41484  1.0000
  H   H228      1.0  0.04556  0.15344  0.48173  1.0000
  H   H229      1.0  0.25235  0.32191  0.35319  1.0000
  H   H230      1.0  0.39069  0.45126  0.48170  1.0000
  H   H231      1.0  0.41047  0.41455  0.48827  1.0000
  H   H232      1.0  0.20547  0.24938  0.39142  1.0000
  H   H233      1.0  0.01759  0.12743  0.44938  1.0000
  H   H234      1.0  0.39991  0.39414  0.35911  1.0000
  C   C137      1.0  0.27390  0.29912  0.32432  1.0000
  C   C138      1.0  0.27991  0.27178  0.39799  1.0000
  C   C139      1.0  0.21167  0.12578  0.28356  1.0000
  H   H235      1.0  0.25511  0.20609  0.48890  1.0000
  H   H236      1.0  0.28624  0.33892  0.36074  1.0000
  H   H237      1.0  0.46185  0.32305  0.28300  1.0000
  C   C140      1.0  0.26655  0.32340  0.36709  1.0000
  H   H238      1.0  0.98785  0.31612  0.48373  1.0000
  H   H239      1.0  0.45691  0.16057  0.49022  1.0000
  H   H240      1.0  0.06796  0.13596  0.38133  1.0000
  H   H241      1.0  0.41342  0.31592  0.25695  1.0000
  H   H242      1.0  0.20354  0.16378  0.35371  1.0000
  C   C141      1.0  0.24514  0.21413  0.47867  1.0000
  C   C142      1.0  0.45562  0.31167  0.26614  1.0000
  S   S41       1.0  0.39704  0.34830  0.46369  1.0000
  C   C143      1.0  0.99025  0.31472  0.50308  1.0000
  C   C144      1.0  0.39742  0.00645  0.49886  1.0000
  H   H243      1.0  0.39047  0.40367  0.40220  1.0000
  H   H244      1.0  0.19157  0.16061  0.28683  1.0000
  C   C145      1.0  0.01511  0.11114  0.43763  1.0000
  H   H245      1.0  0.45674  0.45883  0.38541  1.0000
  H   H246      1.0  0.22861  0.12224  0.28306  1.0000
  H   H247      1.0  0.13578  0.17496  0.48651  1.0000
  H   H248      1.0  0.27128  0.30163  0.40837  1.0000
  H   H249      1.0  0.42341  0.42871  0.35680  1.0000
  H   H250      1.0  0.46867  0.41466  0.39618  1.0000
  C   C146      1.0  0.27974  0.29745  0.39249  1.0000
  H   H251      1.0  0.41986  0.39952  0.44026  1.0000
  H   H252      1.0  0.27748  0.34226  0.40230  1.0000
  H   H253      1.0  0.48052  0.45563  0.36902  1.0000
  C   C147      1.0  0.14773  0.08248  0.30032  1.0000
  H   H254      1.0  0.28003  0.27535  0.34945  1.0000
  H   H255      1.0  0.17812  0.18828  0.30516  1.0000
  S   S42       1.0  0.12986  0.11380  0.49391  1.0000
  C   C148      1.0  0.03536  0.13346  0.36166  1.0000
  C   C149      1.0  0.26099  0.33514  0.38941  1.0000
  H   H256      1.0  0.15917  0.23529  0.48230  1.0000
  N   N11       1.0  0.18073  0.13023  0.31350  1.0000
  H   H257      1.0  0.44921  0.37037  0.39738  1.0000
  C   C150      1.0  0.41628  0.37840  0.40070  1.0000
  S   S43       1.0  0.07760  0.13219  0.46584  1.0000
  C   C151      1.0  0.21975  0.27069  0.38941  1.0000
  N   N12       1.0  0.03294  0.10427  0.39756  1.0000
  C   C152      1.0  0.46961  0.45006  0.38612  1.0000
  H   H258      1.0  0.99299  0.48530  0.30844  1.0000
  H   H259      1.0  0.03555  0.14997  0.37140  1.0000
  H   H260      1.0  0.05139  0.13847  0.42037  1.0000
  C   C153      1.0  0.43763  0.35179  0.27541  1.0000
  C   C154      1.0  0.19420  0.14246  0.35739  1.0000
  H   H261      1.0  0.39739  0.36885  0.41082  1.0000
  C   C155      1.0  0.43251  0.36584  0.40943  1.0000
  H   H262      1.0  0.45050  0.37167  0.47931  1.0000
  C   C156      1.0  0.42415  0.42608  0.50285  1.0000
  H   H263      1.0  0.20980  0.17195  0.31344  1.0000
  C   C157      1.0  0.15731  0.11225  0.29842  1.0000
  H   H264      1.0  0.06404  0.06644  0.40321  1.0000
  H   H265      1.0  0.14027  0.11489  0.30264  1.0000
  H   H266      1.0  0.04315  0.08623  0.42666  1.0000
  H   H267      1.0  0.38950  0.41775  0.36216  1.0000
  H   H268      1.0  0.33855  0.12110  0.49384  1.0000
  C   C158      1.0  0.00605  0.08307  0.38966  1.0000
  H   H269      1.0  0.35624  0.07912  0.50205  1.0000
  H   H270      1.0  0.11283  0.00387  0.48866  1.0000
  H   H271      1.0  0.04740  0.14224  0.34542  1.0000
  H   H272      1.0  0.47852  0.04510  0.46501  1.0000
  H   H273      1.0  0.05095  0.10770  0.36299  1.0000
  H   H274      1.0  0.19590  0.11022  0.27256  1.0000
  H   H275      1.0  0.41962  0.34412  0.40946  1.0000
  H   H276      1.0  0.01198  0.08929  0.48832  1.0000
  H   H277      1.0  0.03068  0.05303  0.39416  1.0000
  C   C159      1.0  0.20313  0.12493  0.30963  1.0000
  S   S44       1.0  0.33027  0.34362  0.49180  1.0000
  H   H278      1.0  0.43974  0.37154  0.42787  1.0000
  H   H279      1.0  0.17877  0.22071  0.48551  1.0000
  C   C160      1.0  0.17261  0.12556  0.33923  1.0000
  H   H280      1.0  0.18509  0.13906  0.37532  1.0000
  H   H281      1.0  0.16527  0.10479  0.34445  1.0000
  H   H282      1.0  0.15565  0.12864  0.34237  1.0000
  C   C161      1.0  0.18972  0.15830  0.30649  1.0000
  H   H283      1.0  0.44624  0.44509  0.45575  1.0000
  C   C162      1.0  0.05551  0.15126  0.49698  1.0000
  H   H284      1.0  0.21837  0.14526  0.27534  1.0000
  H   H285      1.0  0.99377  0.09933  0.43384  1.0000
  H   H286      1.0  0.17328  0.17330  0.33369  1.0000
  H   H287      1.0  0.01521  0.11935  0.35545  1.0000
  H   H288      1.0  0.38995  0.99833  0.48146  1.0000
  C   C163      1.0  0.13856  0.19316  0.47797  1.0000
  H   H289      1.0  0.04350  0.04850  0.49048  1.0000
  H   H290      1.0  0.46928  0.28416  0.27377  1.0000
  S   S45       1.0  0.31970  0.32228  0.26217  1.0000
  H   H291      1.0  0.99343  0.09179  0.38550  1.0000
  C   C164      1.0  0.41061  0.35330  0.49217  1.0000
  H   H292      1.0  0.00061  0.06068  0.42364  1.0000
  H   H293      1.0  0.11939  0.19260  0.47686  1.0000
  C   C165      1.0  0.09828  0.99335  0.50226  1.0000
  H   H294      1.0  0.38954  0.15362  0.49476  1.0000
  C   C166      1.0  0.15954  0.21825  0.49063  1.0000
  H   H295      1.0  0.44844  0.01093  0.49198  1.0000
  C   C167      1.0  0.43795  0.36569  0.49482  1.0000
  H   H296      1.0  0.42123  0.35602  0.27737  1.0000
  C   C168      1.0  0.43988  0.16096  0.49848  1.0000
  H   H297      1.0  0.98448  0.04100  0.39822  1.0000
  H   H298      1.0  0.41561  0.11955  0.49286  1.0000
  C   C169      1.0  0.38848  0.46117  0.49697  1.0000
  H   H299      1.0  0.21138  0.25362  0.50322  1.0000
  S   S46       1.0  0.13252  0.14334  0.26056  1.0000
  H   H300      1.0  0.47796  0.07496  0.46844  1.0000
  H   H301      1.0  0.44137  0.42310  0.50131  1.0000
  H   H302      1.0  0.04200  0.98913  0.45961  1.0000
  H   H303      1.0  0.38722  0.07916  0.50318  1.0000
  C   C170      1.0  0.37938  0.13316  0.50170  1.0000
  Fe  Fe25      1.0  0.02711  0.36035  0.56577  1.0000
  S   S47       1.0  0.99994  0.35616  0.59543  1.0000
  S   S48       1.0  0.03378  0.32592  0.55646  1.0000
  Fe  Fe26      1.0  0.04274  0.41960  0.55618  1.0000
  S   S49       1.0  0.01670  0.41838  0.58627  1.0000
  S   S50       1.0  0.05658  0.45409  0.52920  1.0000
  Fe  Fe27      1.0  0.03180  0.39591  0.60701  1.0000
  S   S51       1.0  0.04341  0.40238  0.64593  1.0000
  H   H304      1.0  0.04792  0.26723  0.61175  1.0000
  H   H305      1.0  0.98564  0.10201  0.72650  1.0000
  S   S52       1.0  0.06042  0.39973  0.57825  1.0000
  S   S53       1.0  0.01203  0.38018  0.54120  1.0000
  S   S54       1.0  0.04251  0.12395  0.72508  1.0000
  Fe  Fe28      1.0  0.45378  0.11099  0.55880  1.0000
  H   H306      1.0  0.42327  0.15441  0.54757  1.0000
  S   S55       1.0  0.43135  0.07971  0.52965  1.0000
  H   H307      1.0  0.19500  0.20460  0.51022  1.0000
  S   S56       1.0  0.00142  0.16971  0.59989  1.0000
  H   H308      1.0  0.39375  0.16410  0.57098  1.0000
  Fe  Fe29      1.0  0.01408  0.15031  0.57266  1.0000
  S   S57       1.0  0.05667  0.16202  0.56800  1.0000
  H   H309      1.0  0.99386  0.29832  0.50734  1.0000
  S   S58       1.0  0.45617  0.12090  0.64868  1.0000
  C   C171      1.0  0.44955  0.16122  0.72310  1.0000
  S   S59       1.0  0.43838  0.13027  0.58411  1.0000
  S   S60       1.0  0.45175  0.36019  0.72106  1.0000
  C   C172      1.0  0.06334  0.15504  0.53949  1.0000
  N   N13       1.0  0.39609  0.12993  0.52024  1.0000
  H   H310      1.0  0.36557  0.09964  0.54259  1.0000
  C   C173      1.0  0.05054  0.15773  0.51965  1.0000
  H   H311      1.0  0.13580  0.23803  0.55569  1.0000
  H   H312      1.0  0.42983  0.15255  0.73155  1.0000
  C   C174      1.0  0.01912  0.11998  0.70316  1.0000
  H   H313      1.0  0.37307  0.39495  0.58923  1.0000
  H   H314      1.0  0.41997  0.42312  0.58682  1.0000
  H   H315      1.0  0.06605  0.31047  0.62647  1.0000
  C   C175      1.0  0.00947  0.12738  0.66250  1.0000
  C   C176      1.0  0.02747  0.12865  0.67983  1.0000
  H   H316      1.0  0.45112  0.99840  0.52064  1.0000
  H   H317      1.0  0.45162  0.11043  0.69860  1.0000
  H   H318      1.0  0.01617  0.13447  0.64469  1.0000
  H   H319      1.0  0.04801  0.13683  0.67525  1.0000
  C   C177      1.0  0.40973  0.41575  0.52673  1.0000
  C   C178      1.0  0.41715  0.02828  0.54382  1.0000
  C   C179      1.0  0.41795  0.04492  0.52561  1.0000
  H   H320      1.0  0.07908  0.37877  0.63667  1.0000
  H   H321      1.0  0.39606  0.10080  0.54383  1.0000
  H   H322      1.0  0.42459  0.03636  0.56124  1.0000
  H   H323      1.0  0.44922  0.30902  0.65984  1.0000
  C   C180      1.0  0.01378  0.29116  0.56032  1.0000
  C   C181      1.0  0.35191  0.12780  0.50947  1.0000
  H   H324      1.0  0.37330  0.33566  0.51025  1.0000
  C   C182      1.0  0.07317  0.35759  0.63731  1.0000
  C   C183      1.0  0.00985  0.24742  0.55911  1.0000
  C   C184      1.0  0.02482  0.27499  0.55615  1.0000
  H   H325      1.0  0.47142  0.03674  0.54144  1.0000
  H   H326      1.0  0.03556  0.19945  0.69777  1.0000
  H   H327      1.0  0.01864  0.23532  0.55567  1.0000
  H   H328      1.0  0.04514  0.28384  0.55056  1.0000
  H   H329      1.0  0.40936  0.17020  0.53118  1.0000
  C   C185      1.0  0.08655  0.00589  0.51415  1.0000
  C   C186      1.0  0.98810  0.22432  0.72332  1.0000
  H   H330      1.0  0.35291  0.14594  0.51661  1.0000
  H   H331      1.0  0.03492  0.17221  0.74437  1.0000
  H   H332      1.0  0.42418  0.48602  0.57215  1.0000
  H   H333      1.0  0.01415  0.36837  0.72663  1.0000
  C   C187      1.0  0.02366  0.18499  0.71174  1.0000
  C   C188      1.0  0.44916  0.37084  0.51756  1.0000
  C   C189      1.0  0.43301  0.36311  0.53765  1.0000
  S   S61       1.0  0.98783  0.15060  0.54381  1.0000
  H   H334      1.0  0.99174  0.23653  0.70718  1.0000
  C   C190      1.0  0.01915  0.38429  0.66763  1.0000
  C   C191      1.0  0.02683  0.38366  0.69116  1.0000
  H   H335      1.0  0.48209  0.23746  0.70195  1.0000
  H   H336      1.0  0.01870  0.28490  0.66595  1.0000
  H   H337      1.0  0.01774  0.16543  0.70394  1.0000
  C   C192      1.0  0.45735  0.30172  0.64582  1.0000
  H   H338      1.0  0.04746  0.39464  0.69588  1.0000
  C   C193      1.0  0.08149  0.14638  0.53659  1.0000
  C   C194      1.0  0.47237  0.12231  0.69456  1.0000
  Fe  Fe30      1.0  0.46814  0.13143  0.61025  1.0000
  C   C195      1.0  0.47074  0.19644  0.67042  1.0000
  C   C196      1.0  0.04356  0.34105  0.63151  1.0000
  H   H339      1.0  0.13249  0.00559  0.58713  1.0000
  C   C197      1.0  0.04299  0.06160  0.50449  1.0000
  H   H340      1.0  0.06130  0.19108  0.72473  1.0000
  C   C198      1.0  0.17746  0.24522  0.52665  1.0000
  C   C199      1.0  0.40634  0.00099  0.53962  1.0000
  C   C200      1.0  0.03232  0.06921  0.55605  1.0000
  H   H341      1.0  0.07801  0.35357  0.65525  1.0000
  C   C201      1.0  0.38100  0.40668  0.57274  1.0000
  C   C202      1.0  0.98746  0.27929  0.56753  1.0000
  H   H342      1.0  0.99269  0.09954  0.50415  1.0000
  C   C203      1.0  0.39444  0.34557  0.51223  1.0000
  H   H343      1.0  0.16202  0.20108  0.54899  1.0000
  H   H344      1.0  0.48129  0.29549  0.55856  1.0000
  C   C204      1.0  0.40466  0.15096  0.53913  1.0000
  C   C205      1.0  0.42355  0.45639  0.54859  1.0000
  H   H345      1.0  0.17577  0.24623  0.54625  1.0000
  H   H346      1.0  0.45341  0.24680  0.55726  1.0000
  H   H347      1.0  0.04902  0.33771  0.68864  1.0000
  C   C206      1.0  0.36594  0.44804  0.51116  1.0000
  N   N14       1.0  0.03099  0.31199  0.63639  1.0000
  C   C207      1.0  0.98407  0.30539  0.64215  1.0000
  C   C208      1.0  0.03319  0.30584  0.66205  1.0000
  H   H348      1.0  0.11404  0.19709  0.51555  1.0000
  H   H349      1.0  0.04564  0.30779  0.60216  1.0000
  N   N15       1.0  0.01192  0.06227  0.53687  1.0000
  H   H350      1.0  0.99079  0.32663  0.64196  1.0000
  H   H351      1.0  0.21916  0.27364  0.52884  1.0000
  H   H352      1.0  0.03287  0.05148  0.56223  1.0000
  H   H353      1.0  0.45010  0.18301  0.67585  1.0000
  C   C209      1.0  0.42060  0.13323  0.50816  1.0000
  H   H354      1.0  0.46562  0.05261  0.50634  1.0000
  C   C210      1.0  0.00265  0.29865  0.62844  1.0000
  H   H355      1.0  0.40499  0.39498  0.52807  1.0000
  C   C211      1.0  0.01648  0.04685  0.51784  1.0000
  S   S62       1.0  0.09396  0.03881  0.50744  1.0000
  H   H356      1.0  0.01518  0.26126  0.61089  1.0000
  C   C212      1.0  0.15806  0.19670  0.52969  1.0000
  H   H357      1.0  0.99324  0.27694  0.62970  1.0000
  C   C213      1.0  0.37156  0.07955  0.51389  1.0000
  H   H358      1.0  0.03107  0.26350  0.63921  1.0000
  C   C214      1.0  0.99249  0.10937  0.70883  1.0000
  S   S63       1.0  0.48112  0.10947  0.58597  1.0000
  C   C215      1.0  0.38245  0.10293  0.53136  1.0000
  H   H359      1.0  0.47359  0.21630  0.66715  1.0000
  H   H360      1.0  0.39310  0.34426  0.55050  1.0000
  C   C216      1.0  0.43441  0.47442  0.57050  1.0000
  C   C217      1.0  0.12361  0.21800  0.54827  1.0000
  N   N16       1.0  0.42413  0.43100  0.54871  1.0000
  H   H361      1.0  0.04133  0.34452  0.61239  1.0000
  Fe  Fe31      1.0  0.98731  0.37879  0.57215  1.0000
  H   H362      1.0  0.09143  0.14429  0.55194  1.0000
  H   H363      1.0  0.36218  0.06096  0.52425  1.0000
  H   H364      1.0  0.36854  0.39421  0.55791  1.0000
  H   H365      1.0  0.46398  0.45236  0.53499  1.0000
  H   H366      1.0  0.08526  0.35465  0.62380  1.0000
  H   H367      1.0  0.04481  0.08630  0.59123  1.0000
  H   H368      1.0  0.40568  0.98843  0.55398  1.0000
  H   H369      1.0  0.00048  0.03924  0.50434  1.0000
  N   N17       1.0  0.15677  0.21881  0.51723  1.0000
  H   H370      1.0  0.46019  0.42490  0.58255  1.0000
  C   C218      1.0  0.04296  0.18935  0.73223  1.0000
  H   H371      1.0  0.45031  0.36431  0.67037  1.0000
  H   H372      1.0  0.37878  0.42430  0.57454  1.0000
  H   H373      1.0  0.18678  0.18386  0.53537  1.0000
  H   H374      1.0  0.02553  0.22883  0.71404  1.0000
  H   H375      1.0  0.99523  0.45139  0.56526  1.0000
  H   H376      1.0  0.48183  0.27316  0.62804  1.0000
  C   C219      1.0  0.45204  0.43611  0.54761  1.0000
  C   C220      1.0  0.46753  0.44262  0.57114  1.0000
  H   H377      1.0  0.06001  0.06658  0.51629  1.0000
  H   H378      1.0  0.04846  0.20749  0.74250  1.0000
  C   C221      1.0  0.99424  0.19309  0.67332  1.0000
  H   H379      1.0  0.05295  0.30806  0.66537  1.0000
  C   C222      1.0  0.02951  0.08335  0.57799  1.0000
  S   S64       1.0  0.98614  0.10905  0.58443  1.0000
  C   C223      1.0  0.98593  0.16834  0.73828  1.0000
  H   H380      1.0  0.17450  0.26113  0.51909  1.0000
  H   H381      1.0  0.43053  0.46375  0.58749  1.0000
  C   C224      1.0  0.38573  0.14592  0.56005  1.0000
  H   H382      1.0  0.34613  0.45182  0.54191  1.0000
  C   C225      1.0  0.17823  0.18917  0.52019  1.0000
  C   C226      1.0  0.02969  0.32289  0.68118  1.0000
  H   H383      1.0  0.03541  0.10129  0.52320  1.0000
  Fe  Fe32      1.0  0.47136  0.17004  0.57224  1.0000
  C   C227      1.0  0.39638  0.98974  0.51713  1.0000
  C   C228      1.0  0.04509  0.30175  0.62101  1.0000
  H   H384      1.0  0.47353  0.18888  0.65317  1.0000
  C   C229      1.0  0.01450  0.08730  0.52703  1.0000
  H   H385      1.0  0.38460  0.13032  0.57197  1.0000
  H   H386      1.0  0.36579  0.14105  0.55437  1.0000
  H   H387      1.0  0.44875  0.19662  0.71449  1.0000
  C   C230      1.0  0.47077  0.37462  0.67572  1.0000
  H   H388      1.0  0.09789  0.99520  0.58927  1.0000
  H   H389      1.0  0.03363  0.35008  0.64108  1.0000
  H   H390      1.0  0.99109  0.02625  0.57716  1.0000
  C   C231      1.0  0.20648  0.25324  0.52227  1.0000
  H   H391      1.0  0.01840  0.31022  0.69639  1.0000
  S   S65       1.0  0.46401  0.20422  0.56369  1.0000
  C   C232      1.0  0.98441  0.04583  0.54649  1.0000
  C   C233      1.0  0.03386  0.27169  0.62104  1.0000
  C   C234      1.0  0.00799  0.36875  0.70859  1.0000
  S   S66       1.0  0.44662  0.37086  0.56620  1.0000
  H   H392      1.0  0.03301  0.10320  0.57337  1.0000
  H   H393      1.0  0.12509  0.20332  0.55956  1.0000
  C   C235      1.0  0.41006  0.41400  0.56985  1.0000
  H   H394      1.0  0.05833  0.00092  0.54114  1.0000
  H   H395      1.0  0.00835  0.09719  0.54039  1.0000
  H   H396      1.0  0.05241  0.08263  0.54904  1.0000
  C   C236      1.0  0.13021  0.21628  0.52201  1.0000
  H   H397      1.0  0.40333  0.45277  0.54542  1.0000
  H   H398      1.0  0.01608  0.21857  0.74380  1.0000
  C   C237      1.0  0.36344  0.46161  0.53079  1.0000
  H   H399      1.0  0.47028  0.38110  0.51951  1.0000
  C   C238      1.0  0.08611  0.13952  0.51398  1.0000
  H   H400      1.0  0.45234  0.41851  0.54054  1.0000
  H   H401      1.0  0.43212  0.12812  0.52061  1.0000
  H   H402      1.0  0.16829  0.17117  0.50908  1.0000
  H   H403      1.0  0.46104  0.47448  0.73423  1.0000
  H   H404      1.0  0.01897  0.33292  0.67541  1.0000
  C   C239      1.0  0.98293  0.11718  0.66837  1.0000
  H   H405      1.0  0.03705  0.16508  0.52170  1.0000
  H   H406      1.0  0.44807  0.17600  0.51276  1.0000
  H   H407      1.0  0.43482  0.46874  0.53322  1.0000
  H   H408      1.0  0.01585  0.02910  0.52554  1.0000
  H   H409      1.0  0.13857  0.17838  0.52865  1.0000
  C   C240      1.0  0.48037  0.12969  0.67096  1.0000
  H   H410      1.0  0.41064  0.39529  0.56897  1.0000
  C   C241      1.0  0.40564  0.35029  0.53498  1.0000
  C   C242      1.0  0.11595  0.00071  0.59956  1.0000
  H   H411      1.0  0.10285  0.21356  0.54941  1.0000
  H   H412      1.0  0.00166  0.30325  0.60947  1.0000
  C   C243      1.0  0.99898  0.08452  0.50400  1.0000
  C   C244      1.0  0.98341  0.23552  0.56600  1.0000
  N   N18       1.0  0.99963  0.18700  0.71801  1.0000
  H   H413      1.0  0.99082  0.23746  0.73861  1.0000
  H   H414      1.0  0.00850  0.33298  0.50829  1.0000
  H   H415      1.0  0.00440  0.21466  0.67583  1.0000
  H   H416      1.0  0.12804  0.23152  0.51206  1.0000
  C   C245      1.0  0.47407  0.25556  0.56163  1.0000
  C   C246      1.0  0.99242  0.37014  0.66175  1.0000
  H   H417      1.0  0.44649  0.30029  0.62918  1.0000
  H   H418      1.0  0.47607  0.30570  0.68861  1.0000
  H   H419      1.0  0.21228  0.24082  0.53254  1.0000
  C   C247      1.0  0.06766  0.99161  0.53181  1.0000
  H   H420      1.0  0.46750  0.45864  0.58131  1.0000
  H   H421      1.0  0.01019  0.07195  0.58691  1.0000
  H   H422      1.0  0.45335  0.28173  0.65052  1.0000
  C   C248      1.0  0.47724  0.37607  0.69992  1.0000
  H   H423      1.0  0.09950  0.13217  0.51208  1.0000
  C   C249      1.0  0.00854  0.21500  0.72521  1.0000
  H   H424      1.0  0.39036  0.41482  0.52482  1.0000
  H   H425      1.0  0.46088  0.15420  0.73346  1.0000
  H   H426      1.0  0.44637  0.15313  0.70485  1.0000
  H   H427      1.0  0.00806  0.18724  0.66568  1.0000
  H   H428      1.0  0.34220  0.11177  0.52256  1.0000
  H   H429      1.0  0.98620  0.37072  0.64378  1.0000
  H   H430      1.0  0.46262  0.19689  0.74249  1.0000
  C   C250      1.0  0.46249  0.19147  0.72351  1.0000
  H   H431      1.0  0.12113  0.01947  0.60869  1.0000
  S   S67       1.0  0.34099  0.41452  0.50594  1.0000
  Fe  Fe33      1.0  0.34164  0.45066  0.88577  1.0000
  H   H432      1.0  0.45841  0.45804  0.83895  1.0000
  S   S68       1.0  0.34903  0.42581  0.85810  1.0000
  C   C251      1.0  0.16930  0.45842  0.84579  1.0000
  H   H433      1.0  0.12020  0.38522  0.82132  1.0000
  S   S69       1.0  0.26001  0.46241  0.90844  1.0000
  H   H434      1.0  0.38953  0.47199  0.81128  1.0000
  S   S70       1.0  0.41305  0.04259  0.90670  1.0000
  Fe  Fe34      1.0  0.33915  0.46168  0.93879  1.0000
  S   S71       1.0  0.34044  0.44737  0.97580  1.0000
  H   H435      1.0  0.14714  0.41670  0.81422  1.0000
  S   S72       1.0  0.30860  0.43435  0.91280  1.0000
  C   C252      1.0  0.05549  0.32319  0.82504  1.0000
  S   S73       1.0  0.00957  0.12113  0.82873  1.0000
  S   S74       1.0  0.44098  0.09742  0.80641  1.0000
  H   H436      1.0  0.03485  0.29246  0.91185  1.0000
  S   S75       1.0  0.05771  0.14951  0.79150  1.0000
  Fe  Fe35      1.0  0.04283  0.11461  0.81656  1.0000
  S   S76       1.0  0.06010  0.10159  0.84750  1.0000
  Fe  Fe36      1.0  0.02223  0.15332  0.80118  1.0000
  S   S77       1.0  0.02940  0.19577  0.80144  1.0000
  S   S78       1.0  0.01916  0.08607  0.78769  1.0000
  H   H437      1.0  0.04160  0.46130  0.83154  1.0000
  Fe  Fe37      1.0  0.18858  0.01422  0.90658  1.0000
  H   H438      1.0  0.00737  0.30061  0.85281  1.0000
  S   S79       1.0  0.23077  0.02061  0.90423  1.0000
  Fe  Fe38      1.0  0.14623  0.03025  0.89208  1.0000
  H   H439      1.0  0.18020  0.43920  0.89165  1.0000
  S   S80       1.0  0.13442  0.05044  0.86298  1.0000
  Fe  Fe39      1.0  0.15306  0.01876  0.94417  1.0000
  S   S81       1.0  0.15443  0.02984  0.98296  1.0000
  H   H440      1.0  0.21567  0.46310  0.92942  1.0000
  S   S82       1.0  0.07186  0.43723  0.90409  1.0000
  S   S83       1.0  0.18123  0.04735  0.91718  1.0000
  C   C253      1.0  0.99912  0.44396  0.83941  1.0000
  C   C254      1.0  0.03301  0.48255  0.87865  1.0000
  S   S84       1.0  0.43096  0.33540  0.78738  1.0000
  C   C255      1.0  0.47972  0.04913  0.82586  1.0000
  H   H441      1.0  0.31243  0.35907  0.88756  1.0000
  S   S85       1.0  0.05360  0.38014  0.80542  1.0000
  Fe  Fe40      1.0  0.46150  0.32491  0.79980  1.0000
  S   S86       1.0  0.45394  0.28390  0.81066  1.0000
  Fe  Fe41      1.0  0.45051  0.37155  0.81107  1.0000
  S   S87       1.0  0.43678  0.39217  0.83835  1.0000
  H   H442      1.0  0.20674  0.42356  0.87139  1.0000
  C   C256      1.0  0.01357  0.03767  0.89423  1.0000
  C   C257      1.0  0.06683  0.42166  0.87649  1.0000
  C   C258      1.0  0.07803  0.43611  0.85581  1.0000
  C   C259      1.0  0.07386  0.42327  0.83395  1.0000
  C   C260      1.0  0.05800  0.39598  0.83266  1.0000
  C   C261      1.0  0.04625  0.38149  0.85321  1.0000
  C   C262      1.0  0.05087  0.39432  0.87516  1.0000
  H   H443      1.0  0.08965  0.45717  0.85651  1.0000
  H   H444      1.0  0.08268  0.43450  0.81798  1.0000
  H   H445      1.0  0.03391  0.36040  0.85222  1.0000
  H   H446      1.0  0.04195  0.38310  0.89111  1.0000
  S   S88       1.0  0.33215  0.48232  0.87491  1.0000
  H   H447      1.0  0.08690  0.99549  0.86647  1.0000
  H   H448      1.0  0.25115  0.47342  0.97598  1.0000
  C   C263      1.0  0.00853  0.20983  0.79976  1.0000
  C   C264      1.0  0.48079  0.23149  0.81327  1.0000
  H   H449      1.0  0.16114  0.40703  0.88043  1.0000
  H   H450      1.0  0.00750  0.40392  0.89985  1.0000
  C   C265      1.0  0.00456  0.24920  0.79343  1.0000
  C   C266      1.0  0.01954  0.23636  0.79294  1.0000
  C   C267      1.0  0.43504  0.47365  0.82200  1.0000
  H   H451      1.0  0.44624  0.23321  0.82398  1.0000
  H   H452      1.0  0.01345  0.26965  0.78840  1.0000
  H   H453      1.0  0.03999  0.24719  0.78764  1.0000
  C   C268      1.0  0.08077  0.08723  0.85121  1.0000
  C   C269      1.0  0.09333  0.08258  0.83219  1.0000
  C   C270      1.0  0.10984  0.07171  0.83624  1.0000
  C   C271      1.0  0.11386  0.06489  0.85928  1.0000
  C   C272      1.0  0.10088  0.06905  0.87825  1.0000
  C   C273      1.0  0.08468  0.08029  0.87424  1.0000
  H   H454      1.0  0.09075  0.08781  0.81438  1.0000
  H   H455      1.0  0.11966  0.06862  0.82135  1.0000
  H   H456      1.0  0.10368  0.06402  0.89608  1.0000
  H   H457      1.0  0.07537  0.08393  0.88920  1.0000
  H   H458      1.0  0.99805  0.01739  0.89013  1.0000
  C   C274      1.0  0.28255  0.45792  0.99365  1.0000
  H   H459      1.0  0.33963  0.34875  0.95506  1.0000
  H   H460      1.0  0.04078  0.45113  0.87060  1.0000
  H   H461      1.0  0.31773  0.39123  0.89568  1.0000
  H   H462      1.0  0.19220  0.42304  0.84332  1.0000
  Fe  Fe42      1.0  0.03078  0.12086  0.76386  1.0000
  S   S89       1.0  0.37228  0.47562  0.91258  1.0000
  H   H463      1.0  0.11617  0.41747  0.84511  1.0000
  H   H464      1.0  0.01524  0.30606  0.89982  1.0000
  C   C275      1.0  0.37351  0.41644  0.85311  1.0000
  C   C276      1.0  0.37152  0.40131  0.83292  1.0000
  C   C277      1.0  0.39053  0.39372  0.82803  1.0000
  C   C278      1.0  0.41185  0.40094  0.84340  1.0000
  C   C279      1.0  0.41382  0.41606  0.86361  1.0000
  C   C280      1.0  0.39493  0.42383  0.86839  1.0000
  H   H465      1.0  0.35514  0.39543  0.82086  1.0000
  H   H466      1.0  0.38857  0.38212  0.81240  1.0000
  H   H467      1.0  0.43022  0.42192  0.87564  1.0000
  H   H468      1.0  0.39704  0.43564  0.88383  1.0000
  C   C281      1.0  0.42009  0.05777  0.87881  1.0000
  C   C282      1.0  0.40821  0.04339  0.85824  1.0000
  C   C283      1.0  0.41442  0.05581  0.83606  1.0000
  C   C284      1.0  0.43286  0.08258  0.83436  1.0000
  C   C285      1.0  0.44472  0.09706  0.85493  1.0000
  C   C286      1.0  0.43826  0.08467  0.87715  1.0000
  H   H469      1.0  0.39431  0.02272  0.85929  1.0000
  H   H470      1.0  0.40523  0.04458  0.82016  1.0000
  S   S90       1.0  0.47813  0.35847  0.82585  1.0000
  H   H471      1.0  0.44743  0.09592  0.89305  1.0000
  H   H472      1.0  0.39886  0.44048  0.92683  1.0000
  H   H473      1.0  0.28839  0.44342  0.99943  1.0000
  C   C287      1.0  0.46138  0.02055  0.87145  1.0000
  H   H474      1.0  0.40137  0.47841  0.85412  1.0000
  H   H475      1.0  0.01529  0.99143  0.82522  1.0000
  H   H476      1.0  0.15818  0.46412  0.88982  1.0000
  H   H477      1.0  0.00633  0.07859  0.86192  1.0000
  H   H478      1.0  0.32889  0.00020  0.85673  1.0000
  H   H479      1.0  0.45935  0.00934  0.85491  1.0000
  S   S91       1.0  0.99872  0.32087  0.77110  1.0000
  H   H480      1.0  0.06083  0.27501  0.87569  1.0000
  H   H481      1.0  0.43682  0.47636  0.87026  1.0000
  C   C288      1.0  0.46516  0.24358  0.81523  1.0000
  H   H482      1.0  0.99943  0.46295  0.83854  1.0000
  H   H483      1.0  0.39472  0.41646  0.94823  1.0000
  C   C289      1.0  0.35523  0.47167  0.99808  1.0000
  C   C290      1.0  0.17212  0.42801  0.87486  1.0000
  C   C291      1.0  0.33855  0.37908  0.97597  1.0000
  C   C292      1.0  0.34934  0.37062  0.95477  1.0000
  H   H484      1.0  0.06755  0.02044  0.85284  1.0000
  H   H485      1.0  0.44387  0.02330  0.87208  1.0000
  C   C293      1.0  0.03097  0.24397  0.85444  1.0000
  H   H486      1.0  0.04656  0.32683  0.91275  1.0000
  H   H487      1.0  0.06777  0.34186  0.83475  1.0000
  H   H488      1.0  0.99880  0.17415  0.75426  1.0000
  C   C294      1.0  0.22291  0.47770  0.91547  1.0000
  C   C295      1.0  0.00291  0.05581  0.90191  1.0000
  H   H489      1.0  0.00962  0.10695  0.90582  1.0000
  H   H490      1.0  0.03579  0.32073  0.82140  1.0000
  C   C296      1.0  0.13856  0.40194  0.82862  1.0000
  H   H491      1.0  0.02897  0.26081  0.88757  1.0000
  H   H492      1.0  0.47300  0.99509  0.89034  1.0000
  H   H493      1.0  0.39185  0.36943  0.89899  1.0000
  C   C297      1.0  0.24558  0.48253  0.90272  1.0000
  H   H494      1.0  0.34720  0.40069  0.97691  1.0000
  N   N19       1.0  0.33618  0.05077  0.87241  1.0000
  C   C298      1.0  0.34202  0.04190  0.84920  1.0000
  C   C299      1.0  0.35228  0.08031  0.87379  1.0000
  C   C300      1.0  0.30748  0.04277  0.87420  1.0000
  C   C301      1.0  0.34281  0.03800  0.89245  1.0000
  H   H495      1.0  0.12139  0.39591  0.86309  1.0000
  C   C302      1.0  0.38240  0.09204  0.87460  1.0000
  C   C303      1.0  0.29607  0.05116  0.85349  1.0000
  C   C304      1.0  0.34184  0.04781  0.91768  1.0000
  H   H496      1.0  0.34013  0.05294  0.83398  1.0000
  H   H497      1.0  0.36282  0.04646  0.84870  1.0000
  H   H498      1.0  0.34646  0.08786  0.88945  1.0000
  H   H499      1.0  0.34844  0.08942  0.85811  1.0000
  H   H500      1.0  0.29520  0.02119  0.87591  1.0000
  H   H501      1.0  0.30355  0.05086  0.89058  1.0000
  H   H502      1.0  0.32906  0.01639  0.89262  1.0000
  H   H503      1.0  0.36268  0.04027  0.88994  1.0000
  N   N20       1.0  0.03744  0.29050  0.86039  1.0000
  S   S92       1.0  0.11786  0.00393  0.92002  1.0000
  H   H504      1.0  0.04633  0.28324  0.82468  1.0000
  H   H505      1.0  0.39000  0.08847  0.85781  1.0000
  H   H506      1.0  0.39195  0.11370  0.87668  1.0000
  H   H507      1.0  0.38891  0.08471  0.88981  1.0000
  H   H508      1.0  0.27486  0.04379  0.85710  1.0000
  H   H509      1.0  0.29709  0.04248  0.83632  1.0000
  H   H510      1.0  0.30558  0.07281  0.85192  1.0000
  H   H511      1.0  0.35683  0.06874  0.92030  1.0000
  H   H512      1.0  0.34636  0.03647  0.93078  1.0000
  H   H513      1.0  0.32209  0.04472  0.92218  1.0000
  C   C305      1.0  0.02221  0.44713  0.82382  1.0000
  H   H514      1.0  0.13641  0.45399  0.82303  1.0000
  Fe  Fe43      1.0  0.30195  0.46844  0.90451  1.0000
  H   H515      1.0  0.07016  0.31989  0.88092  1.0000
  H   H516      1.0  0.99306  0.26260  0.88911  1.0000
  C   C306      1.0  0.03041  0.00783  0.83592  1.0000
  H   H517      1.0  0.33120  0.00834  0.82607  1.0000
  H   H518      1.0  0.17886  0.45294  0.83164  1.0000
  H   H519      1.0  0.35621  0.37805  0.89398  1.0000
  C   C307      1.0  0.04903  0.31334  0.87749  1.0000
  S   S93       1.0  0.98362  0.32543  0.82714  1.0000
  H   H520      1.0  0.11735  0.99473  0.83881  1.0000
  H   H521      1.0  0.00462  0.27381  0.83612  1.0000
  C   C308      1.0  0.32533  0.01225  0.84370  1.0000
  H   H522      1.0  0.02202  0.00807  0.85350  1.0000
  H   H523      1.0  0.38988  0.36865  0.93044  1.0000
  H   H524      1.0  0.30679  0.34553  0.92970  1.0000
  C   C309      1.0  0.99000  0.10071  0.89807  1.0000
  N   N21       1.0  0.99888  0.43515  0.86462  1.0000
  H   H525      1.0  0.39996  0.39899  0.91404  1.0000
  C   C310      1.0  0.98369  0.04074  0.84522  1.0000
  S   S94       1.0  0.15634  0.99970  0.87904  1.0000
  H   H526      1.0  0.47387  0.21210  0.82060  1.0000
  H   H527      1.0  0.99218  0.05062  0.82806  1.0000
  H   H528      1.0  0.09100  0.01392  0.00326  1.0000
  H   H529      1.0  0.02100  0.45501  0.80621  1.0000
  C   C311      1.0  0.03997  0.26814  0.87074  1.0000
  H   H530      1.0  0.45912  0.03282  0.82406  1.0000
  C   C312      1.0  0.45639  0.46564  0.82152  1.0000
  H   H531      1.0  0.45025  0.44908  0.80880  1.0000
  H   H532      1.0  0.31679  0.36950  0.97567  1.0000
  C   C313      1.0  0.19675  0.43226  0.86109  1.0000
  Fe  Fe44      1.0  0.10284  0.48005  0.90595  1.0000
  H   H533      1.0  0.34571  0.34848  0.91026  1.0000
  C   C314      1.0  0.38641  0.37752  0.91448  1.0000
  H   H534      1.0  0.46879  0.06706  0.85344  1.0000
  H   H535      1.0  0.41671  0.45570  0.82765  1.0000
  C   C315      1.0  0.02409  0.45299  0.87767  1.0000
  H   H536      1.0  0.28673  0.36257  0.90080  1.0000
  H   H537      1.0  0.34423  0.41518  0.93810  1.0000
  N   N22       1.0  0.34601  0.37990  0.93070  1.0000
  H   H538      1.0  0.43157  0.47709  0.80323  1.0000
  C   C316      1.0  0.35743  0.37032  0.91171  1.0000
  C   C317      1.0  0.26167  0.99906  0.91710  1.0000
  C   C318      1.0  0.98601  0.06155  0.86330  1.0000
  N   N23       1.0  0.15401  0.43597  0.86278  1.0000
  C   C319      1.0  0.05398  0.29931  0.83807  1.0000
  H   H539      1.0  0.21131  0.45352  0.85933  1.0000
  H   H540      1.0  0.07455  0.30402  0.84188  1.0000
  C   C320      1.0  0.47389  0.26904  0.80631  1.0000
  H   H541      1.0  0.47561  0.48161  0.81540  1.0000
  H   H542      1.0  0.16661  0.48421  0.81970  1.0000
  H   H543      1.0  0.99450  0.03068  0.85059  1.0000
  C   C321      1.0  0.31671  0.36708  0.92623  1.0000
  H   H544      1.0  0.35858  0.41564  0.91061  1.0000
  C   C322      1.0  0.38520  0.42685  0.94046  1.0000
  C   C323      1.0  0.98730  0.26302  0.87053  1.0000
  C   C324      1.0  0.14251  0.44558  0.88168  1.0000
  Fe  Fe45      1.0  0.46169  0.36031  0.76004  1.0000
  H   H545      1.0  0.45858  0.00986  0.90948  1.0000
  H   H546      1.0  0.02129  0.42807  0.82034  1.0000
  C   C325      1.0  0.12777  0.42609  0.90207  1.0000
  H   H547      1.0  0.14721  0.47977  0.84529  1.0000
  H   H548      1.0  0.01987  0.07607  0.89968  1.0000
  H   H549      1.0  0.27781  0.45485  0.97438  1.0000
  H   H550      1.0  0.12812  0.45061  0.87402  1.0000
  H   H551      1.0  0.30397  0.00532  0.84277  1.0000
  C   C326      1.0  0.10810  0.48509  0.99459  1.0000
  H   H552      1.0  0.30745  0.37495  0.93857  1.0000
  H   H553      1.0  0.03539  0.02663  0.82695  1.0000
  H   H554      1.0  0.46922  0.06245  0.89581  1.0000
  H   H555      1.0  0.98436  0.47418  0.87853  1.0000
  H   H556      1.0  0.10916  0.40899  0.89580  1.0000
  H   H557      1.0  0.13999  0.41928  0.91129  1.0000
  H   H558      1.0  0.12211  0.43612  0.91564  1.0000
  C   C327      1.0  0.00947  0.28284  0.85406  1.0000
  C   C328      1.0  0.30833  0.37037  0.90105  1.0000
  C   C329      1.0  0.05563  0.00604  0.83882  1.0000
  C   C330      1.0  0.35759  0.40932  0.92938  1.0000
  C   C331      1.0  0.45830  0.00164  0.89168  1.0000
  H   H559      1.0  0.02885  0.22707  0.86506  1.0000
  Fe  Fe46      1.0  0.98682  0.09344  0.79912  1.0000
  H   H560      1.0  0.04582  0.24763  0.84051  1.0000
  H   H561      1.0  0.45858  0.11784  0.85377  1.0000
  C   C332      1.0  0.37843  0.99765  0.99704  1.0000
  H   H562      1.0  0.06725  0.01382  0.82227  1.0000
  Fe  Fe47      1.0  0.01082  0.35212  0.79901  1.0000
  H   H563      1.0  0.02282  0.44668  0.89648  1.0000
  H   H564      1.0  0.06509  0.32543  0.80750  1.0000
  H   H565      1.0  0.38405  0.43943  0.95465  1.0000
  C   C333      1.0  0.30565  0.48581  0.99831  1.0000
  H   H566      1.0  0.37013  0.37720  0.95899  1.0000
  H   H567      1.0  0.47393  0.31339  0.86013  1.0000
  C   C334      1.0  0.13152  0.41272  0.85062  1.0000
  H   H568      1.0  0.04861  0.33059  0.86986  1.0000
  C   C335      1.0  0.24312  0.99841  0.90077  1.0000
  S   S95       1.0  0.99623  0.12555  0.77293  1.0000
  H   H569      1.0  0.02708  0.04619  0.87883  1.0000
  H   H570      1.0  0.10261  0.01038  0.82331  1.0000
  H   H571      1.0  0.15182  0.39424  0.83317  1.0000
  H   H572      1.0  0.99985  0.05410  0.92149  1.0000
  S   S96       1.0  0.47933  0.39671  0.78269  1.0000
  H   H573      1.0  0.99222  0.10725  0.87933  1.0000
  H   H574      1.0  0.34389  0.37293  0.99276  1.0000
  H   H575      1.0  0.26629  0.01117  0.93283  1.0000
  H   H576      1.0  0.01399  0.40908  0.85555  1.0000
  C   C336      1.0  0.03532  0.30887  0.90175  1.0000
  Fe  Fe48      1.0  0.38305  0.99944  0.90777  1.0000
  H   H577      1.0  0.38188  0.00287  0.97844  1.0000
  C   C337      1.0  0.99608  0.40813  0.86329  1.0000
  H   H578      1.0  0.02477  0.03564  0.90921  1.0000
  H   H579      1.0  0.01172  0.23779  0.84593  1.0000
  S   S97       1.0  0.16232  0.98720  0.93506  1.0000
  H   H580      1.0  0.10340  0.47969  0.97612  1.0000
  C   C338      1.0  0.09846  0.99141  0.83115  1.0000
  H   H581      1.0  0.98999  0.37407  0.88348  1.0000
  C   C339      1.0  0.99118  0.39326  0.88704  1.0000
  S   S98       1.0  0.98381  0.36681  0.78728  1.0000
  C   C340      1.0  0.15356  0.46935  0.83290  1.0000
  H   H582      1.0  0.18575  0.47519  0.85533  1.0000
  S   S99       1.0  0.08964  0.65320  0.24089  1.0000
  C   C341      1.0  0.48135  0.89305  0.16405  1.0000
  S   S100      1.0  0.33580  0.83433  0.21384  1.0000
  H   H583      1.0  0.37049  0.75572  0.21926  1.0000
  C   C342      1.0  0.06513  0.50707  0.19816  1.0000
  H   H584      1.0  0.99756  0.60733  0.21295  1.0000
  Fe  Fe49      1.0  0.37737  0.84649  0.22568  1.0000
  S   S101      1.0  0.40831  0.85771  0.19547  1.0000
  H   H585      1.0  0.22614  0.96153  0.03435  1.0000
  Fe  Fe50      1.0  0.33622  0.86011  0.24347  1.0000
  Fe  Fe51      1.0  0.37619  0.52424  0.09471  1.0000
  S   S102      1.0  0.37913  0.55303  0.12300  1.0000
  S   S103      1.0  0.38386  0.53538  0.05578  1.0000
  C   C343      1.0  0.00635  0.61316  0.12055  1.0000
  S   S104      1.0  0.35938  0.50499  0.16021  1.0000
  C   C344      1.0  0.06290  0.98323  0.07264  1.0000
  Fe  Fe52      1.0  0.33963  0.51966  0.13512  1.0000
  S   S105      1.0  0.30439  0.52407  0.14687  1.0000
  Fe  Fe53      1.0  0.39897  0.53578  0.14562  1.0000
  S   S106      1.0  0.43242  0.55261  0.17390  1.0000
  Fe  Fe54      1.0  0.13056  0.50017  0.13315  1.0000
  S   S107      1.0  0.39844  0.50936  0.11622  1.0000
  Fe  Fe55      1.0  0.12952  0.66050  0.22821  1.0000
  H   H586      1.0  0.39376  0.91800  0.16599  1.0000
  S   S108      1.0  0.16260  0.70310  0.22203  1.0000
  Fe  Fe56      1.0  0.07070  0.61545  0.21905  1.0000
  C   C345      1.0  0.37939  0.51755  0.01008  1.0000
  S   S109      1.0  0.03502  0.59192  0.19347  1.0000
  Fe  Fe57      1.0  0.11319  0.60306  0.23547  1.0000
  S   S110      1.0  0.12326  0.57103  0.23756  1.0000
  C   C346      1.0  0.98725  0.56263  0.16994  1.0000
  S   S111      1.0  0.11043  0.62492  0.20392  1.0000
  Fe  Fe58      1.0  0.15039  0.96034  0.14028  1.0000
  H   H587      1.0  0.06554  0.96587  0.07021  1.0000
  S   S112      1.0  0.18544  0.95285  0.14222  1.0000
  Fe  Fe59      1.0  0.09124  0.94134  0.15374  1.0000
  C   C347      1.0  0.17847  0.95805  0.02308  1.0000
  S   S113      1.0  0.05924  0.92094  0.18278  1.0000
  Fe  Fe60      1.0  0.11077  0.95283  0.10152  1.0000
  S   S114      1.0  0.10139  0.94224  0.06261  1.0000
  H   H588      1.0  0.05174  0.53068  0.23373  1.0000
  S   S115      1.0  0.14777  0.54389  0.13691  1.0000
  S   S116      1.0  0.11116  0.92556  0.12949  1.0000
  S   S117      1.0  0.08773  0.96545  0.12457  1.0000
  C   C348      1.0  0.11024  0.95977  0.01642  1.0000
  H   H589      1.0  0.01350  0.63229  0.11163  1.0000
  H   H590      1.0  0.16372  0.96143  0.01370  1.0000
  C   C349      1.0  0.12993  0.51821  0.02491  1.0000
  H   H591      1.0  0.40109  0.96034  0.17492  1.0000
  H   H592      1.0  0.23363  0.90943  0.18225  1.0000
  H   H593      1.0  0.14213  0.53861  0.02989  1.0000
  C   C350      1.0  0.13621  0.56664  0.21110  1.0000
  C   C351      1.0  0.13621  0.54308  0.20754  1.0000
  C   C352      1.0  0.14134  0.53671  0.18498  1.0000
  C   C353      1.0  0.14665  0.55391  0.16599  1.0000
  C   C354      1.0  0.14906  0.57857  0.17002  1.0000
  C   C355      1.0  0.14379  0.58494  0.19264  1.0000
  H   H594      1.0  0.13081  0.52909  0.22191  1.0000
  H   H595      1.0  0.14026  0.51808  0.18222  1.0000
  H   H596      1.0  0.15360  0.59215  0.15543  1.0000
  H   H597      1.0  0.14457  0.60351  0.19549  1.0000
  H   H598      1.0  0.47335  0.98113  0.17595  1.0000
  C   C356      1.0  0.00192  0.95702  0.19164  1.0000
  C   C357      1.0  0.23677  0.96490  0.13444  1.0000
  H   H599      1.0  0.09168  0.98058  0.20599  1.0000
  H   H600      1.0  0.29674  0.91476  0.18253  1.0000
  H   H601      1.0  0.25883  0.52389  0.16581  1.0000
  H   H602      1.0  0.19309  0.93017  0.05646  1.0000
  H   H603      1.0  0.22806  0.94492  0.12797  1.0000
  C   C358      1.0  0.23756  0.71652  0.23434  1.0000
  H   H604      1.0  0.46597  0.56374  0.21489  1.0000
  H   H605      1.0  0.24852  0.96333  0.07421  1.0000
  H   H606      1.0  0.02326  0.60962  0.12188  1.0000
  C   C359      1.0  0.28266  0.92131  0.14947  1.0000
  C   C360      1.0  0.00102  0.58183  0.18757  1.0000
  C   C361      1.0  0.04728  0.53763  0.19618  1.0000
  H   H607      1.0  0.28336  0.72812  0.16225  1.0000
  H   H608      1.0  0.00493  0.63638  0.07154  1.0000
  H   H609      1.0  0.41915  0.91011  0.16519  1.0000
  H   H610      1.0  0.22512  0.94946  0.19429  1.0000
  C   C362      1.0  0.46021  0.96381  0.16485  1.0000
  H   H611      1.0  0.21068  0.49541  0.15909  1.0000
  C   C363      1.0  0.37408  0.51041  0.03408  1.0000
  H   H612      1.0  0.37034  0.74746  0.15780  1.0000
  C   C364      1.0  0.16534  0.93212  0.08016  1.0000
  S   S118      1.0  0.35781  0.94130  0.13883  1.0000
  H   H613      1.0  0.17587  0.54277  0.07640  1.0000
  C   C365      1.0  0.27914  0.91549  0.17638  1.0000
  C   C366      1.0  0.25310  0.74413  0.23336  1.0000
  C   C367      1.0  0.24052  0.75872  0.22915  1.0000
  C   C368      1.0  0.21294  0.74583  0.22574  1.0000
  C   C369      1.0  0.19739  0.71822  0.22675  1.0000
  C   C370      1.0  0.20993  0.70365  0.23127  1.0000
  H   H614      1.0  0.05102  0.96863  0.17139  1.0000
  C   C371      1.0  0.41490  0.92817  0.13329  1.0000
  H   H615      1.0  0.24408  0.50802  0.08150  1.0000
  H   H616      1.0  0.47564  0.59010  0.14265  1.0000
  C   C372      1.0  0.42226  0.96985  0.17056  1.0000
  C   C373      1.0  0.44343  0.87617  0.19141  1.0000
  H   H617      1.0  0.46231  0.92915  0.15246  1.0000
  C   C374      1.0  0.00722  0.90335  0.16785  1.0000
  C   C375      1.0  0.02430  0.90660  0.18661  1.0000
  C   C376      1.0  0.01342  0.89860  0.20951  1.0000
  C   C377      1.0  0.23484  0.94000  0.20386  1.0000
  H   H618      1.0  0.44053  0.86949  0.15359  1.0000
  H   H619      1.0  0.01507  0.90926  0.15012  1.0000
  H   H620      1.0  0.02629  0.90088  0.22422  1.0000
  H   H621      1.0  0.04480  0.97681  0.23469  1.0000
  C   C378      1.0  0.33177  0.90376  0.21163  1.0000
  C   C379      1.0  0.34304  0.93096  0.20930  1.0000
  C   C380      1.0  0.35103  0.94268  0.18693  1.0000
  C   C381      1.0  0.34765  0.92719  0.16690  1.0000
  C   C382      1.0  0.33640  0.89999  0.16927  1.0000
  C   C383      1.0  0.32835  0.88827  0.19161  1.0000
  H   H622      1.0  0.34605  0.94299  0.22486  1.0000
  H   H623      1.0  0.36041  0.96369  0.18538  1.0000
  H   H624      1.0  0.33370  0.88795  0.15379  1.0000
  H   H625      1.0  0.31896  0.86719  0.19326  1.0000
  H   H626      1.0  0.27355  0.94047  0.22971  1.0000
  H   H627      1.0  0.20358  0.75737  0.22218  1.0000
  H   H628      1.0  0.01989  0.50734  0.22176  1.0000
  C   C384      1.0  0.41463  0.92593  0.16062  1.0000
  H   H629      1.0  0.15935  0.91277  0.08844  1.0000
  H   H630      1.0  0.39055  0.53812  0.00533  1.0000
  H   H631      1.0  0.35049  0.94427  0.03319  1.0000
  H   H632      1.0  0.04328  0.95569  0.21137  1.0000
  C   C385      1.0  0.46717  0.57458  0.17814  1.0000
  H   H633      1.0  0.05116  0.97927  0.08916  1.0000
  H   H634      1.0  0.99733  0.55415  0.16053  1.0000
  H   H635      1.0  0.09525  0.55192  0.17699  1.0000
  C   C386      1.0  0.24799  0.93060  0.18541  1.0000
  C   C387      1.0  0.11980  0.49868  0.04263  1.0000
  H   H636      1.0  0.00673  0.95277  0.17373  1.0000
  H   H637      1.0  0.09482  0.94015  0.01186  1.0000
  N   N24       1.0  0.43236  0.95095  0.17396  1.0000
  C   C388      1.0  0.19368  0.94386  0.07047  1.0000
  H   H638      1.0  0.43445  0.93420  0.12552  1.0000
  H   H639      1.0  0.24697  0.70494  0.23751  1.0000
  C   C389      1.0  0.25187  0.50836  0.15269  1.0000
  H   H640      1.0  0.40797  0.94166  0.12722  1.0000
  H   H641      1.0  0.24905  0.94052  0.16838  1.0000
  C   C390      1.0  0.02097  0.98549  0.19949  1.0000
  S   S119      1.0  0.28802  0.75918  0.23691  1.0000
  C   C391      1.0  0.98548  0.63471  0.07488  1.0000
  C   C392      1.0  0.07365  0.48888  0.18603  1.0000
  C   C393      1.0  0.22452  0.49231  0.14884  1.0000
  N   N25       1.0  0.22771  0.55494  0.09642  1.0000
  C   C394      1.0  0.21007  0.55671  0.11506  1.0000
  C   C395      1.0  0.21888  0.55979  0.07270  1.0000
  C   C396      1.0  0.25545  0.57661  0.10138  1.0000
  C   C397      1.0  0.22569  0.52831  0.09821  1.0000
  C   C398      1.0  0.21746  0.55571  0.14122  1.0000
  C   C399      1.0  0.19022  0.54007  0.06561  1.0000
  C   C400      1.0  0.27701  0.57878  0.08436  1.0000
  C   C401      1.0  0.23282  0.51772  0.07587  1.0000
  H   H642      1.0  0.20895  0.57502  0.11292  1.0000
  H   H643      1.0  0.18955  0.54031  0.11303  1.0000
  H   H644      1.0  0.23142  0.56010  0.05790  1.0000
  H   H645      1.0  0.22093  0.57973  0.07237  1.0000
  H   H646      1.0  0.25634  0.59604  0.10163  1.0000
  H   H647      1.0  0.26206  0.57418  0.11925  1.0000
  H   H648      1.0  0.23834  0.52834  0.11292  1.0000
  H   H649      1.0  0.20528  0.51303  0.10309  1.0000
  H   H650      1.0  0.20083  0.55270  0.15282  1.0000
  H   H651      1.0  0.22110  0.53925  0.14466  1.0000
  H   H652      1.0  0.23472  0.57454  0.14686  1.0000
  H   H653      1.0  0.18696  0.54355  0.04683  1.0000
  H   H654      1.0  0.18572  0.51942  0.06687  1.0000
  H   H655      1.0  0.29604  0.59614  0.08960  1.0000
  H   H656      1.0  0.27347  0.58194  0.06566  1.0000
  H   H657      1.0  0.27987  0.56152  0.08600  1.0000
  H   H658      1.0  0.00129  0.94259  0.20465  1.0000
  H   H659      1.0  0.24501  0.53257  0.06252  1.0000
  Fe  Fe61      1.0  0.32035  0.80247  0.24160  1.0000
  C   C402      1.0  0.26449  0.98083  0.13513  1.0000
  C   C403      1.0  0.46114  0.88829  0.21019  1.0000
  H   H660      1.0  0.21879  0.92292  0.21331  1.0000
  H   H661      1.0  0.26434  0.88570  0.21734  1.0000
  S   S120      1.0  0.32235  0.88928  0.23956  1.0000
  H   H662      1.0  0.15084  0.92857  0.06592  1.0000
  H   H663      1.0  0.04027  0.49201  0.15370  1.0000
  C   C404      1.0  0.27674  0.92783  0.21717  1.0000
  H   H664      1.0  0.08413  0.52776  0.15426  1.0000
  H   H665      1.0  0.05813  0.54555  0.13552  1.0000
  H   H666      1.0  0.45367  0.88652  0.22807  1.0000
  H   H667      1.0  0.36650  0.97924  0.06397  1.0000
  C   C405      1.0  0.07286  0.55690  0.14942  1.0000
  H   H668      1.0  0.02561  0.51210  0.15506  1.0000
  H   H669      1.0  0.00048  0.61430  0.13911  1.0000
  H   H670      1.0  0.26679  0.92413  0.14189  1.0000
  C   C406      1.0  0.11775  0.96618  0.04027  1.0000
  H   H671      1.0  0.28221  0.90440  0.14012  1.0000
  C   C407      1.0  0.07786  0.53887  0.16602  1.0000
  H   H672      1.0  0.09153  0.57029  0.14006  1.0000
  H   H673      1.0  0.19840  0.68243  0.23201  1.0000
  N   N26       1.0  0.33787  0.76970  0.17352  1.0000
  C   C408      1.0  0.31136  0.76802  0.17548  1.0000
  C   C409      1.0  0.35853  0.79840  0.17215  1.0000
  C   C410      1.0  0.34191  0.75744  0.19566  1.0000
  C   C411      1.0  0.33753  0.75484  0.15154  1.0000
  C   C412      1.0  0.28745  0.74010  0.17859  1.0000
  C   C413      1.0  0.35582  0.81428  0.15160  1.0000
  C   C414      1.0  0.37047  0.76831  0.20454  1.0000
  C   C415      1.0  0.36375  0.75672  0.14441  1.0000
  H   H674      1.0  0.31125  0.78019  0.19064  1.0000
  H   H675      1.0  0.30692  0.77613  0.15941  1.0000
  H   H676      1.0  0.37867  0.80123  0.17081  1.0000
  H   H677      1.0  0.35865  0.80843  0.18895  1.0000
  H   H678      1.0  0.33151  0.75997  0.21115  1.0000
  H   H679      1.0  0.33301  0.73579  0.19352  1.0000
  H   H680      1.0  0.32323  0.73350  0.15355  1.0000
  H   H681      1.0  0.33051  0.76132  0.13597  1.0000
  H   H682      1.0  0.12418  0.50411  0.06111  1.0000
  H   H683      1.0  0.38963  0.91664  0.20505  1.0000
  H   H684      1.0  0.26967  0.74178  0.18212  1.0000
  H   H685      1.0  0.33881  0.81739  0.15422  1.0000
  H   H686      1.0  0.37358  0.83418  0.15138  1.0000
  H   H687      1.0  0.35470  0.80530  0.13402  1.0000
  H   H688      1.0  0.24814  0.95445  0.21701  1.0000
  H   H689      1.0  0.37853  0.78841  0.21198  1.0000
  H   H690      1.0  0.38409  0.76879  0.19076  1.0000
  H   H691      1.0  0.37941  0.77720  0.14087  1.0000
  H   H692      1.0  0.36079  0.74562  0.12761  1.0000
  N   N27       1.0  0.27465  0.93418  0.19156  1.0000
  C   C416      1.0  0.28156  0.50157  0.02401  1.0000
  H   H693      1.0  0.30219  0.93861  0.14546  1.0000
  C   C417      1.0  0.45385  0.87871  0.16834  1.0000
  H   H694      1.0  0.19485  0.96321  0.01044  1.0000
  N   N28       1.0  0.05531  0.52082  0.18194  1.0000
  H   H695      1.0  0.31592  0.96323  0.18870  1.0000
  H   H696      1.0  0.98676  0.64662  0.09056  1.0000
  S   S121      1.0  0.13071  0.97407  0.16685  1.0000
  H   H697      1.0  0.26253  0.89497  0.17813  1.0000
  H   H698      1.0  0.06695  0.56959  0.15917  1.0000
  H   H699      1.0  0.40095  0.90855  0.12578  1.0000
  C   C418      1.0  0.03589  0.52802  0.22126  1.0000
  H   H700      1.0  0.43713  0.92824  0.20191  1.0000
  H   H701      1.0  0.06447  0.55768  0.19926  1.0000
  C   C419      1.0  0.29196  0.49684  0.04766  1.0000
  C   C420      1.0  0.98750  0.59254  0.19942  1.0000
  S   S122      1.0  0.33608  0.49247  0.10565  1.0000
  S   S123      1.0  0.37827  0.87440  0.25359  1.0000
  H   H702      1.0  0.09036  0.49947  0.17370  1.0000
  C   C421      1.0  0.18795  0.97560  0.04542  1.0000
  S   S124      1.0  0.07348  0.59227  0.24970  1.0000
  C   C422      1.0  0.47294  0.94631  0.16437  1.0000
  H   H703      1.0  0.20560  0.94232  0.08513  1.0000
  H   H704      1.0  0.25207  0.77992  0.22822  1.0000
  C   C423      1.0  0.08236  0.98353  0.22196  1.0000
  C   C424      1.0  0.40597  0.93463  0.21311  1.0000
  C   C425      1.0  0.43224  0.94420  0.19983  1.0000
  C   C426      1.0  0.36080  0.96470  0.02790  1.0000
  H   H705      1.0  0.44772  0.96126  0.20986  1.0000
  C   C427      1.0  0.29637  0.96174  0.18612  1.0000
  C   C428      1.0  0.27023  0.50409  0.14018  1.0000
  H   H706      1.0  0.28960  0.72950  0.19393  1.0000
  H   H707      1.0  0.21470  0.50196  0.06732  1.0000
  H   H708      1.0  0.29573  0.96688  0.16723  1.0000
  H   H709      1.0  0.03279  0.54092  0.18614  1.0000
  H   H710      1.0  0.33645  0.52864  0.02188  1.0000
  C   C429      1.0  0.25791  0.89917  0.22470  1.0000
  Fe  Fe62      1.0  0.36719  0.98315  0.13573  1.0000
  C   C430      1.0  0.22024  0.97446  0.14223  1.0000
  H   H711      1.0  0.05007  0.49452  0.21138  1.0000
  H   H712      1.0  0.08204  0.52180  0.20889  1.0000
  C   C431      1.0  0.29663  0.98426  0.20034  1.0000
  H   H713      1.0  0.16875  0.93684  0.02737  1.0000
  H   H714      1.0  0.99241  0.58649  0.09084  1.0000
  H   H715      1.0  0.27686  0.97315  0.12907  1.0000
  H   H716      1.0  0.02773  0.54031  0.22800  1.0000
  C   C432      1.0  0.47847  0.57580  0.20060  1.0000
  C   C433      1.0  0.03312  0.50170  0.16632  1.0000
  H   H717      1.0  0.40818  0.92956  0.23165  1.0000
  H   H718      1.0  0.16362  0.94444  0.09410  1.0000
  C   C434      1.0  0.36984  0.98452  0.04539  1.0000
  C   C435      1.0  0.98611  0.88783  0.21370  1.0000
  H   H719      1.0  0.29710  0.93201  0.22114  1.0000
  H   H720      1.0  0.99844  0.48799  0.18936  1.0000
  H   H721      1.0  0.47439  0.93952  0.18236  1.0000
  H   H722      1.0  0.17036  0.97260  0.05551  1.0000
  H   H723      1.0  0.27757  0.51804  0.02696  1.0000
  N   N29       1.0  0.20638  0.97174  0.06135  1.0000
  H   H724      1.0  0.08237  0.96996  0.23571  1.0000
  H   H725      1.0  0.43001  0.50026  0.16329  1.0000
  C   C436      1.0  0.23070  0.97745  0.04748  1.0000
  C   C437      1.0  0.32489  0.53223  0.00817  1.0000
  H   H726      1.0  0.25852  0.89769  0.24435  1.0000
  S   S125      1.0  0.36181  0.81210  0.25117  1.0000
  H   H727      1.0  0.42348  0.97563  0.15159  1.0000
  H   H728      1.0  0.05117  0.98327  0.05735  1.0000
  H   H729      1.0  0.40033  0.95002  0.21430  1.0000
  C   C438      1.0  0.05360  0.97655  0.21720  1.0000
  C   C439      1.0  0.98369  0.59011  0.10700  1.0000
  H   H730      1.0  0.31033  0.51442  0.05370  1.0000
  H   H731      1.0  0.23727  0.89239  0.21950  1.0000
  H   H732      1.0  0.46157  0.97177  0.14663  1.0000
  H   H733      1.0  0.32108  0.54753  0.01586  1.0000
  H   H734      1.0  0.29729  0.98193  0.21979  1.0000
  H   H735      1.0  0.27707  0.49235  0.06180  1.0000
  C   C440      1.0  0.25415  0.98040  0.06236  1.0000
  S   S126      1.0  0.15023  0.98631  0.11117  1.0000
  H   H736      1.0  0.26974  0.98173  0.05023  1.0000
  H   H737      1.0  0.19541  0.98513  0.09286  1.0000
  H   H738      1.0  0.22578  0.98702  0.09532  1.0000
  Fe  Fe63      1.0  0.38495  0.88234  0.46903  1.0000
  C   C441      1.0  0.01685  0.52553  0.32092  1.0000
  H   H739      1.0  0.03542  0.58790  0.30935  1.0000
  Fe  Fe64      1.0  0.35488  0.89674  0.43465  1.0000
  S   S127      1.0  0.32978  0.89933  0.46382  1.0000
  S   S128      1.0  0.34689  0.90102  0.39595  1.0000
  Fe  Fe65      1.0  0.36754  0.92098  0.48526  1.0000
  H   H740      1.0  0.02673  0.59564  0.33720  1.0000
  Fe  Fe66      1.0  0.32605  0.86090  0.47614  1.0000
  S   S129      1.0  0.28537  0.82552  0.48488  1.0000
  S   S130      1.0  0.39264  0.92118  0.45476  1.0000
  S   S131      1.0  0.34962  0.85801  0.44636  1.0000
  Fe  Fe67      1.0  0.36019  0.83968  0.27827  1.0000
  S   S132      1.0  0.37365  0.84087  0.31620  1.0000
  Fe  Fe68      1.0  0.14932  0.60694  0.47853  1.0000
  S   S133      1.0  0.11964  0.60197  0.45089  1.0000
  H   H741      1.0  0.04896  0.97141  0.48135  1.0000
  Fe  Fe69      1.0  0.18749  0.66621  0.46395  1.0000
  S   S134      1.0  0.15959  0.66453  0.43562  1.0000
  S   S135      1.0  0.23012  0.70109  0.46596  1.0000
  Fe  Fe70      1.0  0.12803  0.64199  0.46258  1.0000
  H   H742      1.0  0.11740  0.53356  0.41528  1.0000
  Fe  Fe71      1.0  0.15366  0.62489  0.42626  1.0000
  S   S136      1.0  0.15413  0.61242  0.38821  1.0000
  S   S137      1.0  0.36126  0.88236  0.50031  1.0000
  S   S138      1.0  0.18341  0.62725  0.45287  1.0000
  Fe  Fe72      1.0  0.09536  0.63006  0.27000  1.0000
  S   S139      1.0  0.08998  0.63484  0.30931  1.0000
  C   C442      1.0  0.13770  0.62059  0.36636  1.0000
  C   C443      1.0  0.14060  0.61629  0.34229  1.0000
  C   C444      1.0  0.12659  0.62115  0.32460  1.0000
  C   C445      1.0  0.10950  0.63038  0.33082  1.0000
  C   C446      1.0  0.10698  0.63515  0.35486  1.0000
  C   C447      1.0  0.12102  0.63032  0.37257  1.0000
  H   H743      1.0  0.15344  0.60874  0.33732  1.0000
  H   H744      1.0  0.12858  0.61711  0.30622  1.0000
  H   H745      1.0  0.09381  0.64227  0.35989  1.0000
  H   H746      1.0  0.11859  0.63370  0.39106  1.0000
  C   C448      1.0  0.31324  0.79927  0.39115  1.0000
  C   C449      1.0  0.28169  0.83069  0.37421  1.0000
  C   C450      1.0  0.46725  0.94565  0.47085  1.0000
  C   C451      1.0  0.04136  0.56825  0.34047  1.0000
  C   C452      1.0  0.27014  0.79118  0.47825  1.0000
  C   C453      1.0  0.28403  0.77979  0.46840  1.0000
  C   C454      1.0  0.27142  0.75229  0.46475  1.0000
  C   C455      1.0  0.24456  0.73582  0.47015  1.0000
  H   H747      1.0  0.28254  0.74368  0.45758  1.0000
  H   H748      1.0  0.04288  0.52872  0.36196  1.0000
  H   H749      1.0  0.06031  0.48957  0.49216  1.0000
  H   H750      1.0  0.07915  0.57785  0.31107  1.0000
  H   H751      1.0  0.24508  0.75714  0.29705  1.0000
  H   H752      1.0  0.45455  0.91652  0.49823  1.0000
  H   H753      1.0  0.23690  0.74538  0.40345  1.0000
  H   H754      1.0  0.03942  0.62495  0.47973  1.0000
  C   C456      1.0  0.07384  0.70007  0.48578  1.0000
  C   C457      1.0  0.35553  0.88525  0.37377  1.0000
  C   C458      1.0  0.34858  0.88595  0.35001  1.0000
  C   C459      1.0  0.35426  0.87269  0.33213  1.0000
  C   C460      1.0  0.36696  0.85859  0.33792  1.0000
  C   C461      1.0  0.37415  0.85812  0.36163  1.0000
  C   C462      1.0  0.36850  0.87140  0.37948  1.0000
  H   H755      1.0  0.33867  0.89673  0.34540  1.0000
  H   H756      1.0  0.34874  0.87330  0.31390  1.0000
  H   H757      1.0  0.38416  0.84744  0.36621  1.0000
  H   H758      1.0  0.37430  0.87098  0.39762  1.0000
  C   C463      1.0  0.01021  0.67071  0.49977  1.0000
  H   H759      1.0  0.23831  0.76883  0.42434  1.0000
  H   H760      1.0  0.01343  0.48822  0.33297  1.0000
  H   H761      1.0  0.18008  0.57722  0.46684  1.0000
  H   H762      1.0  0.30217  0.81127  0.42300  1.0000
  C   C464      1.0  0.25710  0.78544  0.38970  1.0000
  C   C465      1.0  0.03129  0.55658  0.49915  1.0000
  H   H763      1.0  0.13502  0.55517  0.39146  1.0000
  H   H764      1.0  0.13203  0.71194  0.26799  1.0000
  H   H765      1.0  0.19468  0.55719  0.46981  1.0000
  C   C466      1.0  0.06140  0.55877  0.30671  1.0000
  H   H766      1.0  0.23223  0.78326  0.49112  1.0000
  C   C467      1.0  0.98259  0.89954  0.46060  1.0000
  C   C468      1.0  0.28246  0.85178  0.42199  1.0000
  N   N30       1.0  0.16804  0.54716  0.43981  1.0000
  H   H767      1.0  0.22618  0.57968  0.43825  1.0000
  H   H768      1.0  0.00491  0.95143  0.44487  1.0000
  H   H769      1.0  0.45324  0.98341  0.49390  1.0000
  N   N31       1.0  0.04408  0.54681  0.32817  1.0000
  C   C469      1.0  0.47242  0.93569  0.49438  1.0000
  H   H770      1.0  0.29272  0.83788  0.33707  1.0000
  H   H771      1.0  0.06097  0.58546  0.34450  1.0000
  H   H772      1.0  0.26724  0.76622  0.41823  1.0000
  H   H773      1.0  0.31929  0.83708  0.40237  1.0000
  C   C470      1.0  0.08381  0.55590  0.35457  1.0000
  C   C471      1.0  0.26643  0.82244  0.41527  1.0000
  H   H774      1.0  0.09074  0.54566  0.36667  1.0000
  H   H775      1.0  0.02721  0.49788  0.30346  1.0000
  C   C472      1.0  0.14918  0.51479  0.47535  1.0000
  H   H776      1.0  0.05664  0.53052  0.27877  1.0000
  C   C473      1.0  0.24970  0.76564  0.41028  1.0000
  H   H777      1.0  0.01025  0.53140  0.30464  1.0000
  C   C474      1.0  0.29103  0.82382  0.35112  1.0000
  H   H778      1.0  0.30342  0.85819  0.42512  1.0000
  H   H779      1.0  0.03135  0.56133  0.35798  1.0000
  H   H780      1.0  0.27458  0.85507  0.43881  1.0000
  H   H781      1.0  0.12881  0.51324  0.44346  1.0000
  H   H782      1.0  0.17544  0.57554  0.41145  1.0000
  H   H783      1.0  0.44765  0.94416  0.47199  1.0000
  H   H784      1.0  0.09307  0.53593  0.48216  1.0000
  H   H785      1.0  0.26305  0.77737  0.37471  1.0000
  H   H786      1.0  0.02773  0.94075  0.45032  1.0000
  H   H787      1.0  0.33478  0.81151  0.38809  1.0000
  S   S140      1.0  0.41728  0.87225  0.46862  1.0000
  C   C475      1.0  0.23049  0.74735  0.47931  1.0000
  H   H788      1.0  0.08864  0.69400  0.48190  1.0000
  S   S141      1.0  0.31822  0.82780  0.27041  1.0000
  H   H789      1.0  0.26324  0.83095  0.36998  1.0000
  H   H790      1.0  0.28084  0.86452  0.40833  1.0000
  C   C476      1.0  0.01288  0.49787  0.31619  1.0000
  H   H791      1.0  0.02221  0.97772  0.48606  1.0000
  N   N32       1.0  0.99492  0.92467  0.47484  1.0000
  H   H792      1.0  0.30458  0.79206  0.46395  1.0000
  H   H793      1.0  0.98860  0.66120  0.50265  1.0000
  C   C477      1.0  0.15922  0.56109  0.42273  1.0000
  H   H794      1.0  0.07412  0.52864  0.30452  1.0000
  C   C478      1.0  0.42411  0.86266  0.49589  1.0000
  H   H795      1.0  0.09796  0.56370  0.33962  1.0000
  H   H796      1.0  0.05663  0.51903  0.33906  1.0000
  C   C479      1.0  0.36406  0.79899  0.47715  1.0000
  H   H797      1.0  0.12989  0.49959  0.48261  1.0000
  H   H798      1.0  0.21957  0.75684  0.27959  1.0000
  H   H799      1.0  0.31243  0.76602  0.49846  1.0000
  C   C480      1.0  0.19470  0.54278  0.40474  1.0000
  H   H800      1.0  0.34495  0.78323  0.47025  1.0000
  H   H801      1.0  0.15801  0.69182  0.36635  1.0000
  H   H802      1.0  0.20989  0.73507  0.48370  1.0000
  H   H803      1.0  0.19002  0.52648  0.44006  1.0000
  H   H804      1.0  0.02972  0.75054  0.50157  1.0000
  H   H805      1.0  0.30439  0.79117  0.37368  1.0000
  H   H806      1.0  0.27710  0.80394  0.34432  1.0000
  H   H807      1.0  0.36591  0.81853  0.47407  1.0000
  H   H808      1.0  0.26456  0.81153  0.43199  1.0000
  H   H809      1.0  0.31102  0.82650  0.35312  1.0000
  H   H810      1.0  0.29682  0.85145  0.37806  1.0000
  C   C481      1.0  0.05575  0.53625  0.34597  1.0000
  S   S142      1.0  0.09274  0.64721  0.46472  1.0000
  C   C482      1.0  0.24326  0.77475  0.48352  1.0000
  H   H811      1.0  0.04677  0.72365  0.48854  1.0000
  C   C483      1.0  0.02621  0.57934  0.32670  1.0000
  N   N33       1.0  0.17845  0.71182  0.30749  1.0000
  C   C484      1.0  0.16661  0.72229  0.28969  1.0000
  C   C485      1.0  0.20601  0.73375  0.31267  1.0000
  C   C486      1.0  0.16211  0.70503  0.32983  1.0000
  C   C487      1.0  0.17766  0.68771  0.29709  1.0000
  C   C488      1.0  0.13720  0.70416  0.28385  1.0000
  C   C489      1.0  0.22446  0.74443  0.29097  1.0000
  C   C490      1.0  0.17129  0.69509  0.35105  1.0000
  C   C491      1.0  0.19769  0.68008  0.30677  1.0000
  H   H812      1.0  0.16894  0.74143  0.29574  1.0000
  H   H813      1.0  0.17705  0.72639  0.27234  1.0000
  H   H814      1.0  0.21615  0.72803  0.32593  1.0000
  H   H815      1.0  0.20541  0.75072  0.32093  1.0000
  H   H816      1.0  0.16071  0.72233  0.33608  1.0000
  H   H817      1.0  0.14153  0.68916  0.32638  1.0000
  H   H818      1.0  0.15770  0.67034  0.29939  1.0000
  H   H819      1.0  0.18110  0.69015  0.27754  1.0000
  H   H820      1.0  0.12430  0.70359  0.29854  1.0000
  H   H821      1.0  0.20437  0.56434  0.40302  1.0000
  H   H822      1.0  0.21069  0.53780  0.40432  1.0000
  C   C492      1.0  0.07064  0.54194  0.29318  1.0000
  H   H823      1.0  0.22402  0.72851  0.28009  1.0000
  H   H824      1.0  0.00222  0.52268  0.33497  1.0000
  C   C493      1.0  0.18850  0.56699  0.45645  1.0000
  H   H825      1.0  0.19144  0.70936  0.35709  1.0000
  H   H826      1.0  0.16947  0.67574  0.34720  1.0000
  H   H827      1.0  0.18798  0.65828  0.30755  1.0000
  H   H828      1.0  0.20536  0.68726  0.32476  1.0000
  H   H829      1.0  0.21434  0.68622  0.29417  1.0000
  H   H830      1.0  0.24615  0.81825  0.41086  1.0000
  H   H831      1.0  0.31083  0.78302  0.40289  1.0000
  C   C494      1.0  0.30335  0.81621  0.40377  1.0000
  N   N34       1.0  0.27757  0.81341  0.39548  1.0000
  H   H832      1.0  0.44660  0.84669  0.47997  1.0000
  C   C495      1.0  0.17810  0.53101  0.42752  1.0000
  H   H833      1.0  0.08452  0.57232  0.36492  1.0000
  H   H834      1.0  0.01473  0.65543  0.49355  1.0000
  H   H835      1.0  0.09009  0.55519  0.28490  1.0000
  H   H836      1.0  0.18264  0.53345  0.38864  1.0000
  H   H837      1.0  0.23860  0.78456  0.38355  1.0000
  C   C496      1.0  0.05173  0.63043  0.49542  1.0000
  C   C497      1.0  0.13658  0.54307  0.40584  1.0000
  H   H838      1.0  0.13260  0.68394  0.27943  1.0000
  C   C498      1.0  0.21438  0.58822  0.44522  1.0000
  C   C499      1.0  0.01464  0.94675  0.45944  1.0000
  H   H839      1.0  0.00519  0.56445  0.32410  1.0000
  H   H840      1.0  0.37988  0.79876  0.46646  1.0000
  H   H841      1.0  0.01434  0.68499  0.48540  1.0000
  S   S143      1.0  0.15587  0.64617  0.49200  1.0000
  H   H842      1.0  0.21139  0.59985  0.43136  1.0000
  H   H843      1.0  0.16126  0.51158  0.42217  1.0000
  C   C500      1.0  0.14431  0.52904  0.45460  1.0000
  H   H844      1.0  0.15255  0.57315  0.43268  1.0000
  H   H845      1.0  0.99775  0.89415  0.45572  1.0000
  C   C501      1.0  0.03276  0.97270  0.47255  1.0000
  H   H846      1.0  0.13509  0.54003  0.46223  1.0000
  H   H847      1.0  0.13978  0.52789  0.39733  1.0000
  H   H848      1.0  0.05522  0.68522  0.47750  1.0000
  H   H849      1.0  0.15964  0.52844  0.49028  1.0000
  H   H850      1.0  0.08120  0.71944  0.47708  1.0000
  H   H851      1.0  0.05116  0.56434  0.29332  1.0000
  H   H852      1.0  0.04797  0.57349  0.49016  1.0000
  H   H853      1.0  0.42549  0.49701  0.49140  1.0000
  C   C502      1.0  0.09627  0.52660  0.49736  1.0000
  C   C503      1.0  0.00980  0.92119  0.49512  1.0000
  S   S144      1.0  0.13516  0.63872  0.25805  1.0000
  H   H854      1.0  0.48161  0.96668  0.46793  1.0000
  H   H855      1.0  0.02671  0.91929  0.48841  1.0000
  H   H856      1.0  0.46619  0.93352  0.45534  1.0000
  H   H857      1.0  0.15995  0.50465  0.46975  1.0000
  C   C504      1.0  0.07896  0.64151  0.49311  1.0000
  H   H858      1.0  0.22649  0.60242  0.45930  1.0000
  H   H859      1.0  0.47602  0.89712  0.47500  1.0000
  C   C505      1.0  0.43930  0.85032  0.49637  1.0000
  H   H860      1.0  0.10032  0.95772  0.49842  1.0000
  H   H861      1.0  0.01859  0.54320  0.48487  1.0000
  H   H862      1.0  0.33357  0.81272  0.49861  1.0000
  H   H863      1.0  0.98228  0.96787  0.46943  1.0000
  C   C506      1.0  0.07767  0.50023  0.50309  1.0000
  C   C507      1.0  0.40822  0.48720  0.50254  1.0000
  H   H864      1.0  0.98913  0.87883  0.50317  1.0000
  C   C508      1.0  0.36821  0.79501  0.50357  1.0000
  Fe  Fe73      1.0  0.01661  0.82650  0.57088  1.0000
  C   C509      1.0  0.35631  0.79164  0.54530  1.0000
  S   S145      1.0  0.02339  0.79104  0.56935  1.0000
  Fe  Fe74      1.0  0.03626  0.88557  0.55677  1.0000
  S   S146      1.0  0.01214  0.88992  0.58551  1.0000
  S   S147      1.0  0.06333  0.91924  0.53112  1.0000
  Fe  Fe75      1.0  0.02474  0.86730  0.60905  1.0000
  S   S148      1.0  0.03857  0.87817  0.64704  1.0000
  C   C510      1.0  0.46449  0.71238  0.55278  1.0000
  S   S149      1.0  0.43961  0.83454  0.56607  1.0000
  S   S150      1.0  0.05156  0.86567  0.58139  1.0000
  S   S151      1.0  0.00349  0.84612  0.54372  1.0000
  S   S152      1.0  0.03374  0.64328  0.72049  1.0000
  Fe  Fe76      1.0  0.44690  0.56818  0.55537  1.0000
  H   H865      1.0  0.11592  0.65740  0.51167  1.0000
  S   S153      1.0  0.43246  0.53301  0.52918  1.0000
  Fe  Fe77      1.0  0.46241  0.62748  0.56363  1.0000
  C   C511      1.0  0.99547  0.70587  0.71535  1.0000
  H   H866      1.0  0.98307  0.86260  0.64373  1.0000
  S   S154      1.0  0.04211  0.62835  0.56662  1.0000
  N   N35       1.0  0.05088  0.70761  0.52222  1.0000
  Fe  Fe78      1.0  0.45909  0.59347  0.60554  1.0000
  S   S155      1.0  0.44886  0.58959  0.64473  1.0000
  H   H867      1.0  0.13430  0.96586  0.58108  1.0000
  S   S156      1.0  0.42960  0.58853  0.57725  1.0000
  S   S157      1.0  0.44962  0.83514  0.72818  1.0000
  H   H868      1.0  0.05576  0.57779  0.56750  1.0000
  H   H869      1.0  0.05277  0.92429  0.62109  1.0000
  C   C512      1.0  0.36866  0.84122  0.75053  1.0000
  C   C513      1.0  0.04029  0.62605  0.51797  1.0000
  H   H870      1.0  0.08380  0.92887  0.66268  1.0000
  H   H871      1.0  0.01926  0.61670  0.51954  1.0000
  C   C514      1.0  0.00952  0.63306  0.69792  1.0000
  C   C515      1.0  0.11640  0.94715  0.57645  1.0000
  H   H872      1.0  0.06329  0.77736  0.70245  1.0000
  C   C516      1.0  0.09108  0.96707  0.50786  1.0000
  H   H873      1.0  0.44837  0.59591  0.69519  1.0000
  C   C517      1.0  0.01472  0.62634  0.67542  1.0000
  C   C518      1.0  0.10354  0.93755  0.65436  1.0000
  H   H874      1.0  0.38568  0.77882  0.54221  1.0000
  H   H875      1.0  0.45604  0.83226  0.51830  1.0000
  H   H876      1.0  0.03360  0.62787  0.67198  1.0000
  H   H877      1.0  0.44458  0.70372  0.54609  1.0000
  N   N36       1.0  0.05696  0.55649  0.53651  1.0000
  H   H878      1.0  0.02895  0.70719  0.75009  1.0000
  C   C519      1.0  0.00209  0.79657  0.73438  1.0000
  H   H879      1.0  0.45580  0.48846  0.56855  1.0000
  C   C520      1.0  0.01614  0.54763  0.56181  1.0000
  H   H880      1.0  0.11432  0.94657  0.55680  1.0000
  C   C521      1.0  0.00154  0.75660  0.56516  1.0000
  H   H881      1.0  0.39699  0.83453  0.72832  1.0000
  H   H882      1.0  0.36787  0.82895  0.71371  1.0000
  H   H883      1.0  0.30115  0.76382  0.54801  1.0000
  H   H884      1.0  0.07021  0.74706  0.50795  1.0000
  H   H885      1.0  0.43835  0.63410  0.66357  1.0000
  H   H886      1.0  0.47341  0.93067  0.54328  1.0000
  S   S158      1.0  0.45521  0.66136  0.55369  1.0000
  C   C522      1.0  0.40592  0.50063  0.52240  1.0000
  H   H887      1.0  0.02484  0.74585  0.58708  1.0000
  C   C523      1.0  0.07206  0.95275  0.52537  1.0000
  C   C524      1.0  0.06039  0.96530  0.53731  1.0000
  H   H888      1.0  0.99781  0.58143  0.71957  1.0000
  C   C525      1.0  0.45991  0.66247  0.62295  1.0000
  H   H889      1.0  0.00399  0.53108  0.54983  1.0000
  H   H890      1.0  0.06844  0.70127  0.73455  1.0000
  C   C526      1.0  0.43471  0.84624  0.53916  1.0000
  H   H891      1.0  0.36943  0.77212  0.57012  1.0000
  H   H892      1.0  0.45204  0.85452  0.68080  1.0000
  C   C527      1.0  0.44474  0.84225  0.51802  1.0000
  H   H893      1.0  0.05623  0.73792  0.68914  1.0000
  H   H894      1.0  0.35202  0.75196  0.54509  1.0000
  C   C528      1.0  0.01485  0.87378  0.66860  1.0000
  C   C529      1.0  0.02213  0.87815  0.69264  1.0000
  H   H895      1.0  0.38097  0.49750  0.55169  1.0000
  H   H896      1.0  0.08811  0.91356  0.62291  1.0000
  C   C530      1.0  0.09128  0.94448  0.58798  1.0000
  H   H897      1.0  0.99853  0.69798  0.57828  1.0000
  H   H898      1.0  0.04218  0.88423  0.69772  1.0000
  H   H899      1.0  0.06512  0.98162  0.61651  1.0000
  H   H900      1.0  0.30318  0.73459  0.54244  1.0000
  H   H901      1.0  0.47133  0.66888  0.60615  1.0000
  H   H902      1.0  0.02612  0.66699  0.53258  1.0000
  H   H903      1.0  0.37292  0.81175  0.54921  1.0000
  N   N37       1.0  0.09365  0.95199  0.61387  1.0000
  C   C531      1.0  0.10179  0.93472  0.62704  1.0000
  H   H904      1.0  0.01945  0.75542  0.71962  1.0000
  C   C532      1.0  0.06697  0.94564  0.62316  1.0000
  C   C533      1.0  0.45089  0.53725  0.71879  1.0000
  H   H905      1.0  0.47891  0.89904  0.51898  1.0000
  H   H906      1.0  0.29950  0.79660  0.52850  1.0000
  Fe  Fe79      1.0  0.48117  0.84245  0.56959  1.0000
  H   H907      1.0  0.04163  0.58290  0.54240  1.0000
  C   C534      1.0  0.04337  0.51042  0.55452  1.0000
  H   H908      1.0  0.11159  0.58342  0.55354  1.0000
  H   H909      1.0  0.07394  0.73164  0.74745  1.0000
  C   C535      1.0  0.07171  0.70188  0.51294  1.0000
  C   C536      1.0  0.99534  0.61687  0.65750  1.0000
  H   H910      1.0  0.09749  0.60442  0.55904  1.0000
  H   H911      1.0  0.31894  0.83128  0.52973  1.0000
  N   N38       1.0  0.34622  0.79045  0.52039  1.0000
  H   H912      1.0  0.35889  0.83190  0.51932  1.0000
  H   H913      1.0  0.45243  0.51176  0.66539  1.0000
  C   C537      1.0  0.02440  0.68286  0.52342  1.0000
  H   H914      1.0  0.98868  0.68502  0.71064  1.0000
  H   H915      1.0  0.38695  0.81240  0.50921  1.0000
  H   H916      1.0  0.32365  0.81285  0.55224  1.0000
  C   C538      1.0  0.00362  0.87474  0.71022  1.0000
  C   C539      1.0  0.03281  0.74851  0.72640  1.0000
  H   H917      1.0  0.40376  0.87757  0.51695  1.0000
  H   H918      1.0  0.07536  0.92374  0.58544  1.0000
  H   H919      1.0  0.42555  0.63623  0.60210  1.0000
  H   H920      1.0  0.01926  0.56332  0.50888  1.0000
  C   C540      1.0  0.99350  0.89764  0.51168  1.0000
  H   H921      1.0  0.06406  0.78869  0.73194  1.0000
  H   H922      1.0  0.42764  0.66708  0.60765  1.0000
  C   C541      1.0  0.05419  0.96043  0.61191  1.0000
  C   C542      1.0  0.99312  0.71141  0.57038  1.0000
  N   N39       1.0  0.02521  0.72191  0.71598  1.0000
  H   H923      1.0  0.41231  0.86223  0.55512  1.0000
  C   C543      1.0  0.10386  0.50165  0.53668  1.0000
  C   C544      1.0  0.34052  0.81264  0.51697  1.0000
  H   H924      1.0  0.47290  0.94939  0.50828  1.0000
  H   H925      1.0  0.43466  0.67575  0.65865  1.0000
  C   C545      1.0  0.41476  0.86734  0.51711  1.0000
  C   C546      1.0  0.11907  0.54068  0.51110  1.0000
  H   H926      1.0  0.42819  0.53951  0.74852  1.0000
  H   H927      1.0  0.04541  0.95457  0.55048  1.0000
  C   C547      1.0  0.38277  0.84162  0.72709  1.0000
  C   C548      1.0  0.03006  0.73687  0.51501  1.0000
  H   H928      1.0  0.03539  0.74772  0.53208  1.0000
  H   H929      1.0  0.05167  0.95753  0.59249  1.0000
  C   C549      1.0  0.47982  0.74001  0.55510  1.0000
  C   C550      1.0  0.43092  0.65176  0.61578  1.0000
  H   H930      1.0  0.11263  0.92627  0.66149  1.0000
  C   C551      1.0  0.32249  0.76423  0.51447  1.0000
  C   C552      1.0  0.06447  0.53954  0.55098  1.0000
  H   H931      1.0  0.43531  0.64809  0.69063  1.0000
  H   H932      1.0  0.10705  0.49232  0.55189  1.0000
  C   C553      1.0  0.12266  0.52791  0.53075  1.0000
  C   C554      1.0  0.08336  0.64447  0.53599  1.0000
  C   C555      1.0  0.41981  0.85888  0.53871  1.0000
  H   H933      1.0  0.48079  0.50498  0.74897  1.0000
  C   C556      1.0  0.11385  0.98044  0.61833  1.0000
  H   H934      1.0  0.36584  0.79182  0.74262  1.0000
  Fe  Fe80      1.0  0.99900  0.61585  0.56764  1.0000
  C   C557      1.0  0.36626  0.77231  0.55067  1.0000
  H   H935      1.0  0.07545  0.72769  0.71571  1.0000
  H   H936      1.0  0.46178  0.64554  0.62938  1.0000
  H   H937      1.0  0.07143  0.54815  0.56898  1.0000
  H   H938      1.0  0.47622  0.65231  0.50577  1.0000
  H   H939      1.0  0.34143  0.78832  0.55897  1.0000
  C   C558      1.0  0.03471  0.72468  0.69067  1.0000
  H   H940      1.0  0.01853  0.93876  0.50685  1.0000
  H   H941      1.0  0.99569  0.77575  0.73842  1.0000
  H   H942      1.0  0.99118  0.79316  0.68633  1.0000
  H   H943      1.0  0.45011  0.55352  0.70935  1.0000
  H   H944      1.0  0.12074  0.61174  0.53582  1.0000
  H   H945      1.0  0.11914  0.93035  0.58137  1.0000
  N   N40       1.0  0.47100  0.68452  0.64085  1.0000
  H   H946      1.0  0.36822  0.86000  0.75097  1.0000
  H   H947      1.0  0.28158  0.74119  0.52564  1.0000
  H   H948      1.0  0.14015  0.53842  0.54157  1.0000
  H   H949      1.0  0.01050  0.68554  0.53499  1.0000
  S   S159      1.0  0.47382  0.57042  0.58514  1.0000
  C   C559      1.0  0.08196  0.57945  0.52690  1.0000
  H   H950      1.0  0.09566  0.65010  0.55168  1.0000
  H   H951      1.0  0.00953  0.87837  0.72866  1.0000
  H   H952      1.0  0.06774  0.94979  0.64249  1.0000
  H   H953      1.0  0.41725  0.64245  0.63087  1.0000
  H   H954      1.0  0.46225  0.56335  0.74995  1.0000
  H   H955      1.0  0.98740  0.71325  0.70128  1.0000
  C   C560      1.0  0.44823  0.54254  0.74528  1.0000
  H   H956      1.0  0.03831  0.68908  0.68739  1.0000
  H   H957      1.0  0.09090  0.57278  0.51301  1.0000
  C   C561      1.0  0.09481  0.64844  0.51339  1.0000
  C   C562      1.0  0.04346  0.56732  0.55180  1.0000
  H   H958      1.0  0.03034  0.74718  0.74610  1.0000
  C   C563      1.0  0.06488  0.71804  0.73217  1.0000
  C   C564      1.0  0.10387  0.59535  0.54521  1.0000
  H   H959      1.0  0.99927  0.61094  0.64048  1.0000
  H   H960      1.0  0.46675  0.65292  0.68241  1.0000
  H   H961      1.0  0.02515  0.50784  0.56274  1.0000
  C   C565      1.0  0.46860  0.60325  0.68990  1.0000
  C   C566      1.0  0.30140  0.75076  0.53405  1.0000
  H   H962      1.0  0.05140  0.50113  0.56660  1.0000
  H   H963      1.0  0.03872  0.49922  0.53762  1.0000
  C   C567      1.0  0.00796  0.73861  0.57543  1.0000
  H   H964      1.0  0.43257  0.51905  0.71344  1.0000
  H   H965      1.0  0.00738  0.68497  0.67629  1.0000
  H   H966      1.0  0.02239  0.52326  0.52066  1.0000
  H   H967      1.0  0.04352  0.68171  0.56838  1.0000
  C   C568      1.0  0.02877  0.69887  0.67818  1.0000
  S   S160      1.0  0.99111  0.82758  0.60015  1.0000
  H   H968      1.0  0.11594  0.95822  0.66018  1.0000
  H   H969      1.0  0.47168  0.75231  0.55009  1.0000
  H   H970      1.0  0.08505  0.95591  0.57687  1.0000
  C   C569      1.0  0.45955  0.53299  0.66782  1.0000
  H   H971      1.0  0.32878  0.74978  0.50957  1.0000
  C   C570      1.0  0.05609  0.63343  0.53827  1.0000
  S   S161      1.0  0.47706  0.60707  0.53923  1.0000
  C   C571      1.0  0.98517  0.63137  0.70200  1.0000
  H   H972      1.0  0.00985  0.71977  0.51593  1.0000
  H   H973      1.0  0.06891  0.68316  0.52040  1.0000
  H   H974      1.0  0.12158  0.93872  0.62119  1.0000
  C   C572      1.0  0.05861  0.71814  0.54720  1.0000
  C   C573      1.0  0.31943  0.81286  0.53309  1.0000
  H   H975      1.0  0.06868  0.71046  0.58234  1.0000
  H   H976      1.0  0.39295  0.86168  0.71932  1.0000
  C   C574      1.0  0.06225  0.70016  0.56499  1.0000
  H   H977      1.0  0.00469  0.55790  0.56418  1.0000
  H   H978      1.0  0.08141  0.53900  0.54269  1.0000
  H   H979      1.0  0.07757  0.69548  0.55934  1.0000
  H   H980      1.0  0.07729  0.73742  0.54711  1.0000
  H   H981      1.0  0.04361  0.72206  0.55528  1.0000
  H   H982      1.0  0.02605  0.73423  0.67962  1.0000
  C   C575      1.0  0.04045  0.54146  0.51537  1.0000
  H   H983      1.0  0.03699  0.70339  0.65990  1.0000
  H   H984      1.0  0.00517  0.89964  0.52789  1.0000
  C   C576      1.0  0.47468  0.60334  0.66576  1.0000
  H   H985      1.0  0.45188  0.70491  0.62621  1.0000
  H   H986      1.0  0.01795  0.54007  0.57937  1.0000
  H   H987      1.0  0.07783  0.59390  0.51798  1.0000
  H   H988      1.0  0.46314  0.69297  0.67639  1.0000
  C   C577      1.0  0.47035  0.83895  0.70385  1.0000
  C   C578      1.0  0.46766  0.84988  0.68259  1.0000
  H   H989      1.0  0.44279  0.53607  0.67203  1.0000
  C   C579      1.0  0.45395  0.67725  0.66272  1.0000
  C   C580      1.0  0.03495  0.70750  0.73136  1.0000
  C   C581      1.0  0.44850  0.65159  0.67523  1.0000
  C   C582      1.0  0.46978  0.50800  0.71200  1.0000
  C   C583      1.0  0.47484  0.69597  0.55853  1.0000
  H   H990      1.0  0.01396  0.80830  0.74983  1.0000
  H   H991      1.0  0.98551  0.82004  0.68905  1.0000
  H   H992      1.0  0.01536  0.80346  0.71879  1.0000
  S   S162      1.0  0.98656  0.63990  0.58915  1.0000
  H   H993      1.0  0.98612  0.82242  0.72973  1.0000
  H   H994      1.0  0.09166  0.71729  0.51891  1.0000
  C   C584      1.0  0.98890  0.86600  0.66222  1.0000
  H   H995      1.0  0.45248  0.49512  0.70074  1.0000
  C   C585      1.0  0.05047  0.72894  0.50758  1.0000
  C   C586      1.0  0.47205  0.70839  0.62965  1.0000
  H   H996      1.0  0.02516  0.68630  0.72665  1.0000
  S   S163      1.0  0.38360  0.95503  0.51295  1.0000
  C   C587      1.0  0.06082  0.77131  0.72138  1.0000
  H   H997      1.0  0.47566  0.73264  0.66106  1.0000
  H   H998      1.0  0.44573  0.49236  0.74425  1.0000
  N   N41       1.0  0.47510  0.53592  0.71151  1.0000
  H   H999      1.0  0.05146  0.53457  0.50411  1.0000
  H   H1000     1.0  0.07636  0.76694  0.72669  1.0000
  H   H1001     1.0  0.34772  0.82541  0.74881  1.0000
  H   H1002     1.0  0.46722  0.54257  0.65033  1.0000
  C   C588      1.0  0.46410  0.49464  0.73648  1.0000
  H   H1003     1.0  0.03409  0.95245  0.61944  1.0000
  C   C589      1.0  0.38324  0.48761  0.53643  1.0000
  H   H1004     1.0  0.13387  0.98270  0.61939  1.0000
  C   C590      1.0  0.08120  0.48747  0.52283  1.0000
  H   H1005     1.0  0.41488  0.88776  0.75344  1.0000
  H   H1006     1.0  0.11037  0.98690  0.63592  1.0000
  H   H1007     1.0  0.98333  0.72448  0.74315  1.0000
  H   H1008     1.0  0.37210  0.77828  0.50404  1.0000
  C   C591      1.0  0.48202  0.54574  0.68628  1.0000
  S   S164      1.0  0.14385  0.57387  0.50440  1.0000
  H   H1009     1.0  0.48150  0.71242  0.61185  1.0000
  Fe  Fe81      1.0  0.37126  0.94412  0.89305  1.0000
  S   S165      1.0  0.39453  0.97141  0.92306  1.0000
  S   S166      1.0  0.39450  0.93105  0.86821  1.0000
  Fe  Fe82      1.0  0.32580  0.95771  0.90032  1.0000
  H   H1010     1.0  0.00582  0.55015  0.82389  1.0000
  H   H1011     1.0  0.11567  0.97390  0.98020  1.0000
  H   H1012     1.0  0.14483  0.92757  0.92790  1.0000
  S   S167      1.0  0.39345  0.54771  0.90125  1.0000
  Fe  Fe83      1.0  0.35643  0.95528  0.94295  1.0000
  H   H1013     1.0  0.37372  0.50412  0.97368  1.0000
  S   S168      1.0  0.36168  0.97365  0.87680  1.0000
  S   S169      1.0  0.33312  0.92556  0.91420  1.0000
  C   C592      1.0  0.12213  0.97882  0.99844  1.0000
  S   S170      1.0  0.00513  0.64976  0.82450  1.0000
  C   C593      1.0  0.45752  0.52236  0.82492  1.0000
  H   H1014     1.0  0.20446  0.89263  0.90816  1.0000
  S   S171      1.0  0.05126  0.67639  0.78482  1.0000
  Fe  Fe84      1.0  0.03805  0.64316  0.81147  1.0000
  S   S172      1.0  0.06367  0.63670  0.83915  1.0000
  Fe  Fe85      1.0  0.01608  0.68042  0.79558  1.0000
  S   S173      1.0  0.02224  0.72267  0.79622  1.0000
  S   S174      1.0  0.01316  0.61268  0.78452  1.0000
  H   H1015     1.0  0.41869  0.84575  0.76097  1.0000
  Fe  Fe86      1.0  0.16089  0.51989  0.89811  1.0000
  C   C594      1.0  0.25455  0.50146  0.88468  1.0000
  S   S175      1.0  0.19933  0.52497  0.88228  1.0000
  Fe  Fe87      1.0  0.11704  0.53575  0.89035  1.0000
  S   S176      1.0  0.09288  0.50959  0.92054  1.0000
  S   S177      1.0  0.09893  0.55080  0.86188  1.0000
  Fe  Fe88      1.0  0.13114  0.52462  0.94030  1.0000
  S   S178      1.0  0.13706  0.53663  0.97903  1.0000
  C   C595      1.0  0.37080  0.84797  0.79376  1.0000
  S   S179      1.0  0.09962  0.93198  0.90603  1.0000
  S   S180      1.0  0.15528  0.55323  0.91129  1.0000
  S   S181      1.0  0.12499  0.50485  0.87486  1.0000
  H   H1016     1.0  0.47084  0.53720  0.87143  1.0000
  S   S182      1.0  0.43345  0.79982  0.79082  1.0000
  C   C596      1.0  0.40984  0.85325  0.77389  1.0000
  H   H1017     1.0  0.17229  0.87034  0.89615  1.0000
  S   S183      1.0  0.05017  0.90528  0.80352  1.0000
  C   C597      1.0  0.02662  0.54484  0.89542  1.0000
  S   S184      1.0  0.46069  0.75205  0.80285  1.0000
  Fe  Fe89      1.0  0.44775  0.83298  0.81750  1.0000
  S   S185      1.0  0.41877  0.83820  0.84180  1.0000
  H   H1018     1.0  0.13175  0.86254  0.91193  1.0000
  H   H1019     1.0  0.18513  0.90837  0.87431  1.0000
  C   C598      1.0  0.08654  0.92275  0.87739  1.0000
  C   C599      1.0  0.10202  0.93507  0.85746  1.0000
  C   C600      1.0  0.09096  0.92855  0.83470  1.0000
  C   C601      1.0  0.06426  0.91014  0.83184  1.0000
  C   C602      1.0  0.04899  0.89720  0.85172  1.0000
  C   C603      1.0  0.06022  0.90328  0.87447  1.0000
  H   H1020     1.0  0.12241  0.94978  0.85950  1.0000
  H   H1021     1.0  0.10289  0.93840  0.81932  1.0000
  H   H1022     1.0  0.02850  0.88276  0.84966  1.0000
  H   H1023     1.0  0.04825  0.89349  0.88985  1.0000
  H   H1024     1.0  0.01366  0.52335  0.89722  1.0000
  S   S186      1.0  0.99183  0.84718  0.77418  1.0000
  C   C604      1.0  0.13641  0.89535  0.88896  1.0000
  C   C605      1.0  0.00184  0.73754  0.79713  1.0000
  H   H1025     1.0  0.11109  0.87636  0.91987  1.0000
  H   H1026     1.0  0.04810  0.94643  0.88724  1.0000
  H   H1027     1.0  0.41719  0.85067  0.79136  1.0000
  C   C606      1.0  0.46265  0.70211  0.85627  1.0000
  C   C607      1.0  0.01384  0.76518  0.79640  1.0000
  H   H1028     1.0  0.18600  0.94016  0.85259  1.0000
  H   H1029     1.0  0.27179  0.50534  0.87454  1.0000
  H   H1030     1.0  0.00848  0.79921  0.79743  1.0000
  H   H1031     1.0  0.03506  0.77687  0.79547  1.0000
  C   C608      1.0  0.07408  0.61310  0.84454  1.0000
  C   C609      1.0  0.06842  0.59226  0.82899  1.0000
  C   C610      1.0  0.07629  0.57364  0.83458  1.0000
  C   C611      1.0  0.08965  0.57519  0.85591  1.0000
  C   C612      1.0  0.09520  0.59594  0.87151  1.0000
  C   C613      1.0  0.08770  0.61479  0.86575  1.0000
  H   H1032     1.0  0.05800  0.59054  0.81262  1.0000
  H   H1033     1.0  0.07187  0.55781  0.82226  1.0000
  H   H1034     1.0  0.10522  0.59749  0.88807  1.0000
  H   H1035     1.0  0.09210  0.63065  0.87805  1.0000
  H   H1036     1.0  0.00838  0.58657  0.84823  1.0000
  H   H1037     1.0  0.33666  0.84573  0.81113  1.0000
  C   C614      1.0  0.24053  0.51463  0.87905  1.0000
  C   C615      1.0  0.46488  0.86573  0.89331  1.0000
  H   H1038     1.0  0.01453  0.93719  0.89166  1.0000
  C   C616      1.0  0.47490  0.71437  0.79424  1.0000
  N   N42       1.0  0.43996  0.49675  0.83741  1.0000
  H   H1039     1.0  0.24735  0.52869  0.86465  1.0000
  C   C617      1.0  0.34379  0.54526  0.98696  1.0000
  H   H1040     1.0  0.44423  0.66787  0.82148  1.0000
  C   C618      1.0  0.40031  0.90459  0.86088  1.0000
  C   C619      1.0  0.38680  0.87984  0.87168  1.0000
  C   C620      1.0  0.39263  0.85987  0.86553  1.0000
  C   C621      1.0  0.41219  0.86427  0.84865  1.0000
  C   C622      1.0  0.42560  0.88896  0.83772  1.0000
  C   C623      1.0  0.41965  0.90886  0.84376  1.0000
  H   H1041     1.0  0.37187  0.87608  0.88484  1.0000
  H   H1042     1.0  0.38198  0.84089  0.87409  1.0000
  H   H1043     1.0  0.44069  0.89280  0.82473  1.0000
  H   H1044     1.0  0.43023  0.92784  0.83519  1.0000
  C   C624      1.0  0.40720  0.55471  0.87288  1.0000
  C   C625      1.0  0.43451  0.56967  0.87036  1.0000
  C   C626      1.0  0.44578  0.57558  0.84771  1.0000
  C   C627      1.0  0.42981  0.56647  0.82752  1.0000
  C   C628      1.0  0.40247  0.55158  0.83005  1.0000
  C   C629      1.0  0.39115  0.54563  0.85274  1.0000
  H   H1045     1.0  0.44696  0.57641  0.88596  1.0000
  H   H1046     1.0  0.45464  0.62331  0.89399  1.0000
  H   H1047     1.0  0.39002  0.54448  0.81447  1.0000
  H   H1048     1.0  0.37000  0.53432  0.85464  1.0000
  C   C630      1.0  0.12020  0.87127  0.90497  1.0000
  C   C631      1.0  0.99087  0.56674  0.85104  1.0000
  H   H1049     1.0  0.18528  0.56909  0.86345  1.0000
  H   H1050     1.0  0.46919  0.49440  0.85982  1.0000
  C   C632      1.0  0.34077  0.83426  0.79778  1.0000
  H   H1051     1.0  0.25212  0.49975  0.95976  1.0000
  C   C633      1.0  0.45433  0.90900  0.90246  1.0000
  H   H1052     1.0  0.45619  0.67810  0.88683  1.0000
  H   H1053     1.0  0.33294  0.81433  0.80544  1.0000
  H   H1054     1.0  0.43972  0.64139  0.90679  1.0000
  C   C634      1.0  0.43673  0.62517  0.89480  1.0000
  C   C635      1.0  0.42747  0.62748  0.86980  1.0000
  C   C636      1.0  0.04350  0.96900  0.79967  1.0000
  H   H1055     1.0  0.02666  0.55511  0.91195  1.0000
  H   H1056     1.0  0.15242  0.94756  0.89094  1.0000
  S   S187      1.0  0.28716  0.95274  0.88492  1.0000
  H   H1057     1.0  0.43863  0.89649  0.88963  1.0000
  H   H1058     1.0  0.44978  0.89699  0.91892  1.0000
  H   H1059     1.0  0.01592  0.94918  0.82757  1.0000
  H   H1060     1.0  0.44413  0.85928  0.89789  1.0000
  H   H1061     1.0  0.12270  0.90272  0.88452  1.0000
  C   C637      1.0  0.47811  0.89197  0.87956  1.0000
  H   H1062     1.0  0.37731  0.86916  0.79146  1.0000
  H   H1063     1.0  0.20390  0.93002  0.89690  1.0000
  H   H1064     1.0  0.10368  0.85583  0.89443  1.0000
  H   H1065     1.0  0.42122  0.60677  0.90313  1.0000
  S   S188      1.0  0.47378  0.86322  0.79097  1.0000
  H   H1066     1.0  0.40745  0.62511  0.87165  1.0000
  H   H1067     1.0  0.03199  0.60432  0.89403  1.0000
  N   N43       1.0  0.05148  0.97927  0.84504  1.0000
  C   C638      1.0  0.01938  0.55545  0.87347  1.0000
  H   H1068     1.0  0.02070  0.54428  0.85809  1.0000
  H   H1069     1.0  0.18103  0.94318  0.95639  1.0000
  H   H1070     1.0  0.15232  0.90294  0.93523  1.0000
  N   N44       1.0  0.18360  0.60079  0.84501  1.0000
  C   C639      1.0  0.17279  0.57202  0.85027  1.0000
  C   C640      1.0  0.18812  0.61513  0.86838  1.0000
  C   C641      1.0  0.20936  0.61214  0.83186  1.0000
  C   C642      1.0  0.16412  0.60368  0.82967  1.0000
  C   C643      1.0  0.16332  0.61219  0.88076  1.0000
  C   C644      1.0  0.23078  0.60812  0.84386  1.0000
  C   C645      1.0  0.17149  0.63213  0.82318  1.0000
  H   H1071     1.0  0.15319  0.56362  0.85882  1.0000
  H   H1072     1.0  0.20213  0.63656  0.86644  1.0000
  H   H1073     1.0  0.19783  0.60838  0.88139  1.0000
  H   H1074     1.0  0.20643  0.60420  0.81347  1.0000
  H   H1075     1.0  0.21797  0.63373  0.82945  1.0000
  H   H1076     1.0  0.16133  0.59335  0.81243  1.0000
  H   H1077     1.0  0.14403  0.59357  0.83756  1.0000
  H   H1078     1.0  0.16302  0.53411  0.83529  1.0000
  H   H1079     1.0  0.16861  0.62087  0.89885  1.0000
  H   H1080     1.0  0.15498  0.62284  0.87109  1.0000
  H   H1081     1.0  0.14791  0.59138  0.88283  1.0000
  H   H1082     1.0  0.24911  0.61817  0.83315  1.0000
  H   H1083     1.0  0.22516  0.58708  0.84478  1.0000
  H   H1084     1.0  0.23565  0.61680  0.86193  1.0000
  H   H1085     1.0  0.18159  0.63778  0.80569  1.0000
  H   H1086     1.0  0.18427  0.64688  0.83647  1.0000
  H   H1087     1.0  0.15330  0.63359  0.82225  1.0000
  N   N45       1.0  0.16210  0.91726  0.89876  1.0000
  H   H1088     1.0  0.18769  0.56066  0.81873  1.0000
  C   C646      1.0  0.28727  0.51229  0.98098  1.0000
  H   H1089     1.0  0.42710  0.67239  0.87269  1.0000
  H   H1090     1.0  0.17222  0.96114  0.85207  1.0000
  H   H1091     1.0  0.15342  0.55239  0.81669  1.0000
  H   H1092     1.0  0.03407  0.98071  0.79497  1.0000
  S   S189      1.0  0.35345  0.94551  0.98223  1.0000
  H   H1093     1.0  0.43022  0.92420  0.91716  1.0000
  C   C647      1.0  0.27001  0.96987  0.89213  1.0000
  C   C648      1.0  0.44954  0.93202  0.90807  1.0000
  C   C649      1.0  0.21760  0.50947  0.89155  1.0000
  C   C650      1.0  0.03026  0.94397  0.87801  1.0000
  C   C651      1.0  0.16768  0.94230  0.88631  1.0000
  H   H1094     1.0  0.22533  0.98394  0.86663  1.0000
  H   H1095     1.0  0.24755  0.95790  0.85968  1.0000
  Fe  Fe90      1.0  0.46772  0.79434  0.80157  1.0000
  H   H1096     1.0  0.46684  0.58635  0.84599  1.0000
  C   C652      1.0  0.36993  0.49830  0.99213  1.0000
  S   S190      1.0  0.13901  0.49278  0.92817  1.0000
  H   H1097     1.0  0.29720  0.51100  0.96454  1.0000
  H   H1098     1.0  0.00863  0.60892  0.91055  1.0000
  H   H1099     1.0  0.99332  0.56275  0.91162  1.0000
  N   N46       1.0  0.99322  0.55452  0.87386  1.0000
  H   H1100     1.0  0.01480  0.96711  0.86377  1.0000
  H   H1101     1.0  0.06467  0.98058  0.79547  1.0000
  C   C653      1.0  0.16921  0.55422  0.82874  1.0000
  H   H1102     1.0  0.43875  0.98361  0.88982  1.0000
  C   C654      1.0  0.42259  0.88309  0.76953  1.0000
  Fe  Fe91      1.0  0.36101  0.50594  0.90361  1.0000
  H   H1103     1.0  0.44804  0.94148  0.89152  1.0000
  H   H1104     1.0  0.00799  0.61028  0.87906  1.0000
  H   H1105     1.0  0.32981  0.83339  0.78146  1.0000
  Fe  Fe92      1.0  0.00628  0.87890  0.80153  1.0000
  H   H1106     1.0  0.13972  0.88786  0.87187  1.0000
  C   C655      1.0  0.18552  0.94137  0.93754  1.0000
  H   H1107     1.0  0.17645  0.88601  0.92477  1.0000
  C   C656      1.0  0.12416  0.51152  0.00082  1.0000
  S   S191      1.0  0.44364  0.57214  0.79908  1.0000
  H   H1108     1.0  0.04239  0.94309  0.82723  1.0000
  H   H1109     1.0  0.46462  0.94692  0.91991  1.0000
  H   H1110     1.0  0.44466  0.62494  0.81372  1.0000
  C   C657      1.0  0.25740  0.49450  0.97707  1.0000
  H   H1111     1.0  0.45589  0.70363  0.78569  1.0000
  C   C658      1.0  0.18394  0.88880  0.90638  1.0000
  H   H1112     1.0  0.34863  0.53163  0.97761  1.0000
  H   H1113     1.0  0.45709  0.53892  0.83395  1.0000
  H   H1114     1.0  0.03502  0.95165  0.78764  1.0000
  C   C659      1.0  0.25129  0.96903  0.87595  1.0000
  H   H1115     1.0  0.46925  0.63456  0.84781  1.0000
  H   H1116     1.0  0.43835  0.51764  0.88440  1.0000
  H   H1117     1.0  0.42040  0.62934  0.79869  1.0000
  H   H1118     1.0  0.18650  0.95922  0.89233  1.0000
  C   C660      1.0  0.42680  0.62658  0.81651  1.0000
  H   H1119     1.0  0.46437  0.85016  0.88167  1.0000
  C   C661      1.0  0.43206  0.65017  0.83246  1.0000
  C   C662      1.0  0.37108  0.80935  0.77823  1.0000
  H   H1120     1.0  0.45118  0.52966  0.75768  1.0000
  H   H1121     1.0  0.48058  0.66599  0.83504  1.0000
  S   S192      1.0  0.98944  0.65128  0.76829  1.0000
  C   C663      1.0  0.16910  0.94204  0.85891  1.0000
  C   C664      1.0  0.03773  0.95919  0.82563  1.0000
  C   C665      1.0  0.44715  0.67547  0.86907  1.0000
  N   N47       1.0  0.44525  0.65209  0.85604  1.0000
  H   H1122     1.0  0.09301  0.97614  0.81730  1.0000
  C   C666      1.0  0.01131  0.60005  0.89410  1.0000
  C   C667      1.0  0.18444  0.91223  0.89356  1.0000
  C   C668      1.0  0.99876  0.77797  0.79751  1.0000
  H   H1123     1.0  0.46662  0.88864  0.86293  1.0000
  Fe  Fe93      1.0  0.46174  0.82996  0.76514  1.0000
  H   H1124     1.0  0.42458  0.60977  0.86013  1.0000
  H   H1125     1.0  0.41060  0.60777  0.82349  1.0000
  H   H1126     1.0  0.04694  0.54826  0.89315  1.0000
  H   H1127     1.0  0.41291  0.64958  0.83509  1.0000
  H   H1128     1.0  0.05487  0.49406  0.87858  1.0000
  C   C669      1.0  0.15977  0.92136  0.92494  1.0000
  H   H1129     1.0  0.19449  0.96135  0.92987  1.0000
  H   H1130     1.0  0.20029  0.93480  0.93760  1.0000
  H   H1131     1.0  0.41632  0.51301  0.85105  1.0000
  H   H1132     1.0  0.37962  0.84649  0.81078  1.0000
  H   H1133     1.0  0.15059  0.92652  0.85079  1.0000
  C   C670      1.0  0.37727  0.79444  0.75909  1.0000
  C   C671      1.0  0.45652  0.51768  0.87878  1.0000
  S   S193      1.0  0.47953  0.82480  0.83077  1.0000
  H   H1134     1.0  0.03541  0.57591  0.87093  1.0000
  C   C672      1.0  0.41370  0.49505  0.84192  1.0000
  H   H1135     1.0  0.47603  0.93205  0.86009  1.0000
  H   H1136     1.0  0.42024  0.89335  0.78507  1.0000
  H   H1137     1.0  0.37951  0.80732  0.79537  1.0000
  N   N48       1.0  0.38016  0.83790  0.77339  1.0000
  H   H1138     1.0  0.46708  0.71831  0.86894  1.0000
  H   H1139     1.0  0.45088  0.70392  0.84170  1.0000
  H   H1140     1.0  0.46546  0.51500  0.89518  1.0000
  Fe  Fe94      1.0  0.12988  0.97483  0.90849  1.0000
  Fe  Fe95      1.0  0.02346  0.64578  0.75897  1.0000
  C   C673      1.0  0.39657  0.49141  0.81984  1.0000
  H   H1141     1.0  0.98494  0.56177  0.81295  1.0000
  H   H1142     1.0  0.29042  0.53266  0.98136  1.0000
  H   H1143     1.0  0.34938  0.79780  0.78029  1.0000
  H   H1144     1.0  0.07543  0.96280  0.85679  1.0000
  H   H1145     1.0  0.39848  0.80367  0.75492  1.0000
  H   H1146     1.0  0.02368  0.92811  0.86455  1.0000
  H   H1147     1.0  0.31865  0.49050  0.98263  1.0000
  H   H1148     1.0  0.44981  0.52245  0.80690  1.0000
  H   H1149     1.0  0.33594  0.55385  0.97399  1.0000
  C   C674      1.0  0.23827  0.98345  0.88005  1.0000
  C   C675      1.0  0.03481  0.97012  0.86725  1.0000
  H   H1150     1.0  0.40680  0.50739  0.80669  1.0000
  H   H1151     1.0  0.37867  0.49189  0.82559  1.0000
  S   S194      1.0  0.33078  0.49437  0.93224  1.0000
  H   H1152     1.0  0.37122  0.77441  0.76578  1.0000
  C   C676      1.0  0.47169  0.65431  0.85144  1.0000
  H   H1153     1.0  0.98769  0.69797  0.75386  1.0000
  C   C677      1.0  0.99128  0.57029  0.89417  1.0000
  C   C678      1.0  0.07778  0.98191  0.85109  1.0000
  H   H1154     1.0  0.48164  0.70536  0.84916  1.0000
  H   H1155     1.0  0.28932  0.98578  0.92553  1.0000
  C   C679      1.0  0.98787  0.55121  0.82796  1.0000
  C   C680      1.0  0.27495  0.98482  0.91290  1.0000
  H   H1156     1.0  0.36266  0.56170  0.99374  1.0000
  S   S195      1.0  0.34690  0.98571  0.93011  1.0000
  C   C681      1.0  0.20921  0.49125  0.91016  1.0000
  H   H1157     1.0  0.04357  0.98536  0.88147  1.0000
  H   H1158     1.0  0.44410  0.89143  0.76692  1.0000
  H   H1159     1.0  0.24578  0.49782  0.99080  1.0000
  C   C682      1.0  0.45074  0.49512  0.86131  1.0000
  H   H1160     1.0  0.02712  0.48999  0.86321  1.0000
  N   N49       1.0  0.48103  0.91573  0.89279  1.0000
  N   N50       1.0  0.29929  0.50735  0.00275  1.0000
  H   H1161     1.0  0.47604  0.86650  0.90946  1.0000
  H   H1162     1.0  0.02597  0.48731  0.89522  1.0000
  H   H1163     1.0  0.19190  0.48722  0.92026  1.0000
  C   C683      1.0  0.36499  0.97112  0.00365  1.0000
  H   H1164     1.0  0.77179  0.16480  0.23289  1.0000
  Fe  Fe96      1.0  0.85733  0.37216  0.23875  1.0000
  S   S196      1.0  0.86101  0.35291  0.20579  1.0000
  S   S197      1.0  0.84284  0.40112  0.23995  1.0000
  Fe  Fe97      1.0  0.84268  0.31590  0.22776  1.0000
  S   S198      1.0  0.80874  0.27773  0.21234  1.0000
  Fe  Fe98      1.0  0.90100  0.36231  0.21979  1.0000
  S   S199      1.0  0.93455  0.38462  0.19214  1.0000
  C   C684      1.0  0.50017  0.35462  0.22703  1.0000
  H   H1165     1.0  0.69692  0.14127  0.19631  1.0000
  Fe  Fe99      1.0  0.85550  0.01763  0.09669  1.0000
  S   S200      1.0  0.85559  0.04548  0.12430  1.0000
  S   S201      1.0  0.86162  0.03007  0.05795  1.0000
  C   C685      1.0  0.79806  0.48027  0.02693  1.0000
  C   C686      1.0  0.67771  0.47243  0.02244  1.0000
  S   S202      1.0  0.82341  0.42970  0.13723  1.0000
  Fe  Fe100     1.0  0.81775  0.01069  0.13737  1.0000
  S   S203      1.0  0.78274  0.01763  0.14369  1.0000
  Fe  Fe101     1.0  0.87821  0.03215  0.14773  1.0000
  S   S204      1.0  0.91196  0.05891  0.17361  1.0000
  H   H1166     1.0  0.72717  0.32393  0.24948  1.0000
  S   S205      1.0  0.88077  0.00697  0.11886  1.0000
  C   C687      1.0  0.90526  0.48460  0.18028  1.0000
  H   H1167     1.0  0.77295  0.33860  0.17377  1.0000
  C   C688      1.0  0.94797  0.45312  0.13551  1.0000
  Fe  Fe102     1.0  0.59616  0.13924  0.22224  1.0000
  S   S206      1.0  0.81977  0.48356  0.10188  1.0000
  S   S207      1.0  0.56482  0.12433  0.19213  1.0000
  C   C689      1.0  0.70429  0.99474  0.14394  1.0000
  S   S208      1.0  0.65273  0.09732  0.23167  1.0000
  H   H1168     1.0  0.95104  0.02067  0.19622  1.0000
  S   S209      1.0  0.63804  0.15319  0.20988  1.0000
  Fe  Fe103     1.0  0.62641  0.45317  0.13766  1.0000
  H   H1169     1.0  0.62808  0.99352  0.05785  1.0000
  S   S210      1.0  0.66207  0.44848  0.14706  1.0000
  Fe  Fe104     1.0  0.56691  0.43764  0.14698  1.0000
  S   S211      1.0  0.56849  0.46427  0.11732  1.0000
  S   S212      1.0  0.53235  0.42220  0.17415  1.0000
  Fe  Fe105     1.0  0.59101  0.44910  0.09658  1.0000
  S   S213      1.0  0.58563  0.43759  0.05770  1.0000
  H   H1170     1.0  0.49524  0.41887  0.20944  1.0000
  S   S214      1.0  0.61219  0.03892  0.13377  1.0000
  S   S215      1.0  0.58700  0.42011  0.12495  1.0000
  S   S216      1.0  0.60637  0.46791  0.16240  1.0000
  N   N51       1.0  0.77059  0.01250  0.06688  1.0000
  H   H1171     1.0  0.75696  0.29630  0.21173  1.0000
  H   H1172     1.0  0.75914  0.02372  0.09952  1.0000
  C   C690      1.0  0.63333  0.01087  0.02312  1.0000
  H   H1173     1.0  0.73223  0.33018  0.18508  1.0000
  H   H1174     1.0  0.81008  0.06755  0.05989  1.0000
  C   C691      1.0  0.85393  0.00653  0.03517  1.0000
  C   C692      1.0  0.64258  0.08160  0.20409  1.0000
  C   C693      1.0  0.64685  0.06081  0.19831  1.0000
  C   C694      1.0  0.63775  0.04757  0.17656  1.0000
  C   C695      1.0  0.62483  0.05552  0.16053  1.0000
  C   C696      1.0  0.62108  0.07660  0.16615  1.0000
  C   C697      1.0  0.62960  0.08934  0.18802  1.0000
  H   H1175     1.0  0.65691  0.05476  0.21072  1.0000
  H   H1176     1.0  0.64093  0.03143  0.17213  1.0000
  H   H1177     1.0  0.61102  0.08274  0.15382  1.0000
  H   H1178     1.0  0.62571  0.10491  0.19246  1.0000
  C   C698      1.0  0.80909  0.05894  0.07761  1.0000
  H   H1179     1.0  0.89945  0.45094  0.13064  1.0000
  C   C699      1.0  0.71392  0.45991  0.14680  1.0000
  N   N52       1.0  0.73837  0.16983  0.24079  1.0000
  H   H1180     1.0  0.92598  0.41927  0.15820  1.0000
  C   C700      1.0  0.73210  0.00962  0.14452  1.0000
  C   C701      1.0  0.96888  0.39518  0.18854  1.0000
  H   H1181     1.0  0.70661  0.44175  0.15661  1.0000
  H   H1182     1.0  0.74978  0.36871  0.24816  1.0000
  H   H1183     1.0  0.74168  0.03078  0.14612  1.0000
  C   C702      1.0  0.94575  0.06812  0.17916  1.0000
  C   C703      1.0  0.70399  0.15922  0.20740  1.0000
  C   C704      1.0  0.51237  0.10343  0.20733  1.0000
  C   C705      1.0  0.52961  0.10574  0.18906  1.0000
  C   C706      1.0  0.51863  0.09387  0.16700  1.0000
  H   H1184     1.0  0.91215  0.01676  0.23781  1.0000
  H   H1185     1.0  0.71262  0.00827  0.09019  1.0000
  H   H1186     1.0  0.52028  0.11247  0.22437  1.0000
  H   H1187     1.0  0.53165  0.09541  0.15269  1.0000
  H   H1188     1.0  0.71183  0.18426  0.25004  1.0000
  H   H1189     1.0  0.73161  0.29701  0.24321  1.0000
  H   H1190     1.0  0.67533  0.48208  0.19622  1.0000
  H   H1191     1.0  0.74065  0.15886  0.20448  1.0000
  H   H1192     1.0  0.50007  0.15428  0.13468  1.0000
  C   C707      1.0  0.57185  0.03657  0.01647  1.0000
  H   H1193     1.0  0.79486  0.32644  0.17950  1.0000
  C   C708      1.0  0.60221  0.46229  0.03603  1.0000
  C   C709      1.0  0.77508  0.26222  0.22113  1.0000
  S   S217      1.0  0.68685  0.22584  0.23959  1.0000
  C   C710      1.0  0.74552  0.00213  0.02666  1.0000
  C   C711      1.0  0.72067  0.23778  0.23302  1.0000
  C   C712      1.0  0.72861  0.23266  0.21115  1.0000
  C   C713      1.0  0.75560  0.24467  0.20534  1.0000
  C   C714      1.0  0.69677  0.45782  0.05513  1.0000
  N   N53       1.0  0.75084  0.32900  0.21809  1.0000
  H   H1194     1.0  0.71389  0.22011  0.19838  1.0000
  H   H1195     1.0  0.76140  0.24086  0.18822  1.0000
  H   H1196     1.0  0.50525  0.33920  0.23083  1.0000
  C   C715      1.0  0.48273  0.38028  0.16084  1.0000
  H   H1197     1.0  0.51853  0.37394  0.22871  1.0000
  H   H1198     1.0  0.56612  0.05191  0.01500  1.0000
  C   C716      1.0  0.63942  0.42211  0.07194  1.0000
  H   H1199     1.0  0.74448  0.20902  0.24528  1.0000
  C   C717      1.0  0.94691  0.00677  0.21115  1.0000
  H   H1200     1.0  0.78690  0.22028  0.25087  1.0000
  H   H1201     1.0  0.59108  0.43449  0.00725  1.0000
  C   C718      1.0  0.90647  0.00790  0.21978  1.0000
  C   C719      1.0  0.83435  0.40773  0.21208  1.0000
  C   C720      1.0  0.83526  0.43169  0.20815  1.0000
  C   C721      1.0  0.83113  0.43833  0.18528  1.0000
  C   C722      1.0  0.82535  0.42071  0.16648  1.0000
  C   C723      1.0  0.82316  0.39621  0.17068  1.0000
  C   C724      1.0  0.82797  0.38987  0.19340  1.0000
  H   H1202     1.0  0.84016  0.44556  0.22260  1.0000
  H   H1203     1.0  0.83277  0.45720  0.18222  1.0000
  H   H1204     1.0  0.81863  0.38250  0.15617  1.0000
  H   H1205     1.0  0.82654  0.37111  0.19649  1.0000
  C   C725      1.0  0.49106  0.08020  0.16318  1.0000
  C   C726      1.0  0.76734  0.35854  0.21797  1.0000
  C   C727      1.0  0.85396  0.45628  0.02198  1.0000
  C   C728      1.0  0.76720  0.26707  0.24316  1.0000
  H   H1206     1.0  0.84443  0.43566  0.02660  1.0000
  H   H1207     1.0  0.69280  0.00450  0.14519  1.0000
  C   C729      1.0  0.56312  0.02061  0.24486  1.0000
  H   H1208     1.0  0.60542  0.03535  0.23731  1.0000
  S   S218      1.0  0.89784  0.38378  0.25178  1.0000
  H   H1209     1.0  0.48319  0.07123  0.14617  1.0000
  C   C730      1.0  0.48422  0.40328  0.19680  1.0000
  H   H1210     1.0  0.95082  0.04904  0.14864  1.0000
  N   N54       1.0  0.58899  0.04514  0.06028  1.0000
  C   C731      1.0  0.61460  0.06392  0.07242  1.0000
  C   C732      1.0  0.57044  0.05567  0.06395  1.0000
  C   C733      1.0  0.59476  0.04480  0.03414  1.0000
  C   C734      1.0  0.57879  0.01832  0.07115  1.0000
  C   C735      1.0  0.63746  0.05821  0.06915  1.0000
  C   C736      1.0  0.56253  0.05668  0.08994  1.0000
  C   C737      1.0  0.72130  0.14293  0.25137  1.0000
  H   H1211     1.0  0.94773  0.08924  0.21116  1.0000
  H   H1212     1.0  0.62185  0.08444  0.06622  1.0000
  H   H1213     1.0  0.61191  0.06431  0.09188  1.0000
  H   H1214     1.0  0.55176  0.04412  0.05407  1.0000
  H   H1215     1.0  0.57920  0.07592  0.05651  1.0000
  H   H1216     1.0  0.61040  0.06457  0.02805  1.0000
  H   H1217     1.0  0.60277  0.03153  0.03091  1.0000
  H   H1218     1.0  0.59235  0.01070  0.06735  1.0000
  H   H1219     1.0  0.57892  0.01912  0.09090  1.0000
  H   H1220     1.0  0.65512  0.07373  0.07844  1.0000
  H   H1221     1.0  0.63312  0.03930  0.07737  1.0000
  H   H1222     1.0  0.64295  0.05866  0.05025  1.0000
  H   H1223     1.0  0.57939  0.07103  0.10081  1.0000
  H   H1224     1.0  0.54777  0.06329  0.09015  1.0000
  H   H1225     1.0  0.55323  0.03709  0.09853  1.0000
  C   C738      1.0  0.72678  0.32073  0.20287  1.0000
  C   C739      1.0  0.74124  0.47539  0.14232  1.0000
  H   H1226     1.0  0.69241  0.28732  0.18725  1.0000
  H   H1227     1.0  0.75058  0.00103  0.00784  1.0000
  C   C740      1.0  0.87628  0.99495  0.21833  1.0000
  H   H1228     1.0  0.71428  0.99244  0.06378  1.0000
  C   C741      1.0  0.55154  0.99636  0.06288  1.0000
  H   H1229     1.0  0.89207  0.41034  0.18595  1.0000
  H   H1230     1.0  0.87055  0.00991  0.22260  1.0000
  H   H1231     1.0  0.92603  0.46130  0.21457  1.0000
  H   H1232     1.0  0.77274  0.36617  0.19957  1.0000
  S   S219      1.0  0.84016  0.99961  0.16327  1.0000
  C   C742      1.0  0.50546  0.15680  0.11561  1.0000
  H   H1233     1.0  0.56989  0.00317  0.16585  1.0000
  H   H1234     1.0  0.77578  0.03951  0.03856  1.0000
  H   H1235     1.0  0.89446  0.40581  0.12877  1.0000
  S   S220      1.0  0.61097  0.17212  0.24953  1.0000
  C   C743      1.0  0.85871  0.47509  0.03971  1.0000
  C   C744      1.0  0.90894  0.98891  0.16971  1.0000
  C   C745      1.0  0.72473  0.48188  0.05397  1.0000
  H   H1236     1.0  0.91497  0.02506  0.20768  1.0000
  H   H1237     1.0  0.63295  0.43602  0.03872  1.0000
  H   H1238     1.0  0.70213  0.17382  0.19627  1.0000
  C   C746      1.0  0.91670  0.44004  0.21065  1.0000
  H   H1239     1.0  0.85289  0.46892  0.05787  1.0000
  H   H1240     1.0  0.88157  0.43309  0.19226  1.0000
  H   H1241     1.0  0.76920  0.39499  0.22836  1.0000
  H   H1242     1.0  0.71200  0.11695  0.22007  1.0000
  H   H1243     1.0  0.49126  0.10915  0.07770  1.0000
  H   H1244     1.0  0.73708  0.37050  0.21920  1.0000
  H   H1245     1.0  0.79970  0.02273  0.09479  1.0000
  H   H1246     1.0  0.94905  0.44797  0.17311  1.0000
  H   H1247     1.0  0.81256  0.02630  0.06570  1.0000
  H   H1248     1.0  0.51583  0.01256  0.23093  1.0000
  H   H1249     1.0  0.53716  0.00299  0.05983  1.0000
  C   C747      1.0  0.77107  0.01881  0.04089  1.0000
  H   H1250     1.0  0.82958  0.06845  0.08452  1.0000
  C   C748      1.0  0.55439  0.99814  0.17944  1.0000
  H   H1251     1.0  0.70861  0.10142  0.24791  1.0000
  Fe  Fe106     1.0  0.63768  0.12544  0.23748  1.0000
  H   H1252     1.0  0.96142  0.01156  0.24813  1.0000
  H   H1253     1.0  0.78624  0.32590  0.21862  1.0000
  H   H1254     1.0  0.56133  0.07433  0.18646  1.0000
  H   H1255     1.0  0.63327  0.43362  0.08322  1.0000
  S   S221      1.0  0.88289  0.32312  0.23916  1.0000
  C   C749      1.0  0.76684  0.17735  0.24412  1.0000
  H   H1256     1.0  0.56518  0.04875  0.17426  1.0000
  C   C750      1.0  0.75285  0.01965  0.08060  1.0000
  C   C751      1.0  0.61938  0.99178  0.04061  1.0000
  H   H1257     1.0  0.86890  0.98782  0.20018  1.0000
  H   H1258     1.0  0.92794  0.99446  0.16085  1.0000
  S   S222      1.0  0.59582  0.11015  0.24847  1.0000
  H   H1259     1.0  0.96253  0.44665  0.13200  1.0000
  C   C752      1.0  0.56215  0.04841  0.21327  1.0000
  C   C753      1.0  0.77428  0.32218  0.18195  1.0000
  C   C754      1.0  0.73314  0.17009  0.21459  1.0000
  C   C755      1.0  0.48482  0.09031  0.20333  1.0000
  C   C756      1.0  0.75471  0.37360  0.22917  1.0000
  C   C757      1.0  0.76732  0.31782  0.20871  1.0000
  C   C758      1.0  0.52477  0.00379  0.21917  1.0000
  H   H1260     1.0  0.78551  0.21172  0.21980  1.0000
  H   H1261     1.0  0.76195  0.30383  0.17179  1.0000
  H   H1262     1.0  0.93071  0.48645  0.15224  1.0000
  C   C759      1.0  0.95842  0.08313  0.19956  1.0000
  H   H1263     1.0  0.87499  0.44031  0.15252  1.0000
  H   H1264     1.0  0.55447  0.01744  0.02078  1.0000
  H   H1265     1.0  0.93188  0.43402  0.20969  1.0000
  C   C760      1.0  0.92392  0.47583  0.16944  1.0000
  C   C761      1.0  0.60208  0.45502  0.01223  1.0000
  H   H1266     1.0  0.65394  0.41877  0.08163  1.0000
  H   H1267     1.0  0.64952  0.47487  0.06333  1.0000
  C   C762      1.0  0.49744  0.40057  0.17698  1.0000
  H   H1268     1.0  0.74094  0.12223  0.23639  1.0000
  H   H1269     1.0  0.71385  0.32755  0.21083  1.0000
  H   H1270     1.0  0.86304  0.03490  0.00728  1.0000
  C   C763      1.0  0.70906  0.29082  0.19903  1.0000
  H   H1271     1.0  0.53314  0.04250  0.18517  1.0000
  H   H1272     1.0  0.51568  0.17825  0.11198  1.0000
  C   C764      1.0  0.93368  0.44086  0.15909  1.0000
  H   H1273     1.0  0.55364  0.05648  0.22628  1.0000
  H   H1274     1.0  0.75462  0.46911  0.14877  1.0000
  H   H1275     1.0  0.65254  0.02734  0.02721  1.0000
  H   H1276     1.0  0.94191  0.48398  0.18070  1.0000
  N   N55       1.0  0.55438  0.02048  0.21957  1.0000
  C   C765      1.0  0.85640  0.01453  0.01135  1.0000
  C   C766      1.0  0.96005  0.06048  0.16442  1.0000
  H   H1277     1.0  0.58382  0.06141  0.21434  1.0000
  H   H1278     1.0  0.78640  0.36505  0.22717  1.0000
  H   H1279     1.0  0.71949  0.28175  0.19020  1.0000
  H   H1280     1.0  0.49736  0.10652  0.10808  1.0000
  H   H1281     1.0  0.66037  0.47443  0.01744  1.0000
  C   C767      1.0  0.59277  0.03847  0.25000  1.0000
  H   H1282     1.0  0.79780  0.06418  0.09012  1.0000
  C   C768      1.0  0.56783  0.01013  0.20352  1.0000
  H   H1283     1.0  0.77653  0.46801  0.02960  1.0000
  H   H1284     1.0  0.95562  0.99460  0.20544  1.0000
  H   H1285     1.0  0.55847  0.00056  0.25041  1.0000
  Fe  Fe107     1.0  0.65269  0.18303  0.23939  1.0000
  H   H1286     1.0  0.93439  0.44658  0.12011  1.0000
  H   H1287     1.0  0.97207  0.41675  0.15661  1.0000
  H   H1288     1.0  0.95688  0.03826  0.23746  1.0000
  H   H1289     1.0  0.49377  0.35313  0.20823  1.0000
  N   N56       1.0  0.67425  0.46157  0.04729  1.0000
  C   C769      1.0  0.87978  0.40932  0.13797  1.0000
  C   C770      1.0  0.72103  0.11988  0.23792  1.0000
  H   H1290     1.0  0.86390  0.40517  0.12495  1.0000
  C   C771      1.0  0.55466  0.05310  0.18829  1.0000
  H   H1291     1.0  0.49240  0.37774  0.14551  1.0000
  H   H1292     1.0  0.69410  0.45128  0.07399  1.0000
  N   N57       1.0  0.91221  0.44663  0.16581  1.0000
  H   H1293     1.0  0.94270  0.33256  0.13445  1.0000
  H   H1294     1.0  0.59841  0.05953  0.25024  1.0000
  C   C772      1.0  0.69609  0.46790  0.13917  1.0000
  H   H1295     1.0  0.87060  0.39497  0.15260  1.0000
  H   H1296     1.0  0.73914  0.47505  0.05126  1.0000
  C   C773      1.0  0.96284  0.02367  0.23251  1.0000
  H   H1297     1.0  0.58831  0.02590  0.19968  1.0000
  H   H1298     1.0  0.69024  0.15447  0.22243  1.0000
  H   H1299     1.0  0.95902  0.47488  0.13638  1.0000
  C   C774      1.0  0.96168  0.33265  0.13561  1.0000
  H   H1300     1.0  0.51651  0.00335  0.20142  1.0000
  H   H1301     1.0  0.70023  0.28028  0.21586  1.0000
  H   H1302     1.0  0.69850  0.45353  0.00632  1.0000
  H   H1303     1.0  0.78748  0.01818  0.03144  1.0000
  H   H1304     1.0  0.80749  0.20856  0.23958  1.0000
  C   C775      1.0  0.72321  0.99922  0.08149  1.0000
  H   H1305     1.0  0.56976  0.99436  0.21273  1.0000
  C   C776      1.0  0.89930  0.43169  0.18818  1.0000
  H   H1306     1.0  0.89863  0.47682  0.19844  1.0000
  H   H1307     1.0  0.74430  0.19043  0.20747  1.0000
  H   H1308     1.0  0.65220  0.42045  0.03669  1.0000
  H   H1309     1.0  0.48903  0.14797  0.08068  1.0000
  C   C777      1.0  0.79822  0.02898  0.07646  1.0000
  C   C778      1.0  0.89171  0.43802  0.14652  1.0000
  C   C779      1.0  0.74017  0.25506  0.24897  1.0000
  H   H1310     1.0  0.54126  0.00495  0.17239  1.0000
  H   H1311     1.0  0.90751  0.00681  0.17228  1.0000
  H   H1312     1.0  0.62153  0.40260  0.06938  1.0000
  H   H1313     1.0  0.69688  0.44132  0.04545  1.0000
  H   H1314     1.0  0.97272  0.37555  0.21921  1.0000
  N   N58       1.0  0.91767  0.99011  0.21493  1.0000
  C   C780      1.0  0.74762  0.99746  0.14311  1.0000
  C   C781      1.0  0.67016  0.47896  0.06448  1.0000
  S   S223      1.0  0.63069  0.48066  0.10851  1.0000
  H   H1315     1.0  0.75464  0.03826  0.07375  1.0000
  Fe  Fe108     1.0  0.83813  0.47272  0.13155  1.0000
  H   H1316     1.0  0.51995  0.15024  0.11229  1.0000
  Fe  Fe109     1.0  0.60551  0.99797  0.13321  1.0000
  H   H1317     1.0  0.90400  0.42975  0.22614  1.0000
  H   H1318     1.0  0.96499  0.33087  0.15478  1.0000
  H   H1319     1.0  0.95930  0.31523  0.12578  1.0000
  C   C782      1.0  0.64951  0.43491  0.04733  1.0000
  C   C783      1.0  0.74200  0.31884  0.24294  1.0000
  H   H1320     1.0  0.73269  0.01108  0.02724  1.0000
  H   H1321     1.0  0.67289  0.47441  0.08310  1.0000
  H   H1322     1.0  0.97591  0.36157  0.10813  1.0000
  H   H1323     1.0  0.88785  0.47917  0.16892  1.0000
  H   H1324     1.0  0.80755  0.46808  0.02887  1.0000
  C   C784      1.0  0.78748  0.20611  0.23816  1.0000
  C   C785      1.0  0.73253  0.18918  0.25303  1.0000
  H   H1325     1.0  0.64806  0.48643  0.20173  1.0000
  H   H1326     1.0  0.70057  0.13840  0.25332  1.0000
  Fe  Fe110     1.0  0.85884  0.34377  0.46605  1.0000
  H   H1327     1.0  0.72767  0.14210  0.26982  1.0000
  H   H1328     1.0  0.85969  0.43723  0.39428  1.0000
  Fe  Fe111     1.0  0.83483  0.36222  0.42925  1.0000
  S   S224      1.0  0.80595  0.36224  0.45573  1.0000
  S   S225      1.0  0.83472  0.37463  0.39105  1.0000
  Fe  Fe112     1.0  0.84029  0.38157  0.48127  1.0000
  C   C786      1.0  0.91880  0.03180  0.50132  1.0000
  Fe  Fe113     1.0  0.79986  0.32257  0.46726  1.0000
  S   S226      1.0  0.75699  0.28855  0.47091  1.0000
  S   S227      1.0  0.86930  0.38425  0.45382  1.0000
  S   S228      1.0  0.82687  0.32199  0.43920  1.0000
  Fe  Fe114     1.0  0.87730  0.34462  0.27014  1.0000
  S   S229      1.0  0.88550  0.33957  0.30858  1.0000
  Fe  Fe115     1.0  0.61789  0.07074  0.48339  1.0000
  S   S230      1.0  0.59272  0.07143  0.45341  1.0000
  H   H1329     1.0  0.78192  0.28029  0.25563  1.0000
  Fe  Fe116     1.0  0.66036  0.13027  0.47440  1.0000
  S   S231      1.0  0.63699  0.13433  0.44504  1.0000
  S   S232      1.0  0.70242  0.16311  0.48284  1.0000
  Fe  Fe117     1.0  0.60188  0.11067  0.46802  1.0000
  H   H1330     1.0  0.84642  0.42827  0.45666  1.0000
  Fe  Fe118     1.0  0.63026  0.09519  0.43277  1.0000
  S   S233      1.0  0.63903  0.09151  0.39415  1.0000
  H   H1331     1.0  0.85796  0.41937  0.42022  1.0000
  S   S234      1.0  0.65519  0.09148  0.46136  1.0000
  Fe  Fe119     1.0  0.61332  0.14343  0.27478  1.0000
  S   S235      1.0  0.60026  0.14022  0.31318  1.0000
  C   C787      1.0  0.62804  0.10499  0.37178  1.0000
  C   C788      1.0  0.63622  0.10576  0.34818  1.0000
  C   C789      1.0  0.62803  0.11664  0.33005  1.0000
  C   C790      1.0  0.61136  0.12665  0.33538  1.0000
  C   C791      1.0  0.60325  0.12592  0.35899  1.0000
  C   C792      1.0  0.61162  0.11525  0.37713  1.0000
  H   H1332     1.0  0.64886  0.09780  0.34388  1.0000
  H   H1333     1.0  0.63431  0.11699  0.31193  1.0000
  H   H1334     1.0  0.59033  0.13357  0.36325  1.0000
  H   H1335     1.0  0.60509  0.11470  0.39520  1.0000
  H   H1336     1.0  0.71552  0.14473  0.42840  1.0000
  C   C793      1.0  0.84191  0.46783  0.41461  1.0000
  H   H1337     1.0  0.75736  0.19741  0.28507  1.0000
  H   H1338     1.0  0.49540  0.02203  0.48273  1.0000
  C   C794      1.0  0.74251  0.25358  0.47302  1.0000
  C   C795      1.0  0.75740  0.24129  0.47714  1.0000
  C   C796      1.0  0.74484  0.21367  0.47986  1.0000
  C   C797      1.0  0.71727  0.19781  0.47813  1.0000
  C   C798      1.0  0.70243  0.20999  0.47333  1.0000
  C   C799      1.0  0.71495  0.23765  0.47104  1.0000
  C   C800      1.0  0.90659  0.34558  0.49825  1.0000
  H   H1339     1.0  0.82168  0.41562  0.37738  1.0000
  H   H1340     1.0  0.80568  0.43492  0.38208  1.0000
  H   H1341     1.0  0.80463  0.44551  0.45925  1.0000
  C   C801      1.0  0.70105  0.18271  0.34434  1.0000
  C   C802      1.0  0.71558  0.10998  0.50248  1.0000
  H   H1342     1.0  0.66697  0.20576  0.38256  1.0000
  C   C803      1.0  0.84863  0.36436  0.36835  1.0000
  C   C804      1.0  0.84637  0.37016  0.34455  1.0000
  C   C805      1.0  0.85741  0.36252  0.32610  1.0000
  C   C806      1.0  0.87100  0.34914  0.33131  1.0000
  C   C807      1.0  0.87336  0.34345  0.35513  1.0000
  C   C808      1.0  0.86215  0.35093  0.37358  1.0000
  H   H1343     1.0  0.83599  0.38056  0.34032  1.0000
  H   H1344     1.0  0.85556  0.36715  0.30787  1.0000
  H   H1345     1.0  0.88386  0.33316  0.35934  1.0000
  H   H1346     1.0  0.86411  0.34640  0.39182  1.0000
  H   H1347     1.0  0.67447  0.18289  0.41769  1.0000
  H   H1348     1.0  0.68647  0.18935  0.34322  1.0000
  H   H1349     1.0  0.66218  0.15391  0.40026  1.0000
  C   C809      1.0  0.70355  0.14730  0.41449  1.0000
  H   H1350     1.0  0.59540  0.21242  0.47112  1.0000
  H   H1351     1.0  0.75661  0.20459  0.48353  1.0000
  H   H1352     1.0  0.72089  0.19968  0.34063  1.0000
  H   H1353     1.0  0.69637  0.16821  0.32981  1.0000
  H   H1354     1.0  0.77068  0.17361  0.26267  1.0000
  H   H1355     1.0  0.78778  0.39994  0.38451  1.0000
  H   H1356     1.0  0.55231  0.02659  0.25742  1.0000
  H   H1357     1.0  0.81976  0.43912  0.48377  1.0000
  H   H1358     1.0  0.93062  0.23750  0.48603  1.0000
  H   H1359     1.0  0.73754  0.21893  0.38048  1.0000
  C   C810      1.0  0.71755  0.21349  0.38715  1.0000
  H   H1360     1.0  0.68335  0.14949  0.36817  1.0000
  H   H1361     1.0  0.70256  0.22643  0.41745  1.0000
  H   H1362     1.0  0.73166  0.25171  0.40384  1.0000
  H   H1363     1.0  0.73430  0.22891  0.42271  1.0000
  H   H1364     1.0  0.97153  0.05937  0.41216  1.0000
  C   C811      1.0  0.88839  0.45992  0.42049  1.0000
  H   H1365     1.0  0.94612  0.36378  0.48461  1.0000
  S   S236      1.0  0.56879  0.11945  0.46916  1.0000
  H   H1366     1.0  0.80064  0.41313  0.46363  1.0000
  H   H1367     1.0  0.81182  0.40013  0.42012  1.0000
  H   H1368     1.0  0.86009  0.48447  0.42230  1.0000
  H   H1369     1.0  0.93603  0.31377  0.48413  1.0000
  H   H1370     1.0  0.71817  0.16679  0.36731  1.0000
  H   H1371     1.0  0.52612  0.12388  0.48749  1.0000
  C   C812      1.0  0.80707  0.41772  0.38823  1.0000
  C   C813      1.0  0.76399  0.32801  0.26180  1.0000
  H   H1372     1.0  0.92427  0.04483  0.48619  1.0000
  H   H1373     1.0  0.60491  0.99690  0.48264  1.0000
  H   H1374     1.0  0.48891  0.36096  0.26178  1.0000
  C   C814      1.0  0.81261  0.41886  0.41516  1.0000
  S   S237      1.0  0.83654  0.33494  0.25969  1.0000
  H   H1375     1.0  0.73629  0.18537  0.40566  1.0000
  C   C815      1.0  0.59538  0.98808  0.49927  1.0000
  C   C816      1.0  0.65767  0.18414  0.38417  1.0000
  H   H1376     1.0  0.89051  0.27931  0.48699  1.0000
  H   H1377     1.0  0.59725  0.03405  0.26802  1.0000
  C   C817      1.0  0.90466  0.27415  0.47895  1.0000
  C   C818      1.0  0.81459  0.43461  0.46469  1.0000
  H   H1378     1.0  0.73329  0.20756  0.28667  1.0000
  S   S238      1.0  0.62540  0.10956  0.49894  1.0000
  C   C819      1.0  0.48888  0.02048  0.50153  1.0000
  H   H1379     1.0  0.90236  0.45353  0.41438  1.0000
  H   H1380     1.0  0.71430  0.18551  0.42736  1.0000
  H   H1381     1.0  0.48394  0.45917  0.40089  1.0000
  C   C820      1.0  0.90654  0.00432  0.49752  1.0000
  S   S239      1.0  0.83171  0.34183  0.49519  1.0000
  H   H1382     1.0  0.94628  0.29226  0.47348  1.0000
  H   H1383     1.0  0.77848  0.32178  0.25739  1.0000
  H   H1384     1.0  0.72699  0.12912  0.49318  1.0000
  H   H1385     1.0  0.68322  0.13801  0.42144  1.0000
  C   C821      1.0  0.94766  0.25286  0.49611  1.0000
  H   H1386     1.0  0.90269  0.99653  0.47965  1.0000
  C   C822      1.0  0.83989  0.44218  0.45047  1.0000
  H   H1387     1.0  0.70883  0.22023  0.37325  1.0000
  C   C823      1.0  0.73691  0.19176  0.28012  1.0000
  H   H1388     1.0  0.89278  0.45602  0.48051  1.0000
  H   H1389     1.0  0.77856  0.25315  0.47875  1.0000
  H   H1390     1.0  0.70394  0.13641  0.39854  1.0000
  H   H1391     1.0  0.55950  0.21562  0.48638  1.0000
  H   H1392     1.0  0.89127  0.46326  0.43985  1.0000
  H   H1393     1.0  0.72276  0.17346  0.28944  1.0000
  C   C824      1.0  0.89032  0.46501  0.49629  1.0000
  C   C825      1.0  0.71501  0.17699  0.40989  1.0000
  H   H1394     1.0  0.85512  0.46186  0.45707  1.0000
  H   H1395     1.0  0.84577  0.46993  0.39512  1.0000
  C   C826      1.0  0.86017  0.43838  0.41398  1.0000
  H   H1396     1.0  0.73433  0.25940  0.26584  1.0000
  C   C827      1.0  0.72146  0.23070  0.40923  1.0000
  H   H1397     1.0  0.70317  0.24684  0.46789  1.0000
  H   H1398     1.0  0.77438  0.34956  0.26466  1.0000
  H   H1399     1.0  0.92782  0.41432  0.47880  1.0000
  H   H1400     1.0  0.75506  0.31872  0.27908  1.0000
  H   H1401     1.0  0.79992  0.45675  0.41985  1.0000
  H   H1402     1.0  0.65322  0.17474  0.36645  1.0000
  H   H1403     1.0  0.90301  0.27554  0.45940  1.0000
  N   N59       1.0  0.83812  0.44201  0.42363  1.0000
  S   S240      1.0  0.89227  0.33577  0.47025  1.0000
  C   C828      1.0  0.70079  0.16969  0.36828  1.0000
  C   C829      1.0  0.67402  0.17569  0.39931  1.0000
  C   C830      1.0  0.93311  0.29366  0.48673  1.0000
  H   H1404     1.0  0.82335  0.48436  0.43745  1.0000
  N   N60       1.0  0.70151  0.18416  0.39083  1.0000
  H   H1405     1.0  0.49553  0.31709  0.26749  1.0000
  H   H1406     1.0  0.63834  0.17716  0.39298  1.0000
  H   H1407     1.0  0.79521  0.41782  0.42392  1.0000
  S   S241      1.0  0.65518  0.15594  0.26608  1.0000
  H   H1408     1.0  0.68124  0.19821  0.47198  1.0000
  H   H1409     1.0  0.96205  0.26739  0.48363  1.0000
  H   H1410     1.0  0.70614  0.09472  0.48849  1.0000
  H   H1411     1.0  0.89397  0.47870  0.41131  1.0000
  H   H1412     1.0  0.89879  0.25353  0.48326  1.0000
  H   H1413     1.0  0.53301  0.06486  0.48897  1.0000
  C   C831      1.0  0.93996  0.42418  0.49475  1.0000
  H   H1414     1.0  0.50894  0.07630  0.46774  1.0000
  C   C832      1.0  0.56556  0.13285  0.49581  1.0000
  H   H1415     1.0  0.98096  0.06523  0.50165  1.0000
  H   H1416     1.0  0.61038  0.24370  0.48579  1.0000
  C   C833      1.0  0.54164  0.13170  0.50066  1.0000
  H   H1417     1.0  0.54967  0.99158  0.47295  1.0000
  C   C834      1.0  0.59874  0.22218  0.48873  1.0000
  H   H1418     1.0  0.57603  0.25863  0.49751  1.0000
  C   C835      1.0  0.93399  0.35885  0.50036  1.0000
  C   C836      1.0  0.48676  0.06182  0.50141  1.0000
  C   C837      1.0  0.48838  0.06441  0.47410  1.0000
  C   C838      1.0  0.81987  0.47415  0.42007  1.0000
  H   H1419     1.0  0.61034  0.21556  0.49934  1.0000
  H   H1420     1.0  0.95170  0.44537  0.49080  1.0000
  H   H1421     1.0  0.95329  0.41600  0.49721  1.0000
  C   C839      1.0  0.57187  0.21380  0.50041  1.0000
  Fe  Fe120     1.0  0.52989  0.36463  0.56737  1.0000
  H   H1422     1.0  0.86971  0.32911  0.51699  1.0000
  S   S242      1.0  0.53826  0.33001  0.56680  1.0000
  Fe  Fe121     1.0  0.54547  0.42274  0.55241  1.0000
  S   S243      1.0  0.51837  0.42411  0.58005  1.0000
  S   S244      1.0  0.56181  0.45570  0.52369  1.0000
  Fe  Fe122     1.0  0.53281  0.40393  0.60464  1.0000
  C   C840      1.0  0.96718  0.31282  0.51768  1.0000
  H   H1423     1.0  0.96535  0.43556  0.58173  1.0000
  H   H1424     1.0  0.67320  0.13274  0.54687  1.0000
  S   S245      1.0  0.56245  0.40527  0.57824  1.0000
  S   S246      1.0  0.51547  0.38192  0.53916  1.0000
  S   S247      1.0  0.54157  0.15690  0.73092  1.0000
  Fe  Fe123     1.0  0.95856  0.10975  0.55706  1.0000
  H   H1425     1.0  0.58339  0.29351  0.52646  1.0000
  S   S248      1.0  0.93975  0.07766  0.52783  1.0000
  H   H1426     1.0  0.52016  0.31138  0.70546  1.0000
  C   C841      1.0  0.88696  0.40759  0.55750  1.0000
  S   S249      1.0  0.96296  0.20072  0.56879  1.0000
  C   C842      1.0  0.59146  0.00332  0.51619  1.0000
  H   H1427     1.0  0.57597  0.00264  0.55111  1.0000
  C   C843      1.0  0.65803  0.03898  0.54109  1.0000
  H   H1428     1.0  0.97412  0.48129  0.52241  1.0000
  Fe  Fe124     1.0  0.48961  0.38334  0.56789  1.0000
  S   S250      1.0  0.94106  0.12657  0.58287  1.0000
  H   H1429     1.0  0.72960  0.10634  0.51271  1.0000
  C   C844      1.0  0.55730  0.14993  0.53984  1.0000
  H   H1430     1.0  0.90903  0.29211  0.56484  1.0000
  C   C845      1.0  0.57266  0.27244  0.53166  1.0000
  C   C846      1.0  0.53730  0.13960  0.52282  1.0000
  H   H1431     1.0  0.97473  0.15686  0.69283  1.0000
  H   H1432     1.0  0.51842  0.13753  0.52664  1.0000
  C   C847      1.0  0.51782  0.14577  0.70798  1.0000
  H   H1433     1.0  0.89053  0.34137  0.55680  1.0000
  C   C848      1.0  0.50216  0.28132  0.63493  1.0000
  C   C849      1.0  0.65912  0.08986  0.54791  1.0000
  S   S251      1.0  0.50164  0.36336  0.59477  1.0000
  C   C850      1.0  0.52591  0.15284  0.68434  1.0000
  H   H1434     1.0  0.90046  0.27583  0.52559  1.0000
  H   H1435     1.0  0.95400  0.09991  0.69617  1.0000
  H   H1436     1.0  0.51364  0.15067  0.64776  1.0000
  H   H1437     1.0  0.54664  0.16467  0.68030  1.0000
  C   C851      1.0  0.52359  0.40119  0.68927  1.0000
  C   C852      1.0  0.57908  0.99120  0.53776  1.0000
  C   C853      1.0  0.92392  0.04261  0.52441  1.0000
  C   C854      1.0  0.90422  0.99784  0.53994  1.0000
  C   C855      1.0  0.49060  0.38632  0.65836  1.0000
  H   H1438     1.0  0.87642  0.39575  0.57335  1.0000
  H   H1439     1.0  0.53712  0.08342  0.51447  1.0000
  C   C856      1.0  0.51682  0.29511  0.56733  1.0000
  C   C857      1.0  0.54484  0.05107  0.51885  1.0000
  H   H1440     1.0  0.51827  0.25072  0.74573  1.0000
  C   C858      1.0  0.97489  0.44820  0.56603  1.0000
  C   C859      1.0  0.51156  0.25097  0.57185  1.0000
  C   C860      1.0  0.52745  0.27869  0.57222  1.0000
  H   H1441     1.0  0.89265  0.35637  0.71195  1.0000
  H   H1442     1.0  0.95202  0.24279  0.57564  1.0000
  H   H1443     1.0  0.52009  0.23877  0.57574  1.0000
  H   H1444     1.0  0.54819  0.28755  0.57627  1.0000
  H   H1445     1.0  0.60398  0.26865  0.51563  1.0000
  S   S252      1.0  0.95981  0.11651  0.64775  1.0000
  H   H1446     1.0  0.97865  0.29133  0.57104  1.0000
  S   S253      1.0  0.95691  0.33553  0.72396  1.0000
  H   H1447     1.0  0.64351  0.08428  0.53421  1.0000
  H   H1448     1.0  0.95737  0.24261  0.50426  1.0000
  C   C861      1.0  0.86828  0.46160  0.53335  1.0000
  S   S254      1.0  0.55235  0.16110  0.56719  1.0000
  N   N61       1.0  0.57261  0.22878  0.52253  1.0000
  H   H1449     1.0  0.85337  0.32643  0.74615  1.0000
  C   C862      1.0  0.93508  0.45854  0.54013  1.0000
  H   H1450     1.0  0.73847  0.13014  0.54820  1.0000
  H   H1451     1.0  0.73479  0.12030  0.57851  1.0000
  H   H1452     1.0  0.97418  0.44529  0.52813  1.0000
  C   C863      1.0  0.91660  0.02533  0.54373  1.0000
  C   C864      1.0  0.92157  0.41802  0.51631  1.0000
  Fe  Fe125     1.0  0.51016  0.14992  0.57318  1.0000
  H   H1453     1.0  0.55144  0.26557  0.52906  1.0000
  H   H1454     1.0  0.66984  0.03970  0.55674  1.0000
  H   H1455     1.0  0.57631  0.27163  0.55078  1.0000
  H   H1456     1.0  0.48837  0.44903  0.56701  1.0000
  C   C865      1.0  0.97359  0.35528  0.67916  1.0000
  H   H1457     1.0  0.95297  0.34441  0.67441  1.0000
  H   H1458     1.0  0.54551  0.24012  0.72162  1.0000
  C   C866      1.0  0.50562  0.29448  0.65952  1.0000
  C   C867      1.0  0.89092  0.33965  0.51856  1.0000
  H   H1459     1.0  0.48452  0.12461  0.73112  1.0000
  C   C868      1.0  0.51711  0.39961  0.66506  1.0000
  H   H1460     1.0  0.90166  0.30163  0.74803  1.0000
  H   H1461     1.0  0.53650  0.03990  0.53542  1.0000
  Fe  Fe126     1.0  0.97295  0.16742  0.57196  1.0000
  H   H1462     1.0  0.91561  0.45622  0.53565  1.0000
  C   C869      1.0  0.49744  0.23520  0.71155  1.0000
  H   H1463     1.0  0.90528  0.42145  0.51070  1.0000
  C   C870      1.0  0.50844  0.20287  0.72882  1.0000
  H   H1464     1.0  0.97659  0.46771  0.56849  1.0000
  H   H1465     1.0  0.92521  0.38289  0.74243  1.0000
  C   C871      1.0  0.70227  0.09276  0.55625  1.0000
  H   H1466     1.0  0.48534  0.38506  0.63979  1.0000
  C   C872      1.0  0.52314  0.21171  0.51578  1.0000
  H   H1467     1.0  0.51050  0.20910  0.68037  1.0000
  C   C873      1.0  0.97453  0.10803  0.69155  1.0000
  H   H1468     1.0  0.54393  0.22573  0.54876  1.0000
  H   H1469     1.0  0.88388  0.42475  0.55721  1.0000
  C   C874      1.0  0.90270  0.34643  0.54106  1.0000
  C   C875      1.0  0.59140  0.22689  0.53970  1.0000
  H   H1470     1.0  0.92029  0.03314  0.56161  1.0000
  H   H1471     1.0  0.54634  0.34366  0.67039  1.0000
  H   H1472     1.0  0.65379  0.02122  0.53062  1.0000
  C   C876      1.0  0.93012  0.35930  0.54319  1.0000
  H   H1473     1.0  0.93847  0.46673  0.55846  1.0000
  H   H1474     1.0  0.54405  0.41143  0.69461  1.0000
  C   C877      1.0  0.58570  0.14319  0.51275  1.0000
  H   H1475     1.0  0.48356  0.24030  0.74675  1.0000
  H   H1476     1.0  0.91722  0.39731  0.56136  1.0000
  N   N62       1.0  0.49928  0.04730  0.51246  1.0000
  H   H1477     1.0  0.71596  0.13411  0.56713  1.0000
  C   C878      1.0  0.49563  0.32295  0.68440  1.0000
  S   S255      1.0  0.49982  0.17185  0.59980  1.0000
  H   H1478     1.0  0.50545  0.20784  0.52621  1.0000
  S   S256      1.0  0.60172  0.03744  0.51164  1.0000
  H   H1479     1.0  0.54695  0.03806  0.50576  1.0000
  H   H1480     1.0  0.60438  0.14451  0.50893  1.0000
  H   H1481     1.0  0.69187  0.08309  0.57302  1.0000
  C   C879      1.0  0.49282  0.04422  0.53863  1.0000
  C   C880      1.0  0.59220  0.23661  0.56525  1.0000
  C   C881      1.0  0.53242  0.34328  0.65678  1.0000
  H   H1482     1.0  0.49260  0.34023  0.68463  1.0000
  H   H1483     1.0  0.55271  0.33070  0.63159  1.0000
  S   S257      1.0  0.84830  0.41497  0.50795  1.0000
  H   H1484     1.0  0.60145  0.25826  0.56604  1.0000
  N   N63       1.0  0.68272  0.08976  0.53725  1.0000
  H   H1485     1.0  0.59841  0.16299  0.73989  1.0000
  C   C882      1.0  0.50376  0.38942  0.70665  1.0000
  H   H1486     1.0  0.85309  0.44995  0.54612  1.0000
  H   H1487     1.0  0.91932  0.31038  0.52354  1.0000
  C   C883      1.0  0.50725  0.14491  0.66588  1.0000
  C   C884      1.0  0.92635  0.29407  0.55498  1.0000
  C   C885      1.0  0.67275  0.06349  0.52511  1.0000
  C   C886      1.0  0.97241  0.25172  0.57024  1.0000
  H   H1488     1.0  0.71308  0.08235  0.55111  1.0000
  H   H1489     1.0  0.53205  0.36190  0.65920  1.0000
  H   H1490     1.0  0.96683  0.37686  0.52422  1.0000
  H   H1491     1.0  0.52436  0.29725  0.66718  1.0000
  C   C887      1.0  0.48987  0.28328  0.56240  1.0000
  H   H1492     1.0  0.97255  0.31181  0.53640  1.0000
  C   C888      1.0  0.58166  0.15205  0.53468  1.0000
  H   H1493     1.0  0.94318  0.31345  0.56016  1.0000
  H   H1494     1.0  0.59728  0.16019  0.54775  1.0000
  C   C889      1.0  0.49098  0.13039  0.71301  1.0000
  C   C890      1.0  0.87045  0.44949  0.51249  1.0000
  C   C891      1.0  0.66374  0.11575  0.55913  1.0000
  H   H1495     1.0  0.97874  0.05778  0.55785  1.0000
  C   C892      1.0  0.54594  0.34524  0.63282  1.0000
  H   H1496     1.0  0.87733  0.39496  0.54180  1.0000
  H   H1497     1.0  0.94908  0.26493  0.53258  1.0000
  H   H1498     1.0  0.67477  0.11987  0.57604  1.0000
  H   H1499     1.0  0.90400  0.33595  0.72433  1.0000
  N   N64       1.0  0.94005  0.29044  0.51186  1.0000
  H   H1500     1.0  0.92330  0.42616  0.57676  1.0000
  C   C893      1.0  0.88659  0.33847  0.72284  1.0000
  H   H1501     1.0  0.95812  0.01083  0.56645  1.0000
  S   S258      1.0  0.94447  0.36689  0.57143  1.0000
  C   C894      1.0  0.49075  0.19687  0.68850  1.0000
  H   H1502     1.0  0.50900  0.39064  0.72522  1.0000
  H   H1503     1.0  0.54010  0.19537  0.53953  1.0000
  C   C895      1.0  0.97907  0.02124  0.56077  1.0000
  H   H1504     1.0  0.63865  0.03594  0.54695  1.0000
  S   S259      1.0  0.54262  0.41352  0.64367  1.0000
  C   C896      1.0  0.91638  0.41576  0.55946  1.0000
  C   C897      1.0  0.72383  0.12102  0.56269  1.0000
  H   H1505     1.0  0.58700  0.20618  0.54108  1.0000
  C   C898      1.0  0.95479  0.48020  0.52341  1.0000
  H   H1506     1.0  0.50438  0.08549  0.54704  1.0000
  H   H1507     1.0  0.97848  0.18768  0.65984  1.0000
  H   H1508     1.0  0.53085  0.34628  0.70638  1.0000
  N   N65       1.0  0.50518  0.32001  0.66026  1.0000
  H   H1509     1.0  0.70377  0.13086  0.52620  1.0000
  Fe  Fe127     1.0  0.97099  0.12844  0.60927  1.0000
  H   H1510     1.0  0.50343  0.18198  0.72877  1.0000
  H   H1511     1.0  0.91222  0.39636  0.51876  1.0000
  C   C899      1.0  0.50745  0.06947  0.55373  1.0000
  C   C900      1.0  0.94574  0.36598  0.52280  1.0000
  H   H1512     1.0  0.53366  0.34359  0.61732  1.0000
  H   H1513     1.0  0.96727  0.20869  0.72371  1.0000
  N   N66       1.0  0.93382  0.43225  0.53932  1.0000
  H   H1514     1.0  0.96763  0.33195  0.51589  1.0000
  H   H1515     1.0  0.49967  0.06516  0.57216  1.0000
  H   H1516     1.0  0.93072  0.01494  0.75149  1.0000
  C   C901      1.0  0.96045  0.43463  0.54287  1.0000
  H   H1517     1.0  0.87149  0.32165  0.71236  1.0000
  H   H1518     1.0  0.51599  0.29463  0.62136  1.0000
  H   H1519     1.0  0.64460  0.16651  0.75022  1.0000
  H   H1520     1.0  0.60614  0.12618  0.74657  1.0000
  C   C902      1.0  0.54527  0.21524  0.53291  1.0000
  H   H1521     1.0  0.61202  0.23810  0.53310  1.0000
  C   C903      1.0  0.87485  0.34087  0.74680  1.0000
  C   C904      1.0  0.50150  0.24951  0.73554  1.0000
  C   C905      1.0  0.69461  0.11082  0.51847  1.0000
  H   H1522     1.0  0.68924  0.06187  0.51709  1.0000
  H   H1523     1.0  0.50655  0.20746  0.74767  1.0000
  C   C906      1.0  0.58208  0.25710  0.51594  1.0000
  H   H1524     1.0  0.95861  0.41485  0.54258  1.0000
  H   H1525     1.0  0.50246  0.32343  0.72243  1.0000
  H   H1526     1.0  0.94491  0.15987  0.73308  1.0000
  H   H1527     1.0  0.64430  0.11355  0.56376  1.0000
  H   H1528     1.0  0.54932  0.21509  0.73584  1.0000
  H   H1529     1.0  0.96449  0.29550  0.63335  1.0000
  H   H1530     1.0  0.56114  0.12014  0.74869  1.0000
  C   C907      1.0  0.92072  0.29273  0.52807  1.0000
  H   H1531     1.0  0.57271  0.22678  0.57408  1.0000
  H   H1532     1.0  0.56480  0.06730  0.52360  1.0000
  H   H1533     1.0  0.52885  0.07652  0.55488  1.0000
  H   H1534     1.0  0.56385  0.36496  0.63154  1.0000
  H   H1535     1.0  0.54179  0.21186  0.70500  1.0000
  C   C908      1.0  0.51357  0.32609  0.70568  1.0000
  H   H1536     1.0  0.92976  0.27802  0.56097  1.0000
  C   C909      1.0  0.53783  0.21865  0.72209  1.0000
  H   H1537     1.0  0.65006  0.07486  0.56216  1.0000
  H   H1538     1.0  0.60492  0.23154  0.57605  1.0000
  C   C910      1.0  0.48693  0.32112  0.64201  1.0000
  C   C911      1.0  0.96003  0.16601  0.74717  1.0000
  H   H1539     1.0  0.96356  0.17880  0.69938  1.0000
  H   H1540     1.0  0.87625  0.36053  0.74691  1.0000
  C   C912      1.0  0.93814  0.26415  0.51621  1.0000
  H   H1541     1.0  0.96977  0.03859  0.53184  1.0000
  H   H1542     1.0  0.91730  0.24888  0.51967  1.0000
  H   H1543     1.0  0.50577  0.26452  0.63661  1.0000
  H   H1544     1.0  0.98162  0.14817  0.73335  1.0000
  H   H1545     1.0  0.51572  0.24649  0.70091  1.0000
  H   H1546     1.0  0.49636  0.02904  0.54688  1.0000
  H   H1547     1.0  0.48928  0.34114  0.64163  1.0000
  H   H1548     1.0  0.60385  0.20633  0.74934  1.0000
  H   H1549     1.0  0.48982  0.27933  0.67092  1.0000
  H   H1550     1.0  0.86770  0.28899  0.73916  1.0000
  H   H1551     1.0  0.49574  0.08213  0.50855  1.0000
  H   H1552     1.0  0.63453  0.20694  0.74887  1.0000
  H   H1553     1.0  0.49180  0.31777  0.62378  1.0000
  H   H1554     1.0  0.50617  0.27004  0.73223  1.0000
  S   S260      1.0  0.48397  0.15088  0.54465  1.0000
  C   C913      1.0  0.48478  0.23915  0.56614  1.0000
  C   C914      1.0  0.98126  0.35449  0.70264  1.0000
  C   C915      1.0  0.52855  0.06278  0.50830  1.0000
  H   H1555     1.0  0.67896  0.10980  0.50662  1.0000
  H   H1556     1.0  0.65942  0.06130  0.51006  1.0000
  H   H1557     1.0  0.56255  0.19235  0.50425  1.0000
  N   N67       1.0  0.48978  0.20661  0.71305  1.0000
  H   H1558     1.0  0.98200  0.00715  0.54991  1.0000
  H   H1559     1.0  0.48794  0.17673  0.68934  1.0000
  H   H1560     1.0  0.49726  0.00949  0.51069  1.0000
  H   H1561     1.0  0.94643  0.47801  0.50534  1.0000
  C   C916      1.0  0.98183  0.17802  0.69652  1.0000
  H   H1562     1.0  0.98086  0.29789  0.66063  1.0000
  H   H1563     1.0  0.52878  0.22934  0.50474  1.0000
  H   H1564     1.0  0.51730  0.19449  0.50397  1.0000
  Fe  Fe128     1.0  0.86833  0.44124  0.88579  1.0000
  S   S261      1.0  0.89372  0.46760  0.91538  1.0000
  S   S262      1.0  0.88876  0.42785  0.85797  1.0000
  Fe  Fe129     1.0  0.82342  0.45471  0.89777  1.0000
  S   S263      1.0  0.94778  0.05631  0.80188  1.0000
  S   S264      1.0  0.78079  0.44593  0.89206  1.0000
  C   C917      1.0  0.52263  0.03914  0.89034  1.0000
  C   C918      1.0  0.65421  0.15499  0.78354  1.0000
  Fe  Fe130     1.0  0.85697  0.45125  0.93742  1.0000
  S   S265      1.0  0.85372  0.43970  0.97625  1.0000
  S   S266      1.0  0.85733  0.47085  0.87192  1.0000
  S   S267      1.0  0.83173  0.42239  0.90907  1.0000
  H   H1565     1.0  0.93051  0.99349  0.91354  1.0000
  S   S268      1.0  0.50651  0.15831  0.83332  1.0000
  C   C919      1.0  0.50565  0.24487  0.80263  1.0000
  H   H1566     1.0  0.98052  0.42983  0.83024  1.0000
  S   S269      1.0  0.55421  0.18345  0.79543  1.0000
  Fe  Fe131     1.0  0.53821  0.14937  0.82130  1.0000
  S   S270      1.0  0.56171  0.14021  0.84910  1.0000
  Fe  Fe132     1.0  0.51991  0.18940  0.80458  1.0000
  S   S271      1.0  0.52750  0.23186  0.80186  1.0000
  S   S272      1.0  0.51351  0.11997  0.79349  1.0000
  N   N68       1.0  0.48639  0.04687  0.87121  1.0000
  Fe  Fe133     1.0  0.66282  0.02300  0.89906  1.0000
  C   C920      1.0  0.71701  0.00807  0.89123  1.0000
  S   S273      1.0  0.70223  0.02786  0.88566  1.0000
  Fe  Fe134     1.0  0.61996  0.04021  0.89119  1.0000
  S   S274      1.0  0.59492  0.01380  0.92094  1.0000
  S   S275      1.0  0.60230  0.05709  0.86394  1.0000
  Fe  Fe135     1.0  0.63262  0.02749  0.94123  1.0000
  S   S276      1.0  0.63806  0.03607  0.98079  1.0000
  H   H1567     1.0  0.63830  0.19418  0.80746  1.0000
  S   S277      1.0  0.59584  0.42762  0.90230  1.0000
  S   S278      1.0  0.65773  0.05654  0.91281  1.0000
  S   S279      1.0  0.62746  0.00908  0.87513  1.0000
  H   H1568     1.0  0.53094  0.02635  0.88561  1.0000
  S   S280      1.0  0.93837  0.30426  0.78695  1.0000
  H   H1569     1.0  0.75004  0.47928  0.95066  1.0000
  C   C921      1.0  0.80281  0.05885  0.90407  1.0000
  S   S281      1.0  0.54914  0.40719  0.79892  1.0000
  H   H1570     1.0  0.68532  0.46713  0.98570  1.0000
  S   S282      1.0  0.95947  0.25183  0.80499  1.0000
  Fe  Fe136     1.0  0.95511  0.33772  0.81338  1.0000
  S   S283      1.0  0.92990  0.34578  0.84001  1.0000
  N   N69       1.0  0.88662  0.33713  0.76925  1.0000
  C   C922      1.0  0.79884  0.45738  0.97969  1.0000
  C   C923      1.0  0.58311  0.42079  0.87358  1.0000
  C   C924      1.0  0.59987  0.42878  0.85389  1.0000
  C   C925      1.0  0.58927  0.42377  0.83089  1.0000
  C   C926      1.0  0.56198  0.41135  0.82765  1.0000
  C   C927      1.0  0.54536  0.40337  0.84742  1.0000
  C   C928      1.0  0.55588  0.40773  0.87035  1.0000
  H   H1571     1.0  0.62097  0.43869  0.85641  1.0000
  H   H1572     1.0  0.60221  0.42997  0.81563  1.0000
  H   H1573     1.0  0.52447  0.39470  0.84518  1.0000
  H   H1574     1.0  0.54295  0.40186  0.88561  1.0000
  H   H1575     1.0  0.52628  0.29270  0.83769  1.0000
  H   H1576     1.0  0.97139  0.26810  0.87111  1.0000
  C   C929      1.0  0.95593  0.02544  0.88997  1.0000
  Fe  Fe137     1.0  0.96905  0.33297  0.76164  1.0000
  H   H1577     1.0  0.54133  0.34546  0.80779  1.0000
  C   C930      1.0  0.49837  0.28206  0.79492  1.0000
  S   S284      1.0  0.88457  0.04507  0.89570  1.0000
  H   H1578     1.0  0.88694  0.36922  0.78898  1.0000
  C   C931      1.0  0.51420  0.27016  0.79333  1.0000
  S   S285      1.0  0.49364  0.16131  0.77673  1.0000
  H   H1579     1.0  0.94696  0.19844  0.81338  1.0000
  H   H1580     1.0  0.48894  0.05185  0.90975  1.0000
  H   H1581     1.0  0.53337  0.28075  0.78507  1.0000
  C   C932      1.0  0.57237  0.11654  0.85292  1.0000
  C   C933      1.0  0.58529  0.11673  0.87411  1.0000
  C   C934      1.0  0.59428  0.09865  0.87798  1.0000
  C   C935      1.0  0.59085  0.08019  0.86052  1.0000
  C   C936      1.0  0.57794  0.08001  0.83928  1.0000
  C   C937      1.0  0.56858  0.09782  0.83558  1.0000
  H   H1582     1.0  0.58841  0.13104  0.88772  1.0000
  H   H1583     1.0  0.60418  0.09924  0.89438  1.0000
  H   H1584     1.0  0.57501  0.06582  0.82564  1.0000
  H   H1585     1.0  0.55834  0.09696  0.81937  1.0000
  C   C938      1.0  0.76657  0.46666  0.89489  1.0000
  H   H1586     1.0  0.56739  0.46411  0.88016  1.0000
  S   S286      1.0  0.63982  0.99547  0.92851  1.0000
  H   H1587     1.0  0.50315  0.08163  0.84867  1.0000
  C   C939      1.0  0.97839  0.23580  0.80119  1.0000
  C   C940      1.0  0.73895  0.45515  0.89543  1.0000
  N   N70       1.0  0.79167  0.47874  0.98119  1.0000
  H   H1588     1.0  0.66337  0.43704  0.99999  1.0000
  H   H1589     1.0  0.70551  0.46145  0.89726  1.0000
  H   H1590     1.0  0.72686  0.43400  0.89437  1.0000
  C   C941      1.0  0.90070  0.40525  0.85396  1.0000
  C   C942      1.0  0.89522  0.38484  0.86989  1.0000
  C   C943      1.0  0.90445  0.36706  0.86540  1.0000
  C   C944      1.0  0.91965  0.36953  0.84514  1.0000
  C   C945      1.0  0.92572  0.39033  0.82951  1.0000
  C   C946      1.0  0.91608  0.40781  0.83375  1.0000
  H   H1591     1.0  0.88345  0.38246  0.88549  1.0000
  H   H1592     1.0  0.89957  0.35113  0.87771  1.0000
  H   H1593     1.0  0.93758  0.39277  0.81402  1.0000
  H   H1594     1.0  0.92055  0.42350  0.82128  1.0000
  C   C947      1.0  0.90147  0.04872  0.86909  1.0000
  C   C948      1.0  0.89718  0.02642  0.85647  1.0000
  C   C949      1.0  0.91102  0.02907  0.83549  1.0000
  C   C950      1.0  0.92950  0.05399  0.82721  1.0000
  C   C951      1.0  0.93392  0.07641  0.83979  1.0000
  C   C952      1.0  0.91979  0.07376  0.86073  1.0000
  H   H1595     1.0  0.88342  0.00705  0.86298  1.0000
  H   H1596     1.0  0.90763  0.01172  0.82591  1.0000
  H   H1597     1.0  0.88560  0.34384  0.80705  1.0000
  H   H1598     1.0  0.92315  0.09105  0.87049  1.0000
  H   H1599     1.0  0.64752  0.13450  0.77792  1.0000
  C   C953      1.0  0.53796  0.45914  0.82455  1.0000
  H   H1600     1.0  0.58417  0.33863  0.88736  1.0000
  S   S287      1.0  0.49030  0.34748  0.77103  1.0000
  N   N71       1.0  0.55965  0.48442  0.83487  1.0000
  H   H1601     1.0  0.82676  0.10220  0.90019  1.0000
  H   H1602     1.0  0.53438  0.32139  0.89566  1.0000
  H   H1603     1.0  0.57563  0.35741  0.80536  1.0000
  H   H1604     1.0  0.78997  0.44696  0.94170  1.0000
  H   H1605     1.0  0.95168  0.15053  0.76107  1.0000
  C   C954      1.0  0.85075  0.99643  0.99276  1.0000
  N   N72       1.0  0.54017  0.32898  0.85773  1.0000
  H   H1606     1.0  0.49627  0.43251  0.83135  1.0000
  H   H1607     1.0  0.54474  0.47058  0.89545  1.0000
  C   C955      1.0  0.75201  0.99787  0.88212  1.0000
  Fe  Fe138     1.0  0.85536  0.00225  0.90072  1.0000
  C   C956      1.0  0.86123  0.46396  0.99829  1.0000
  H   H1608     1.0  0.50250  0.45734  0.80975  1.0000
  H   H1609     1.0  0.95722  0.41400  0.87298  1.0000
  H   H1610     1.0  0.80048  0.02855  0.95686  1.0000
  H   H1611     1.0  0.96191  0.01514  0.92636  1.0000
  C   C957      1.0  0.61578  0.19924  0.75883  1.0000
  C   C958      1.0  0.82067  0.08403  0.88983  1.0000
  H   H1612     1.0  0.83762  0.31556  0.79802  1.0000
  H   H1613     1.0  0.65155  0.15567  0.80299  1.0000
  C   C959      1.0  0.85162  0.05788  0.94981  1.0000
  H   H1614     1.0  0.83674  0.04328  0.91457  1.0000
  H   H1615     1.0  0.74971  0.44872  0.94767  1.0000
  H   H1616     1.0  0.95139  0.45041  0.88602  1.0000
  H   H1617     1.0  0.93895  0.02445  0.88014  1.0000
  H   H1618     1.0  0.96349  0.18439  0.75593  1.0000
  C   C960      1.0  0.79303  0.03145  0.93967  1.0000
  H   H1619     1.0  0.50683  0.10348  0.88302  1.0000
  C   C961      1.0  0.91634  0.35191  0.76920  1.0000
  N   N73       1.0  0.61124  0.15496  0.77345  1.0000
  H   H1620     1.0  0.92400  0.35158  0.78725  1.0000
  H   H1621     1.0  0.76917  0.00174  0.87183  1.0000
  H   H1622     1.0  0.49383  0.31711  0.88539  1.0000
  H   H1623     1.0  0.50618  0.46464  0.84108  1.0000
  C   C962      1.0  0.87697  0.30846  0.77410  1.0000
  C   C963      1.0  0.61830  0.18003  0.81363  1.0000
  H   H1624     1.0  0.79082  0.01521  0.92784  1.0000
  H   H1625     1.0  0.80259  0.10769  0.93194  1.0000
  H   H1626     1.0  0.60619  0.18975  0.81410  1.0000
  H   H1627     1.0  0.50583  0.02748  0.85511  1.0000
  H   H1628     1.0  0.85323  0.00296  0.97454  1.0000
  H   H1629     1.0  0.97958  0.39510  0.85122  1.0000
  Fe  Fe139     1.0  0.52686  0.15419  0.76861  1.0000
  H   H1630     1.0  0.85547  0.29756  0.77747  1.0000
  H   H1631     1.0  0.54131  0.45773  0.80528  1.0000
  H   H1632     1.0  0.81572  0.07524  0.96353  1.0000
  C   C964      1.0  0.74622  0.46118  0.96017  1.0000
  H   H1633     1.0  0.97781  0.24293  0.86278  1.0000
  H   H1634     1.0  0.76532  0.03898  0.95996  1.0000
  C   C965      1.0  0.49067  0.31115  0.86646  1.0000
  H   H1635     1.0  0.95347  0.00123  0.77893  1.0000
  N   N74       1.0  0.81196  0.05777  0.92888  1.0000
  H   H1636     1.0  0.52634  0.06174  0.85959  1.0000
  H   H1637     1.0  0.58114  0.35107  0.84609  1.0000
  C   C966      1.0  0.87823  0.34758  0.79008  1.0000
  H   H1638     1.0  0.50531  0.30151  0.78775  1.0000
  C   C967      1.0  0.50939  0.45359  0.82691  1.0000
  H   H1639     1.0  0.53838  0.44201  0.83221  1.0000
  H   H1640     1.0  0.88630  0.30635  0.79062  1.0000
  H   H1641     1.0  0.67572  0.16643  0.78005  1.0000
  H   H1642     1.0  0.57862  0.03451  0.99854  1.0000
  H   H1643     1.0  0.58189  0.46510  0.84377  1.0000
  H   H1644     1.0  0.84554  0.34712  0.80856  1.0000
  H   H1645     1.0  0.53981  0.05787  0.89639  1.0000
  C   C968      1.0  0.56826  0.11193  0.76273  1.0000
  H   H1646     1.0  0.84120  0.03826  0.95827  1.0000
  H   H1647     1.0  0.87165  0.06141  0.94553  1.0000
  H   H1648     1.0  0.92655  0.00140  0.79269  1.0000
  H   H1649     1.0  0.61608  0.46831  0.97654  1.0000
  H   H1650     1.0  0.80973  0.08474  0.87398  1.0000
  H   H1651     1.0  0.60371  0.11480  0.77627  1.0000
  H   H1652     1.0  0.62086  0.17548  0.83228  1.0000
  H   H1653     1.0  0.85412  0.07320  0.96274  1.0000
  H   H1654     1.0  0.96805  0.06704  0.92011  1.0000
  C   C969      1.0  0.96811  0.45436  0.87411  1.0000
  H   H1655     1.0  0.74819  0.02923  0.86598  1.0000
  C   C970      1.0  0.51064  0.09043  0.89463  1.0000
  C   C971      1.0  0.96719  0.20909  0.80740  1.0000
  H   H1656     1.0  0.72489  0.45043  0.96445  1.0000
  H   H1657     1.0  0.79620  0.42521  0.95868  1.0000
  Fe  Fe140     1.0  0.62646  0.47018  0.90569  1.0000
  H   H1658     1.0  0.56417  0.36843  0.84463  1.0000
  H   H1659     1.0  0.65116  0.18854  0.77377  1.0000
  H   H1660     1.0  0.83924  0.34043  0.77770  1.0000
  H   H1661     1.0  0.92486  0.39320  0.77259  1.0000
  H   H1662     1.0  0.83458  0.09798  0.94093  1.0000
  C   C972      1.0  0.73992  0.01331  0.87870  1.0000
  H   H1663     1.0  0.83838  0.08386  0.88305  1.0000
  H   H1664     1.0  0.58712  0.37064  0.88345  1.0000
  H   H1665     1.0  0.52975  0.09220  0.88972  1.0000
  H   H1666     1.0  0.57608  0.35378  0.91093  1.0000
  H   H1667     1.0  0.78952  0.09330  0.95985  1.0000
  H   H1668     1.0  0.93682  0.02470  0.92399  1.0000
  H   H1669     1.0  0.95986  0.01102  0.88087  1.0000
  H   H1670     1.0  0.60714  0.13931  0.80921  1.0000
  H   H1671     1.0  0.55629  0.28003  0.84751  1.0000
  H   H1672     1.0  0.50905  0.02962  0.90536  1.0000
  C   C973      1.0  0.51024  0.04370  0.86783  1.0000
  C   C974      1.0  0.78664  0.43750  0.95927  1.0000
  H   H1673     1.0  0.96274  0.02610  0.84168  1.0000
  H   H1674     1.0  0.61370  0.48053  0.81243  1.0000
  S   S288      1.0  0.84719  0.48212  0.92704  1.0000
  C   C975      1.0  0.62223  0.00923  0.00064  1.0000
  C   C976      1.0  0.59633  0.48315  0.80997  1.0000
  C   C977      1.0  0.97530  0.43266  0.87789  1.0000
  H   H1675     1.0  0.57828  0.31378  0.85031  1.0000
  H   H1676     1.0  0.94816  0.09572  0.83336  1.0000
  Fe  Fe141     1.0  0.50523  0.38153  0.79615  1.0000
  Fe  Fe142     1.0  0.96956  0.29455  0.79836  1.0000
  C   C978      1.0  0.55758  0.34289  0.81487  1.0000
  H   H1677     1.0  0.50893  0.32094  0.83244  1.0000
  C   C979      1.0  0.56162  0.34859  0.84173  1.0000
  H   H1678     1.0  0.55432  0.32309  0.81049  1.0000
  H   H1679     1.0  0.82053  0.46630  0.97820  1.0000
  C   C980      1.0  0.55987  0.29772  0.85779  1.0000
  C   C981      1.0  0.51495  0.32837  0.85086  1.0000
  C   C982      1.0  0.54614  0.33799  0.88330  1.0000
  H   H1680     1.0  0.54026  0.35302  0.88716  1.0000
  H   H1681     1.0  0.87599  0.27302  0.76151  1.0000
  H   H1682     1.0  0.75296  0.00564  0.95138  1.0000
  H   H1683     1.0  0.51779  0.34858  0.85098  1.0000
  H   H1684     1.0  0.80102  0.04207  0.89334  1.0000
  C   C983      1.0  0.57511  0.35079  0.89138  1.0000
  H   H1685     1.0  0.53282  0.44695  0.87197  1.0000
  C   C984      1.0  0.53584  0.30155  0.85490  1.0000
  C   C985      1.0  0.72675  0.47071  0.89709  1.0000
  H   H1686     1.0  0.52122  0.28809  0.86810  1.0000
  S   S289      1.0  0.65884  0.48202  0.93237  1.0000
  C   C986      1.0  0.59747  0.98770  0.99546  1.0000
  H   H1687     1.0  0.77546  0.07448  0.93380  1.0000
  H   H1688     1.0  0.56291  0.29462  0.87672  1.0000
  H   H1689     1.0  0.58288  0.14692  0.80136  1.0000
  H   H1690     1.0  0.97127  0.99523  0.81115  1.0000
  C   C987      1.0  0.76515  0.02629  0.94527  1.0000
  C   C988      1.0  0.83833  0.05917  0.92650  1.0000
  H   H1691     1.0  0.51246  0.09800  0.91302  1.0000
  C   C989      1.0  0.60428  0.15414  0.79935  1.0000
  H   H1692     1.0  0.55868  0.11147  0.77977  1.0000
  H   H1693     1.0  0.75504  0.02837  0.92955  1.0000
  C   C990      1.0  0.94608  0.01446  0.91508  1.0000
  C   C991      1.0  0.84838  0.33669  0.79334  1.0000
  C   C992      1.0  0.81518  0.08012  0.94449  1.0000
  H   H1694     1.0  0.58226  0.46675  0.79856  1.0000
  H   H1695     1.0  0.56140  0.09120  0.75768  1.0000
  C   C993      1.0  0.54966  0.46604  0.87765  1.0000
  H   H1696     1.0  0.76538  0.42383  0.96227  1.0000
  H   H1697     1.0  0.85299  0.07785  0.91790  1.0000
  C   C994      1.0  0.48775  0.06179  0.89351  1.0000
  H   H1698     1.0  0.78277  0.05625  0.90382  1.0000
  C   C995      1.0  0.79436  0.08893  0.94194  1.0000
  H   H1699     1.0  0.97306  0.06874  0.85620  1.0000
  H   H1700     1.0  0.95147  0.06698  0.89373  1.0000
  S   S290      1.0  0.82411  0.99021  0.92850  1.0000
  C   C996      1.0  0.61626  0.47414  0.99481  1.0000
  Fe  Fe143     1.0  0.48276  0.13015  0.80424  1.0000
  C   C997      1.0  0.92975  0.38090  0.76114  1.0000
  H   H1701     1.0  0.49375  0.04218  0.82181  1.0000
  H   H1702     1.0  0.97216  0.38871  0.89523  1.0000
  H   H1703     1.0  0.61950  0.20790  0.77679  1.0000
  C   C998      1.0  0.58474  0.48305  0.83462  1.0000
  H   H1704     1.0  0.79307  0.44517  0.99602  1.0000
  C   C999      1.0  0.76226  0.46728  0.98349  1.0000
  H   H1705     1.0  0.92455  0.34229  0.75798  1.0000
  H   H1706     1.0  0.95143  0.38938  0.76212  1.0000
  H   H1707     1.0  0.97772  0.43136  0.89739  1.0000
  N   N75       1.0  0.97916  0.05299  0.88885  1.0000
  H   H1708     1.0  0.97327  0.17578  0.81196  1.0000
  C   C1000     1.0  0.97089  0.07088  0.90068  1.0000
  C   C1001     1.0  0.59862  0.12693  0.76458  1.0000
  H   H1709     1.0  0.75760  0.48070  0.99375  1.0000
  C   C1002     1.0  0.60028  0.16895  0.75895  1.0000
  C   C1003     1.0  0.93160  0.99030  0.77975  1.0000
  C   C1004     1.0  0.92215  0.99358  0.75508  1.0000
  H   H1710     1.0  0.57999  0.16301  0.76489  1.0000
  H   H1711     1.0  0.96097  0.45402  0.85578  1.0000
  C   C1005     1.0  0.64047  0.16731  0.76945  1.0000
  C   C1006     1.0  0.48470  0.06233  0.85048  1.0000
  H   H1712     1.0  0.75356  0.44875  0.99398  1.0000
  H   H1713     1.0  0.79398  0.48594  0.94311  1.0000
  C   C1007     1.0  0.70640  0.98715  0.90736  1.0000
  H   H1714     1.0  0.98175  0.11146  0.90780  1.0000
  C   C1008     1.0  0.68145  0.45630  0.00277  1.0000
  C   C1009     1.0  0.98206  0.19613  0.80656  1.0000
  H   H1715     1.0  0.48228  0.06374  0.81206  1.0000
  H   H1716     1.0  0.48423  0.28996  0.86468  1.0000
  C   C1010     1.0  0.88111  0.29264  0.75435  1.0000
  C   C1011     1.0  0.68722  0.50897  0.06127  1.0000
  H   H1717     1.0  0.88783  0.53008  0.00555  1.0000
  S   S291      1.0  0.86242  0.84762  0.21277  1.0000
  H   H1718     1.0  0.95223  0.81304  0.17104  1.0000
  Fe  Fe144     1.0  0.84275  0.81393  0.23838  1.0000
  S   S292      1.0  0.80898  0.77394  0.22588  1.0000
  Fe  Fe145     1.0  0.90192  0.85706  0.22795  1.0000
  S   S293      1.0  0.93415  0.87057  0.19882  1.0000
  C   C1012     1.0  0.93932  0.54621  0.08178  1.0000
  H   H1719     1.0  0.92758  0.79005  0.13321  1.0000
  Fe  Fe146     1.0  0.86133  0.51342  0.09288  1.0000
  S   S294      1.0  0.86166  0.54427  0.11679  1.0000
  H   H1720     1.0  0.69977  0.56086  0.12017  1.0000
  H   H1721     1.0  0.80041  0.51110  0.00522  1.0000
  C   C1013     1.0  0.52302  0.52941  0.16545  1.0000
  S   S295      1.0  0.83586  0.93452  0.13561  1.0000
  Fe  Fe147     1.0  0.82056  0.51305  0.12776  1.0000
  S   S296      1.0  0.78586  0.52129  0.12667  1.0000
  Fe  Fe148     1.0  0.87842  0.52898  0.14477  1.0000
  S   S297      1.0  0.91386  0.55674  0.16881  1.0000
  S   S298      1.0  0.83716  0.50076  0.15826  1.0000
  S   S299      1.0  0.87992  0.49969  0.12006  1.0000
  Fe  Fe149     1.0  0.64806  0.67755  0.23468  1.0000
  H   H1722     1.0  0.88448  0.75395  0.18612  1.0000
  H   H1723     1.0  0.95087  0.59629  0.13708  1.0000
  Fe  Fe150     1.0  0.58932  0.63754  0.21909  1.0000
  S   S300      1.0  0.84640  0.90108  0.23951  1.0000
  S   S301      1.0  0.55750  0.62880  0.19030  1.0000
  H   H1724     1.0  0.74682  0.52434  0.19593  1.0000
  H   H1725     1.0  0.91640  0.74061  0.16636  1.0000
  S   S302      1.0  0.87699  0.52598  0.05554  1.0000
  S   S303      1.0  0.62967  0.64597  0.20631  1.0000
  Fe  Fe151     1.0  0.62409  0.95809  0.13620  1.0000
  H   H1726     1.0  0.71758  0.70145  0.21622  1.0000
  S   S304      1.0  0.65632  0.94732  0.14326  1.0000
  Fe  Fe152     1.0  0.56568  0.94211  0.14906  1.0000
  H   H1727     1.0  0.67699  0.56196  0.18155  1.0000
  S   S305      1.0  0.53419  0.92302  0.17881  1.0000
  Fe  Fe153     1.0  0.58656  0.95514  0.09701  1.0000
  H   H1728     1.0  0.72978  0.49317  0.07087  1.0000
  H   H1729     1.0  0.74471  0.80185  0.16028  1.0000
  S   S306      1.0  0.62265  0.53653  0.13269  1.0000
  S   S307      1.0  0.58406  0.92548  0.12402  1.0000
  H   H1730     1.0  0.75766  0.82493  0.24736  1.0000
  N   N76       1.0  0.70055  0.54290  0.17972  1.0000
  H   H1731     1.0  0.69907  0.55637  0.22946  1.0000
  H   H1732     1.0  0.53706  0.58042  0.15768  1.0000
  C   C1014     1.0  0.76260  0.77100  0.24297  1.0000
  H   H1733     1.0  0.57573  0.55600  0.21830  1.0000
  H   H1734     1.0  0.72794  0.49519  0.03892  1.0000
  H   H1735     1.0  0.64162  0.52852  0.02983  1.0000
  C   C1015     1.0  0.63238  0.57236  0.20616  1.0000
  C   C1016     1.0  0.62217  0.54529  0.20375  1.0000
  C   C1017     1.0  0.61895  0.53415  0.18118  1.0000
  C   C1018     1.0  0.62671  0.55013  0.16105  1.0000
  C   C1019     1.0  0.63726  0.57729  0.16348  1.0000
  C   C1020     1.0  0.63986  0.58840  0.18605  1.0000
  H   H1736     1.0  0.61613  0.53287  0.21934  1.0000
  H   H1737     1.0  0.61005  0.51319  0.17945  1.0000
  H   H1738     1.0  0.64314  0.58970  0.14788  1.0000
  H   H1739     1.0  0.64798  0.60938  0.18792  1.0000
  H   H1740     1.0  0.61028  0.87726  0.13869  1.0000
  C   C1021     1.0  0.91546  0.80091  0.20612  1.0000
  H   H1741     1.0  0.94524  0.96505  0.23496  1.0000
  C   C1022     1.0  0.71831  0.73356  0.23529  1.0000
  C   C1023     1.0  0.56208  0.54490  0.20353  1.0000
  C   C1024     1.0  0.77803  0.97376  0.05642  1.0000
  H   H1742     1.0  0.56751  0.53042  0.19703  1.0000
  H   H1743     1.0  0.69735  0.93392  0.13988  1.0000
  H   H1744     1.0  0.56414  0.95233  0.00900  1.0000
  H   H1745     1.0  0.74081  0.52561  0.11295  1.0000
  C   C1025     1.0  0.94721  0.56528  0.17598  1.0000
  H   H1746     1.0  0.58475  0.59161  0.12649  1.0000
  C   C1026     1.0  0.50578  0.59242  0.20483  1.0000
  C   C1027     1.0  0.52241  0.60837  0.18667  1.0000
  C   C1028     1.0  0.51104  0.60740  0.16430  1.0000
  H   H1747     1.0  0.51260  0.52130  0.14835  1.0000
  H   H1748     1.0  0.56964  0.52584  0.11432  1.0000
  H   H1749     1.0  0.51394  0.59284  0.22216  1.0000
  H   H1750     1.0  0.55219  0.88342  0.16857  1.0000
  H   H1751     1.0  0.95054  0.53958  0.15075  1.0000
  H   H1752     1.0  0.88967  0.95869  0.23744  1.0000
  C   C1029     1.0  0.56591  0.54254  0.14751  1.0000
  H   H1753     1.0  0.60838  0.88178  0.21700  1.0000
  C   C1030     1.0  0.83996  0.96208  0.02165  1.0000
  H   H1754     1.0  0.71023  0.58217  0.19053  1.0000
  C   C1031     1.0  0.61662  0.93141  0.20920  1.0000
  H   H1755     1.0  0.83372  0.94181  0.02576  1.0000
  C   C1032     1.0  0.77419  0.75855  0.23073  1.0000
  C   C1033     1.0  0.60205  0.89169  0.17132  1.0000
  C   C1034     1.0  0.59415  0.97079  0.03582  1.0000
  H   H1756     1.0  0.53328  0.85117  0.21524  1.0000
  C   C1035     1.0  0.72994  0.72073  0.22384  1.0000
  C   C1036     1.0  0.75762  0.73324  0.22142  1.0000
  H   H1757     1.0  0.91250  0.81750  0.21142  1.0000
  H   H1758     1.0  0.73416  0.98146  0.03254  1.0000
  C   C1037     1.0  0.55571  0.53124  0.12251  1.0000
  H   H1759     1.0  0.54199  0.53444  0.21120  1.0000
  S   S308      1.0  0.60808  0.67173  0.24495  1.0000
  H   H1760     1.0  0.71679  0.78026  0.17676  1.0000
  H   H1761     1.0  0.58606  0.85127  0.15652  1.0000
  C   C1038     1.0  0.49906  0.90501  0.18285  1.0000
  H   H1762     1.0  0.52350  0.96532  0.21814  1.0000
  C   C1039     1.0  0.58797  0.91198  0.20161  1.0000
  C   C1040     1.0  0.75127  0.49937  0.13033  1.0000
  C   C1041     1.0  0.90588  0.97373  0.19296  1.0000
  H   H1763     1.0  0.50197  0.91125  0.22075  1.0000
  H   H1764     1.0  0.67249  0.53575  0.13587  1.0000
  C   C1042     1.0  0.84374  0.91039  0.21058  1.0000
  C   C1043     1.0  0.83196  0.92582  0.20692  1.0000
  C   C1044     1.0  0.82958  0.93344  0.18388  1.0000
  C   C1045     1.0  0.83873  0.92540  0.16449  1.0000
  C   C1046     1.0  0.85018  0.90971  0.16813  1.0000
  C   C1047     1.0  0.85299  0.90249  0.19118  1.0000
  H   H1765     1.0  0.82468  0.93190  0.22190  1.0000
  H   H1766     1.0  0.82035  0.94523  0.18109  1.0000
  H   H1767     1.0  0.85738  0.90359  0.15312  1.0000
  H   H1768     1.0  0.86267  0.89121  0.19386  1.0000
  H   H1769     1.0  0.92939  0.62279  0.13070  1.0000
  C   C1048     1.0  0.91132  0.97198  0.23591  1.0000
  C   C1049     1.0  0.58745  0.87120  0.21121  1.0000
  C   C1050     1.0  0.69333  0.56166  0.19128  1.0000
  S   S309      1.0  0.81697  0.98387  0.10857  1.0000
  H   H1770     1.0  0.97130  0.62669  0.12358  1.0000
  H   H1771     1.0  0.91864  0.56585  0.09258  1.0000
  H   H1772     1.0  0.94288  0.80936  0.23528  1.0000
  H   H1773     1.0  0.62294  0.92398  0.22446  1.0000
  H   H1774     1.0  0.55807  0.57771  0.19188  1.0000
  H   H1775     1.0  0.76480  0.98076  0.09023  1.0000
  S   S310      1.0  0.63575  0.58570  0.23447  1.0000
  H   H1776     1.0  0.54358  0.97637  0.18029  1.0000
  H   H1777     1.0  0.74632  0.96031  0.13999  1.0000
  H   H1778     1.0  0.51472  0.97334  0.24649  1.0000
  H   H1779     1.0  0.97783  0.57268  0.11856  1.0000
  Fe  Fe154     1.0  0.62595  0.61805  0.23535  1.0000
  C   C1051     1.0  0.70696  0.95511  0.14100  1.0000
  H   H1780     1.0  0.89249  0.97635  0.15751  1.0000
  N   N77       1.0  0.58295  0.88598  0.19159  1.0000
  C   C1052     1.0  0.59323  0.87168  0.15070  1.0000
  C   C1053     1.0  0.67682  0.51572  0.17765  1.0000
  C   C1054     1.0  0.53318  0.86452  0.20138  1.0000
  C   C1055     1.0  0.63064  0.50799  0.02487  1.0000
  H   H1781     1.0  0.69461  0.49267  0.02102  1.0000
  H   H1782     1.0  0.86522  0.78897  0.20614  1.0000
  H   H1783     1.0  0.92139  0.52655  0.08305  1.0000
  H   H1784     1.0  0.71825  0.50641  0.17786  1.0000
  H   H1785     1.0  0.95797  0.82853  0.20952  1.0000
  H   H1786     1.0  0.56927  0.61100  0.13030  1.0000
  N   N78       1.0  0.95997  0.59267  0.10058  1.0000
  C   C1056     1.0  0.93640  0.56531  0.09881  1.0000
  C   C1057     1.0  0.48865  0.90237  0.20594  1.0000
  H   H1787     1.0  0.65904  0.51703  0.17294  1.0000
  H   H1788     1.0  0.85252  0.76403  0.18317  1.0000
  C   C1058     1.0  0.77535  0.84395  0.24305  1.0000
  H   H1789     1.0  0.63088  0.93665  0.19441  1.0000
  H   H1790     1.0  0.93120  0.55581  0.11665  1.0000
  H   H1791     1.0  0.91543  0.93933  0.22104  1.0000
  S   S311      1.0  0.58533  0.60812  0.24676  1.0000
  C   C1059     1.0  0.70600  0.49146  0.12645  1.0000
  C   C1060     1.0  0.86257  0.78544  0.18675  1.0000
  H   H1792     1.0  0.72836  0.57312  0.15590  1.0000
  H   H1793     1.0  0.96700  0.88989  0.15726  1.0000
  C   C1061     1.0  0.93068  0.61116  0.11570  1.0000
  H   H1794     1.0  0.68348  0.51883  0.07642  1.0000
  H   H1795     1.0  0.58662  0.55851  0.14537  1.0000
  H   H1796     1.0  0.71805  0.53721  0.21181  1.0000
  H   H1797     1.0  0.52371  0.51254  0.17374  1.0000
  H   H1798     1.0  0.49236  0.96346  0.22221  1.0000
  C   C1062     1.0  0.92346  0.95393  0.23566  1.0000
  H   H1799     1.0  0.90097  0.78382  0.21681  1.0000
  C   C1063     1.0  0.48380  0.59055  0.15999  1.0000
  H   H1800     1.0  0.55332  0.98656  0.04666  1.0000
  C   C1064     1.0  0.96904  0.88458  0.19495  1.0000
  C   C1065     1.0  0.58109  0.84304  0.20535  1.0000
  H   H1801     1.0  0.58388  0.83399  0.22162  1.0000
  N   N79       1.0  0.77199  0.83729  0.19731  1.0000
  C   C1066     1.0  0.77360  0.85420  0.21823  1.0000
  C   C1067     1.0  0.77531  0.85302  0.17509  1.0000
  C   C1068     1.0  0.79426  0.83139  0.19939  1.0000
  C   C1069     1.0  0.74564  0.81240  0.19840  1.0000
  C   C1070     1.0  0.50445  0.53564  0.18004  1.0000
  C   C1071     1.0  0.75461  0.86152  0.17103  1.0000
  C   C1072     1.0  0.80366  0.82436  0.17634  1.0000
  C   C1073     1.0  0.73857  0.79257  0.17793  1.0000
  H   H1802     1.0  0.79101  0.87423  0.21654  1.0000
  H   H1803     1.0  0.75622  0.85707  0.21883  1.0000
  H   H1804     1.0  0.77530  0.84241  0.15880  1.0000
  H   H1805     1.0  0.79497  0.87123  0.17516  1.0000
  H   H1806     1.0  0.81214  0.84871  0.20681  1.0000
  H   H1807     1.0  0.78916  0.81508  0.21215  1.0000
  H   H1808     1.0  0.74432  0.80113  0.21466  1.0000
  H   H1809     1.0  0.72918  0.81653  0.20067  1.0000
  C   C1074     1.0  0.93452  0.81396  0.16566  1.0000
  H   H1810     1.0  0.57582  0.87015  0.22723  1.0000
  C   C1075     1.0  0.87833  0.50948  0.01022  1.0000
  H   H1811     1.0  0.75844  0.87157  0.15354  1.0000
  H   H1812     1.0  0.73432  0.84450  0.17045  1.0000
  H   H1813     1.0  0.75610  0.87604  0.18446  1.0000
  H   H1814     1.0  0.81692  0.81660  0.18101  1.0000
  H   H1815     1.0  0.81524  0.84213  0.16523  1.0000
  H   H1816     1.0  0.78752  0.80899  0.16569  1.0000
  H   H1817     1.0  0.74677  0.77937  0.18120  1.0000
  H   H1818     1.0  0.62131  0.89477  0.17795  1.0000
  H   H1819     1.0  0.76623  0.72327  0.21201  1.0000
  C   C1076     1.0  0.96062  0.55431  0.16429  1.0000
  H   H1820     1.0  0.84885  0.79228  0.18096  1.0000
  S   S312      1.0  0.57490  0.94770  0.05806  1.0000
  H   H1821     1.0  0.51495  0.55172  0.19298  1.0000
  C   C1077     1.0  0.97986  0.89230  0.17200  1.0000
  C   C1078     1.0  0.55493  0.87159  0.18262  1.0000
  C   C1079     1.0  0.90140  0.76697  0.17452  1.0000
  C   C1080     1.0  0.96370  0.60569  0.07673  1.0000
  H   H1822     1.0  0.93281  0.62232  0.09919  1.0000
  H   H1823     1.0  0.71673  0.54055  0.14573  1.0000
  H   H1824     1.0  0.73993  0.56397  0.19435  1.0000
  S   S313      1.0  0.88231  0.82077  0.25134  1.0000
  C   C1081     1.0  0.92165  0.75778  0.17808  1.0000
  H   H1825     1.0  0.60679  0.91048  0.16249  1.0000
  C   C1082     1.0  0.87090  0.50177  0.03386  1.0000
  C   C1083     1.0  0.58351  0.96860  0.01299  1.0000
  H   H1826     1.0  0.88480  0.95915  0.19548  1.0000
  H   H1827     1.0  0.61779  0.95005  0.21509  1.0000
  N   N80       1.0  0.55021  0.55224  0.16104  1.0000
  H   H1828     1.0  0.49334  0.95786  0.15743  1.0000
  C   C1084     1.0  0.57375  0.59685  0.13932  1.0000
  H   H1829     1.0  0.59475  0.84294  0.19183  1.0000
  H   H1830     1.0  0.52349  0.61962  0.15006  1.0000
  H   H1831     1.0  0.71942  0.98208  0.09262  1.0000
  H   H1832     1.0  0.55013  0.85276  0.17391  1.0000
  H   H1833     1.0  0.91801  0.81507  0.13062  1.0000
  C   C1085     1.0  0.54765  0.57271  0.14707  1.0000
  H   H1834     1.0  0.49084  0.51827  0.19077  1.0000
  H   H1835     1.0  0.68157  0.51564  0.04497  1.0000
  C   C1086     1.0  0.61637  0.48890  0.04224  1.0000
  H   H1836     1.0  0.67951  0.50491  0.16264  1.0000
  Fe  Fe155     1.0  0.84195  0.97541  0.13313  1.0000
  C   C1087     1.0  0.73401  0.52646  0.18262  1.0000
  H   H1837     1.0  0.94497  0.60373  0.06982  1.0000
  H   H1838     1.0  0.80599  0.49487  0.04164  1.0000
  H   H1839     1.0  0.53519  0.56408  0.13101  1.0000
  C   C1088     1.0  0.72313  0.54344  0.19313  1.0000
  H   H1840     1.0  0.77498  0.79025  0.25058  1.0000
  H   H1841     1.0  0.74170  0.97052  0.06706  1.0000
  H   H1842     1.0  0.61638  0.49480  0.06044  1.0000
  H   H1843     1.0  0.96878  0.59525  0.06306  1.0000
  Fe  Fe156     1.0  0.86072  0.87210  0.24247  1.0000
  S   S314      1.0  0.68340  0.72005  0.23676  1.0000
  H   H1844     1.0  0.66511  0.53759  0.21903  1.0000
  H   H1845     1.0  0.57774  0.87231  0.13982  1.0000
  S   S315      1.0  0.56500  0.96880  0.12090  1.0000
  C   C1089     1.0  0.73480  0.97005  0.14108  1.0000
  H   H1846     1.0  0.55495  0.54579  0.11049  1.0000
  H   H1847     1.0  0.58230  0.92239  0.18842  1.0000
  H   H1848     1.0  0.58645  0.60739  0.15475  1.0000
  H   H1849     1.0  0.54268  0.98132  0.07708  1.0000
  H   H1850     1.0  0.69269  0.49802  0.12047  1.0000
  C   C1090     1.0  0.73336  0.50712  0.12223  1.0000
  H   H1851     1.0  0.68043  0.57200  0.22354  1.0000
  H   H1852     1.0  0.95104  0.59319  0.20281  1.0000
  H   H1853     1.0  0.74658  0.53597  0.16687  1.0000
  H   H1854     1.0  0.89301  0.76131  0.15630  1.0000
  H   H1855     1.0  0.68578  0.57012  0.14365  1.0000
  C   C1091     1.0  0.69073  0.55497  0.13807  1.0000
  C   C1092     1.0  0.68412  0.55614  0.21731  1.0000
  S   S316      1.0  0.60567  0.97277  0.16304  1.0000
  H   H1856     1.0  0.53634  0.51296  0.12310  1.0000
  H   H1857     1.0  0.94055  0.55229  0.06296  1.0000
  H   H1858     1.0  0.91490  0.96133  0.18928  1.0000
  H   H1859     1.0  0.58592  0.57747  0.18078  1.0000
  H   H1860     1.0  0.49277  0.54114  0.16820  1.0000
  H   H1861     1.0  0.56040  0.83032  0.19965  1.0000
  C   C1093     1.0  0.71050  0.55322  0.15505  1.0000
  C   C1094     1.0  0.56448  0.56439  0.18401  1.0000
  H   H1862     1.0  0.79330  0.84232  0.24511  1.0000
  C   C1095     1.0  0.69145  0.96730  0.14240  1.0000
  H   H1863     1.0  0.56715  0.52690  0.15760  1.0000
  H   H1864     1.0  0.88320  0.79587  0.15380  1.0000
  C   C1096     1.0  0.93236  0.81015  0.13848  1.0000
  H   H1865     1.0  0.51371  0.85399  0.19241  1.0000
  C   C1097     1.0  0.88862  0.80070  0.17280  1.0000
  H   H1866     1.0  0.57566  0.90916  0.21756  1.0000
  C   C1098     1.0  0.76274  0.98410  0.07102  1.0000
  H   H1867     1.0  0.92165  0.75178  0.19678  1.0000
  H   H1868     1.0  0.53418  0.88210  0.20971  1.0000
  H   H1869     1.0  0.77426  0.97362  0.03710  1.0000
  C   C1099     1.0  0.73489  0.75873  0.24495  1.0000
  H   H1870     1.0  0.95620  0.54348  0.08629  1.0000
  H   H1871     1.0  0.77129  0.95313  0.06168  1.0000
  C   C1100     1.0  0.51355  0.97491  0.22694  1.0000
  H   H1872     1.0  0.98081  0.64403  0.05990  1.0000
  H   H1873     1.0  0.70853  0.51599  0.06110  1.0000
  H   H1874     1.0  0.84361  0.97381  0.05856  1.0000
  H   H1875     1.0  0.89521  0.82203  0.17471  1.0000
  C   C1101     1.0  0.84553  0.98018  0.04027  1.0000
  C   C1102     1.0  0.95430  0.60695  0.11996  1.0000
  H   H1876     1.0  0.48881  0.89465  0.14618  1.0000
  H   H1877     1.0  0.94187  0.77249  0.17279  1.0000
  H   H1878     1.0  0.91182  0.59238  0.11556  1.0000
  C   C1103     1.0  0.96098  0.58444  0.19358  1.0000
  H   H1879     1.0  0.97830  0.88193  0.23145  1.0000
  C   C1104     1.0  0.66978  0.49738  0.19947  1.0000
  H   H1880     1.0  0.86623  0.97867  0.23122  1.0000
  H   H1881     1.0  0.91590  0.50633  0.18189  1.0000
  N   N81       1.0  0.91045  0.79540  0.17981  1.0000
  H   H1882     1.0  0.93979  0.83465  0.16924  1.0000
  H   H1883     1.0  0.67804  0.50714  0.21660  1.0000
  H   H1884     1.0  0.79950  0.98495  0.05967  1.0000
  Fe  Fe157     1.0  0.60815  0.49319  0.13187  1.0000
  C   C1105     1.0  0.94309  0.80853  0.21556  1.0000
  H   H1885     1.0  0.95176  0.82395  0.13043  1.0000
  H   H1886     1.0  0.94942  0.79431  0.21065  1.0000
  H   H1887     1.0  0.98162  0.95391  0.19072  1.0000
  S   S317      1.0  0.62707  0.98620  0.10769  1.0000
  H   H1888     1.0  0.91720  0.98320  0.25289  1.0000
  H   H1889     1.0  0.91796  0.94246  0.25244  1.0000
  C   C1106     1.0  0.53356  0.97094  0.47056  1.0000
  H   H1890     1.0  0.64349  0.71225  0.28028  1.0000
  S   S318      1.0  0.64695  0.64957  0.26228  1.0000
  Fe  Fe158     1.0  0.85834  0.89688  0.43350  1.0000
  S   S319      1.0  0.83314  0.90181  0.46106  1.0000
  S   S320      1.0  0.85336  0.90241  0.39443  1.0000
  Fe  Fe159     1.0  0.86967  0.91994  0.48423  1.0000
  H   H1891     1.0  0.65157  0.68458  0.30819  1.0000
  Fe  Fe160     1.0  0.82486  0.86201  0.47398  1.0000
  H   H1892     1.0  0.71133  0.58382  0.47163  1.0000
  S   S321      1.0  0.89540  0.91794  0.45535  1.0000
  S   S322      1.0  0.84800  0.85657  0.44542  1.0000
  Fe  Fe161     1.0  0.87896  0.84730  0.27862  1.0000
  S   S323      1.0  0.88734  0.84531  0.31760  1.0000
  Fe  Fe162     1.0  0.65054  0.61298  0.48064  1.0000
  S   S324      1.0  0.62164  0.60996  0.45292  1.0000
  H   H1893     1.0  0.64428  0.69682  0.34332  1.0000
  Fe  Fe163     1.0  0.69127  0.67154  0.46582  1.0000
  S   S325      1.0  0.66436  0.67159  0.43739  1.0000
  H   H1894     1.0  0.96144  0.88010  0.42850  1.0000
  H   H1895     1.0  0.68453  0.57244  0.39365  1.0000
  H   H1896     1.0  0.59016  0.94985  0.49055  1.0000
  Fe  Fe164     1.0  0.65627  0.63106  0.42843  1.0000
  S   S326      1.0  0.65743  0.61814  0.39072  1.0000
  H   H1897     1.0  0.60216  0.55223  0.43911  1.0000
  S   S327      1.0  0.68505  0.63161  0.45521  1.0000
  Fe  Fe165     1.0  0.60694  0.64250  0.27153  1.0000
  S   S328      1.0  0.59793  0.64489  0.31038  1.0000
  C   C1107     1.0  0.64066  0.62550  0.36858  1.0000
  C   C1108     1.0  0.64259  0.61967  0.34472  1.0000
  C   C1109     1.0  0.62949  0.62538  0.32674  1.0000
  C   C1110     1.0  0.61418  0.63681  0.33251  1.0000
  C   C1111     1.0  0.61216  0.64249  0.35640  1.0000
  C   C1112     1.0  0.62546  0.63703  0.37436  1.0000
  H   H1898     1.0  0.65419  0.61063  0.34010  1.0000
  H   H1899     1.0  0.63096  0.62060  0.30846  1.0000
  H   H1900     1.0  0.60026  0.65121  0.36104  1.0000
  H   H1901     1.0  0.62370  0.64148  0.39269  1.0000
  C   C1113     1.0  0.81021  0.73175  0.50051  1.0000
  H   H1902     1.0  0.54272  0.96011  0.46265  1.0000
  H   H1903     1.0  0.51764  0.89774  0.46012  1.0000
  S   S329      1.0  0.78290  0.82978  0.48260  1.0000
  C   C1114     1.0  0.76924  0.79550  0.47699  1.0000
  C   C1115     1.0  0.78444  0.78513  0.46805  1.0000
  H   H1904     1.0  0.81956  0.48722  0.40597  1.0000
  C   C1116     1.0  0.74660  0.74029  0.47047  1.0000
  C   C1117     1.0  0.73119  0.75078  0.47861  1.0000
  C   C1118     1.0  0.74251  0.77818  0.48201  1.0000
  H   H1905     1.0  0.58039  0.73416  0.47237  1.0000
  H   H1906     1.0  0.74072  0.84705  0.50108  1.0000
  H   H1907     1.0  0.95567  0.91120  0.48880  1.0000
  H   H1908     1.0  0.53196  0.72447  0.49433  1.0000
  H   H1909     1.0  0.69464  0.58059  0.43206  1.0000
  S   S330      1.0  0.65946  0.65314  0.49383  1.0000
  H   H1910     1.0  0.83243  0.78085  0.47844  1.0000
  C   C1119     1.0  0.86360  0.88710  0.37319  1.0000
  C   C1120     1.0  0.85869  0.88857  0.34898  1.0000
  C   C1121     1.0  0.86607  0.87606  0.33174  1.0000
  C   C1122     1.0  0.87838  0.86189  0.33862  1.0000
  C   C1123     1.0  0.88332  0.86047  0.36282  1.0000
  C   C1124     1.0  0.87602  0.87305  0.38005  1.0000
  H   H1911     1.0  0.84919  0.89949  0.34352  1.0000
  H   H1912     1.0  0.86225  0.87738  0.31314  1.0000
  H   H1913     1.0  0.89294  0.84966  0.36826  1.0000
  H   H1914     1.0  0.88014  0.87195  0.39860  1.0000
  H   H1915     1.0  0.67404  0.74066  0.28747  1.0000
  H   H1916     1.0  0.66482  0.54618  0.37372  1.0000
  S   S331      1.0  0.73413  0.70577  0.46781  1.0000
  C   C1125     1.0  0.58440  0.64827  0.49609  1.0000
  C   C1126     1.0  0.64099  0.52347  0.45237  1.0000
  H   H1917     1.0  0.64880  0.49310  0.43779  1.0000
  C   C1127     1.0  0.49574  0.91512  0.47579  1.0000
  H   H1918     1.0  0.77679  0.85837  0.25662  1.0000
  H   H1919     1.0  0.51947  0.97126  0.45774  1.0000
  H   H1920     1.0  0.60665  0.53062  0.41996  1.0000
  S   S332      1.0  0.90881  0.86002  0.47039  1.0000
  H   H1921     1.0  0.96007  0.93977  0.45192  1.0000
  H   H1922     1.0  0.83558  0.95645  0.49506  1.0000
  C   C1128     1.0  0.49464  0.66849  0.49803  1.0000
  H   H1923     1.0  0.61555  0.56320  0.41037  1.0000
  C   C1129     1.0  0.61558  0.55131  0.42573  1.0000
  C   C1130     1.0  0.69314  0.69160  0.33007  1.0000
  N   N82       1.0  0.78458  0.81202  0.39007  1.0000
  C   C1131     1.0  0.77165  0.82055  0.40862  1.0000
  C   C1132     1.0  0.76528  0.78372  0.38416  1.0000
  C   C1133     1.0  0.78940  0.82891  0.36835  1.0000
  C   C1134     1.0  0.81017  0.81585  0.40002  1.0000
  C   C1135     1.0  0.78594  0.85012  0.41472  1.0000
  C   C1136     1.0  0.75687  0.76436  0.40522  1.0000
  C   C1137     1.0  0.80120  0.82278  0.34649  1.0000
  C   C1138     1.0  0.82162  0.79953  0.38885  1.0000
  H   H1924     1.0  0.75126  0.81510  0.40316  1.0000
  H   H1925     1.0  0.76954  0.81026  0.42579  1.0000
  H   H1926     1.0  0.77284  0.77585  0.37029  1.0000
  H   H1927     1.0  0.74700  0.78203  0.37639  1.0000
  H   H1928     1.0  0.77077  0.82801  0.36258  1.0000
  H   H1929     1.0  0.80345  0.84995  0.37241  1.0000
  H   H1930     1.0  0.82565  0.83691  0.39885  1.0000
  H   H1931     1.0  0.80786  0.81089  0.41928  1.0000
  H   H1932     1.0  0.77726  0.85318  0.43112  1.0000
  H   H1933     1.0  0.80713  0.85803  0.41817  1.0000
  H   H1934     1.0  0.78350  0.86179  0.40046  1.0000
  H   H1935     1.0  0.74384  0.76711  0.41780  1.0000
  H   H1936     1.0  0.74538  0.74388  0.39848  1.0000
  H   H1937     1.0  0.77399  0.76593  0.41500  1.0000
  H   H1938     1.0  0.82164  0.82724  0.34993  1.0000
  H   H1939     1.0  0.80265  0.83604  0.33176  1.0000
  H   H1940     1.0  0.78897  0.80245  0.33985  1.0000
  H   H1941     1.0  0.84337  0.81208  0.38762  1.0000
  H   H1942     1.0  0.81472  0.79191  0.37079  1.0000
  H   H1943     1.0  0.81824  0.78301  0.40071  1.0000
  H   H1944     1.0  0.69546  0.55162  0.43888  1.0000
  H   H1945     1.0  0.72135  0.68888  0.30574  1.0000
  H   H1946     1.0  0.87520  0.79145  0.46103  1.0000
  H   H1947     1.0  0.56421  0.58162  0.48515  1.0000
  H   H1948     1.0  0.86178  0.76081  0.47632  1.0000
  C   C1139     1.0  0.84983  0.78861  0.49036  1.0000
  H   H1949     1.0  0.65080  0.56355  0.38769  1.0000
  C   C1140     1.0  0.66862  0.70320  0.30187  1.0000
  S   S333      1.0  0.90095  0.88373  0.25630  1.0000
  H   H1950     1.0  0.93505  0.83310  0.48691  1.0000
  C   C1141     1.0  0.59971  0.52988  0.49504  1.0000
  H   H1951     1.0  0.59803  0.53893  0.47898  1.0000
  C   C1142     1.0  0.64376  0.56333  0.43613  1.0000
  H   H1952     1.0  0.67401  0.67679  0.33800  1.0000
  C   C1143     1.0  0.70112  0.67651  0.31267  1.0000
  H   H1953     1.0  0.70721  0.69830  0.34522  1.0000
  H   H1954     1.0  0.58072  0.70836  0.45610  1.0000
  C   C1144     1.0  0.66439  0.55580  0.39059  1.0000
  H   H1955     1.0  0.54506  0.62841  0.48186  1.0000
  H   H1956     1.0  0.53434  0.55718  0.47177  1.0000
  C   C1145     1.0  0.55080  0.69418  0.48342  1.0000
  H   H1957     1.0  0.80432  0.93109  0.48490  1.0000
  Fe  Fe166     1.0  0.88258  0.87761  0.46948  1.0000
  H   H1958     1.0  0.67469  0.69772  0.28513  1.0000
  N   N83       1.0  0.49666  0.93293  0.49556  1.0000
  H   H1959     1.0  0.54906  0.67448  0.48133  1.0000
  H   H1960     1.0  0.53667  0.69468  0.47054  1.0000
  C   C1146     1.0  0.68453  0.56220  0.44272  1.0000
  C   C1147     1.0  0.68981  0.57087  0.46898  1.0000
  N   N84       1.0  0.69093  0.71403  0.31955  1.0000
  C   C1148     1.0  0.71567  0.73301  0.30648  1.0000
  S   S334      1.0  0.83862  0.83801  0.26711  1.0000
  H   H1961     1.0  0.68713  0.66813  0.29770  1.0000
  C   C1149     1.0  0.68621  0.72825  0.33953  1.0000
  C   C1150     1.0  0.74144  0.74481  0.32091  1.0000
  H   H1962     1.0  0.71848  0.72370  0.29031  1.0000
  H   H1963     1.0  0.52404  0.52652  0.50262  1.0000
  C   C1151     1.0  0.66080  0.71168  0.35410  1.0000
  C   C1152     1.0  0.96836  0.89929  0.43753  1.0000
  H   H1964     1.0  0.71404  0.74989  0.29958  1.0000
  C   C1153     1.0  0.65492  0.53539  0.41085  1.0000
  H   H1965     1.0  0.64801  0.72532  0.30950  1.0000
  Fe  Fe167     1.0  0.63239  0.65074  0.46441  1.0000
  C   C1154     1.0  0.65827  0.72176  0.29464  1.0000
  H   H1966     1.0  0.70250  0.73549  0.35268  1.0000
  H   H1967     1.0  0.68669  0.74648  0.33329  1.0000
  H   H1968     1.0  0.75814  0.75709  0.30884  1.0000
  C   C1155     1.0  0.77326  0.75771  0.46510  1.0000
  H   H1969     1.0  0.74525  0.72955  0.32835  1.0000
  C   C1156     1.0  0.86991  0.78220  0.47889  1.0000
  H   H1970     1.0  0.95040  0.90042  0.44123  1.0000
  H   H1971     1.0  0.64287  0.56937  0.45468  1.0000
  N   N85       1.0  0.65598  0.54603  0.43549  1.0000
  H   H1972     1.0  0.74171  0.75789  0.33521  1.0000
  H   H1973     1.0  0.68045  0.58246  0.47417  1.0000
  H   H1974     1.0  0.66433  0.70132  0.36895  1.0000
  H   H1975     1.0  0.70066  0.65970  0.32219  1.0000
  H   H1976     1.0  0.65371  0.72462  0.36142  1.0000
  S   S335      1.0  0.59921  0.65917  0.46835  1.0000
  H   H1977     1.0  0.65641  0.58208  0.42657  1.0000
  H   H1978     1.0  0.80491  0.79820  0.46385  1.0000
  H   H1979     1.0  0.68346  0.55406  0.48131  1.0000
  H   H1980     1.0  0.76758  0.89381  0.49709  1.0000
  C   C1157     1.0  0.52130  0.95961  0.49505  1.0000
  H   H1981     1.0  0.78531  0.74985  0.45859  1.0000
  C   C1158     1.0  0.54372  0.56596  0.48907  1.0000
  H   H1982     1.0  0.81541  0.73657  0.48156  1.0000
  H   H1983     1.0  0.53608  0.92220  0.48221  1.0000
  H   H1984     1.0  0.49178  0.68574  0.49649  1.0000
  C   C1159     1.0  0.51623  0.90594  0.47749  1.0000
  H   H1985     1.0  0.63474  0.51945  0.40628  1.0000
  H   H1986     1.0  0.56796  0.49114  0.48578  1.0000
  H   H1987     1.0  0.49816  0.92432  0.45810  1.0000
  H   H1988     1.0  0.64054  0.53077  0.47049  1.0000
  H   H1989     1.0  0.55800  0.53959  0.49772  1.0000
  H   H1990     1.0  0.73047  0.78592  0.48884  1.0000
  H   H1991     1.0  0.59441  0.71505  0.48500  1.0000
  H   H1992     1.0  0.53288  0.57508  0.49701  1.0000
  C   C1160     1.0  0.57828  0.71441  0.47421  1.0000
  C   C1161     1.0  0.65124  0.50394  0.45461  1.0000
  C   C1162     1.0  0.97410  0.92998  0.48504  1.0000
  S   S336      1.0  0.85883  0.88006  0.49951  1.0000
  H   H1993     1.0  0.67206  0.51360  0.46044  1.0000
  H   H1994     1.0  0.94929  0.94721  0.47895  1.0000
  H   H1995     1.0  0.92237  0.50390  0.48791  1.0000
  H   H1996     1.0  0.66723  0.52585  0.40983  1.0000
  H   H1997     1.0  0.61993  0.51171  0.44715  1.0000
  C   C1163     1.0  0.55697  0.63362  0.49778  1.0000
  H   H1998     1.0  0.85897  0.81039  0.48948  1.0000
  C   C1164     1.0  0.96625  0.94712  0.47020  1.0000
  H   H1999     1.0  0.71069  0.73771  0.48291  1.0000
  H   H2000     1.0  0.88846  0.79043  0.48915  1.0000
  H   H2001     1.0  0.96769  0.88284  0.47130  1.0000
  C   C1165     1.0  0.91793  0.85615  0.49895  1.0000
  H   H2002     1.0  0.78803  0.87995  0.49856  1.0000
  C   C1166     1.0  0.58257  0.50271  0.49903  1.0000
  H   H2003     1.0  0.49673  0.66169  0.48020  1.0000
  H   H2004     1.0  0.51015  0.88997  0.49080  1.0000
  C   C1167     1.0  0.93068  0.84159  0.50210  1.0000
  C   C1168     1.0  0.81520  0.94226  0.50089  1.0000
  H   H2005     1.0  0.63944  0.48908  0.46835  1.0000
  C   C1169     1.0  0.90727  0.49217  0.50071  1.0000
  H   H2006     1.0  0.98028  0.93996  0.50263  1.0000
  H   H2007     1.0  0.80611  0.71128  0.50310  1.0000
  H   H2008     1.0  0.72619  0.76888  0.25385  1.0000
  H   H2009     1.0  0.98129  0.91467  0.42476  1.0000
  Fe  Fe168     1.0  0.51892  0.82088  0.56695  1.0000
  C   C1170     1.0  0.54493  0.62537  0.52003  1.0000
  S   S337      1.0  0.52742  0.78655  0.56298  1.0000
  Fe  Fe169     1.0  0.53780  0.88065  0.55566  1.0000
  S   S338      1.0  0.51115  0.88205  0.58372  1.0000
  S   S339      1.0  0.56284  0.91461  0.52926  1.0000
  Fe  Fe170     1.0  0.52313  0.85843  0.60677  1.0000
  S   S340      1.0  0.53321  0.86418  0.64606  1.0000
  H   H2010     1.0  0.52481  0.53811  0.71906  1.0000
  C   C1171     1.0  0.60305  0.50573  0.53692  1.0000
  S   S341      1.0  0.55239  0.85980  0.58000  1.0000
  S   S342      1.0  0.50671  0.84165  0.54018  1.0000
  S   S343      1.0  0.53943  0.62859  0.72229  1.0000
  Fe  Fe171     1.0  0.94321  0.57394  0.55292  1.0000
  H   H2011     1.0  0.85127  0.76942  0.56386  1.0000
  S   S344      1.0  0.92814  0.53862  0.52653  1.0000
  Fe  Fe172     1.0  0.95901  0.63381  0.55924  1.0000
  C   C1172     1.0  0.95531  0.55962  0.71505  1.0000
  C   C1173     1.0  0.56664  0.74842  0.51553  1.0000
  S   S345      1.0  0.96969  0.57712  0.58346  1.0000
  S   S346      1.0  0.54567  0.62248  0.56861  1.0000
  N   N86       1.0  0.55299  0.91141  0.72994  1.0000
  C   C1174     1.0  0.52791  0.55517  0.54307  1.0000
  S   S347      1.0  0.49050  0.63275  0.59278  1.0000
  S   S348      1.0  0.92575  0.59528  0.57316  1.0000
  S   S349      1.0  0.95383  0.86220  0.72549  1.0000
  C   C1175     1.0  0.56028  0.63218  0.54062  1.0000
  H   H2012     1.0  0.51347  0.49953  0.55341  1.0000
  C   C1176     1.0  0.54133  0.72196  0.51058  1.0000
  C   C1177     1.0  0.58773  0.64657  0.53888  1.0000
  H   H2013     1.0  0.51133  0.67554  0.53264  1.0000
  H   H2014     1.0  0.59968  0.65173  0.55478  1.0000
  C   C1178     1.0  0.51456  0.62075  0.70076  1.0000
  S   S350      1.0  0.94448  0.59869  0.64140  1.0000
  H   H2015     1.0  0.55623  0.95008  0.72972  1.0000
  H   H2016     1.0  0.91562  0.73484  0.73354  1.0000
  C   C1179     1.0  0.50092  0.61306  0.65908  1.0000
  C   C1180     1.0  0.52075  0.62167  0.67653  1.0000
  H   H2017     1.0  0.56837  0.75325  0.53478  1.0000
  H   H2018     1.0  0.94703  0.62066  0.68732  1.0000
  H   H2019     1.0  0.50587  0.61320  0.64055  1.0000
  H   H2020     1.0  0.54090  0.62847  0.67128  1.0000
  C   C1181     1.0  0.98107  0.70506  0.73862  1.0000
  C   C1182     1.0  0.52511  0.55711  0.72010  1.0000
  H   H2021     1.0  0.82958  0.93686  0.53462  1.0000
  H   H2022     1.0  0.88364  0.49741  0.55425  1.0000
  H   H2023     1.0  0.50058  0.57380  0.72732  1.0000
  H   H2024     1.0  0.88797  0.52610  0.71637  1.0000
  H   H2025     1.0  0.89043  0.53437  0.67509  1.0000
  H   H2026     1.0  0.98125  0.59231  0.73902  1.0000
  C   C1183     1.0  0.97189  0.70180  0.55454  1.0000
  H   H2027     1.0  0.98099  0.63682  0.71906  1.0000
  C   C1184     1.0  0.86526  0.79403  0.53145  1.0000
  H   H2028     1.0  0.57604  0.70178  0.56241  1.0000
  H   H2029     1.0  0.93217  0.51986  0.74375  1.0000
  H   H2030     1.0  0.57088  0.53143  0.53678  1.0000
  C   C1185     1.0  0.55300  0.53120  0.54370  1.0000
  H   H2031     1.0  0.80749  0.90362  0.56378  1.0000
  H   H2032     1.0  0.87906  0.80140  0.56795  1.0000
  C   C1186     1.0  0.57424  0.94904  0.52526  1.0000
  C   C1187     1.0  0.53660  0.91884  0.68937  1.0000
  C   C1188     1.0  0.62054  0.53282  0.53270  1.0000
  Fe  Fe173     1.0  0.95475  0.60095  0.60231  1.0000
  H   H2033     1.0  0.90966  0.51654  0.70470  1.0000
  C   C1189     1.0  0.91254  0.86731  0.51855  1.0000
  C   C1190     1.0  0.93173  0.84848  0.54458  1.0000
  H   H2034     1.0  0.60284  0.60724  0.55648  1.0000
  H   H2035     1.0  0.49295  0.51628  0.53442  1.0000
  C   C1191     1.0  0.93769  0.83784  0.52492  1.0000
  H   H2036     1.0  0.63535  0.54429  0.54585  1.0000
  C   C1192     1.0  0.49926  0.53740  0.53455  1.0000
  C   C1193     1.0  0.50679  0.85113  0.66646  1.0000
  C   C1194     1.0  0.50866  0.83897  0.68725  1.0000
  H   H2037     1.0  0.59043  0.57611  0.52201  1.0000
  H   H2038     1.0  0.93577  0.59005  0.71879  1.0000
  H   H2039     1.0  0.94481  0.79663  0.66427  1.0000
  H   H2040     1.0  0.62100  0.66601  0.51538  1.0000
  H   H2041     1.0  0.52471  0.83500  0.68924  1.0000
  H   H2042     1.0  0.58649  0.95082  0.72910  1.0000
  H   H2043     1.0  0.95045  0.85691  0.67470  1.0000
  C   C1195     1.0  0.85998  0.79024  0.55841  1.0000
  H   H2044     1.0  0.84740  0.79822  0.56461  1.0000
  H   H2045     1.0  0.59042  0.91241  0.73348  1.0000
  H   H2046     1.0  0.84229  0.82490  0.53471  1.0000
  H   H2047     1.0  0.73704  0.86091  0.52814  1.0000
  H   H2048     1.0  0.75599  0.89943  0.54756  1.0000
  H   H2049     1.0  0.57351  0.92032  0.69621  1.0000
  H   H2050     1.0  0.51526  0.90598  0.69277  1.0000
  C   C1196     1.0  0.81650  0.92420  0.52009  1.0000
  C   C1197     1.0  0.90530  0.50426  0.52171  1.0000
  H   H2051     1.0  0.49597  0.54317  0.51669  1.0000
  C   C1198     1.0  0.51926  0.70101  0.62847  1.0000
  C   C1199     1.0  0.92735  0.53543  0.74852  1.0000
  S   S351      1.0  0.64200  0.57951  0.50733  1.0000
  H   H2052     1.0  0.56074  0.95540  0.55880  1.0000
  N   N87       1.0  0.96000  0.78661  0.71118  1.0000
  H   H2053     1.0  0.94883  0.71259  0.53233  1.0000
  C   C1200     1.0  0.56961  0.90037  0.73951  1.0000
  C   C1201     1.0  0.95931  0.78974  0.66519  1.0000
  H   H2054     1.0  0.52819  0.55258  0.56264  1.0000
  H   H2055     1.0  0.95587  0.54228  0.70762  1.0000
  H   H2056     1.0  0.56483  0.76440  0.50673  1.0000
  H   H2057     1.0  0.96818  0.79560  0.74893  1.0000
  H   H2058     1.0  0.50873  0.69525  0.57198  1.0000
  H   H2059     1.0  0.48581  0.53995  0.54676  1.0000
  H   H2060     1.0  0.89855  0.98482  0.55509  1.0000
  H   H2061     1.0  0.49728  0.67148  0.65426  1.0000
  C   C1202     1.0  0.58605  0.58680  0.55763  1.0000
  H   H2062     1.0  0.57130  0.58713  0.56976  1.0000
  H   H2063     1.0  0.80610  0.95422  0.55057  1.0000
  C   C1203     1.0  0.93696  0.79147  0.71134  1.0000
  C   C1204     1.0  0.81111  0.87534  0.54302  1.0000
  C   C1205     1.0  0.81941  0.78341  0.52253  1.0000
  C   C1206     1.0  0.49802  0.68987  0.64806  1.0000
  H   H2064     1.0  0.52267  0.72005  0.62137  1.0000
  H   H2065     1.0  0.75740  0.84562  0.52691  1.0000
  C   C1207     1.0  0.49816  0.55376  0.72707  1.0000
  C   C1208     1.0  0.89900  0.98703  0.51684  1.0000
  H   H2066     1.0  0.82512  0.74291  0.53576  1.0000
  H   H2067     1.0  0.51415  0.92541  0.72809  1.0000
  C   C1209     1.0  0.48577  0.85588  0.66391  1.0000
  H   H2068     1.0  0.88067  0.78870  0.52775  1.0000
  C   C1210     1.0  0.92478  0.79152  0.73563  1.0000
  H   H2069     1.0  0.76752  0.92270  0.52432  1.0000
  H   H2070     1.0  0.82740  0.91509  0.51207  1.0000
  H   H2071     1.0  0.49646  0.92362  0.55721  1.0000
  C   C1211     1.0  0.53039  0.50253  0.54238  1.0000
  H   H2072     1.0  0.53251  0.56821  0.70324  1.0000
  H   H2073     1.0  0.57188  0.86471  0.74399  1.0000
  C   C1212     1.0  0.91912  0.86317  0.54142  1.0000
  H   H2074     1.0  0.59404  0.57481  0.56534  1.0000
  C   C1213     1.0  0.49567  0.91961  0.51883  1.0000
  H   H2075     1.0  0.52384  0.61345  0.52114  1.0000
  H   H2076     1.0  0.50556  0.70349  0.66353  1.0000
  H   H2077     1.0  0.50855  0.95431  0.54210  1.0000
  C   C1214     1.0  0.54340  0.54452  0.50519  1.0000
  H   H2078     1.0  0.95851  0.57273  0.69965  1.0000
  C   C1215     1.0  0.90805  0.53421  0.70914  1.0000
  C   C1216     1.0  0.48610  0.73407  0.64423  1.0000
  H   H2079     1.0  0.81147  0.77476  0.54028  1.0000
  H   H2080     1.0  0.93617  0.74752  0.69680  1.0000
  H   H2081     1.0  0.94278  0.81106  0.70351  1.0000
  H   H2082     1.0  0.53933  0.91702  0.67004  1.0000
  H   H2083     1.0  0.48617  0.75014  0.63371  1.0000
  C   C1217     1.0  0.57489  0.57730  0.53247  1.0000
  H   H2084     1.0  0.97501  0.89667  0.51761  1.0000
  C   C1218     1.0  0.78802  0.93707  0.55757  1.0000
  H   H2085     1.0  0.52428  0.49543  0.52399  1.0000
  N   N88       1.0  0.54908  0.55169  0.53109  1.0000
  C   C1219     1.0  0.96516  0.71971  0.54462  1.0000
  H   H2086     1.0  0.92904  0.98557  0.74070  1.0000
  H   H2087     1.0  0.57309  0.59360  0.52439  1.0000
  H   H2088     1.0  0.90347  0.87923  0.51617  1.0000
  H   H2089     1.0  0.94727  0.82632  0.52739  1.0000
  C   C1220     1.0  0.75126  0.85817  0.51727  1.0000
  H   H2090     1.0  0.49820  0.54289  0.67929  1.0000
  C   C1221     1.0  0.97836  0.80090  0.73153  1.0000
  H   H2091     1.0  0.87483  0.81542  0.52789  1.0000
  C   C1222     1.0  0.55300  0.90944  0.70322  1.0000
  H   H2092     1.0  0.51437  0.87690  0.73003  1.0000
  Fe  Fe174     1.0  0.50264  0.60956  0.56981  1.0000
  C   C1223     1.0  0.88564  0.48862  0.53805  1.0000
  H   H2093     1.0  0.48654  0.50675  0.70413  1.0000
  H   H2094     1.0  0.48336  0.61107  0.72589  1.0000
  C   C1224     1.0  0.90832  0.54764  0.68549  1.0000
  H   H2095     1.0  0.49225  0.82362  0.72178  1.0000
  C   C1225     1.0  0.57042  0.96432  0.54224  1.0000
  C   C1226     1.0  0.50059  0.70757  0.56724  1.0000
  H   H2096     1.0  0.94936  0.76823  0.66223  1.0000
  H   H2097     1.0  0.52768  0.71947  0.52534  1.0000
  H   H2098     1.0  0.80519  0.85823  0.55494  1.0000
  H   H2099     1.0  0.53173  0.57559  0.54088  1.0000
  C   C1227     1.0  0.92805  0.57562  0.73347  1.0000
  H   H2100     1.0  0.54236  0.67818  0.55780  1.0000
  C   C1228     1.0  0.56426  0.69797  0.52532  1.0000
  Fe  Fe175     1.0  0.98057  0.84974  0.57417  1.0000
  H   H2101     1.0  0.56674  0.68069  0.52194  1.0000
  C   C1229     1.0  0.79560  0.88938  0.54963  1.0000
  H   H2102     1.0  0.90812  0.56625  0.68818  1.0000
  H   H2103     1.0  0.91906  0.77370  0.74630  1.0000
  S   S352      1.0  0.88273  0.95195  0.51339  1.0000
  H   H2104     1.0  0.95909  0.49963  0.53051  1.0000
  H   H2105     1.0  0.80659  0.95404  0.50770  1.0000
  H   H2106     1.0  0.84927  0.74634  0.51504  1.0000
  C   C1230     1.0  0.77434  0.91487  0.53904  1.0000
  C   C1231     1.0  0.83257  0.75010  0.51755  1.0000
  H   H2107     1.0  0.49479  0.54728  0.74584  1.0000
  C   C1232     1.0  0.95067  0.75759  0.71130  1.0000
  C   C1233     1.0  0.61909  0.54518  0.51173  1.0000
  C   C1234     1.0  0.51612  0.73523  0.56911  1.0000
  H   H2108     1.0  0.92538  0.55136  0.67424  1.0000
  H   H2109     1.0  0.55328  0.71310  0.55663  1.0000
  C   C1235     1.0  0.59980  0.65450  0.51661  1.0000
  C   C1236     1.0  0.82574  0.81228  0.52273  1.0000
  C   C1237     1.0  0.49340  0.93319  0.54145  1.0000
  H   H2110     1.0  0.90677  0.79291  0.73271  1.0000
  C   C1238     1.0  0.77516  0.88454  0.50971  1.0000
  N   N89       1.0  0.84173  0.77901  0.51546  1.0000
  H   H2111     1.0  0.96692  0.75366  0.70687  1.0000
  H   H2112     1.0  0.48776  0.89393  0.73560  1.0000
  C   C1239     1.0  0.50596  0.75172  0.56285  1.0000
  S   S353      1.0  0.95447  0.66815  0.54528  1.0000
  N   N90       1.0  0.92908  0.55126  0.72680  1.0000
  H   H2113     1.0  0.53974  0.56916  0.73393  1.0000
  H   H2114     1.0  0.93835  0.80911  0.74614  1.0000
  S   S354      1.0  0.97381  0.61235  0.53639  1.0000
  H   H2115     1.0  0.92070  0.77691  0.69991  1.0000
  H   H2116     1.0  0.83265  0.88898  0.54477  1.0000
  H   H2117     1.0  0.88414  0.55218  0.73966  1.0000
  H   H2118     1.0  0.54281  0.93972  0.69273  1.0000
  H   H2119     1.0  0.80817  0.81302  0.52912  1.0000
  H   H2120     1.0  0.56461  0.86924  0.71429  1.0000
  H   H2121     1.0  0.58510  0.74993  0.50901  1.0000
  H   H2122     1.0  0.91473  0.87158  0.55667  1.0000
  C   C1240     1.0  0.93713  0.74225  0.73412  1.0000
  C   C1241     1.0  0.50828  0.90883  0.74043  1.0000
  N   N91       1.0  0.54407  0.69775  0.50853  1.0000
  H   H2123     1.0  0.79263  0.93008  0.57420  1.0000
  H   H2124     1.0  0.55667  0.53569  0.56298  1.0000
  S   S355      1.0  0.49083  0.81904  0.59498  1.0000
  H   H2125     1.0  0.48964  0.56724  0.68563  1.0000
  H   H2126     1.0  0.97305  0.79914  0.65006  1.0000
  H   H2127     1.0  0.60461  0.49670  0.55313  1.0000
  H   H2128     1.0  0.80705  0.86717  0.52483  1.0000
  C   C1242     1.0  0.56638  0.94000  0.73699  1.0000
  H   H2129     1.0  0.50696  0.74030  0.64797  1.0000
  H   H2130     1.0  0.53723  0.95931  0.50533  1.0000
  H   H2131     1.0  0.53627  0.74400  0.57517  1.0000
  C   C1243     1.0  0.52551  0.89562  0.73990  1.0000
  H   H2132     1.0  0.89624  0.58455  0.72831  1.0000
  C   C1244     1.0  0.96591  0.62214  0.68403  1.0000
  N   N92       1.0  0.79041  0.90323  0.52962  1.0000
  C   C1245     1.0  0.55831  0.69780  0.55201  1.0000
  H   H2133     1.0  0.77439  0.94433  0.56251  1.0000
  S   S356      1.0  0.93949  0.84310  0.57312  1.0000
  H   H2134     1.0  0.77714  0.87523  0.55896  1.0000
  H   H2135     1.0  0.51368  0.91803  0.52134  1.0000
  C   C1246     1.0  0.97045  0.86279  0.67979  1.0000
  C   C1247     1.0  0.56054  0.87147  0.73314  1.0000
  C   C1248     1.0  0.49038  0.83267  0.70577  1.0000
  H   H2136     1.0  0.54514  0.88882  0.69749  1.0000
  H   H2137     1.0  0.94171  0.58602  0.74839  1.0000
  H   H2138     1.0  0.97465  0.76036  0.54170  1.0000
  H   H2139     1.0  0.51960  0.65585  0.51465  1.0000
  H   H2140     1.0  0.80248  0.77300  0.51021  1.0000
  C   C1249     1.0  0.51789  0.67392  0.51450  1.0000
  H   H2141     1.0  0.94535  0.75356  0.75066  1.0000
  H   H2142     1.0  0.94026  0.72515  0.73584  1.0000
  H   H2143     1.0  0.53822  0.70455  0.63615  1.0000
  C   C1250     1.0  0.97533  0.79816  0.68852  1.0000
  C   C1251     1.0  0.97062  0.61416  0.66197  1.0000
  H   H2144     1.0  0.58413  0.71502  0.52242  1.0000
  H   H2145     1.0  0.48416  0.86528  0.64797  1.0000
  H   H2146     1.0  0.51450  0.68686  0.61373  1.0000
  C   C1252     1.0  0.90097  0.57237  0.74023  1.0000
  H   H2147     1.0  0.53741  0.48969  0.55016  1.0000
  H   H2148     1.0  0.53947  0.85809  0.73719  1.0000
  H   H2149     1.0  0.95967  0.69117  0.73643  1.0000
  C   C1253     1.0  0.58400  0.49032  0.52001  1.0000
  C   C1254     1.0  0.97972  0.74686  0.55000  1.0000
  C   C1255     1.0  0.97770  0.86709  0.70385  1.0000
  C   C1256     1.0  0.48842  0.61190  0.70733  1.0000
  H   H2150     1.0  0.88411  0.50811  0.75073  1.0000
  C   C1257     1.0  0.97999  0.57456  0.73082  1.0000
  H   H2151     1.0  0.82987  0.82072  0.50459  1.0000
  H   H2152     1.0  0.98120  0.56183  0.74471  1.0000
  H   H2153     1.0  0.79151  0.73151  0.50433  1.0000
  C   C1258     1.0  0.58699  0.96130  0.50386  1.0000
  H   H2154     1.0  0.51803  0.97458  0.50417  1.0000
  H   H2155     1.0  0.92461  0.94759  0.75365  1.0000
  Fe  Fe176     1.0  0.83887  0.94688  0.88478  1.0000
  C   C1259     1.0  0.80931  0.86481  0.89947  1.0000
  S   S357      1.0  0.84772  0.92156  0.85881  1.0000
  Fe  Fe177     1.0  0.79681  0.96267  0.90080  1.0000
  C   C1260     1.0  0.81301  0.87597  0.97957  1.0000
  S   S358      1.0  0.75425  0.95513  0.90135  1.0000
  S   S359      1.0  0.49480  0.82271  0.77407  1.0000
  S   S360      1.0  0.91147  0.53918  0.90138  1.0000
  Fe  Fe178     1.0  0.83421  0.95917  0.93707  1.0000
  S   S361      1.0  0.83606  0.94704  0.97482  1.0000
  H   H2156     1.0  0.51828  0.93178  0.85310  1.0000
  S   S362      1.0  0.80506  0.93013  0.91107  1.0000
  C   C1261     1.0  0.84258  0.97012  0.99783  1.0000
  S   S363      1.0  0.51275  0.62546  0.82773  1.0000
  C   C1262     1.0  0.49068  0.70248  0.79664  1.0000
  H   H2157     1.0  0.81092  0.89549  0.94799  1.0000
  S   S364      1.0  0.56012  0.65255  0.78954  1.0000
  Fe  Fe179     1.0  0.54232  0.61543  0.81205  1.0000
  S   S365      1.0  0.55716  0.59529  0.83875  1.0000
  Fe  Fe180     1.0  0.52784  0.66006  0.80285  1.0000
  S   S366      1.0  0.53406  0.70030  0.81483  1.0000
  S   S367      1.0  0.51478  0.59067  0.78282  1.0000
  C   C1263     1.0  0.54463  0.51777  0.82253  1.0000
  Fe  Fe181     1.0  0.68486  0.50938  0.90395  1.0000
  H   H2158     1.0  0.91968  0.94311  0.82115  1.0000
  S   S368      1.0  0.72780  0.51901  0.89858  1.0000
  Fe  Fe182     1.0  0.64302  0.52606  0.88950  1.0000
  S   S369      1.0  0.49945  0.63732  0.77375  1.0000
  S   S370      1.0  0.63641  0.55106  0.86112  1.0000
  Fe  Fe183     1.0  0.64906  0.51329  0.94165  1.0000
  S   S371      1.0  0.64969  0.52521  0.98001  1.0000
  H   H2159     1.0  0.64326  0.90708  0.89720  1.0000
  S   S372      1.0  0.57225  0.94170  0.90514  1.0000
  S   S373      1.0  0.67741  0.54222  0.91507  1.0000
  H   H2160     1.0  0.79070  0.86118  0.90782  1.0000
  H   H2161     1.0  0.85554  0.94521  0.79824  1.0000
  S   S374      1.0  0.93220  0.83432  0.78991  1.0000
  H   H2162     1.0  0.88114  0.96039  0.81956  1.0000
  S   S375      1.0  0.61431  0.49933  0.91705  1.0000
  S   S376      1.0  0.54564  0.88713  0.80478  1.0000
  Fe  Fe184     1.0  0.96185  0.82202  0.80109  1.0000
  S   S377      1.0  0.95109  0.77836  0.80131  1.0000
  Fe  Fe185     1.0  0.95144  0.86829  0.81601  1.0000
  S   S378      1.0  0.93757  0.89008  0.84187  1.0000
  C   C1264     1.0  0.78185  0.49409  0.89619  1.0000
  H   H2163     1.0  0.94810  0.49272  0.89779  1.0000
  C   C1265     1.0  0.56438  0.92684  0.87713  1.0000
  C   C1266     1.0  0.54728  0.89971  0.87542  1.0000
  C   C1267     1.0  0.54096  0.88742  0.85313  1.0000
  C   C1268     1.0  0.55213  0.90222  0.83261  1.0000
  C   C1269     1.0  0.56919  0.92931  0.83432  1.0000
  C   C1270     1.0  0.57493  0.94166  0.85654  1.0000
  H   H2164     1.0  0.53906  0.88816  0.89135  1.0000
  H   H2165     1.0  0.52810  0.86641  0.85192  1.0000
  H   H2166     1.0  0.57775  0.94084  0.81847  1.0000
  H   H2167     1.0  0.58753  0.96261  0.85766  1.0000
  H   H2168     1.0  0.52632  0.88976  0.75853  1.0000
  Fe  Fe186     1.0  0.50439  0.85320  0.80222  1.0000
  H   H2169     1.0  0.90287  0.92128  0.94819  1.0000
  C   C1271     1.0  0.51489  0.71564  0.80849  1.0000
  H   H2170     1.0  0.57183  0.50681  0.86751  1.0000
  C   C1272     1.0  0.95924  0.73566  0.79944  1.0000
  H   H2171     1.0  0.67795  0.97034  0.83647  1.0000
  C   C1273     1.0  0.50788  0.75332  0.81422  1.0000
  C   C1274     1.0  0.52347  0.74126  0.81697  1.0000
  H   H2172     1.0  0.60058  0.49971  0.84478  1.0000
  H   H2173     1.0  0.93804  0.72400  0.80083  1.0000
  H   H2174     1.0  0.51454  0.77272  0.82142  1.0000
  H   H2175     1.0  0.54212  0.75169  0.82617  1.0000
  C   C1275     1.0  0.58026  0.58423  0.84493  1.0000
  C   C1276     1.0  0.57860  0.57163  0.86675  1.0000
  C   C1277     1.0  0.59569  0.56175  0.87221  1.0000
  C   C1278     1.0  0.61497  0.56436  0.85596  1.0000
  C   C1279     1.0  0.61688  0.57728  0.83429  1.0000
  C   C1280     1.0  0.59964  0.58697  0.82874  1.0000
  H   H2176     1.0  0.56390  0.56946  0.87957  1.0000
  H   H2177     1.0  0.59394  0.55217  0.88906  1.0000
  H   H2178     1.0  0.63164  0.57957  0.82149  1.0000
  H   H2179     1.0  0.60141  0.59662  0.81193  1.0000
  H   H2180     1.0  0.70932  0.54716  0.87019  1.0000
  C   C1281     1.0  0.68686  0.92740  0.85888  1.0000
  C   C1282     1.0  0.76965  0.50966  0.89754  1.0000
  H   H2181     1.0  0.82696  0.50496  0.00107  1.0000
  H   H2182     1.0  0.80309  0.50335  0.89563  1.0000
  H   H2183     1.0  0.81646  0.53700  0.97155  1.0000
  H   H2184     1.0  0.97035  0.53125  0.82816  1.0000
  H   H2185     1.0  0.78176  0.53084  0.89805  1.0000
  H   H2186     1.0  0.52442  0.50291  0.81746  1.0000
  H   H2187     1.0  0.60953  0.87833  0.87155  1.0000
  C   C1283     1.0  0.87292  0.91297  0.85469  1.0000
  C   C1284     1.0  0.86969  0.89469  0.83686  1.0000
  C   C1285     1.0  0.88906  0.88742  0.83266  1.0000
  C   C1286     1.0  0.91202  0.89811  0.84643  1.0000
  C   C1287     1.0  0.91522  0.91635  0.86434  1.0000
  C   C1288     1.0  0.89601  0.92392  0.86830  1.0000
  H   H2188     1.0  0.85199  0.88602  0.82616  1.0000
  H   H2189     1.0  0.88610  0.87335  0.81887  1.0000
  H   H2190     1.0  0.93286  0.92489  0.87510  1.0000
  H   H2191     1.0  0.89915  0.93834  0.88175  1.0000
  C   C1289     1.0  0.91916  0.55204  0.87258  1.0000
  C   C1290     1.0  0.91170  0.53526  0.85297  1.0000
  C   C1291     1.0  0.91814  0.54558  0.83001  1.0000
  C   C1292     1.0  0.93264  0.57275  0.82660  1.0000
  C   C1293     1.0  0.94055  0.58967  0.84618  1.0000
  C   C1294     1.0  0.93369  0.57929  0.86920  1.0000
  H   H2192     1.0  0.90137  0.51431  0.85544  1.0000
  H   H2193     1.0  0.91224  0.53244  0.81496  1.0000
  H   H2194     1.0  0.95161  0.61071  0.84360  1.0000
  H   H2195     1.0  0.93960  0.59235  0.88437  1.0000
  C   C1295     1.0  0.48677  0.53049  0.82159  1.0000
  H   H2196     1.0  0.60349  0.50217  0.80069  1.0000
  H   H2197     1.0  0.75781  0.62058  0.86572  1.0000
  C   C1296     1.0  0.70926  0.61503  0.85581  1.0000
  C   C1297     1.0  0.87708  0.95863  0.80022  1.0000
  C   C1298     1.0  0.73888  0.59368  0.82611  1.0000
  H   H2198     1.0  0.50515  0.65775  0.87123  1.0000
  H   H2199     1.0  0.85897  0.91959  0.94907  1.0000
  Fe  Fe187     1.0  0.96373  0.86080  0.76414  1.0000
  H   H2200     1.0  0.81381  0.81071  0.94316  1.0000
  H   H2201     1.0  0.69500  0.94886  0.85763  1.0000
  C   C1299     1.0  0.76152  0.58921  0.81798  1.0000
  H   H2202     1.0  0.79612  0.82454  0.92943  1.0000
  H   H2203     1.0  0.56453  0.50330  0.80071  1.0000
  Fe  Fe188     1.0  0.60427  0.98407  0.90589  1.0000
  H   H2204     1.0  0.72133  0.62566  0.87148  1.0000
  N   N93       1.0  0.72796  0.58359  0.85052  1.0000
  H   H2205     1.0  0.86259  0.89770  0.96844  1.0000
  C   C1300     1.0  0.95962  0.97472  0.81757  1.0000
  H   H2206     1.0  0.79325  0.86091  0.94631  1.0000
  H   H2207     1.0  0.88813  0.91689  0.91972  1.0000
  H   H2208     1.0  0.58401  0.52476  0.82384  1.0000
  H   H2209     1.0  0.90495  0.90731  0.77857  1.0000
  C   C1301     1.0  0.74068  0.59328  0.89488  1.0000
  H   H2210     1.0  0.85081  0.88525  0.90331  1.0000
  H   H2211     1.0  0.81865  0.86152  0.98569  1.0000
  H   H2212     1.0  0.75582  0.56815  0.81764  1.0000
  H   H2213     1.0  0.80929  0.84622  0.89602  1.0000
  H   H2214     1.0  0.73516  0.57289  0.89981  1.0000
  Fe  Fe189     1.0  0.88153  0.49600  0.90239  1.0000
  C   C1302     1.0  0.50039  0.92165  0.91272  1.0000
  Fe  Fe190     1.0  0.48664  0.60241  0.79744  1.0000
  H   H2215     1.0  0.82684  0.89541  0.98743  1.0000
  H   H2216     1.0  0.96711  0.96257  0.80931  1.0000
  N   N94       1.0  0.83525  0.87845  0.93929  1.0000
  H   H2217     1.0  0.73701  0.55199  0.85380  1.0000
  H   H2218     1.0  0.49110  0.95558  0.88266  1.0000
  S   S379      1.0  0.86828  0.97368  0.91174  1.0000
  C   C1303     1.0  0.65782  0.91123  0.85085  1.0000
  H   H2219     1.0  0.95274  0.52485  0.86640  1.0000
  C   C1304     1.0  0.80298  0.49649  0.95991  1.0000
  H   H2220     1.0  0.97369  0.56984  0.85192  1.0000
  H   H2221     1.0  0.54496  0.52552  0.84055  1.0000
  H   H2222     1.0  0.65190  0.89039  0.85490  1.0000
  H   H2223     1.0  0.70955  0.95505  0.92270  1.0000
  H   H2224     1.0  0.60597  0.91578  0.90264  1.0000
  H   H2225     1.0  0.53331  0.95402  0.87804  1.0000
  H   H2226     1.0  0.79998  0.82571  0.96115  1.0000
  S   S380      1.0  0.97814  0.85331  0.82979  1.0000
  H   H2227     1.0  0.48565  0.66633  0.88915  1.0000
  H   H2228     1.0  0.88439  0.92688  0.79470  1.0000
  H   H2229     1.0  0.84757  0.85114  0.92716  1.0000
  H   H2230     1.0  0.50708  0.91515  0.75876  1.0000
  C   C1305     1.0  0.89176  0.94675  0.78692  1.0000
  C   C1306     1.0  0.86008  0.90115  0.94942  1.0000
  H   H2231     1.0  0.74675  0.61525  0.82503  1.0000
  C   C1307     1.0  0.63836  0.94037  0.84821  1.0000
  C   C1308     1.0  0.62647  0.93228  0.90115  1.0000
  C   C1309     1.0  0.66304  0.96774  0.84998  1.0000
  H   H2232     1.0  0.66471  0.94036  0.89091  1.0000
  H   H2233     1.0  0.62113  0.94246  0.85306  1.0000
  H   H2234     1.0  0.69650  0.51609  0.83757  1.0000
  H   H2235     1.0  0.63387  0.93802  0.91961  1.0000
  H   H2236     1.0  0.88785  0.88940  0.93472  1.0000
  H   H2237     1.0  0.96320  0.97493  0.83696  1.0000
  H   H2238     1.0  0.67200  0.97213  0.86775  1.0000
  H   H2239     1.0  0.65741  0.98304  0.84710  1.0000
  H   H2240     1.0  0.53787  0.49187  0.86243  1.0000
  C   C1310     1.0  0.80995  0.82742  0.94397  1.0000
  H   H2241     1.0  0.55093  0.93319  0.77388  1.0000
  H   H2242     1.0  0.69003  0.61431  0.85790  1.0000
  C   C1311     1.0  0.74202  0.49816  0.89789  1.0000
  H   H2243     1.0  0.76575  0.59517  0.86667  1.0000
  C   C1312     1.0  0.50996  0.94759  0.92649  1.0000
  S   S381      1.0  0.98100  0.89524  0.78901  1.0000
  H   H2244     1.0  0.72444  0.59702  0.89941  1.0000
  C   C1313     1.0  0.88602  0.90718  0.93709  1.0000
  C   C1314     1.0  0.60227  0.88273  0.83481  1.0000
  H   H2245     1.0  0.90188  0.57981  0.75858  1.0000
  C   C1315     1.0  0.51780  0.94715  0.86420  1.0000
  H   H2246     1.0  0.75766  0.60642  0.90631  1.0000
  H   H2247     1.0  0.59610  0.89914  0.86632  1.0000
  S   S382      1.0  0.82771  0.97677  0.87198  1.0000
  C   C1316     1.0  0.97128  0.76332  0.79931  1.0000
  S   S383      1.0  0.65274  0.49533  0.87623  1.0000
  H   H2248     1.0  0.71851  0.62640  0.83948  1.0000
  C   C1317     1.0  0.92984  0.96313  0.81339  1.0000
  H   H2249     1.0  0.96463  0.70164  0.79897  1.0000
  H   H2250     1.0  0.49022  0.52505  0.80360  1.0000
  H   H2251     1.0  0.88469  0.94307  0.76820  1.0000
  H   H2252     1.0  0.62667  0.94955  0.89296  1.0000
  H   H2253     1.0  0.51202  0.96409  0.91555  1.0000
  H   H2254     1.0  0.92381  0.97484  0.82463  1.0000
  H   H2255     1.0  0.97130  0.56821  0.89447  1.0000
  H   H2256     1.0  0.60092  0.89670  0.82246  1.0000
  N   N95       1.0  0.63852  0.91826  0.86171  1.0000
  C   C1318     1.0  0.63070  0.50072  0.00111  1.0000
  C   C1319     1.0  0.74125  0.97678  0.89804  1.0000
  H   H2257     1.0  0.61497  0.87557  0.82711  1.0000
  H   H2258     1.0  0.69343  0.57627  0.87074  1.0000
  H   H2259     1.0  0.68887  0.98288  0.91723  1.0000
  H   H2260     1.0  0.51799  0.92091  0.90651  1.0000
  H   H2261     1.0  0.48379  0.68287  0.78985  1.0000
  Fe  Fe191     1.0  0.53015  0.62784  0.76155  1.0000
  C   C1320     1.0  0.49036  0.93784  0.87502  1.0000
  C   C1321     1.0  0.83644  0.85345  0.94213  1.0000
  H   H2262     1.0  0.69919  0.92245  0.84738  1.0000
  H   H2263     1.0  0.83612  0.90419  0.91137  1.0000
  H   H2264     1.0  0.94214  0.54809  0.76204  1.0000
  C   C1322     1.0  0.70412  0.58660  0.85431  1.0000
  C   C1323     1.0  0.83405  0.88437  0.91337  1.0000
  N   N96       1.0  0.92141  0.96244  0.78799  1.0000
  C   C1324     1.0  0.64437  0.92431  0.88779  1.0000
  H   H2265     1.0  0.93604  0.91479  0.76660  1.0000
  H   H2266     1.0  0.88146  0.97794  0.79295  1.0000
  H   H2267     1.0  0.80979  0.87322  0.88169  1.0000
  C   C1325     1.0  0.70074  0.53641  0.83375  1.0000
  C   C1326     1.0  0.61127  0.89449  0.85991  1.0000
  S   S384      1.0  0.94140  0.58495  0.79776  1.0000
  H   H2268     1.0  0.58208  0.86547  0.83603  1.0000
  H   H2269     1.0  0.49695  0.94470  0.94189  1.0000
  H   H2270     1.0  0.53017  0.95431  0.93328  1.0000
  H   H2271     1.0  0.80379  0.52979  0.94200  1.0000
  C   C1327     1.0  0.56426  0.50767  0.81992  1.0000
  C   C1328     1.0  0.55473  0.48854  0.86042  1.0000
  C   C1329     1.0  0.56943  0.94547  0.76398  1.0000
  H   H2272     1.0  0.84771  0.85426  0.95837  1.0000
  H   H2273     1.0  0.50705  0.68827  0.86621  1.0000
  H   H2274     1.0  0.68159  0.53597  0.83396  1.0000
  H   H2275     1.0  0.70934  0.54130  0.81570  1.0000
  H   H2276     1.0  0.49196  0.90587  0.92635  1.0000
  H   H2277     1.0  0.49754  0.89500  0.87376  1.0000
  H   H2278     1.0  0.79323  0.87017  0.98686  1.0000
  H   H2279     1.0  0.65768  0.91252  0.83112  1.0000
  H   H2280     1.0  0.68966  0.57702  0.83967  1.0000
  C   C1330     1.0  0.81230  0.87765  0.95221  1.0000
  C   C1331     1.0  0.74909  0.59906  0.86861  1.0000
  H   H2281     1.0  0.93399  0.92119  0.79718  1.0000
  H   H2282     1.0  0.72307  0.58506  0.81242  1.0000
  H   H2283     1.0  0.77936  0.60026  0.82911  1.0000
  H   H2284     1.0  0.68943  0.92232  0.87732  1.0000
  H   H2285     1.0  0.94940  0.52203  0.90830  1.0000
  H   H2286     1.0  0.76717  0.59666  0.79955  1.0000
  H   H2287     1.0  0.63552  0.93584  0.82891  1.0000
  H   H2288     1.0  0.55067  0.53467  0.81029  1.0000
  C   C1332     1.0  0.71826  0.97146  0.91050  1.0000
  H   H2289     1.0  0.87920  0.49684  0.97431  1.0000
  C   C1333     1.0  0.80078  0.52164  0.96027  1.0000
  C   C1334     1.0  0.71965  0.55492  0.85302  1.0000
  H   H2290     1.0  0.90238  0.50952  0.77629  1.0000
  C   C1335     1.0  0.97069  0.52650  0.87493  1.0000
  C   C1336     1.0  0.93240  0.94959  0.77201  1.0000
  H   H2291     1.0  0.78137  0.51806  0.96659  1.0000
  H   H2292     1.0  0.58522  0.94246  0.77157  1.0000
  C   C1337     1.0  0.90095  0.52173  0.76194  1.0000
  H   H2293     1.0  0.82433  0.50317  0.95812  1.0000
  H   H2294     1.0  0.52299  0.96416  0.85234  1.0000
  C   C1338     1.0  0.96122  0.51425  0.89979  1.0000
  H   H2295     1.0  0.95414  0.96209  0.77022  1.0000
  H   H2296     1.0  0.49903  0.55218  0.82349  1.0000
  H   H2297     1.0  0.97712  0.51737  0.91214  1.0000
  C   C1339     1.0  0.92631  0.92173  0.77934  1.0000
  C   C1340     1.0  0.49302  0.66748  0.87091  1.0000
  H   H2298     1.0  0.57531  0.96636  0.76725  1.0000
  C   C1341     1.0  0.87344  0.49067  0.99247  1.0000
  H   H2299     1.0  0.49472  0.52265  0.83502  1.0000
  H   H2300     1.0  0.57028  0.90115  0.75922  1.0000
  C   C1342     1.0  0.48321  0.73977  0.80318  1.0000
  H   H2301     1.0  0.90049  0.98480  0.75413  1.0000
  H   H2302     1.0  0.89691  0.53612  0.77102  1.0000
  H   H2303     1.0  0.97545  0.51320  0.86461  1.0000
  C   C1343     1.0  0.97431  0.72286  0.79838  1.0000
  C   C1344     1.0  0.80511  0.49505  0.00298  1.0000
  Fe  Fe192     1.0  0.98130  0.62080  0.79596  1.0000
  H   H2304     1.0  0.58870  0.98621  0.97821  1.0000
