data_image0
_chemical_formula_structural       FeSHFeS2FeSFeS3FeSHFeS2FeSFeS3CNH7CH2SCH2C2H3CH3C2H3C9H2C6H5C4NH4NHC5H4CHSCH6SC2H2C3H3C2H2CHCNH6CH2CH7CH9C2H2C2H6NC4H5CNC7H9CH6CH3CH4C2H2C3H3FeH4CH2CH3CSH4SH4FeSHFeS2FeSFeS3FeSCFeS2FeSFeS3CHCH2CH3CH5SH5CHC4H4C6HCH2C6H6C3HCH4C5H5CH8CSH5CHNHC2H3C5HCH10NC2H3C2H5CNH2CH4CNH2C2H3C2H3C2H2CH2CH4C3SH2CH2NC3HCH2CH2CH5C4H3SCHCH3NH2SHC2S2FeS2FeSFe2S2FeS2C3H5C3H2C3H6CFe2CHSCH2CH3CHSCH2C2HC2HCHNCHCHNHC2H2CNH2SCHC2H2SFeC2H2C2HFeH2CSHCH2CH2CH2C2H3CSCHCH2CH5CH4C2HC2H2CH9CH4CH4SCH2CH3CH3C2H4C2HCHCH2NCH2SHCH2C4H4FeH6SCNCSC2H3FeSH4C2HCSNHFeC2HCS2H3S2CH2CNH2FeHCHCH3C2H2SH2C2H4CHSCH4CHCFeSC2H2CH3C2H2C2H2FeH2FeS2FeS2FeSFeS3FeS2FeS2FeS2FeS2FeHFeS3Fe2S2FeH2S2C6H7C2H3C6H4C6H4C6H4CH5CH2CH7SH3CH2SH3CH2CH4NC6H12CHCSHCH2CHCH3SH8C2H2C3NH4FeHCH7CHCHNH3CH2NCH2C2H8C2H3C2HCHNC6HNH2CHC2HC2HC2HCH4CH5FeH2CHC2HC2NH2CHSH2C3H2SC3H2CH2SCH6FeH2FeSCFeS2FeSHS2HFeS2FeS2FeNFeCS3H2CH2C2HC3H3C6H4C6H4C6H5C2HSH3NH2CH7CH2C2H2NH9SHCH3CHCHCHSH3CH4C3H3CHC4H3CHCNCHC4H2CH2CH2CH2NCHCH2C4H2CH2CH2C2H6CHCHCHSCHCHCFeH5CH10CH3CH4CH8FeSHFeS2FeSHS2HFeS2FeS2FeHFeHS3HCH3CHSHC2H3C6HCH2C6H4C6H4NCH3CHCH2CH3CH3CHCH3CH9C2H5NCH2C2H6CHCHCH4CHCSNSC3H2CHC2H2CH3CHCH2CH4NH8CH3CHFeCH2C3H2CH14CHCHC8H2C2HCHCHCH4CHFeS2FeS2FeSFeS3FeS2FeS2FeSFeS3FeS2FeSCHFeS3FeS2FeS2FeSFeS3HC6H4C2H2C2H4CH2CHCH4C6H4C6H4C6H4C6H9CNC8H22NCHNH4CH2CH4C3H3CH8CHCH2CH3C2NC8H14CH5C2H2CNCNHCHCH2CH3CH3C2H11CH4CH9CHCHCH2CHFeNCHC4HC2H3C2H3CH5CH3C2FeS2FeS2FeSFeS3FeS2FeS2FeSFeS3FeS2FeSH2FeS3FeS2FeS2FeSFeS3HC6H4C2HC3H4C2HCH6C6H4C6H4C6H4C6H5CH2C3H12CH5CH3CH3CHSHC3H2C3H2CNH2CH3CH6CH3C5H4CSH3CH4CH3C4H2CHCHCH4NC2NCNH2CHC2H4C2H2CHC2H7CH3NH5CHC3H7NH5CHCH8C2HCNHCH3CFeCH7C2H2SFeS2H2FeC2SFeS2FeS2FeSFeS3FeS2FeS2FeNHCSHS3H2C4H4C3H3CH2C3H2C2H4CHCHC3H2C6H4C6H4C6H11C2H2CNH3CHCH8SCH2CH2CHNC6H16C2HCHCH9C2HCH6CH3CHCH3SH2C2SHCH7CH4C2HCH3FeH2C3HC2H3CH10CH2SHCNC3HCH4CH2CH2NC4H2CH3SHC2NCSHC2HCHCHCH2C3HSCH6FeNC2H2C2HCHFeC2H2FeH5SCHCHC2HSFeS2HCH2S2FeS2FeS2FeSFeS3FeS2FeS2FeHCHSHS3CSHC4H3C2FeH5CHC3HC2H4C3HC2H3C6H2CHC6H4C6H7CH3CH2NSHC2H3CH3CH2C3HCH2CFeC5HC2FeHC2HCHCHCNH4CHSHNH10CH3CH3C2H3CHSH6CFeH3CHNCHNC3H2CH3C2H2NHCHCH2CH4C2H4CHCH3C2HCHCNCH3CH2CH5CHSH3CH6CH4SCH5CH3C2H4CH4CHCH4CH3C3H2C2H3CHCFe2HCHCHSFeS2FeS2FeSFeS3HSHSC3HCSCHFeS2H9C3H3C6H4C6H4CHC4H14CHCSHSC2HCHC2H3CFeCFeHC2H3NCH2CHNH4CHCH3SCNHC3H2CH2C2HC2H7CFeH5CH2C2H4CFeH2CSH4CH4FeS2FeS2FeSFeS3CSHSHSCSHSCHFeS2CHC3H4C2H4C6H4C6H4C6HCHCH2CH2CHCH10NCH6C2H3FeNCH10CH3CHSCH3C2H2NCH2CHCHCH8FeCH2CH2CHC3HCH3CHSH3CH2CFeH3CH3CH2FeS2FeS2FeSFeS3HSH4FeSHFeSH2SFeSHS2H2NHCH2SCH3CNC6H4C6H4C6H4C2H2C2HC2H5CH2SCH2FeCHFeHNCH4NHNCHCH2NC8H21CH3C2HSCHCHCSHNH3CSH3C2HC2H10CH2CFeHC2H5C5H2C3H2C2H2CH14CHCHCHCH4CH2CHCH2C3H2FeS2FeS2FeSFeS3HC2HCSFeS2FeSCHSFeSHS2C2HCH2C2HCH4C6H4C6H4C6H4C2H2C2H2NHCH2CH4CHCH2CH5C2HSCSCH3CH3CHCSH3CH4C2H2CH2CH2CH2NHFeCH2CH7CH6NH3FeH2NCH2NCH2C2HC3HCH4CH3SH3CH3CH3NCSH3CH3CHCHFeCH3C2H4CSCH3C2HCH3CH2C2HFeSCFeSCFeSHS2HFeS2FeS2FeHFeS3FeSHFeS2FeHFeS3HSFeSCFeSFeS3HC6H4C6H4C3H2CH2CH2C6H4C6H4C6H11CH3CHCHCH4CH5CH5CH4CH3NHC2HC2SCHSH7CHNCH7C2HSH5CNC8H16CHSHCH3NFeSCHCHCH4CHCH4CH2NC4HSC2HCH2SH2CH5CH6CH2NHC2H2NHC2H4NC2HFeHCHCH7CFeSCFeSHFeSCS2HFeS2FeS2FeCFeS3FeSCFeS2FeHFeS3HSFeSHFeSFeS3HC6H4C6H4C3H2CH2CH2C6H4C6H4C6H4C2H3CHCSH14C2H3CH2CH3C2HNH3CH2CH3CH3FeNC2H2CHCH13SNCHNC8H20C2SH5C2HNHCHCHCHNC8H8CSH6NH5CH4S2CH3C2HCH8CFeCH2FeS2FeS2FeNFeHS2FeS2FeS2FeSFeS5FeS2FeS2FeSFeS3C6H4C7H4C2H3CHNH2C3H3C2H2C6H4C5H3C5H4C2HCHC2SH2CFeNHCH3SH4C2H2CH6NC8H20CH6CHC4H4NH4CHCH2CH4CHC2H3SCHCH2SCH5CH2C3HCFeH7C2H3NC8H14CH10CH2CH6CH2C2HCHCHCFeS2FeS2FeCFeS3FeS2FeS2FeSFeS5FeS2FeS2FeSFeS3C6H5C6H4C2H3CHCH4C2HNCH3C6H5C4H4C5H4NCH3SCSH2C3HCH3CH3CH5C2HCH9NC8H19CHCHNH3CHCH2CHC2H7CHCSCH3C2H2CH2C3H2CHC2H11CH3NCH2CH2NH3CH2C2HC2H5NHCH4C2H2FeHC2FeCHC4HCH10C2HCH4C2HCHC2HC2H3CH3CH2C2FeSCHSFeSHSFeSFeS3FeS2H3CHS2HCH3CHFeH2CNC4HCH2C6H4C5H5SHSH6CH4CH2FeH2CHCHC2HCH7SHCHCH5NC6HCSH3CHNHC2H2CH2FeH10FeCH4SFeSHSHSHS3FeS2CH2CH2SCHSH2CHC2HC4FeH4C7H4C6H5FeCNH2CH2NFeSCH2CH2CHCH3CHCH2FeCH4CH3SH3CH2CH3SH5CHCSH2FeH6C2H3C2HCH2CSFeS2FeS2FeSFeS4FeHSFeS2FeSFeS3C6H4C6H4C6H4C6H4C6H4CHC4H2NCH3CH9C2HCHCH2C3H5NC5H11NC4SC3H14FeCH8CH3CH3CS2H5NH3CH8CH6FeHCH3CHCNH2CHCHCH3CH2CH2SH2CH2C2NC2HCH3CH5C3FeH4CH2SH3CNCH2CH2CH9C2H3C2HCHNH2S2FeS2FeS2FeSFeS4HNHFeS2FeSFeS3C6H4C6H4C6H4C6H4C6H4CHC5H6C2HCHCH3CH3NC3H4CHCH4CH4CH7NC8H20NC8H2FeH11SHCH2CHCH2CH7C2SH3CH2CH2C2SCNHNCH5CHNCH4C4HFeC2HC2H5SH2CH2CH7NCH2CH3FeH3C3HC2H3CSC2H3CH6CHCH3FeH7CH9CH2C2H3FeS2H2FeSFeSH2FeS2HCFeSFeSHCFeS2FeS2FeSFeS3FeS2FeS2FeSFeS3H3C4H3C2SHC3H4C6H4CH2C3HCH2C6H4C6H3C3H2NCHCH5SCH2CFeCH5SHCH3C2HSH2NH10C2H2CH3CHCHCH2C2H4CH4C2H2C2HC2NHCH6C3HCHCH3SC3NC8H20C6H6CH5CNH2C2H6NH2NHCH7C3H2C2H6C2HSH2CH2FeS2H2FeHFeS3FeS2H2FeSFeSHCFeS2FeS2FeSFeS3FeS2FeS2FeSFeS3H2C5H4C2HCSHCH3C6H4C2H2C3H3C6H4C2HC3HCH2C2SHC2H2NC8H8CH11NHCHC3H6C3SHC2H2CH2CH5CSCFeHCH2CH4CH2CH4CH8CH4CH2NC8H21CHSC2HCH3SHC6HCH5CH2NCHCN2H9C2H3CH3CHCH2CH3
_chemical_formula_sum              "Fe288 S576 H3456 C2016 N144"
_cell_length_a       77.1409
_cell_length_b       77.4315
_cell_length_c       50.9822
_cell_angle_alpha    90.3861
_cell_angle_beta     91.3891
_cell_angle_gamma    112.523

_space_group_name_H-M_alt    "P 1"
_space_group_IT_number       1

loop_
  _space_group_symop_operation_xyz
  'x, y, z'

loop_
  _atom_site_type_symbol
  _atom_site_label
  _atom_site_symmetry_multiplicity
  _atom_site_fract_x
  _atom_site_fract_y
  _atom_site_fract_z
  _atom_site_occupancy
  Fe  Fe1       1.0  0.28012  0.17754  0.08392  1.0000
  S   S1        1.0  0.26909  0.14650  0.08678  1.0000
  H   H1        1.0  0.28692  0.17365  0.47841  1.0000
  Fe  Fe2       1.0  0.24118  0.17889  0.09023  1.0000
  S   S2        1.0  0.22723  0.14741  0.09359  1.0000
  S   S3        1.0  0.22896  0.20132  0.08409  1.0000
  Fe  Fe3       1.0  0.25216  0.15023  0.12035  1.0000
  S   S4        1.0  0.25469  0.13301  0.15565  1.0000
  Fe  Fe4       1.0  0.24548  0.14631  0.06002  1.0000
  S   S5        1.0  0.23661  0.12517  0.02586  1.0000
  S   S6        1.0  0.26497  0.18176  0.11895  1.0000
  S   S7        1.0  0.25771  0.17720  0.05503  1.0000
  Fe  Fe5       1.0  0.28436  0.12609  0.33431  1.0000
  S   S8        1.0  0.26607  0.14246  0.33548  1.0000
  H   H2        1.0  0.22655  0.08204  0.28394  1.0000
  Fe  Fe6       1.0  0.25055  0.08850  0.34359  1.0000
  S   S9        1.0  0.23036  0.10323  0.34551  1.0000
  S   S10       1.0  0.24366  0.05665  0.34530  1.0000
  Fe  Fe7       1.0  0.24559  0.11931  0.31048  1.0000
  S   S11       1.0  0.23078  0.12666  0.27550  1.0000
  Fe  Fe8       1.0  0.25296  0.12507  0.37053  1.0000
  S   S12       1.0  0.25053  0.14311  0.40500  1.0000
  S   S13       1.0  0.26459  0.10366  0.30730  1.0000
  S   S14       1.0  0.27249  0.10964  0.37057  1.0000
  C   C1        1.0  0.05271  0.23081  0.98709  1.0000
  N   N1        1.0  0.03293  0.21527  0.27971  1.0000
  H   H3        1.0  0.19761  0.04262  0.29619  1.0000
  H   H4        1.0  0.05886  0.20886  0.31903  1.0000
  H   H5        1.0  0.03223  0.22128  0.40767  1.0000
  H   H6        1.0  0.99816  0.20688  0.40713  1.0000
  H   H7        1.0  0.17017  0.18639  0.13236  1.0000
  H   H8        1.0  0.98364  0.20087  0.27922  1.0000
  H   H9        1.0  0.30053  0.14804  0.44990  1.0000
  C   C2        1.0  0.29165  0.16185  0.00942  1.0000
  H   H10       1.0  0.29560  0.18778  0.28628  1.0000
  H   H11       1.0  0.21610  0.18474  0.99325  1.0000
  S   S15       1.0  0.30996  0.19600  0.07469  1.0000
  C   C3        1.0  0.24509  0.06537  0.25416  1.0000
  H   H12       1.0  0.25030  0.07990  0.26188  1.0000
  H   H13       1.0  0.00459  0.23090  0.41507  1.0000
  C   C4        1.0  0.04730  0.23286  0.29208  1.0000
  C   C5        1.0  0.21062  0.16635  0.02780  1.0000
  H   H14       1.0  0.18384  0.17341  0.99344  1.0000
  H   H15       1.0  0.00702  0.24025  0.46406  1.0000
  H   H16       1.0  0.99557  0.18693  0.29144  1.0000
  C   C6        1.0  0.01533  0.23174  0.35649  1.0000
  H   H17       1.0  0.29088  0.18424  0.98309  1.0000
  H   H18       1.0  0.02494  0.19620  0.31224  1.0000
  H   H19       1.0  0.05809  0.21924  0.22269  1.0000
  C   C7        1.0  0.01603  0.21395  0.35548  1.0000
  C   C8        1.0  0.99933  0.19790  0.35164  1.0000
  H   H20       1.0  0.16536  0.15277  0.00147  1.0000
  H   H21       1.0  0.02941  0.21256  0.35757  1.0000
  H   H22       1.0  0.00005  0.18422  0.35085  1.0000
  C   C9        1.0  0.29692  0.18259  0.00242  1.0000
  C   C10       1.0  0.20950  0.20557  0.09636  1.0000
  C   C11       1.0  0.20668  0.22166  0.08824  1.0000
  C   C12       1.0  0.19090  0.22517  0.09613  1.0000
  C   C13       1.0  0.17759  0.21245  0.11201  1.0000
  C   C14       1.0  0.18039  0.19632  0.12009  1.0000
  C   C15       1.0  0.19631  0.19295  0.11251  1.0000
  C   C16       1.0  0.29422  0.12597  0.02760  1.0000
  C   C17       1.0  0.05231  0.19829  0.30320  1.0000
  H   H23       1.0  0.29111  0.15843  0.21269  1.0000
  H   H24       1.0  0.19823  0.18049  0.11887  1.0000
  C   C18       1.0  0.24731  0.13113  0.18863  1.0000
  C   C19       1.0  0.25370  0.12075  0.20621  1.0000
  C   C20       1.0  0.24881  0.11928  0.23280  1.0000
  C   C21       1.0  0.23722  0.12799  0.24211  1.0000
  C   C22       1.0  0.23047  0.13801  0.22444  1.0000
  C   C23       1.0  0.23562  0.13974  0.19789  1.0000
  H   H25       1.0  0.26272  0.11401  0.19922  1.0000
  H   H26       1.0  0.25407  0.11150  0.24610  1.0000
  H   H27       1.0  0.22140  0.14471  0.23139  1.0000
  H   H28       1.0  0.23052  0.14770  0.18461  1.0000
  H   H29       1.0  0.24142  0.01869  0.34651  1.0000
  C   C24       1.0  0.03308  0.19826  0.29399  1.0000
  C   C25       1.0  0.23903  0.11986  0.44809  1.0000
  C   C26       1.0  0.24558  0.13808  0.43858  1.0000
  C   C27       1.0  0.24859  0.15303  0.45634  1.0000
  N   N2        1.0  0.18950  0.15973  0.02791  1.0000
  H   H30       1.0  0.13158  0.24081  0.25562  1.0000
  H   H31       1.0  0.23656  0.10822  0.43466  1.0000
  H   H32       1.0  0.25362  0.16718  0.44917  1.0000
  H   H33       1.0  0.28731  0.19641  0.21603  1.0000
  N   N3        1.0  0.29516  0.17220  0.25077  1.0000
  H   H34       1.0  0.29423  0.11214  0.46436  1.0000
  C   C28       1.0  0.19066  0.01600  0.35324  1.0000
  C   C29       1.0  0.20562  0.03364  0.35124  1.0000
  C   C30       1.0  0.22409  0.03483  0.34875  1.0000
  C   C31       1.0  0.22725  0.01805  0.34845  1.0000
  C   C32       1.0  0.28970  0.13041  0.99939  1.0000
  H   H35       1.0  0.17649  0.01536  0.35507  1.0000
  H   H36       1.0  0.20285  0.04632  0.35158  1.0000
  H   H37       1.0  0.30948  0.12985  0.03129  1.0000
  H   H38       1.0  0.21536  0.15601  0.01856  1.0000
  C   C33       1.0  0.05725  0.21288  0.45383  1.0000
  H   H39       1.0  0.99670  0.21304  0.44022  1.0000
  S   S16       1.0  0.11743  0.23468  0.11112  1.0000
  C   C34       1.0  0.05472  0.21324  0.24257  1.0000
  H   H40       1.0  0.99623  0.19251  0.25686  1.0000
  H   H41       1.0  0.06227  0.20041  0.28721  1.0000
  H   H42       1.0  0.15595  0.16874  0.03099  1.0000
  H   H43       1.0  0.25477  0.06515  0.23849  1.0000
  H   H44       1.0  0.16577  0.13419  0.03628  1.0000
  H   H45       1.0  0.22408  0.20180  0.47749  1.0000
  S   S17       1.0  0.15687  0.21553  0.12140  1.0000
  C   C35       1.0  0.18497  0.17362  0.04446  1.0000
  C   C36       1.0  0.21230  0.00041  0.35055  1.0000
  H   H46       1.0  0.29247  0.19891  0.25762  1.0000
  H   H47       1.0  0.19209  0.00191  0.47294  1.0000
  C   C37       1.0  0.28459  0.11914  0.45912  1.0000
  C   C38       1.0  0.99770  0.23316  0.35391  1.0000
  C   C39       1.0  0.05669  0.23214  0.44753  1.0000
  H   H48       1.0  0.31372  0.14573  0.25711  1.0000
  H   H49       1.0  0.24628  0.05590  0.26967  1.0000
  H   H50       1.0  0.05016  0.18449  0.31177  1.0000
  C   C40       1.0  0.17816  0.01738  0.45129  1.0000
  C   C41       1.0  0.28997  0.15415  0.26560  1.0000
  H   H51       1.0  0.21675  0.23148  0.07568  1.0000
  H   H52       1.0  0.29318  0.12753  0.26801  1.0000
  C   C42       1.0  0.28573  0.16758  0.22396  1.0000
  H   H53       1.0  0.05210  0.20300  0.43687  1.0000
  C   C43       1.0  0.26717  0.17780  0.27069  1.0000
  N   N4        1.0  0.29891  0.15060  0.99157  1.0000
  H   H54       1.0  0.28730  0.11065  0.03050  1.0000
  H   H55       1.0  0.28851  0.13266  0.04255  1.0000
  H   H56       1.0  0.27451  0.14646  0.26565  1.0000
  H   H57       1.0  0.20355  0.13015  0.04441  1.0000
  H   H58       1.0  0.04480  0.23337  0.31347  1.0000
  H   H59       1.0  0.29674  0.16191  0.03001  1.0000
  C   C44       1.0  0.17802  0.99915  0.46372  1.0000
  H   H60       1.0  0.02496  0.20066  0.24232  1.0000
  H   H61       1.0  0.27057  0.15891  0.22531  1.0000
  C   C45       1.0  0.19383  0.99922  0.35290  1.0000
  H   H62       1.0  0.30074  0.18795  0.19434  1.0000
  H   H63       1.0  0.20670  0.17081  0.45998  1.0000
  H   H64       1.0  0.26398  0.18881  0.28117  1.0000
  H   H65       1.0  0.25893  0.17481  0.25192  1.0000
  H   H66       1.0  0.26220  0.16532  0.28327  1.0000
  H   H67       1.0  0.18246  0.14265  0.06271  1.0000
  H   H68       1.0  0.06375  0.23653  0.42846  1.0000
  C   C46       1.0  0.23554  0.11667  0.47504  1.0000
  H   H69       1.0  0.27606  0.15539  0.01015  1.0000
  H   H70       1.0  0.23614  0.18777  0.01359  1.0000
  H   H71       1.0  0.27550  0.17959  0.19170  1.0000
  H   H72       1.0  0.18892  0.23758  0.08968  1.0000
  H   H73       1.0  0.27977  0.14396  0.46600  1.0000
  H   H74       1.0  0.18753  0.15046  0.46873  1.0000
  H   H75       1.0  0.19534  0.01716  0.26371  1.0000
  H   H76       1.0  0.30619  0.17290  0.33381  1.0000
  H   H77       1.0  0.29438  0.15700  0.28664  1.0000
  C   C47       1.0  0.16399  0.16891  0.04937  1.0000
  C   C48       1.0  0.23891  0.12981  0.99176  1.0000
  H   H78       1.0  0.18051  0.11260  0.04230  1.0000
  H   H79       1.0  0.27070  0.11160  0.46778  1.0000
  C   C49       1.0  0.28851  0.18496  0.26650  1.0000
  C   C50       1.0  0.02540  0.21887  0.42708  1.0000
  H   H80       1.0  0.19040  0.18778  0.03578  1.0000
  H   H81       1.0  0.02591  0.18535  0.28183  1.0000
  H   H82       1.0  0.19203  0.17524  0.06411  1.0000
  H   H83       1.0  0.16282  0.18004  0.06229  1.0000
  H   H84       1.0  0.18951  0.02959  0.46081  1.0000
  H   H85       1.0  0.28281  0.11760  0.43741  1.0000
  N   N5        1.0  0.03752  0.23324  0.44690  1.0000
  C   C51       1.0  0.99658  0.19796  0.27708  1.0000
  C   C52       1.0  0.28774  0.18399  0.20575  1.0000
  C   C53       1.0  0.18960  0.12636  0.03446  1.0000
  C   C54       1.0  0.29221  0.14011  0.46655  1.0000
  H   H86       1.0  0.05412  0.19867  0.24195  1.0000
  H   H87       1.0  0.31312  0.16034  0.08599  1.0000
  H   H88       1.0  0.21637  0.16785  0.04831  1.0000
  H   H89       1.0  0.24306  0.15886  0.99497  1.0000
  H   H90       1.0  0.15737  0.15557  0.05983  1.0000
  C   C55       1.0  0.02958  0.22923  0.47401  1.0000
  N   N6        1.0  0.20972  0.05748  0.26105  1.0000
  C   C56       1.0  0.22506  0.05935  0.24212  1.0000
  C   C57       1.0  0.19113  0.04935  0.24618  1.0000
  C   C58       1.0  0.20966  0.04473  0.28327  1.0000
  C   C59       1.0  0.21304  0.07649  0.27252  1.0000
  C   C60       1.0  0.18686  0.06271  0.22707  1.0000
  C   C61       1.0  0.20842  0.02505  0.27520  1.0000
  C   C62       1.0  0.19817  0.07734  0.29170  1.0000
  H   H91       1.0  0.22200  0.04604  0.23098  1.0000
  H   H92       1.0  0.22582  0.06988  0.22697  1.0000
  H   H93       1.0  0.17921  0.04389  0.25973  1.0000
  H   H94       1.0  0.19019  0.03689  0.23429  1.0000
  H   H95       1.0  0.22229  0.05123  0.29639  1.0000
  H   H96       1.0  0.21504  0.08712  0.25706  1.0000
  H   H97       1.0  0.17351  0.05485  0.21604  1.0000
  H   H98       1.0  0.18487  0.07437  0.23761  1.0000
  H   H99       1.0  0.19791  0.06848  0.21242  1.0000
  C   C63       1.0  0.18112  0.14093  0.04089  1.0000
  H   H100      1.0  0.20814  0.01698  0.29326  1.0000
  H   H101      1.0  0.22080  0.02552  0.26421  1.0000
  H   H102      1.0  0.20128  0.07379  0.31188  1.0000
  H   H103      1.0  0.18368  0.06802  0.28593  1.0000
  H   H104      1.0  0.19815  0.09169  0.29189  1.0000
  H   H105      1.0  0.21216  0.99432  0.40873  1.0000
  C   C64       1.0  0.20499  0.99411  0.42745  1.0000
  H   H106      1.0  0.19091  0.12437  0.01325  1.0000
  H   H107      1.0  0.11975  0.22805  0.47771  1.0000
  H   H108      1.0  0.29337  0.13518  0.23513  1.0000
  C   C65       1.0  0.18094  0.15908  0.00084  1.0000
  H   H109      1.0  0.21984  0.19707  0.02468  1.0000
  H   H110      1.0  0.06377  0.23149  0.00195  1.0000
  H   H111      1.0  0.18118  0.01845  0.43014  1.0000
  H   H112      1.0  0.02380  0.20453  0.43286  1.0000
  C   C66       1.0  0.00517  0.21772  0.42250  1.0000
  C   C67       1.0  0.22094  0.18505  0.01395  1.0000
  H   H113      1.0  0.04946  0.20668  0.47163  1.0000
  H   H114      1.0  0.29100  0.18920  0.01727  1.0000
  C   C68       1.0  0.29817  0.14008  0.25549  1.0000
  C   C69       1.0  0.01405  0.23647  0.48088  1.0000
  C   C70       1.0  0.19950  0.16265  0.47713  1.0000
  H   H115      1.0  0.20963  0.00886  0.43434  1.0000
  H   H116      1.0  0.16875  0.99679  0.48082  1.0000
  H   H117      1.0  0.27416  0.12566  0.99728  1.0000
  Fe  Fe9       1.0  0.14839  0.24080  0.11845  1.0000
  H   H118      1.0  0.12557  0.24077  0.02239  1.0000
  H   H119      1.0  0.16449  0.01879  0.45391  1.0000
  H   H120      1.0  0.29328  0.12089  0.98627  1.0000
  H   H121      1.0  0.07208  0.21461  0.45767  1.0000
  C   C71       1.0  0.03580  0.21371  0.25077  1.0000
  H   H122      1.0  0.03907  0.22395  0.99673  1.0000
  H   H123      1.0  0.06675  0.22189  0.25518  1.0000
  C   C72       1.0  0.98169  0.19932  0.34889  1.0000
  H   H124      1.0  0.12593  0.24155  0.20755  1.0000
  H   H125      1.0  0.02391  0.21391  0.47753  1.0000
  H   H126      1.0  0.31229  0.19061  0.00318  1.0000
  C   C73       1.0  0.01385  0.21624  0.28274  1.0000
  S   S18       1.0  0.10642  0.23929  0.43019  1.0000
  H   H127      1.0  0.01208  0.22691  0.26961  1.0000
  H   H128      1.0  0.18001  0.99403  0.40753  1.0000
  H   H129      1.0  0.01236  0.22086  0.30297  1.0000
  H   H130      1.0  0.06178  0.23322  0.29115  1.0000
  S   S19       1.0  0.08061  0.23759  0.36121  1.0000
  H   H131      1.0  0.03335  0.22487  0.23950  1.0000
  H   H132      1.0  0.06606  0.24196  0.46261  1.0000
  H   H133      1.0  0.19102  0.18576  0.48198  1.0000
  H   H134      1.0  0.23037  0.10252  0.48217  1.0000
  Fe  Fe10      1.0  0.28126  0.17934  0.58179  1.0000
  S   S20       1.0  0.27030  0.14826  0.58473  1.0000
  H   H135      1.0  0.18919  0.00609  0.94537  1.0000
  Fe  Fe11      1.0  0.24300  0.18105  0.59208  1.0000
  S   S21       1.0  0.22895  0.14962  0.59586  1.0000
  S   S22       1.0  0.23266  0.20511  0.59127  1.0000
  Fe  Fe12      1.0  0.25487  0.15209  0.62005  1.0000
  S   S23       1.0  0.25889  0.13554  0.65521  1.0000
  Fe  Fe13      1.0  0.24562  0.14823  0.56044  1.0000
  S   S24       1.0  0.23473  0.12692  0.52667  1.0000
  S   S25       1.0  0.26781  0.18355  0.61849  1.0000
  S   S26       1.0  0.25771  0.17916  0.55513  1.0000
  Fe  Fe14      1.0  0.28461  0.12583  0.83639  1.0000
  S   S27       1.0  0.26586  0.14178  0.83565  1.0000
  C   C74       1.0  0.28565  0.11917  0.52469  1.0000
  Fe  Fe15      1.0  0.25083  0.08783  0.84337  1.0000
  S   S28       1.0  0.23024  0.10211  0.84322  1.0000
  S   S29       1.0  0.24340  0.05587  0.84507  1.0000
  Fe  Fe16      1.0  0.24669  0.11862  0.80935  1.0000
  S   S30       1.0  0.23194  0.12528  0.77371  1.0000
  Fe  Fe17      1.0  0.25154  0.12396  0.86971  1.0000
  S   S31       1.0  0.24622  0.14100  0.90319  1.0000
  S   S32       1.0  0.26624  0.10344  0.80802  1.0000
  S   S33       1.0  0.27143  0.10896  0.87183  1.0000
  C   C75       1.0  0.18997  0.99481  0.93256  1.0000
  H   H136      1.0  0.06641  0.23080  0.75030  1.0000
  C   C76       1.0  0.20065  0.15057  0.53758  1.0000
  H   H137      1.0  0.99630  0.19619  0.76660  1.0000
  H   H138      1.0  0.29408  0.16824  0.78672  1.0000
  C   C77       1.0  0.98505  0.20308  0.84916  1.0000
  H   H139      1.0  0.17681  0.07306  0.81852  1.0000
  H   H140      1.0  0.28119  0.18734  0.72748  1.0000
  H   H141      1.0  0.27708  0.15012  0.76785  1.0000
  C   C78       1.0  0.28560  0.17569  0.72250  1.0000
  H   H142      1.0  0.19680  0.06765  0.82540  1.0000
  H   H143      1.0  0.16569  0.02429  0.74727  1.0000
  H   H144      1.0  0.23985  0.06499  0.75487  1.0000
  H   H145      1.0  0.22784  0.04270  0.77054  1.0000
  H   H146      1.0  0.18925  0.03617  0.78219  1.0000
  S   S34       1.0  0.31054  0.19841  0.57111  1.0000
  H   H147      1.0  0.17614  0.05060  0.80891  1.0000
  H   H148      1.0  0.20566  0.08998  0.71101  1.0000
  H   H149      1.0  0.16366  0.04482  0.76025  1.0000
  H   H150      1.0  0.04864  0.20854  0.74327  1.0000
  H   H151      1.0  0.19980  0.03772  0.75142  1.0000
  C   C79       1.0  0.31230  0.20677  0.75921  1.0000
  H   H152      1.0  0.27415  0.11536  0.53897  1.0000
  C   C80       1.0  0.04902  0.20684  0.79275  1.0000
  C   C81       1.0  0.17302  0.03972  0.74923  1.0000
  C   C82       1.0  0.01944  0.21824  0.85499  1.0000
  C   C83       1.0  0.00282  0.20195  0.85235  1.0000
  H   H153      1.0  0.24648  0.06095  0.78721  1.0000
  H   H154      1.0  0.03291  0.21707  0.85733  1.0000
  H   H155      1.0  0.00368  0.18834  0.85278  1.0000
  H   H156      1.0  0.03431  0.20218  0.90286  1.0000
  C   C84       1.0  0.21154  0.20788  0.59925  1.0000
  C   C85       1.0  0.21069  0.22562  0.59638  1.0000
  C   C86       1.0  0.19399  0.22843  0.60096  1.0000
  C   C87       1.0  0.17788  0.21348  0.60836  1.0000
  C   C88       1.0  0.17873  0.19574  0.61128  1.0000
  C   C89       1.0  0.19547  0.19294  0.60682  1.0000
  H   H157      1.0  0.01287  0.22640  0.91289  1.0000
  C   C90       1.0  0.19203  0.04416  0.76360  1.0000
  H   H158      1.0  0.16634  0.18409  0.61704  1.0000
  H   H159      1.0  0.19588  0.17923  0.60916  1.0000
  C   C91       1.0  0.25043  0.13234  0.68766  1.0000
  C   C92       1.0  0.23757  0.13964  0.69656  1.0000
  C   C93       1.0  0.23196  0.13724  0.72290  1.0000
  C   C94       1.0  0.23944  0.12794  0.74075  1.0000
  C   C95       1.0  0.25222  0.12058  0.73179  1.0000
  C   C96       1.0  0.25741  0.12251  0.70532  1.0000
  H   H160      1.0  0.23199  0.14715  0.68319  1.0000
  H   H161      1.0  0.22193  0.14287  0.72956  1.0000
  H   H162      1.0  0.25800  0.11326  0.74519  1.0000
  H   H163      1.0  0.26725  0.11667  0.69856  1.0000
  H   H164      1.0  0.24045  0.01763  0.84374  1.0000
  H   H165      1.0  0.23536  0.10153  0.98173  1.0000
  C   C97       1.0  0.24004  0.11842  0.94708  1.0000
  C   C98       1.0  0.24296  0.13606  0.93708  1.0000
  C   C99       1.0  0.24358  0.15047  0.95454  1.0000
  H   H166      1.0  0.22845  0.17844  0.51180  1.0000
  C   C100      1.0  0.98420  0.22080  0.84862  1.0000
  H   H167      1.0  0.23940  0.10719  0.93387  1.0000
  H   H168      1.0  0.24585  0.16417  0.94697  1.0000
  H   H169      1.0  0.21563  0.15329  0.53465  1.0000
  H   H170      1.0  0.30601  0.17313  0.83578  1.0000
  C   C101      1.0  0.19938  0.08463  0.73018  1.0000
  C   C102      1.0  0.19041  0.01564  0.85539  1.0000
  C   C103      1.0  0.20546  0.03319  0.85298  1.0000
  C   C104      1.0  0.22368  0.03414  0.84865  1.0000
  C   C105      1.0  0.22648  0.01720  0.84699  1.0000
  H   H171      1.0  0.30306  0.16660  0.95578  1.0000
  H   H172      1.0  0.17645  0.01521  0.85872  1.0000
  H   H173      1.0  0.20301  0.04597  0.85477  1.0000
  H   H174      1.0  0.01944  0.21687  0.80095  1.0000
  H   H175      1.0  0.17485  0.04525  0.72910  1.0000
  C   C106      1.0  0.06137  0.20281  0.91441  1.0000
  H   H176      1.0  0.21345  0.06532  0.72916  1.0000
  H   H177      1.0  0.01076  0.18580  0.78206  1.0000
  H   H178      1.0  0.19991  0.09704  0.74176  1.0000
  H   H179      1.0  0.06952  0.22520  0.95806  1.0000
  H   H180      1.0  0.30437  0.19210  0.49687  1.0000
  H   H181      1.0  0.27531  0.18911  0.77235  1.0000
  H   H182      1.0  0.28836  0.17295  0.51398  1.0000
  H   H183      1.0  0.01880  0.22676  0.77038  1.0000
  C   C107      1.0  0.05449  0.23990  0.79356  1.0000
  S   S35       1.0  0.15621  0.21599  0.61329  1.0000
  H   H184      1.0  0.27926  0.15378  0.96290  1.0000
  H   H185      1.0  0.28556  0.18392  0.68188  1.0000
  H   H186      1.0  0.29031  0.14427  0.72799  1.0000
  H   H187      1.0  0.24661  0.20712  0.49311  1.0000
  H   H188      1.0  0.17574  0.20839  0.53824  1.0000
  C   C108      1.0  0.11707  0.24115  0.98162  1.0000
  H   H189      1.0  0.28929  0.14222  0.92351  1.0000
  N   N7        1.0  0.20263  0.18262  0.51982  1.0000
  H   H190      1.0  0.03433  0.18893  0.93118  1.0000
  C   C109      1.0  0.23183  0.20523  0.49661  1.0000
  C   C110      1.0  0.23892  0.13165  0.49285  1.0000
  H   H191      1.0  0.28100  0.10855  0.50874  1.0000
  H   H192      1.0  0.05152  0.20503  0.97035  1.0000
  H   H193      1.0  0.17429  0.18786  0.55473  1.0000
  C   C111      1.0  0.29501  0.18032  0.69568  1.0000
  C   C112      1.0  0.18622  0.14795  0.97936  1.0000
  C   C113      1.0  0.26996  0.17371  0.77318  1.0000
  C   C114      1.0  0.05443  0.21941  0.96310  1.0000
  C   C115      1.0  0.00826  0.21331  0.92425  1.0000
  H   H194      1.0  0.23091  0.19542  0.53606  1.0000
  C   C116      1.0  0.02347  0.21652  0.78020  1.0000
  H   H195      1.0  0.20893  0.15688  0.48706  1.0000
  H   H196      1.0  0.29536  0.14831  0.53288  1.0000
  H   H197      1.0  0.15356  0.99965  0.94285  1.0000
  H   H198      1.0  0.31417  0.12435  0.49567  1.0000
  H   H199      1.0  0.16738  0.18669  0.52020  1.0000
  H   H200      1.0  0.25803  0.16774  0.75883  1.0000
  H   H201      1.0  0.30522  0.20518  0.77818  1.0000
  H   H202      1.0  0.27230  0.16332  0.71922  1.0000
  H   H203      1.0  0.01664  0.20045  0.95707  1.0000
  H   H204      1.0  0.07793  0.22156  0.80901  1.0000
  N   N8        1.0  0.04439  0.22174  0.77870  1.0000
  C   C117      1.0  0.19311  0.07409  0.78398  1.0000
  C   C118      1.0  0.07006  0.21003  0.79506  1.0000
  H   H205      1.0  0.06941  0.20089  0.93171  1.0000
  H   H206      1.0  0.20723  0.20667  0.54528  1.0000
  H   H207      1.0  0.05930  0.19096  0.90063  1.0000
  C   C119      1.0  0.04160  0.23127  0.73019  1.0000
  C   C120      1.0  0.19704  0.16861  0.54161  1.0000
  H   H208      1.0  0.20123  0.20968  0.51237  1.0000
  H   H209      1.0  0.22303  0.23727  0.59047  1.0000
  H   H210      1.0  0.30501  0.13493  0.94231  1.0000
  H   H211      1.0  0.27994  0.12447  0.94703  1.0000
  H   H212      1.0  0.18089  0.07435  0.77231  1.0000
  C   C121      1.0  0.29336  0.15305  0.96362  1.0000
  N   N9        1.0  0.29699  0.17194  0.74460  1.0000
  H   H213      1.0  0.24830  0.16154  0.49681  1.0000
  H   H214      1.0  0.26408  0.16963  0.79291  1.0000
  C   C122      1.0  0.21107  0.07479  0.74393  1.0000
  H   H215      1.0  0.20226  0.08907  0.78781  1.0000
  H   H216      1.0  0.17694  0.16550  0.49893  1.0000
  H   H217      1.0  0.05232  0.23926  0.71594  1.0000
  H   H218      1.0  0.99447  0.21144  0.93250  1.0000
  C   C123      1.0  0.04199  0.20263  0.92178  1.0000
  N   N10       1.0  0.04220  0.21863  0.93914  1.0000
  H   H219      1.0  0.07699  0.21269  0.77586  1.0000
  H   H220      1.0  0.29810  0.11843  0.53526  1.0000
  C   C124      1.0  0.19322  0.99870  0.85369  1.0000
  C   C125      1.0  0.23422  0.05809  0.77352  1.0000
  H   H221      1.0  0.22509  0.08621  0.74757  1.0000
  H   H222      1.0  0.12306  0.23956  0.52402  1.0000
  H   H223      1.0  0.16330  0.99605  0.97305  1.0000
  C   C126      1.0  0.22362  0.18972  0.51691  1.0000
  C   C127      1.0  0.21144  0.99966  0.84954  1.0000
  H   H224      1.0  0.01549  0.19460  0.74898  1.0000
  H   H225      1.0  0.21591  0.05760  0.80441  1.0000
  H   H226      1.0  0.02111  0.22422  0.96165  1.0000
  C   C128      1.0  0.18539  0.06561  0.81062  1.0000
  C   C129      1.0  0.00081  0.23707  0.85118  1.0000
  H   H227      1.0  0.00569  0.20120  0.91083  1.0000
  H   H228      1.0  0.30492  0.21172  0.74395  1.0000
  C   C130      1.0  0.02221  0.21414  0.94694  1.0000
  H   H229      1.0  0.06993  0.21574  0.90426  1.0000
  H   H230      1.0  0.27586  0.14001  0.51055  1.0000
  C   C131      1.0  0.23776  0.11527  0.97423  1.0000
  H   H231      1.0  0.00286  0.22544  0.49158  1.0000
  H   H232      1.0  0.18176  0.16373  0.54514  1.0000
  H   H233      1.0  0.29685  0.16805  0.68672  1.0000
  H   H234      1.0  0.22859  0.08034  0.79243  1.0000
  C   C132      1.0  0.30272  0.15627  0.73576  1.0000
  C   C133      1.0  0.01103  0.19713  0.76864  1.0000
  C   C134      1.0  0.17763  0.19496  0.53560  1.0000
  S   S36       1.0  0.11826  0.23666  0.60931  1.0000
  H   H235      1.0  0.20072  0.14851  0.98128  1.0000
  H   H236      1.0  0.03073  0.22001  0.71839  1.0000
  C   C135      1.0  0.29203  0.13769  0.94330  1.0000
  H   H237      1.0  0.12261  0.23094  0.97535  1.0000
  H   H238      1.0  0.18456  0.07539  0.72629  1.0000
  N   N11       1.0  0.20372  0.06454  0.76909  1.0000
  C   C136      1.0  0.22040  0.06561  0.78609  1.0000
  C   C137      1.0  0.19813  0.19918  0.52819  1.0000
  C   C138      1.0  0.24555  0.14988  0.48337  1.0000
  H   H239      1.0  0.04211  0.19302  0.78261  1.0000
  C   C139      1.0  0.28509  0.16555  0.76858  1.0000
  H   H240      1.0  0.20430  0.17523  0.56039  1.0000
  H   H241      1.0  0.04444  0.23426  0.90319  1.0000
  C   C140      1.0  0.28967  0.13916  0.51517  1.0000
  H   H242      1.0  0.04349  0.20496  0.81301  1.0000
  H   H243      1.0  0.05080  0.23824  0.81465  1.0000
  C   C141      1.0  0.05098  0.22282  0.75086  1.0000
  H   H244      1.0  0.19666  0.14210  0.55558  1.0000
  H   H245      1.0  0.18562  0.15420  0.95997  1.0000
  H   H246      1.0  0.07141  0.19727  0.80299  1.0000
  H   H247      1.0  0.31348  0.16246  0.58023  1.0000
  H   H248      1.0  0.30379  0.14334  0.77431  1.0000
  C   C142      1.0  0.29655  0.17670  0.49583  1.0000
  C   C143      1.0  0.05020  0.23640  0.92374  1.0000
  C   C144      1.0  0.19177  0.17438  0.49466  1.0000
  C   C145      1.0  0.01854  0.23595  0.85434  1.0000
  H   H249      1.0  0.30851  0.19254  0.69689  1.0000
  H   H250      1.0  0.19172  0.14171  0.52141  1.0000
  H   H251      1.0  0.23222  0.21886  0.50417  1.0000
  S   S37       1.0  0.10692  0.24173  0.92962  1.0000
  C   C146      1.0  0.31081  0.16718  0.49374  1.0000
  H   H252      1.0  0.17625  0.13311  0.97867  1.0000
  C   C147      1.0  0.31241  0.14847  0.75679  1.0000
  H   H253      1.0  0.31263  0.16070  0.71933  1.0000
  H   H254      1.0  0.19762  0.00153  0.91477  1.0000
  H   H255      1.0  0.13293  0.99642  0.98043  1.0000
  N   N12       1.0  0.30272  0.14606  0.49250  1.0000
  H   H256      1.0  0.06552  0.24033  0.92124  1.0000
  H   H257      1.0  0.04102  0.23546  0.48919  1.0000
  S   S38       1.0  0.08301  0.24187  0.86016  1.0000
  H   H258      1.0  0.03553  0.24101  0.73790  1.0000
  C   C148      1.0  0.11589  0.23969  0.48266  1.0000
  C   C149      1.0  0.24192  0.14748  0.98177  1.0000
  S   S39       1.0  0.15549  0.45935  0.15498  1.0000
  S   S40       1.0  0.15320  0.37463  0.17816  1.0000
  Fe  Fe18      1.0  0.12751  0.26032  0.08589  1.0000
  S   S41       1.0  0.15824  0.26549  0.09132  1.0000
  S   S42       1.0  0.15050  0.25843  0.15483  1.0000
  Fe  Fe19      1.0  0.15751  0.28248  0.12716  1.0000
  S   S43       1.0  0.12767  0.27885  0.12008  1.0000
  Fe  Fe20      1.0  0.06757  0.25898  0.36330  1.0000
  Fe  Fe21      1.0  0.10653  0.29153  0.37135  1.0000
  S   S44       1.0  0.12171  0.27211  0.36950  1.0000
  S   S45       1.0  0.12171  0.32266  0.38075  1.0000
  Fe  Fe22      1.0  0.10189  0.25829  0.33544  1.0000
  S   S46       1.0  0.08794  0.27899  0.33558  1.0000
  S   S47       1.0  0.08484  0.27377  0.39911  1.0000
  C   C150      1.0  0.15875  0.32569  0.37840  1.0000
  C   C151      1.0  0.14634  0.33396  0.38593  1.0000
  C   C152      1.0  0.15370  0.35202  0.39731  1.0000
  H   H259      1.0  0.15332  0.31185  0.36950  1.0000
  H   H260      1.0  0.14423  0.35853  0.40327  1.0000
  H   H261      1.0  0.08776  0.26065  0.26996  1.0000
  H   H262      1.0  0.09916  0.27001  0.45436  1.0000
  H   H263      1.0  0.08141  0.26049  0.22172  1.0000
  C   C153      1.0  0.16096  0.35724  0.16730  1.0000
  C   C154      1.0  0.14757  0.33966  0.15998  1.0000
  C   C155      1.0  0.15315  0.32537  0.15143  1.0000
  H   H264      1.0  0.13278  0.33707  0.16084  1.0000
  H   H265      1.0  0.14262  0.31196  0.14606  1.0000
  C   C156      1.0  0.14866  0.47575  0.17206  1.0000
  C   C157      1.0  0.13363  0.29908  0.23225  1.0000
  C   C158      1.0  0.12414  0.30253  0.20700  1.0000
  H   H266      1.0  0.12936  0.30606  0.24838  1.0000
  H   H267      1.0  0.12685  0.28402  0.23653  1.0000
  H   H268      1.0  0.10917  0.29963  0.21076  1.0000
  H   H269      1.0  0.13072  0.31718  0.20073  1.0000
  H   H270      1.0  0.12410  0.29289  0.19076  1.0000
  H   H271      1.0  0.14942  0.33352  0.25876  1.0000
  C   C159      1.0  0.09586  0.25621  0.25645  1.0000
  Fe  Fe23      1.0  0.09914  0.25365  0.39533  1.0000
  Fe  Fe24      1.0  0.12047  0.25390  0.14595  1.0000
  C   C160      1.0  0.09236  0.25617  0.22912  1.0000
  H   H272      1.0  0.00223  0.48278  0.23550  1.0000
  S   S48       1.0  0.11379  0.26786  0.04968  1.0000
  C   C161      1.0  0.11162  0.25982  0.01665  1.0000
  H   H273      1.0  0.14696  0.36281  0.05037  1.0000
  H   H274      1.0  0.14206  0.31978  0.08533  1.0000
  C   C162      1.0  0.14454  0.33376  0.07703  1.0000
  H   H275      1.0  0.13382  0.33831  0.08519  1.0000
  H   H276      1.0  0.13547  0.36983  0.08467  1.0000
  H   H277      1.0  0.14231  0.33166  0.05547  1.0000
  C   C163      1.0  0.15776  0.33891  0.24120  1.0000
  H   H278      1.0  0.14956  0.34386  0.22702  1.0000
  S   S49       1.0  0.03589  0.25260  0.36078  1.0000
  C   C164      1.0  0.17322  0.36176  0.40097  1.0000
  H   H279      1.0  0.13821  0.36117  0.11678  1.0000
  H   H280      1.0  0.17335  0.41946  0.27739  1.0000
  C   C165      1.0  0.16984  0.40673  0.32883  1.0000
  C   C166      1.0  0.16072  0.40307  0.35584  1.0000
  H   H281      1.0  0.16026  0.41094  0.31611  1.0000
  C   C167      1.0  0.16248  0.36959  0.05132  1.0000
  C   C168      1.0  0.14400  0.37298  0.10307  1.0000
  H   H282      1.0  0.14205  0.38529  0.11175  1.0000
  C   C169      1.0  0.16512  0.37790  0.09925  1.0000
  H   H283      1.0  0.17061  0.37549  0.11862  1.0000
  N   N13       1.0  0.17381  0.39094  0.31633  1.0000
  C   C170      1.0  0.17348  0.40580  0.27096  1.0000
  H   H284      1.0  0.14439  0.37930  0.30406  1.0000
  C   C171      1.0  0.16483  0.34710  0.08429  1.0000
  H   H285      1.0  0.16699  0.34552  0.10559  1.0000
  N   N14       1.0  0.17051  0.36754  0.07784  1.0000
  H   H286      1.0  0.16719  0.36212  0.03601  1.0000
  C   C172      1.0  0.17219  0.32855  0.14987  1.0000
  C   C173      1.0  0.15580  0.37444  0.30967  1.0000
  H   H287      1.0  0.17395  0.34103  0.07426  1.0000
  H   H288      1.0  0.16491  0.32828  0.20614  1.0000
  C   C174      1.0  0.16511  0.32526  0.22742  1.0000
  N   N15       1.0  0.15459  0.30460  0.23162  1.0000
  H   H289      1.0  0.15443  0.29825  0.18992  1.0000
  H   H290      1.0  0.18020  0.32948  0.23321  1.0000
  S   S50       1.0  0.17382  0.42792  0.20213  1.0000
  C   C175      1.0  0.15846  0.29388  0.20910  1.0000
  H   H291      1.0  0.14977  0.27864  0.21037  1.0000
  C   C176      1.0  0.16124  0.29832  0.25654  1.0000
  C   C177      1.0  0.15702  0.30583  0.28267  1.0000
  H   H292      1.0  0.17214  0.39333  0.09720  1.0000
  H   H293      1.0  0.14609  0.36550  0.34983  1.0000
  S   S51       1.0  0.17174  0.42091  0.13783  1.0000
  Fe  Fe25      1.0  0.17235  0.40491  0.17397  1.0000
  C   C178      1.0  0.14803  0.35957  0.33093  1.0000
  C   C179      1.0  0.18005  0.36043  0.16611  1.0000
  H   H294      1.0  0.17862  0.37559  0.40985  1.0000
  H   H295      1.0  0.15896  0.39579  0.26642  1.0000
  C   C180      1.0  0.18385  0.39815  0.29118  1.0000
  C   C181      1.0  0.17829  0.33548  0.38196  1.0000
  H   H296      1.0  0.15501  0.28273  0.25756  1.0000
  Fe  Fe26      1.0  0.17574  0.44507  0.16578  1.0000
  H   H297      1.0  0.18027  0.37966  0.35259  1.0000
  H   H298      1.0  0.13401  0.34929  0.32434  1.0000
  C   C182      1.0  0.18706  0.38605  0.33424  1.0000
  S   S52       1.0  0.17961  0.31116  0.13786  1.0000
  H   H299      1.0  0.17672  0.30241  0.25685  1.0000
  C   C183      1.0  0.18564  0.34613  0.15739  1.0000
  H   H300      1.0  0.15741  0.36662  0.29209  1.0000
  H   H301      1.0  0.18777  0.32901  0.37589  1.0000
  C   C184      1.0  0.18564  0.35360  0.39312  1.0000
  H   H302      1.0  0.19051  0.37380  0.17214  1.0000
  H   H303      1.0  0.18675  0.38698  0.28057  1.0000
  C   C185      1.0  0.18493  0.31977  0.45242  1.0000
  H   H304      1.0  0.15778  0.32751  0.43604  1.0000
  H   H305      1.0  0.18290  0.31916  0.43070  1.0000
  C   C186      1.0  0.10331  0.25108  0.21127  1.0000
  C   C187      1.0  0.15301  0.28756  0.42874  1.0000
  H   H306      1.0  0.14346  0.27267  0.42595  1.0000
  H   H307      1.0  0.16612  0.28929  0.41859  1.0000
  H   H308      1.0  0.15705  0.35152  0.33425  1.0000
  C   C188      1.0  0.19164  0.37598  0.07612  1.0000
  S   S53       1.0  0.09891  0.25186  0.17710  1.0000
  C   C189      1.0  0.16745  0.38986  0.04212  1.0000
  H   H309      1.0  0.16303  0.39825  0.05621  1.0000
  C   C190      1.0  0.15669  0.29201  0.45839  1.0000
  H   H310      1.0  0.14616  0.29614  0.41905  1.0000
  H   H311      1.0  0.18262  0.39708  0.03828  1.0000
  C   C191      1.0  0.04788  0.25141  0.28047  1.0000
  H   H312      1.0  0.15984  0.38955  0.02323  1.0000
  H   H313      1.0  0.16845  0.39807  0.37055  1.0000
  H   H314      1.0  0.16081  0.41650  0.36384  1.0000
  H   H315      1.0  0.18306  0.41938  0.33118  1.0000
  H   H316      1.0  0.14576  0.39348  0.35412  1.0000
  C   C192      1.0  0.10414  0.26320  0.46946  1.0000
  H   H317      1.0  0.16494  0.32110  0.28502  1.0000
  H   H318      1.0  0.09711  0.27741  0.00441  1.0000
  H   H319      1.0  0.14181  0.30198  0.28549  1.0000
  H   H320      1.0  0.99693  0.24682  0.35470  1.0000
  C   C193      1.0  0.10991  0.25052  0.26616  1.0000
  C   C194      1.0  0.10274  0.26729  0.99808  1.0000
  H   H321      1.0  0.12230  0.46748  0.15043  1.0000
  C   C195      1.0  0.10908  0.24817  0.46282  1.0000
  C   C196      1.0  0.13155  0.47723  0.16481  1.0000
  H   H322      1.0  0.05934  0.26318  0.29059  1.0000
  H   H323      1.0  0.03478  0.25371  0.28397  1.0000
  C   C197      1.0  0.15159  0.30669  0.00540  1.0000
  H   H324      1.0  0.14776  0.29741  0.02268  1.0000
  H   H325      1.0  0.00211  0.47480  0.15236  1.0000
  H   H326      1.0  0.16490  0.31848  0.01084  1.0000
  H   H327      1.0  0.00408  0.47834  0.30880  1.0000
  H   H328      1.0  0.05097  0.25239  0.25929  1.0000
  H   H329      1.0  0.18119  0.40841  0.25231  1.0000
  H   H330      1.0  0.19781  0.40941  0.29550  1.0000
  H   H331      1.0  0.05190  0.28208  0.44836  1.0000
  H   H332      1.0  0.04917  0.26724  0.47603  1.0000
  C   C198      1.0  0.15518  0.32393  0.45703  1.0000
  H   H333      1.0  0.12683  0.30946  0.43952  1.0000
  H   H334      1.0  0.06797  0.27094  0.45359  1.0000
  H   H335      1.0  0.16191  0.29923  0.29903  1.0000
  H   H336      1.0  0.16510  0.28407  0.46593  1.0000
  C   C199      1.0  0.13356  0.31486  0.45902  1.0000
  H   H337      1.0  0.98494  0.46842  0.19368  1.0000
  H   H338      1.0  0.19101  0.35013  0.45521  1.0000
  H   H339      1.0  0.16599  0.29141  0.98722  1.0000
  H   H340      1.0  0.19626  0.37031  0.05864  1.0000
  S   S54       1.0  0.11476  0.24988  0.30024  1.0000
  C   C200      1.0  0.17906  0.29597  0.20642  1.0000
  H   H341      1.0  0.18036  0.28921  0.18767  1.0000
  H   H342      1.0  0.18353  0.28866  0.22222  1.0000
  C   C201      1.0  0.05303  0.26893  0.45516  1.0000
  H   H343      1.0  0.16994  0.35168  0.24754  1.0000
  H   H344      1.0  0.19301  0.31084  0.45690  1.0000
  H   H345      1.0  0.14034  0.31203  0.00239  1.0000
  C   C202      1.0  0.19541  0.37263  0.32239  1.0000
  H   H346      1.0  0.18883  0.31080  0.20556  1.0000
  H   H347      1.0  0.12828  0.32582  0.46458  1.0000
  H   H348      1.0  0.16015  0.33758  0.46785  1.0000
  C   C203      1.0  0.11752  0.24567  0.22103  1.0000
  C   C204      1.0  0.12069  0.24526  0.24831  1.0000
  H   H349      1.0  0.18473  0.36073  0.31146  1.0000
  H   H350      1.0  0.01692  0.48947  0.46821  1.0000
  H   H351      1.0  0.19914  0.39897  0.34086  1.0000
  H   H352      1.0  0.20147  0.36685  0.33844  1.0000
  C   C205      1.0  0.19796  0.34020  0.45909  1.0000
  C   C206      1.0  0.98903  0.49108  0.98611  1.0000
  H   H353      1.0  0.00268  0.48833  0.12311  1.0000
  C   C207      1.0  0.04013  0.25251  0.43757  1.0000
  H   H354      1.0  0.02068  0.48686  0.28345  1.0000
  C   C208      1.0  0.00344  0.48862  0.14477  1.0000
  H   H355      1.0  0.04599  0.25471  0.41754  1.0000
  H   H356      1.0  0.14298  0.28536  0.46772  1.0000
  N   N16       1.0  0.16625  0.31247  0.46577  1.0000
  C   C209      1.0  0.26539  0.49030  0.36461  1.0000
  H   H357      1.0  0.19996  0.35830  0.10379  1.0000
  H   H358      1.0  0.20042  0.34869  0.15638  1.0000
  S   S55       1.0  0.20317  0.41304  0.17347  1.0000
  H   H359      1.0  0.12831  0.30375  0.47358  1.0000
  C   C210      1.0  0.12639  0.49132  0.17572  1.0000
  H   H360      1.0  0.19672  0.39133  0.07346  1.0000
  H   H361      1.0  0.20051  0.38008  0.11807  1.0000
  C   C211      1.0  0.20290  0.37326  0.10011  1.0000
  C   C212      1.0  0.01219  0.49099  0.29755  1.0000
  C   C213      1.0  0.11875  0.24667  0.00830  1.0000
  C   C214      1.0  0.16046  0.48840  0.19074  1.0000
  H   H362      1.0  0.17372  0.48757  0.19638  1.0000
  H   H363      1.0  0.20087  0.45766  0.31049  1.0000
  H   H364      1.0  0.20329  0.45436  0.26235  1.0000
  H   H365      1.0  0.02669  0.25437  0.43493  1.0000
  Fe  Fe27      1.0  0.20309  0.43061  0.13867  1.0000
  H   H366      1.0  0.20362  0.34190  0.47956  1.0000
  H   H367      1.0  0.28703  0.42918  0.98283  1.0000
  H   H368      1.0  0.19035  0.32399  0.98264  1.0000
  H   H369      1.0  0.26586  0.39754  0.17050  1.0000
  H   H370      1.0  0.30535  0.48340  0.38384  1.0000
  H   H371      1.0  0.27729  0.48343  0.03805  1.0000
  S   S56       1.0  0.24339  0.40843  0.44396  1.0000
  C   C215      1.0  0.25586  0.43613  0.15726  1.0000
  N   N17       1.0  0.28181  0.48459  0.36053  1.0000
  C   C216      1.0  0.29093  0.48306  0.38657  1.0000
  S   S57       1.0  0.29445  0.43942  0.41288  1.0000
  C   C217      1.0  0.29031  0.48845  0.99203  1.0000
  C   C218      1.0  0.30811  0.47540  0.01980  1.0000
  H   H372      1.0  0.20709  0.38023  0.30927  1.0000
  H   H373      1.0  0.30818  0.46440  0.03347  1.0000
  H   H374      1.0  0.24963  0.48133  0.32659  1.0000
  Fe  Fe28      1.0  0.20518  0.43731  0.19923  1.0000
  S   S58       1.0  0.22477  0.44589  0.98499  1.0000
  H   H375      1.0  0.20826  0.45689  0.02848  1.0000
  H   H376      1.0  0.30296  0.46957  0.45285  1.0000
  H   H377      1.0  0.25443  0.47950  0.37607  1.0000
  H   H378      1.0  0.31265  0.43409  0.18227  1.0000
  C   C219      1.0  0.29793  0.42437  0.17790  1.0000
  C   C220      1.0  0.21265  0.44250  0.06256  1.0000
  H   H379      1.0  0.23106  0.39097  0.17472  1.0000
  C   C221      1.0  0.28207  0.45471  0.98949  1.0000
  S   S59       1.0  0.24531  0.41641  0.38091  1.0000
  N   N18       1.0  0.28886  0.47151  0.00784  1.0000
  H   H380      1.0  0.29416  0.43812  0.01474  1.0000
  Fe  Fe29      1.0  0.22941  0.43476  0.38753  1.0000
  C   C222      1.0  0.25591  0.42280  0.20048  1.0000
  C   C223      1.0  0.22946  0.42571  0.02773  1.0000
  H   H381      1.0  0.24036  0.42930  0.15623  1.0000
  C   C224      1.0  0.27402  0.46539  0.34772  1.0000
  S   S60       1.0  0.20803  0.41408  0.41256  1.0000
  S   S61       1.0  0.21902  0.44857  0.35487  1.0000
  H   H382      1.0  0.21030  0.34428  0.44626  1.0000
  H   H383      1.0  0.28806  0.46316  0.06490  1.0000
  H   H384      1.0  0.26321  0.45566  0.06516  1.0000
  S   S62       1.0  0.22716  0.44072  0.23177  1.0000
  S   S63       1.0  0.22054  0.42511  0.10624  1.0000
  C   C225      1.0  0.22063  0.44510  0.32077  1.0000
  H   H385      1.0  0.26710  0.45108  0.98357  1.0000
  H   H386      1.0  0.26950  0.42678  0.00656  1.0000
  C   C226      1.0  0.27512  0.45690  0.05242  1.0000
  N   N19       1.0  0.26428  0.42497  0.17368  1.0000
  H   H387      1.0  0.25314  0.45659  0.18562  1.0000
  H   H388      1.0  0.23593  0.41918  0.01444  1.0000
  Fe  Fe30      1.0  0.22747  0.42744  0.44716  1.0000
  H   H389      1.0  0.25642  0.39548  0.21187  1.0000
  C   C227      1.0  0.23856  0.39402  0.15598  1.0000
  H   H390      1.0  0.23463  0.41198  0.06202  1.0000
  C   C228      1.0  0.25962  0.40634  0.15990  1.0000
  H   H391      1.0  0.25322  0.40926  0.23798  1.0000
  H   H392      1.0  0.26588  0.40850  0.14010  1.0000
  H   H393      1.0  0.23144  0.40021  0.14200  1.0000
  C   C229      1.0  0.22229  0.43860  0.01814  1.0000
  C   C230      1.0  0.23433  0.43563  0.28358  1.0000
  H   H394      1.0  0.26037  0.46402  0.02084  1.0000
  H   H395      1.0  0.29587  0.45511  0.36146  1.0000
  S   S64       1.0  0.21035  0.36541  0.39699  1.0000
  H   H396      1.0  0.26043  0.43683  0.13656  1.0000
  H   H397      1.0  0.27601  0.41576  0.22507  1.0000
  C   C231      1.0  0.26088  0.41000  0.21957  1.0000
  C   C232      1.0  0.22370  0.44177  0.26588  1.0000
  H   H398      1.0  0.29836  0.46328  0.32802  1.0000
  H   H399      1.0  0.20621  0.44910  0.07582  1.0000
  H   H400      1.0  0.25414  0.46327  0.15224  1.0000
  H   H401      1.0  0.28310  0.46931  0.39563  1.0000
  C   C233      1.0  0.28820  0.45606  0.34324  1.0000
  H   H402      1.0  0.28041  0.44147  0.33604  1.0000
  S   S65       1.0  0.24742  0.45024  0.42239  1.0000
  C   C234      1.0  0.28534  0.43577  0.17547  1.0000
  H   H403      1.0  0.27306  0.44255  0.04621  1.0000
  H   H404      1.0  0.24395  0.42978  0.27613  1.0000
  H   H405      1.0  0.29035  0.44434  0.15763  1.0000
  H   H406      1.0  0.28924  0.44605  0.19216  1.0000
  C   C235      1.0  0.27499  0.46948  0.02918  1.0000
  H   H407      1.0  0.23712  0.38033  0.14724  1.0000
  C   C236      1.0  0.28328  0.43637  0.99941  1.0000
  Fe  Fe31      1.0  0.22480  0.39640  0.40802  1.0000
  S   S66       1.0  0.20759  0.45599  0.16430  1.0000
  C   C237      1.0  0.21007  0.45127  0.30306  1.0000
  C   C238      1.0  0.22866  0.42164  0.05471  1.0000
  H   H408      1.0  0.29386  0.41402  0.19373  1.0000
  H   H409      1.0  0.26026  0.43659  0.21078  1.0000
  C   C239      1.0  0.21383  0.44688  0.03569  1.0000
  H   H410      1.0  0.24064  0.43199  0.32428  1.0000
  H   H411      1.0  0.21811  0.38010  0.09622  1.0000
  H   H412      1.0  0.29799  0.41708  0.15908  1.0000
  C   C240      1.0  0.26009  0.45634  0.16691  1.0000
  C   C241      1.0  0.23255  0.43696  0.31091  1.0000
  H   H413      1.0  0.26762  0.46569  0.32807  1.0000
  H   H414      1.0  0.27532  0.46490  0.16902  1.0000
  C   C242      1.0  0.21139  0.44939  0.27575  1.0000
  C   C243      1.0  0.22032  0.43006  0.07229  1.0000
  H   H415      1.0  0.26250  0.45559  0.35954  1.0000
  H   H416      1.0  0.24034  0.41749  0.19874  1.0000
  Fe  Fe32      1.0  0.26250  0.43058  0.41727  1.0000
  H   H417      1.0  0.26317  0.49125  0.99816  1.0000
  H   H418      1.0  0.31280  0.48836  0.03226  1.0000
  Fe  Fe33      1.0  0.18777  0.45211  0.67058  1.0000
  S   S67       1.0  0.21900  0.45892  0.67310  1.0000
  S   S68       1.0  0.18103  0.47847  0.66823  1.0000
  Fe  Fe34      1.0  0.17955  0.41036  0.66353  1.0000
  S   S69       1.0  0.20988  0.41479  0.66494  1.0000
  S   S70       1.0  0.15757  0.38146  0.65506  1.0000
  Fe  Fe35      1.0  0.21195  0.43401  0.69929  1.0000
  S   S71       1.0  0.22944  0.42987  0.73367  1.0000
  Fe  Fe36      1.0  0.21387  0.43904  0.63867  1.0000
  S   S72       1.0  0.23382  0.44535  0.60443  1.0000
  S   S73       1.0  0.18104  0.42834  0.69926  1.0000
  S   S74       1.0  0.18322  0.43336  0.63487  1.0000
  Fe  Fe37      1.0  0.12810  0.26239  0.58441  1.0000
  S   S75       1.0  0.15875  0.26707  0.58791  1.0000
  S   S76       1.0  0.15262  0.25967  0.65162  1.0000
  Fe  Fe38      1.0  0.15919  0.28400  0.62435  1.0000
  S   S77       1.0  0.18145  0.31253  0.63552  1.0000
  S   S78       1.0  0.12935  0.28081  0.61927  1.0000
  Fe  Fe39      1.0  0.22853  0.39946  0.91496  1.0000
  S   S79       1.0  0.21370  0.41927  0.91624  1.0000
  S   S80       1.0  0.21304  0.36816  0.90685  1.0000
  Fe  Fe40      1.0  0.26778  0.43168  0.92170  1.0000
  S   S81       1.0  0.25511  0.45332  0.92281  1.0000
  S   S82       1.0  0.29945  0.43834  0.92498  1.0000
  Fe  Fe41      1.0  0.23395  0.43355  0.94965  1.0000
  H   H419      1.0  0.16672  0.41342  0.85927  1.0000
  Fe  Fe42      1.0  0.23617  0.43682  0.88942  1.0000
  S   S83       1.0  0.22779  0.45041  0.85458  1.0000
  S   S84       1.0  0.24752  0.41254  0.95027  1.0000
  S   S85       1.0  0.25012  0.41637  0.88638  1.0000
  Fe  Fe43      1.0  0.07054  0.26366  0.86184  1.0000
  Fe  Fe44      1.0  0.10975  0.29560  0.87126  1.0000
  S   S86       1.0  0.12434  0.27561  0.87004  1.0000
  S   S87       1.0  0.12527  0.32672  0.88073  1.0000
  Fe  Fe45      1.0  0.10503  0.26240  0.83523  1.0000
  H   H420      1.0  0.17109  0.30371  0.91939  1.0000
  H   H421      1.0  0.15307  0.26677  0.95001  1.0000
  S   S88       1.0  0.09168  0.28357  0.83487  1.0000
  S   S89       1.0  0.08730  0.27800  0.89826  1.0000
  C   C244      1.0  0.18870  0.35715  0.89894  1.0000
  C   C245      1.0  0.18174  0.33916  0.88733  1.0000
  C   C246      1.0  0.16239  0.32967  0.88155  1.0000
  C   C247      1.0  0.14975  0.33805  0.88750  1.0000
  C   C248      1.0  0.15673  0.35609  0.89894  1.0000
  C   C249      1.0  0.17609  0.36561  0.90461  1.0000
  H   H422      1.0  0.19138  0.33250  0.88286  1.0000
  H   H423      1.0  0.15727  0.31588  0.87252  1.0000
  H   H424      1.0  0.14708  0.36271  0.90355  1.0000
  H   H425      1.0  0.18119  0.37939  0.91369  1.0000
  H   H426      1.0  0.11551  0.29560  0.66585  1.0000
  H   H427      1.0  0.22223  0.38315  0.54916  1.0000
  H   H428      1.0  0.12781  0.24280  0.70787  1.0000
  C   C250      1.0  0.28792  0.45297  0.85180  1.0000
  C   C251      1.0  0.99892  0.48408  0.81844  1.0000
  H   H429      1.0  0.18063  0.30814  0.50057  1.0000
  H   H430      1.0  0.15878  0.30787  0.53376  1.0000
  H   H431      1.0  0.03102  0.48857  0.55670  1.0000
  C   C252      1.0  0.22732  0.44100  0.57068  1.0000
  C   C253      1.0  0.20866  0.43548  0.56178  1.0000
  C   C254      1.0  0.20405  0.43223  0.53482  1.0000
  C   C255      1.0  0.21797  0.43424  0.51644  1.0000
  C   C256      1.0  0.23661  0.43954  0.52533  1.0000
  C   C257      1.0  0.24126  0.44303  0.55232  1.0000
  H   H432      1.0  0.19775  0.43354  0.57566  1.0000
  H   H433      1.0  0.18958  0.42807  0.52811  1.0000
  H   H434      1.0  0.24746  0.44114  0.51140  1.0000
  H   H435      1.0  0.25574  0.44724  0.55901  1.0000
  C   C258      1.0  0.22893  0.43599  0.76708  1.0000
  C   C259      1.0  0.21851  0.44620  0.77547  1.0000
  C   C260      1.0  0.21846  0.45064  0.80232  1.0000
  C   C261      1.0  0.22844  0.44455  0.82106  1.0000
  C   C262      1.0  0.23866  0.43412  0.81269  1.0000
  C   C263      1.0  0.23918  0.43017  0.78578  1.0000
  H   H436      1.0  0.21063  0.45082  0.76125  1.0000
  H   H437      1.0  0.21054  0.45875  0.80860  1.0000
  H   H438      1.0  0.24621  0.42913  0.82688  1.0000
  H   H439      1.0  0.24725  0.42223  0.77942  1.0000
  C   C264      1.0  0.16452  0.36251  0.64983  1.0000
  C   C265      1.0  0.15199  0.34636  0.63693  1.0000
  C   C266      1.0  0.15705  0.33102  0.63234  1.0000
  C   C267      1.0  0.17462  0.33156  0.64092  1.0000
  C   C268      1.0  0.18717  0.34771  0.65388  1.0000
  C   C269      1.0  0.18214  0.36311  0.65840  1.0000
  H   H440      1.0  0.13835  0.34577  0.63019  1.0000
  H   H441      1.0  0.14744  0.31898  0.62169  1.0000
  H   H442      1.0  0.20078  0.34827  0.66064  1.0000
  H   H443      1.0  0.19177  0.37528  0.66889  1.0000
  C   C270      1.0  0.15999  0.48149  0.67580  1.0000
  H   H444      1.0  0.03601  0.25141  0.94771  1.0000
  H   H445      1.0  0.16343  0.28270  0.73673  1.0000
  H   H446      1.0  0.16339  0.30888  0.76790  1.0000
  H   H447      1.0  0.27250  0.48505  0.84217  1.0000
  H   H448      1.0  0.12949  0.28529  0.94010  1.0000
  C   C271      1.0  0.19317  0.47145  0.59584  1.0000
  H   H449      1.0  0.05822  0.26898  0.79778  1.0000
  H   H450      1.0  0.23926  0.40648  0.58734  1.0000
  C   C272      1.0  0.11329  0.25444  0.76602  1.0000
  H   H451      1.0  0.28941  0.45793  0.97050  1.0000
  H   H452      1.0  0.14039  0.30483  0.92009  1.0000
  H   H453      1.0  0.11685  0.45938  0.70161  1.0000
  H   H454      1.0  0.11162  0.29815  0.69954  1.0000
  H   H455      1.0  0.13655  0.28758  0.73813  1.0000
  H   H456      1.0  0.05730  0.26165  0.76453  1.0000
  H   H457      1.0  0.27767  0.42342  0.84127  1.0000
  S   S90       1.0  0.10662  0.49108  0.69764  1.0000
  H   H458      1.0  0.12686  0.30488  0.73776  1.0000
  H   H459      1.0  0.16973  0.36531  0.84863  1.0000
  H   H460      1.0  0.01752  0.47935  0.77601  1.0000
  C   C273      1.0  0.23415  0.39776  0.60485  1.0000
  H   H461      1.0  0.14557  0.45388  0.69069  1.0000
  H   H462      1.0  0.00824  0.47617  0.82102  1.0000
  S   S91       1.0  0.11439  0.26978  0.54819  1.0000
  H   H463      1.0  0.98816  0.48582  0.69635  1.0000
  H   H464      1.0  0.22590  0.48261  0.57018  1.0000
  H   H465      1.0  0.19173  0.38668  0.61558  1.0000
  C   C274      1.0  0.14983  0.31053  0.76504  1.0000
  H   H466      1.0  0.20482  0.34837  0.55318  1.0000
  H   H467      1.0  0.14158  0.28189  0.98093  1.0000
  C   C275      1.0  0.29915  0.48682  0.86223  1.0000
  H   H468      1.0  0.29892  0.48963  0.97441  1.0000
  H   H469      1.0  0.14914  0.30468  0.67270  1.0000
  H   H470      1.0  0.16829  0.27031  0.92291  1.0000
  H   H471      1.0  0.18338  0.33089  0.56453  1.0000
  N   N20       1.0  0.20255  0.37871  0.58076  1.0000
  C   C276      1.0  0.18810  0.35900  0.57865  1.0000
  C   C277      1.0  0.19420  0.39085  0.59473  1.0000
  C   C278      1.0  0.21001  0.38666  0.55443  1.0000
  C   C279      1.0  0.10048  0.26168  0.75592  1.0000
  C   C280      1.0  0.17553  0.39094  0.58349  1.0000
  C   C281      1.0  0.19632  0.38049  0.53042  1.0000
  H   H472      1.0  0.17632  0.35788  0.56493  1.0000
  H   H473      1.0  0.20415  0.40569  0.59554  1.0000
  H   H474      1.0  0.21572  0.40218  0.55529  1.0000
  H   H475      1.0  0.22606  0.37032  0.58827  1.0000
  H   H476      1.0  0.18336  0.40506  0.87289  1.0000
  H   H477      1.0  0.20821  0.39992  0.79457  1.0000
  H   H478      1.0  0.17740  0.39823  0.56457  1.0000
  H   H479      1.0  0.17045  0.39906  0.59722  1.0000
  H   H480      1.0  0.16423  0.37682  0.58205  1.0000
  H   H481      1.0  0.19307  0.36569  0.52480  1.0000
  H   H482      1.0  0.20314  0.38909  0.51336  1.0000
  H   H483      1.0  0.18309  0.38251  0.53326  1.0000
  C   C282      1.0  0.10551  0.26931  0.49578  1.0000
  H   H484      1.0  0.14240  0.33434  0.71943  1.0000
  C   C283      1.0  0.19369  0.38924  0.79540  1.0000
  S   S92       1.0  0.21121  0.43025  0.48276  1.0000
  H   H485      1.0  0.09318  0.26735  0.76913  1.0000
  C   C284      1.0  0.17231  0.36808  0.82746  1.0000
  H   H486      1.0  0.18811  0.39419  0.75469  1.0000
  H   H487      1.0  0.28625  0.48898  0.80177  1.0000
  C   C285      1.0  0.98241  0.47543  0.83708  1.0000
  H   H488      1.0  0.19899  0.38758  0.86226  1.0000
  C   C286      1.0  0.18824  0.33191  0.96567  1.0000
  H   H489      1.0  0.10141  0.28079  0.50081  1.0000
  H   H490      1.0  0.21355  0.37130  0.61670  1.0000
  H   H491      1.0  0.16133  0.27944  0.70143  1.0000
  S   S93       1.0  0.10166  0.25407  0.67687  1.0000
  H   H492      1.0  0.14225  0.35201  0.82441  1.0000
  H   H493      1.0  0.16855  0.40257  0.81589  1.0000
  H   H494      1.0  0.17761  0.35722  0.82136  1.0000
  H   H495      1.0  0.20299  0.34033  0.58672  1.0000
  H   H496      1.0  0.17780  0.31458  0.69636  1.0000
  H   H497      1.0  0.15529  0.33561  0.69083  1.0000
  H   H498      1.0  0.99169  0.47978  0.62375  1.0000
  H   H499      1.0  0.18143  0.35467  0.59784  1.0000
  C   C287      1.0  0.17222  0.40216  0.85744  1.0000
  C   C288      1.0  0.21446  0.37754  0.83631  1.0000
  H   H500      1.0  0.14616  0.27209  0.91785  1.0000
  H   H501      1.0  0.30256  0.43392  0.84425  1.0000
  C   C289      1.0  0.12019  0.24812  0.72112  1.0000
  C   C290      1.0  0.17035  0.31453  0.49500  1.0000
  C   C291      1.0  0.15394  0.29536  0.98167  1.0000
  N   N21       1.0  0.30302  0.47191  0.84705  1.0000
  H   H502      1.0  0.01413  0.48898  0.97145  1.0000
  H   H503      1.0  0.18378  0.28905  0.71727  1.0000
  H   H504      1.0  0.19459  0.37597  0.78834  1.0000
  H   H505      1.0  0.17484  0.34388  0.74537  1.0000
  Fe  Fe46      1.0  0.12249  0.25569  0.64471  1.0000
  H   H506      1.0  0.15164  0.32528  0.76812  1.0000
  C   C292      1.0  0.19546  0.34395  0.57012  1.0000
  H   H507      1.0  0.15339  0.35706  0.79308  1.0000
  H   H508      1.0  0.16043  0.38876  0.86125  1.0000
  H   H509      1.0  0.99989  0.25067  0.85068  1.0000
  H   H510      1.0  0.16734  0.38607  0.77350  1.0000
  H   H511      1.0  0.17967  0.31714  0.73098  1.0000
  H   H512      1.0  0.18137  0.29829  0.94816  1.0000
  H   H513      1.0  0.14050  0.30232  0.78064  1.0000
  C   C293      1.0  0.30529  0.47648  0.81829  1.0000
  H   H514      1.0  0.08683  0.26670  0.72092  1.0000
  C   C294      1.0  0.21873  0.37846  0.59786  1.0000
  H   H515      1.0  0.19367  0.34699  0.97132  1.0000
  N   N22       1.0  0.20501  0.49109  0.58788  1.0000
  H   H516      1.0  0.18426  0.40994  0.77707  1.0000
  H   H517      1.0  0.21368  0.40487  0.84138  1.0000
  H   H518      1.0  0.22927  0.40552  0.61933  1.0000
  C   C295      1.0  0.17263  0.34645  0.72452  1.0000
  H   H519      1.0  0.13650  0.28554  0.69229  1.0000
  H   H520      1.0  0.31173  0.46780  0.80793  1.0000
  N   N23       1.0  0.18687  0.38738  0.82321  1.0000
  C   C296      1.0  0.11239  0.26091  0.51563  1.0000
  H   H521      1.0  0.14367  0.31325  0.51145  1.0000
  H   H522      1.0  0.18518  0.34732  0.71348  1.0000
  C   C297      1.0  0.15315  0.36283  0.81301  1.0000
  C   C298      1.0  0.13138  0.48912  0.78245  1.0000
  H   H523      1.0  0.17178  0.36044  0.72330  1.0000
  H   H524      1.0  0.22637  0.38125  0.85079  1.0000
  H   H525      1.0  0.17695  0.32953  0.50101  1.0000
  H   H526      1.0  0.09444  0.26785  0.95737  1.0000
  H   H527      1.0  0.22062  0.37965  0.81660  1.0000
  H   H528      1.0  0.20578  0.36255  0.83918  1.0000
  H   H529      1.0  0.29020  0.43813  0.81564  1.0000
  H   H530      1.0  0.19133  0.41661  0.82731  1.0000
  C   C299      1.0  0.28999  0.43637  0.83721  1.0000
  C   C300      1.0  0.17988  0.40260  0.82967  1.0000
  H   H531      1.0  0.11587  0.48439  0.78081  1.0000
  H   H532      1.0  0.28874  0.47092  0.78166  1.0000
  H   H533      1.0  0.14826  0.37447  0.81166  1.0000
  C   C301      1.0  0.18243  0.39509  0.77428  1.0000
  C   C302      1.0  0.21726  0.49091  0.56531  1.0000
  H   H534      1.0  0.11317  0.30693  0.93824  1.0000
  C   C303      1.0  0.20342  0.39012  0.84160  1.0000
  H   H535      1.0  0.12434  0.31843  0.68010  1.0000
  N   N24       1.0  0.15164  0.31129  0.71439  1.0000
  C   C304      1.0  0.14048  0.30085  0.69047  1.0000
  C   C305      1.0  0.17021  0.30897  0.71473  1.0000
  C   C306      1.0  0.15460  0.33170  0.71183  1.0000
  C   C307      1.0  0.14042  0.30294  0.73818  1.0000
  C   C308      1.0  0.12205  0.30367  0.68404  1.0000
  C   C309      1.0  0.16930  0.28881  0.71774  1.0000
  H   H536      1.0  0.20151  0.46252  0.59516  1.0000
  N   N25       1.0  0.99340  0.48419  0.78989  1.0000
  H   H537      1.0  0.16237  0.46069  0.59213  1.0000
  H   H538      1.0  0.17252  0.44632  0.57714  1.0000
  C   C310      1.0  0.20723  0.48252  0.53902  1.0000
  H   H539      1.0  0.14622  0.29077  0.50989  1.0000
  C   C311      1.0  0.11773  0.24614  0.50893  1.0000
  C   C312      1.0  0.09704  0.26145  0.72858  1.0000
  H   H540      1.0  0.24637  0.39575  0.61425  1.0000
  C   C313      1.0  0.12850  0.47045  0.69294  1.0000
  C   C314      1.0  0.14477  0.46728  0.68679  1.0000
  H   H541      1.0  0.17327  0.46670  0.56074  1.0000
  C   C315      1.0  0.12322  0.24784  0.74846  1.0000
  C   C316      1.0  0.12715  0.48776  0.68802  1.0000
  H   H542      1.0  0.00720  0.48953  0.75244  1.0000
  C   C317      1.0  0.10849  0.24889  0.96301  1.0000
  H   H543      1.0  0.00812  0.48389  0.54483  1.0000
  H   H544      1.0  0.27373  0.45244  0.84653  1.0000
  H   H545      1.0  0.19686  0.33066  0.94916  1.0000
  H   H546      1.0  0.22649  0.47790  0.62211  1.0000
  C   C318      1.0  0.17445  0.46117  0.58028  1.0000
  H   H547      1.0  0.28731  0.44992  0.87318  1.0000
  H   H548      1.0  0.13458  0.47639  0.77989  1.0000
  H   H549      1.0  0.26287  0.47650  0.97045  1.0000
  H   H550      1.0  0.30560  0.47826  0.92947  1.0000
  H   H551      1.0  0.18926  0.47144  0.61668  1.0000
  Fe  Fe47      1.0  0.10099  0.25732  0.89503  1.0000
  H   H552      1.0  0.16077  0.33222  0.97046  1.0000
  H   H553      1.0  0.13326  0.24233  0.75604  1.0000
  C   C319      1.0  0.15356  0.30602  0.51302  1.0000
  H   H554      1.0  0.98728  0.45435  0.78830  1.0000
  C   C320      1.0  0.05103  0.25713  0.78389  1.0000
  C   C321      1.0  0.15804  0.27518  0.93219  1.0000
  H   H555      1.0  0.27440  0.46453  0.80894  1.0000
  C   C322      1.0  0.16765  0.29635  0.93846  1.0000
  C   C323      1.0  0.16739  0.32542  0.95696  1.0000
  N   N26       1.0  0.15667  0.30455  0.95516  1.0000
  H   H556      1.0  0.16697  0.33184  0.93768  1.0000
  H   H557      1.0  0.11938  0.30363  0.97092  1.0000
  C   C324      1.0  0.27154  0.48916  0.98193  1.0000
  H   H558      1.0  0.98755  0.47916  0.85768  1.0000
  S   S94       1.0  0.03896  0.25710  0.85731  1.0000
  H   H559      1.0  0.13227  0.32523  0.95366  1.0000
  H   H560      1.0  0.19842  0.48981  0.53115  1.0000
  C   C325      1.0  0.01079  0.48972  0.77370  1.0000
  C   C326      1.0  0.12534  0.30981  0.95207  1.0000
  C   C327      1.0  0.04800  0.25406  0.93483  1.0000
  H   H561      1.0  0.03602  0.25511  0.78369  1.0000
  H   H562      1.0  0.26955  0.47362  0.87342  1.0000
  S   S95       1.0  0.11738  0.25317  0.80023  1.0000
  C   C328      1.0  0.10121  0.26191  0.97141  1.0000
  C   C329      1.0  0.10683  0.25461  0.71104  1.0000
  C   C330      1.0  0.28761  0.47521  0.80220  1.0000
  H   H563      1.0  0.06103  0.26322  0.94552  1.0000
  H   H564      1.0  0.04545  0.26215  0.91828  1.0000
  C   C331      1.0  0.13809  0.30053  0.94094  1.0000
  H   H565      1.0  0.98797  0.45976  0.74149  1.0000
  H   H566      1.0  0.19900  0.46731  0.54042  1.0000
  S   S96       1.0  0.98119  0.46821  0.49003  1.0000
  C   C332      1.0  0.27872  0.48568  0.86205  1.0000
  H   H567      1.0  0.21802  0.48398  0.52420  1.0000
  H   H568      1.0  0.30310  0.48661  0.88336  1.0000
  H   H569      1.0  0.06994  0.24398  0.79327  1.0000
  H   H570      1.0  0.98980  0.48619  0.90725  1.0000
  H   H571      1.0  0.01969  0.24861  0.49473  1.0000
  H   H572      1.0  0.17276  0.49152  0.61223  1.0000
  Fe  Fe48      1.0  0.14924  0.24221  0.61472  1.0000
  H   H573      1.0  0.19355  0.24214  0.59861  1.0000
  H   H574      1.0  0.05504  0.24541  0.98246  1.0000
  Fe  Fe49      1.0  0.05385  0.57049  0.45862  1.0000
  S   S97       1.0  0.07295  0.55508  0.45571  1.0000
  C   C333      1.0  0.10346  0.63835  0.31302  1.0000
  Fe  Fe50      1.0  0.08672  0.60897  0.45195  1.0000
  S   S98       1.0  0.10788  0.59554  0.44907  1.0000
  S   S99       1.0  0.09300  0.64059  0.45156  1.0000
  Fe  Fe51      1.0  0.08615  0.57429  0.42246  1.0000
  S   S100      1.0  0.09322  0.56021  0.38716  1.0000
  H   H575      1.0  0.13051  0.62915  0.37724  1.0000
  S   S101      1.0  0.10295  0.56331  0.01315  1.0000
  S   S102      1.0  0.06562  0.58851  0.42348  1.0000
  H   H576      1.0  0.02051  0.52372  0.27014  1.0000
  Fe  Fe52      1.0  0.09137  0.55497  0.17079  1.0000
  S   S103      1.0  0.08549  0.52416  0.17108  1.0000
  S   S104      1.0  0.09054  0.57234  0.13507  1.0000
  Fe  Fe53      1.0  0.09363  0.55834  0.23199  1.0000
  S   S105      1.0  0.08847  0.52798  0.23612  1.0000
  S   S106      1.0  0.09389  0.57836  0.26532  1.0000
  Fe  Fe54      1.0  0.10830  0.53184  0.20274  1.0000
  N   N27       1.0  0.04215  0.52913  0.05139  1.0000
  Fe  Fe55      1.0  0.06627  0.52325  0.20436  1.0000
  C   C334      1.0  0.04717  0.53625  0.07928  1.0000
  S   S107      1.0  0.11511  0.56296  0.20086  1.0000
  S   S108      1.0  0.07053  0.55332  0.20174  1.0000
  S   S109      1.0  0.16194  0.71592  0.42140  1.0000
  H   H577      1.0  0.04784  0.52823  0.11991  1.0000
  H   H578      1.0  0.11462  0.62175  0.33662  1.0000
  C   C335      1.0  0.13824  0.66915  0.34146  1.0000
  H   H579      1.0  0.26934  0.50328  0.37662  1.0000
  H   H580      1.0  0.99266  0.49802  0.17776  1.0000
  C   C336      1.0  0.01886  0.50902  0.21818  1.0000
  C   C337      1.0  0.15668  0.64283  0.35841  1.0000
  H   H581      1.0  0.07032  0.51502  0.31639  1.0000
  C   C338      1.0  0.16090  0.71813  0.05646  1.0000
  C   C339      1.0  0.00430  0.53191  0.21686  1.0000
  C   C340      1.0  0.01954  0.52679  0.21161  1.0000
  H   H582      1.0  0.08408  0.63465  0.38384  1.0000
  H   H583      1.0  0.00490  0.54561  0.21143  1.0000
  H   H584      1.0  0.03151  0.53643  0.20179  1.0000
  C   C341      1.0  0.11254  0.66140  0.44369  1.0000
  C   C342      1.0  0.13007  0.66128  0.43746  1.0000
  C   C343      1.0  0.14502  0.67813  0.43126  1.0000
  C   C344      1.0  0.14276  0.69537  0.43112  1.0000
  C   C345      1.0  0.12530  0.69549  0.43768  1.0000
  C   C346      1.0  0.11035  0.67865  0.44392  1.0000
  H   H585      1.0  0.13212  0.64822  0.43739  1.0000
  H   H586      1.0  0.15849  0.67784  0.42642  1.0000
  H   H587      1.0  0.12324  0.70855  0.43767  1.0000
  H   H588      1.0  0.09691  0.67900  0.44881  1.0000
  C   C347      1.0  0.09997  0.56633  0.04711  1.0000
  C   C348      1.0  0.09357  0.57984  0.05619  1.0000
  C   C349      1.0  0.09126  0.58177  0.08324  1.0000
  C   C350      1.0  0.09485  0.56993  0.10151  1.0000
  C   C351      1.0  0.10100  0.55621  0.09244  1.0000
  C   C352      1.0  0.10390  0.55468  0.06542  1.0000
  H   H589      1.0  0.09058  0.58897  0.04240  1.0000
  H   H590      1.0  0.08641  0.59237  0.09005  1.0000
  H   H591      1.0  0.10337  0.54677  0.10625  1.0000
  H   H592      1.0  0.10869  0.54408  0.05854  1.0000
  C   C353      1.0  0.09380  0.56591  0.35351  1.0000
  C   C354      1.0  0.08908  0.58060  0.34449  1.0000
  C   C355      1.0  0.08936  0.58435  0.31743  1.0000
  C   C356      1.0  0.09415  0.57334  0.29914  1.0000
  C   C357      1.0  0.09874  0.55856  0.30816  1.0000
  C   C358      1.0  0.09865  0.55495  0.33522  1.0000
  H   H593      1.0  0.08493  0.58881  0.35834  1.0000
  H   H594      1.0  0.08542  0.59554  0.31054  1.0000
  H   H595      1.0  0.10251  0.55002  0.29432  1.0000
  H   H596      1.0  0.10232  0.54355  0.34202  1.0000
  H   H597      1.0  0.14906  0.68318  0.03527  1.0000
  C   C359      1.0  0.16130  0.54108  0.09213  1.0000
  C   C360      1.0  0.15979  0.68672  0.01987  1.0000
  H   H598      1.0  0.09032  0.63441  0.32406  1.0000
  S   S110      1.0  0.03702  0.50149  0.21019  1.0000
  H   H599      1.0  0.06061  0.55210  0.02844  1.0000
  H   H600      1.0  0.29051  0.49627  0.32201  1.0000
  H   H601      1.0  0.03881  0.54420  0.08604  1.0000
  N   N28       1.0  0.12693  0.65022  0.35246  1.0000
  H   H602      1.0  0.15903  0.68143  0.37422  1.0000
  H   H603      1.0  0.10291  0.65830  0.35669  1.0000
  C   C361      1.0  0.09774  0.63349  0.38020  1.0000
  H   H604      1.0  0.16404  0.63751  0.37336  1.0000
  H   H605      1.0  0.10361  0.63067  0.39904  1.0000
  H   H606      1.0  0.09439  0.62120  0.36704  1.0000
  H   H607      1.0  0.10036  0.62859  0.29586  1.0000
  H   H608      1.0  0.15699  0.73873  0.00391  1.0000
  H   H609      1.0  0.11699  0.66164  0.38498  1.0000
  H   H610      1.0  0.12845  0.51983  0.13893  1.0000
  C   C362      1.0  0.11950  0.63644  0.32984  1.0000
  H   H611      1.0  0.06186  0.54656  0.08047  1.0000
  H   H612      1.0  0.03190  0.50065  0.33061  1.0000
  C   C363      1.0  0.29251  0.49774  0.40810  1.0000
  C   C364      1.0  0.15546  0.50271  0.20128  1.0000
  H   H613      1.0  0.14871  0.66824  0.32743  1.0000
  H   H614      1.0  0.24388  0.49770  0.34517  1.0000
  N   N29       1.0  0.03768  0.52406  0.30443  1.0000
  H   H615      1.0  0.13090  0.63766  0.31609  1.0000
  H   H616      1.0  0.15710  0.69772  0.35110  1.0000
  H   H617      1.0  0.15337  0.63307  0.34129  1.0000
  H   H618      1.0  0.15108  0.55815  0.06628  1.0000
  H   H619      1.0  0.06234  0.53313  0.28045  1.0000
  H   H620      1.0  0.01415  0.53276  0.29823  1.0000
  H   H621      1.0  0.02834  0.55659  0.26473  1.0000
  H   H622      1.0  0.13475  0.70139  0.01445  1.0000
  H   H623      1.0  0.05273  0.50694  0.05573  1.0000
  S   S111      1.0  0.13400  0.52389  0.20554  1.0000
  H   H624      1.0  0.15745  0.70472  0.06677  1.0000
  C   C365      1.0  0.05117  0.51991  0.28690  1.0000
  H   H625      1.0  0.12167  0.52671  0.10853  1.0000
  H   H626      1.0  0.02476  0.54478  0.33708  1.0000
  H   H627      1.0  0.10727  0.65260  0.30517  1.0000
  C   C366      1.0  0.02002  0.51843  0.46826  1.0000
  H   H628      1.0  0.16875  0.72935  0.07099  1.0000
  C   C367      1.0  0.17176  0.52332  0.13955  1.0000
  H   H629      1.0  0.17518  0.55304  0.09308  1.0000
  C   C368      1.0  0.13892  0.55956  0.14696  1.0000
  H   H630      1.0  0.06491  0.50723  0.01199  1.0000
  S   S112      1.0  0.02282  0.55538  0.46768  1.0000
  H   H631      1.0  0.13913  0.68844  0.37417  1.0000
  H   H632      1.0  0.12903  0.67445  0.32971  1.0000
  H   H633      1.0  0.02069  0.50136  0.05744  1.0000
  C   C369      1.0  0.11124  0.65178  0.36808  1.0000
  H   H634      1.0  0.18130  0.52503  0.15692  1.0000
  H   H635      1.0  0.01426  0.50990  0.32928  1.0000
  H   H636      1.0  0.14305  0.65225  0.38864  1.0000
  H   H637      1.0  0.18628  0.71772  0.03992  1.0000
  C   C370      1.0  0.02232  0.51490  0.04829  1.0000
  C   C371      1.0  0.25578  0.49388  0.33947  1.0000
  C   C372      1.0  0.30451  0.51846  0.35055  1.0000
  H   H638      1.0  0.98255  0.53209  0.99237  1.0000
  H   H639      1.0  0.04988  0.55312  0.26628  1.0000
  H   H640      1.0  0.00201  0.52816  0.04212  1.0000
  C   C373      1.0  0.17799  0.70953  0.98812  1.0000
  H   H641      1.0  0.27858  0.49516  0.41642  1.0000
  C   C374      1.0  0.05418  0.51331  0.01498  1.0000
  C   C375      1.0  0.05526  0.51968  0.04396  1.0000
  C   C376      1.0  0.04535  0.52139  0.10015  1.0000
  C   C377      1.0  0.98945  0.52270  0.98766  1.0000
  H   H642      1.0  0.20055  0.73712  0.99671  1.0000
  H   H643      1.0  0.98947  0.53704  0.41826  1.0000
  H   H644      1.0  0.00984  0.52900  0.07606  1.0000
  C   C378      1.0  0.03755  0.54370  0.34579  1.0000
  H   H645      1.0  0.13572  0.53369  0.06657  1.0000
  C   C379      1.0  0.02660  0.53254  0.28789  1.0000
  N   N30       1.0  0.15142  0.53965  0.11769  1.0000
  C   C380      1.0  0.15055  0.54364  0.06747  1.0000
  H   H646      1.0  0.14892  0.56220  0.16395  1.0000
  C   C381      1.0  0.16429  0.53911  0.14018  1.0000
  C   C382      1.0  0.13289  0.52312  0.11831  1.0000
  C   C383      1.0  0.14782  0.55740  0.12102  1.0000
  C   C384      1.0  0.17337  0.71962  0.03269  1.0000
  H   H647      1.0  0.99410  0.50776  0.06231  1.0000
  H   H648      1.0  0.14786  0.72022  0.05091  1.0000
  C   C385      1.0  0.02430  0.50661  0.31684  1.0000
  H   H649      1.0  0.03357  0.53409  0.36267  1.0000
  H   H650      1.0  0.13489  0.57188  0.14569  1.0000
  C   C386      1.0  0.99100  0.52710  0.40355  1.0000
  H   H651      1.0  0.17678  0.55255  0.14173  1.0000
  H   H652      1.0  0.15715  0.53764  0.15922  1.0000
  C   C387      1.0  0.14618  0.70751  0.00026  1.0000
  H   H653      1.0  0.16472  0.52869  0.08818  1.0000
  H   H654      1.0  0.05985  0.54986  0.31793  1.0000
  N   N31       1.0  0.16430  0.70631  0.01005  1.0000
  C   C388      1.0  0.15205  0.67077  0.99909  1.0000
  H   H655      1.0  0.01884  0.51095  0.02729  1.0000
  C   C389      1.0  0.98819  0.51928  0.22852  1.0000
  H   H656      1.0  0.15734  0.54117  0.04964  1.0000
  H   H657      1.0  0.05745  0.52512  0.00129  1.0000
  C   C390      1.0  0.01175  0.53116  0.47431  1.0000
  C   C391      1.0  0.01045  0.49921  0.47309  1.0000
  C   C392      1.0  0.13179  0.50474  0.10478  1.0000
  C   C393      1.0  0.29609  0.49757  0.34262  1.0000
  H   H658      1.0  0.29435  0.52344  0.35954  1.0000
  H   H659      1.0  0.04244  0.56290  0.29422  1.0000
  C   C394      1.0  0.13880  0.64354  0.37040  1.0000
  H   H660      1.0  0.14974  0.65725  0.00868  1.0000
  H   H661      1.0  0.16669  0.65686  0.35284  1.0000
  C   C395      1.0  0.14884  0.68479  0.36169  1.0000
  H   H662      1.0  0.05698  0.53093  0.33803  1.0000
  H   H663      1.0  0.04088  0.57096  0.02622  1.0000
  C   C396      1.0  0.04546  0.54534  0.03314  1.0000
  C   C397      1.0  0.03998  0.56144  0.04280  1.0000
  H   H664      1.0  0.02549  0.55665  0.04977  1.0000
  H   H665      1.0  0.16108  0.56998  0.11928  1.0000
  H   H666      1.0  0.13817  0.55859  0.10523  1.0000
  H   H667      1.0  0.04038  0.50225  0.00955  1.0000
  H   H668      1.0  0.03804  0.54038  0.01394  1.0000
  H   H669      1.0  0.04997  0.56994  0.05840  1.0000
  C   C398      1.0  0.14666  0.72691  0.99259  1.0000
  H   H670      1.0  0.03116  0.51015  0.09981  1.0000
  C   C399      1.0  0.00640  0.52060  0.05769  1.0000
  H   H671      1.0  0.05167  0.49382  0.30387  1.0000
  C   C400      1.0  0.98913  0.49568  0.15649  1.0000
  H   H672      1.0  0.16032  0.50946  0.14153  1.0000
  S   S113      1.0  0.07167  0.59083  0.98750  1.0000
  C   C401      1.0  0.03768  0.55242  0.27794  1.0000
  H   H673      1.0  0.17249  0.68555  0.02932  1.0000
  C   C402      1.0  0.04884  0.53731  0.32599  1.0000
  H   H674      1.0  0.00633  0.53137  0.40087  1.0000
  C   C403      1.0  0.13851  0.50438  0.19367  1.0000
  Fe  Fe56      1.0  0.09256  0.57752  0.48252  1.0000
  H   H675      1.0  0.04636  0.55799  0.35327  1.0000
  H   H676      1.0  0.12594  0.54729  0.15082  1.0000
  H   H677      1.0  0.18010  0.52363  0.12206  1.0000
  H   H678      1.0  0.03367  0.52334  0.45953  1.0000
  H   H679      1.0  0.05619  0.51536  0.09812  1.0000
  C   C404      1.0  0.98764  0.50163  0.23545  1.0000
  H   H680      1.0  0.07011  0.52910  0.04827  1.0000
  H   H681      1.0  0.16494  0.51273  0.21517  1.0000
  H   H682      1.0  0.14518  0.50280  0.10346  1.0000
  H   H683      1.0  0.99229  0.50982  0.14837  1.0000
  H   H684      1.0  0.30833  0.49341  0.34106  1.0000
  H   H685      1.0  0.13283  0.72759  0.99649  1.0000
  H   H686      1.0  0.18838  0.70311  0.99279  1.0000
  H   H687      1.0  0.13822  0.66956  0.99069  1.0000
  H   H688      1.0  0.17845  0.73439  0.02670  1.0000
  H   H689      1.0  0.12501  0.50313  0.08495  1.0000
  C   C405      1.0  0.06145  0.50809  0.29897  1.0000
  H   H690      1.0  0.04403  0.51272  0.26835  1.0000
  H   H691      1.0  0.26545  0.50569  0.32818  1.0000
  H   H692      1.0  0.16197  0.67219  0.98311  1.0000
  C   C406      1.0  0.98284  0.50688  0.41359  1.0000
  H   H693      1.0  0.07106  0.50634  0.28425  1.0000
  H   H694      1.0  0.30160  0.49639  0.42452  1.0000
  H   H695      1.0  0.29768  0.50159  0.00369  1.0000
  H   H696      1.0  0.00178  0.49512  0.28672  1.0000
  C   C407      1.0  0.00288  0.49653  0.23026  1.0000
  H   H697      1.0  0.98957  0.49891  0.40254  1.0000
  H   H698      1.0  0.30903  0.52695  0.33265  1.0000
  H   H699      1.0  0.29891  0.51227  0.40131  1.0000
  H   H700      1.0  0.98827  0.50729  0.43398  1.0000
  H   H701      1.0  0.98449  0.52854  0.38453  1.0000
  H   H702      1.0  0.01780  0.49852  0.15073  1.0000
  H   H703      1.0  0.12233  0.49273  0.11603  1.0000
  H   H704      1.0  0.11324  0.49230  0.16983  1.0000
  Fe  Fe57      1.0  0.04971  0.56876  0.96222  1.0000
  S   S114      1.0  0.06692  0.55168  0.95640  1.0000
  H   H705      1.0  0.27843  0.49840  0.87192  1.0000
  Fe  Fe58      1.0  0.08370  0.60575  0.94995  1.0000
  S   S115      1.0  0.10272  0.59003  0.94365  1.0000
  S   S116      1.0  0.09020  0.63717  0.94338  1.0000
  Fe  Fe59      1.0  0.07805  0.56899  0.92072  1.0000
  S   S117      1.0  0.07321  0.55221  0.88215  1.0000
  H   H706      1.0  0.24425  0.49669  0.60523  1.0000
  S   S118      1.0  0.10642  0.56769  0.51600  1.0000
  S   S119      1.0  0.05962  0.58524  0.92559  1.0000
  H   H707      1.0  0.06339  0.55327  0.53074  1.0000
  Fe  Fe60      1.0  0.09032  0.54859  0.67034  1.0000
  S   S120      1.0  0.07550  0.51741  0.66551  1.0000
  S   S121      1.0  0.09225  0.56979  0.63842  1.0000
  Fe  Fe61      1.0  0.09364  0.54638  0.73061  1.0000
  S   S122      1.0  0.07863  0.51521  0.72970  1.0000
  S   S123      1.0  0.10731  0.56351  0.76763  1.0000
  Fe  Fe62      1.0  0.09665  0.51534  0.69545  1.0000
  H   H708      1.0  0.99306  0.55206  0.91194  1.0000
  Fe  Fe63      1.0  0.05897  0.51977  0.70004  1.0000
  H   H709      1.0  0.09722  0.63339  0.50839  1.0000
  S   S124      1.0  0.11293  0.54653  0.69784  1.0000
  S   S125      1.0  0.07244  0.55098  0.70349  1.0000
  S   S126      1.0  0.15940  0.71474  0.92206  1.0000
  H   H710      1.0  0.15174  0.65940  0.55398  1.0000
  C   C408      1.0  0.05676  0.51089  0.51155  1.0000
  H   H711      1.0  0.10221  0.67102  0.86232  1.0000
  H   H712      1.0  0.16964  0.54188  0.71026  1.0000
  H   H713      1.0  0.12635  0.61110  0.89841  1.0000
  C   C409      1.0  0.01133  0.51125  0.70743  1.0000
  H   H714      1.0  0.11399  0.50868  0.80517  1.0000
  S   S127      1.0  0.02793  0.50187  0.69895  1.0000
  H   H715      1.0  0.09645  0.51570  0.79078  1.0000
  C   C410      1.0  0.00270  0.53576  0.72590  1.0000
  C   C411      1.0  0.01657  0.52936  0.71782  1.0000
  H   H716      1.0  0.06287  0.59196  0.83494  1.0000
  H   H717      1.0  0.00679  0.54958  0.73462  1.0000
  H   H718      1.0  0.03127  0.53827  0.72024  1.0000
  C   C412      1.0  0.10981  0.65859  0.93800  1.0000
  C   C413      1.0  0.12807  0.65934  0.93482  1.0000
  C   C414      1.0  0.14290  0.67655  0.92962  1.0000
  C   C415      1.0  0.13983  0.69334  0.92767  1.0000
  C   C416      1.0  0.12159  0.69259  0.93096  1.0000
  C   C417      1.0  0.10674  0.67536  0.93597  1.0000
  H   H719      1.0  0.20961  0.50053  0.62869  1.0000
  C   C418      1.0  0.14297  0.61610  0.50231  1.0000
  H   H720      1.0  0.11889  0.70527  0.92958  1.0000
  H   H721      1.0  0.09270  0.67502  0.93825  1.0000
  C   C419      1.0  0.10194  0.56815  0.54988  1.0000
  C   C420      1.0  0.09398  0.58010  0.56024  1.0000
  C   C421      1.0  0.09139  0.58060  0.58745  1.0000
  C   C422      1.0  0.09603  0.56867  0.60444  1.0000
  C   C423      1.0  0.10365  0.55647  0.59400  1.0000
  C   C424      1.0  0.10685  0.55644  0.56691  1.0000
  H   H722      1.0  0.09003  0.58907  0.54735  1.0000
  H   H723      1.0  0.08549  0.59008  0.59540  1.0000
  H   H724      1.0  0.10741  0.54733  0.60689  1.0000
  H   H725      1.0  0.11310  0.54722  0.55908  1.0000
  C   C425      1.0  0.08296  0.55606  0.85045  1.0000
  C   C426      1.0  0.10101  0.56917  0.84596  1.0000
  C   C427      1.0  0.10818  0.57138  0.82046  1.0000
  C   C428      1.0  0.09749  0.56039  0.79924  1.0000
  C   C429      1.0  0.07953  0.54714  0.80376  1.0000
  C   C430      1.0  0.07235  0.54499  0.82923  1.0000
  H   H726      1.0  0.10963  0.57721  0.86222  1.0000
  H   H727      1.0  0.12219  0.58148  0.81720  1.0000
  H   H728      1.0  0.07120  0.53855  0.78764  1.0000
  H   H729      1.0  0.05848  0.53465  0.83256  1.0000
  N   N32       1.0  0.13178  0.63845  0.52815  1.0000
  C   C431      1.0  0.11573  0.63834  0.54454  1.0000
  H   H730      1.0  0.03730  0.53663  0.58416  1.0000
  H   H731      1.0  0.14564  0.54560  0.73643  1.0000
  H   H732      1.0  0.11914  0.65209  0.55469  1.0000
  C   C432      1.0  0.09648  0.63290  0.52999  1.0000
  H   H733      1.0  0.06137  0.54800  0.57721  1.0000
  C   C433      1.0  0.11953  0.51987  0.76464  1.0000
  H   H734      1.0  0.00740  0.49837  0.82605  1.0000
  H   H735      1.0  0.17132  0.51088  0.59475  1.0000
  C   C434      1.0  0.04830  0.54375  0.53078  1.0000
  H   H736      1.0  0.04082  0.56226  0.55771  1.0000
  H   H737      1.0  0.99159  0.50598  0.92679  1.0000
  H   H738      1.0  0.13938  0.63075  0.58212  1.0000
  C   C435      1.0  0.02541  0.51361  0.54432  1.0000
  H   H739      1.0  0.15624  0.61962  0.51390  1.0000
  H   H740      1.0  0.14228  0.55626  0.77720  1.0000
  H   H741      1.0  0.13681  0.52366  0.72039  1.0000
  C   C436      1.0  0.06164  0.59551  0.85573  1.0000
  H   H742      1.0  0.02117  0.51144  0.52323  1.0000
  C   C437      1.0  0.18125  0.50492  0.60300  1.0000
  H   H743      1.0  0.10771  0.64639  0.88673  1.0000
  H   H744      1.0  0.09592  0.62063  0.79105  1.0000
  H   H745      1.0  0.98371  0.51166  0.82211  1.0000
  C   C438      1.0  0.12282  0.61822  0.88149  1.0000
  H   H746      1.0  0.06721  0.62421  0.84961  1.0000
  H   H747      1.0  0.09816  0.64117  0.80921  1.0000
  H   H748      1.0  0.06710  0.50433  0.50842  1.0000
  H   H749      1.0  0.11963  0.66941  0.51518  1.0000
  H   H750      1.0  0.16416  0.63983  0.57874  1.0000
  H   H751      1.0  0.04053  0.56751  0.52380  1.0000
  H   H752      1.0  0.18989  0.51490  0.61844  1.0000
  H   H753      1.0  0.07631  0.62072  0.80874  1.0000
  H   H754      1.0  0.30802  0.50100  0.85527  1.0000
  C   C439      1.0  0.03707  0.55582  0.53782  1.0000
  C   C440      1.0  0.15407  0.55367  0.78684  1.0000
  H   H755      1.0  0.06998  0.61910  0.88289  1.0000
  H   H756      1.0  0.16213  0.64818  0.53296  1.0000
  H   H757      1.0  0.04445  0.53931  0.50997  1.0000
  H   H758      1.0  0.00569  0.50420  0.64917  1.0000
  H   H759      1.0  0.08688  0.65435  0.83917  1.0000
  N   N33       1.0  0.13977  0.52193  0.76248  1.0000
  C   C441      1.0  0.09270  0.65610  0.85949  1.0000
  H   H760      1.0  0.12406  0.64440  0.48890  1.0000
  H   H761      1.0  0.19769  0.72993  0.96311  1.0000
  C   C442      1.0  0.98827  0.51477  0.80165  1.0000
  C   C443      1.0  0.98145  0.49287  0.91767  1.0000
  H   H762      1.0  0.09698  0.61525  0.89992  1.0000
  H   H763      1.0  0.14148  0.51531  0.67285  1.0000
  H   H764      1.0  0.13075  0.63344  0.88471  1.0000
  H   H765      1.0  0.00340  0.52354  0.80183  1.0000
  H   H766      1.0  0.05950  0.50755  0.55277  1.0000
  H   H767      1.0  0.07400  0.52969  0.54175  1.0000
  C   C444      1.0  0.04948  0.53417  0.57616  1.0000
  H   H768      1.0  0.01565  0.51966  0.55234  1.0000
  C   C445      1.0  0.13455  0.65114  0.50492  1.0000
  H   H769      1.0  0.27452  0.50125  0.96871  1.0000
  C   C446      1.0  0.14955  0.64556  0.54499  1.0000
  H   H770      1.0  0.04657  0.59261  0.85871  1.0000
  H   H771      1.0  0.15691  0.67687  0.92712  1.0000
  H   H772      1.0  0.17728  0.54268  0.74370  1.0000
  H   H773      1.0  0.15581  0.50424  0.76099  1.0000
  C   C447      1.0  0.05481  0.52201  0.59611  1.0000
  H   H774      1.0  0.16786  0.52065  0.72526  1.0000
  C   C448      1.0  0.13401  0.67051  0.51066  1.0000
  S   S128      1.0  0.01883  0.55447  0.97288  1.0000
  N   N34       1.0  0.09426  0.62286  0.85970  1.0000
  S   S129      1.0  0.07282  0.59219  0.48727  1.0000
  C   C449      1.0  0.09928  0.61804  0.83300  1.0000
  C   C450      1.0  0.10385  0.64368  0.86551  1.0000
  C   C451      1.0  0.16650  0.53420  0.72903  1.0000
  H   H775      1.0  0.02171  0.54786  0.53568  1.0000
  H   H776      1.0  0.09434  0.60260  0.83024  1.0000
  C   C452      1.0  0.10133  0.61282  0.87999  1.0000
  H   H777      1.0  0.15021  0.61918  0.56080  1.0000
  C   C453      1.0  0.14644  0.53155  0.73680  1.0000
  C   C454      1.0  0.15211  0.53306  0.78495  1.0000
  H   H778      1.0  0.16647  0.53305  0.78347  1.0000
  H   H779      1.0  0.14829  0.65378  0.49582  1.0000
  C   C455      1.0  0.12745  0.61882  0.51830  1.0000
  H   H780      1.0  0.12788  0.61340  0.86379  1.0000
  H   H781      1.0  0.06520  0.58585  0.86860  1.0000
  H   H782      1.0  0.11477  0.62339  0.83101  1.0000
  C   C456      1.0  0.14231  0.50194  0.67682  1.0000
  H   H783      1.0  0.05546  0.52808  0.61612  1.0000
  C   C457      1.0  0.09183  0.62571  0.80943  1.0000
  H   H784      1.0  0.17038  0.50995  0.66248  1.0000
  H   H785      1.0  0.04457  0.50741  0.59641  1.0000
  C   C458      1.0  0.11183  0.51922  0.79249  1.0000
  H   H786      1.0  0.03024  0.52294  0.96368  1.0000
  H   H787      1.0  0.13076  0.64665  0.93620  1.0000
  H   H788      1.0  0.11743  0.64976  0.85530  1.0000
  H   H789      1.0  0.09506  0.59746  0.87672  1.0000
  N   N35       1.0  0.04550  0.52713  0.54805  1.0000
  H   H790      1.0  0.08975  0.64266  0.53581  1.0000
  H   H791      1.0  0.01026  0.51586  0.61762  1.0000
  H   H792      1.0  0.16759  0.56305  0.77864  1.0000
  H   H793      1.0  0.18397  0.49657  0.56371  1.0000
  H   H794      1.0  0.14397  0.67816  0.52674  1.0000
  H   H795      1.0  0.08698  0.61854  0.53522  1.0000
  H   H796      1.0  0.06905  0.52224  0.59262  1.0000
  H   H797      1.0  0.12408  0.60880  0.53473  1.0000
  C   C459      1.0  0.07327  0.61633  0.86246  1.0000
  H   H798      1.0  0.11338  0.62829  0.56085  1.0000
  H   H799      1.0  0.08120  0.65342  0.87355  1.0000
  H   H800      1.0  0.11004  0.50723  0.75344  1.0000
  C   C460      1.0  0.02613  0.50924  0.77907  1.0000
  H   H801      1.0  0.99441  0.53257  0.89493  1.0000
  Fe  Fe64      1.0  0.08937  0.57415  0.98010  1.0000
  C   C461      1.0  0.21784  0.50100  0.61085  1.0000
  H   H802      1.0  0.01632  0.52882  0.64775  1.0000
  H   H803      1.0  0.14713  0.52640  0.80403  1.0000
  C   C462      1.0  0.00558  0.51632  0.63786  1.0000
  C   C463      1.0  0.15057  0.63291  0.56780  1.0000
  C   C464      1.0  0.98432  0.50522  0.49020  1.0000
  H   H804      1.0  0.17057  0.70244  0.96971  1.0000
  H   H805      1.0  0.13812  0.67917  0.49282  1.0000
  C   C465      1.0  0.98449  0.53900  0.90092  1.0000
  H   H806      1.0  0.22550  0.51612  0.60674  1.0000
  H   H807      1.0  0.03090  0.51179  0.79990  1.0000
  H   H808      1.0  0.15451  0.55786  0.80781  1.0000
  H   H809      1.0  0.11796  0.53310  0.80251  1.0000
  H   H810      1.0  0.20283  0.51671  0.57471  1.0000
  H   H811      1.0  0.02163  0.52035  0.77174  1.0000
  H   H812      1.0  0.03863  0.51050  0.76759  1.0000
  H   H813      1.0  0.11709  0.53164  0.75503  1.0000
  H   H814      1.0  0.05959  0.52194  0.49667  1.0000
  H   H815      1.0  0.11453  0.61384  0.50550  1.0000
  H   H816      1.0  0.98732  0.53413  0.49001  1.0000
  H   H817      1.0  0.18132  0.73826  0.97658  1.0000
  H   H818      1.0  0.98625  0.50001  0.59157  1.0000
  H   H819      1.0  0.98403  0.50102  0.76392  1.0000
  C   C466      1.0  0.98637  0.51804  0.63900  1.0000
  H   H820      1.0  0.22737  0.50538  0.56144  1.0000
  C   C467      1.0  0.01639  0.51766  0.97171  1.0000
  H   H821      1.0  0.14923  0.72922  0.97132  1.0000
  C   C468      1.0  0.05944  0.51893  0.53980  1.0000
  C   C469      1.0  0.19350  0.50245  0.58089  1.0000
  C   C470      1.0  0.14093  0.50293  0.76074  1.0000
  C   C471      1.0  0.99227  0.49984  0.70439  1.0000
  C   C472      1.0  0.00718  0.49836  0.97607  1.0000
  C   C473      1.0  0.18985  0.72996  0.98111  1.0000
  C   C474      1.0  0.99387  0.52443  0.48532  1.0000
  C   C475      1.0  0.98361  0.52412  0.72340  1.0000
  H   H822      1.0  0.13828  0.60111  0.49644  1.0000
  H   H823      1.0  0.04261  0.49985  0.50798  1.0000
  C   C476      1.0  0.15867  0.49883  0.67089  1.0000
  C   C477      1.0  0.00762  0.52998  0.97761  1.0000
  H   H824      1.0  0.98828  0.53224  0.63197  1.0000
  C   C478      1.0  0.23272  0.49319  0.61936  1.0000
  H   H825      1.0  0.13460  0.49579  0.74178  1.0000
  C   C479      1.0  0.01985  0.49419  0.55675  1.0000
  H   H826      1.0  0.01507  0.49432  0.57708  1.0000
  C   C480      1.0  0.98280  0.49675  0.78472  1.0000
  H   H827      1.0  0.98354  0.51817  0.66022  1.0000
  H   H828      1.0  0.13665  0.49492  0.80232  1.0000
  H   H829      1.0  0.23922  0.49964  0.63854  1.0000
  H   H830      1.0  0.14559  0.62420  0.48396  1.0000
  C   C481      1.0  0.99254  0.49248  0.48402  1.0000
  H   H831      1.0  0.14073  0.69852  0.98246  1.0000
  Fe  Fe65      1.0  0.22875  0.80449  0.13679  1.0000
  S   S130      1.0  0.24604  0.83515  0.13290  1.0000
  S   S131      1.0  0.21587  0.78273  0.10389  1.0000
  Fe  Fe66      1.0  0.22645  0.80816  0.19770  1.0000
  S   S132      1.0  0.24334  0.83919  0.19749  1.0000
  S   S133      1.0  0.21033  0.79051  0.23182  1.0000
  Fe  Fe67      1.0  0.22566  0.83897  0.16125  1.0000
  S   S134      1.0  0.21111  0.85909  0.15319  1.0000
  Fe  Fe68      1.0  0.26234  0.83253  0.16927  1.0000
  S   S135      1.0  0.29441  0.84009  0.17349  1.0000
  S   S136      1.0  0.20788  0.80860  0.16328  1.0000
  S   S137      1.0  0.24599  0.80121  0.17132  1.0000
  Fe  Fe69      1.0  0.10909  0.84881  0.11606  1.0000
  S   S138      1.0  0.12679  0.87922  0.11474  1.0000
  S   S139      1.0  0.12336  0.82868  0.12540  1.0000
  Fe  Fe70      1.0  0.07269  0.85504  0.10438  1.0000
  S   S140      1.0  0.08898  0.88644  0.10244  1.0000
  S   S141      1.0  0.04067  0.84624  0.09744  1.0000
  Fe  Fe71      1.0  0.10971  0.87951  0.07837  1.0000
  S   S142      1.0  0.12838  0.89413  0.04416  1.0000
  Fe  Fe72      1.0  0.10466  0.88316  0.13893  1.0000
  S   S143      1.0  0.11547  0.90450  0.17297  1.0000
  S   S144      1.0  0.09289  0.84846  0.07842  1.0000
  S   S145      1.0  0.08745  0.85243  0.14225  1.0000
  Fe  Fe73      1.0  0.20036  0.78023  0.38892  1.0000
  S   S146      1.0  0.16917  0.76450  0.38421  1.0000
  S   S147      1.0  0.22165  0.79271  0.35666  1.0000
  Fe  Fe74      1.0  0.19791  0.78373  0.44993  1.0000
  S   S148      1.0  0.16649  0.76834  0.44860  1.0000
  C   C482      1.0  0.15187  0.85746  0.20014  1.0000
  H   H832      1.0  0.18834  0.87574  0.12644  1.0000
  Fe  Fe75      1.0  0.16700  0.78588  0.41306  1.0000
  S   S149      1.0  0.14863  0.80269  0.40578  1.0000
  S   S150      1.0  0.20341  0.76319  0.42323  1.0000
  S   S151      1.0  0.19781  0.80203  0.41592  1.0000
  Fe  Fe76      1.0  0.13827  0.90906  0.33034  1.0000
  S   S152      1.0  0.16977  0.92357  0.33293  1.0000
  S   S153      1.0  0.12023  0.89092  0.29632  1.0000
  Fe  Fe77      1.0  0.13472  0.91489  0.39050  1.0000
  S   S154      1.0  0.16580  0.92992  0.39652  1.0000
  S   S155      1.0  0.11264  0.90703  0.42214  1.0000
  Fe  Fe78      1.0  0.16496  0.94521  0.35897  1.0000
  S   S156      1.0  0.17422  0.97736  0.35584  1.0000
  Fe  Fe79      1.0  0.16761  0.90710  0.37016  1.0000
  S   S157      1.0  0.18484  0.89008  0.38212  1.0000
  S   S158      1.0  0.13326  0.93108  0.35451  1.0000
  S   S159      1.0  0.13669  0.89165  0.36608  1.0000
  H   H833      1.0  0.15122  0.78930  0.08118  1.0000
  C   C483      1.0  0.17430  0.86591  0.38925  1.0000
  C   C484      1.0  0.15583  0.85488  0.38123  1.0000
  C   C485      1.0  0.14811  0.83564  0.38670  1.0000
  C   C486      1.0  0.15878  0.82710  0.40001  1.0000
  C   C487      1.0  0.17720  0.83814  0.40823  1.0000
  C   C488      1.0  0.18493  0.85738  0.40274  1.0000
  H   H834      1.0  0.14757  0.86103  0.37031  1.0000
  H   H835      1.0  0.13389  0.82724  0.38014  1.0000
  H   H836      1.0  0.18550  0.83195  0.41903  1.0000
  H   H837      1.0  0.19921  0.86573  0.40915  1.0000
  C   C489      1.0  0.02045  0.82494  0.09481  1.0000
  C   C490      1.0  0.00269  0.82579  0.09020  1.0000
  H   H838      1.0  0.11984  0.82262  0.47359  1.0000
  H   H839      1.0  0.17647  0.88811  0.44436  1.0000
  C   C491      1.0  0.00492  0.79096  0.09560  1.0000
  C   C492      1.0  0.02144  0.80736  0.09747  1.0000
  H   H840      1.0  0.00174  0.83931  0.08822  1.0000
  H   H841      1.0  0.14675  0.91710  0.45521  1.0000
  H   H842      1.0  0.00592  0.77747  0.09782  1.0000
  H   H843      1.0  0.03492  0.80641  0.10105  1.0000
  C   C493      1.0  0.12353  0.89845  0.01111  1.0000
  H   H844      1.0  0.12249  0.84556  0.42126  1.0000
  H   H845      1.0  0.11285  0.86298  0.42608  1.0000
  C   C494      1.0  0.11673  0.90293  0.45560  1.0000
  H   H846      1.0  0.03058  0.86266  0.32151  1.0000
  C   C495      1.0  0.10531  0.89476  0.00144  1.0000
  H   H847      1.0  0.15271  0.90842  0.00113  1.0000
  H   H848      1.0  0.21636  0.84290  0.06445  1.0000
  H   H849      1.0  0.05238  0.87722  0.30860  1.0000
  H   H850      1.0  0.09363  0.88937  0.01445  1.0000
  C   C496      1.0  0.11649  0.90040  0.20721  1.0000
  C   C497      1.0  0.10659  0.88292  0.21806  1.0000
  C   C498      1.0  0.10781  0.88037  0.24536  1.0000
  C   C499      1.0  0.11912  0.89514  0.26213  1.0000
  C   C500      1.0  0.12914  0.91256  0.25126  1.0000
  C   C501      1.0  0.12771  0.91518  0.22401  1.0000
  H   H851      1.0  0.09789  0.87143  0.20543  1.0000
  H   H852      1.0  0.10003  0.86680  0.25346  1.0000
  H   H853      1.0  0.13786  0.92408  0.26383  1.0000
  H   H854      1.0  0.13538  0.92877  0.21586  1.0000
  C   C502      1.0  0.21344  0.79442  0.01564  1.0000
  C   C503      1.0  0.20189  0.77724  0.02581  1.0000
  C   C504      1.0  0.20295  0.77383  0.05284  1.0000
  C   C505      1.0  0.21525  0.78765  0.07003  1.0000
  C   C506      1.0  0.22660  0.80491  0.05989  1.0000
  C   C507      1.0  0.22578  0.80819  0.03281  1.0000
  H   H855      1.0  0.19228  0.76666  0.01277  1.0000
  H   H856      1.0  0.19413  0.76050  0.06063  1.0000
  H   H857      1.0  0.23618  0.81563  0.07284  1.0000
  H   H858      1.0  0.23480  0.82151  0.02511  1.0000
  C   C508      1.0  0.21376  0.79129  0.26650  1.0000
  C   C509      1.0  0.22956  0.80458  0.27912  1.0000
  C   C510      1.0  0.23199  0.80441  0.30659  1.0000
  C   C511      1.0  0.21820  0.79151  0.32200  1.0000
  C   C512      1.0  0.20215  0.77845  0.30948  1.0000
  C   C513      1.0  0.20007  0.77822  0.28185  1.0000
  H   H859      1.0  0.23981  0.81501  0.26770  1.0000
  H   H860      1.0  0.24441  0.81462  0.31611  1.0000
  H   H861      1.0  0.19146  0.76839  0.32103  1.0000
  H   H862      1.0  0.18774  0.76789  0.27232  1.0000
  C   C514      1.0  0.18687  0.85009  0.14428  1.0000
  C   C515      1.0  0.17492  0.83189  0.15046  1.0000
  C   C516      1.0  0.15560  0.82540  0.14405  1.0000
  C   C517      1.0  0.14791  0.83710  0.13177  1.0000
  C   C518      1.0  0.15991  0.85519  0.12513  1.0000
  C   C519      1.0  0.17924  0.86167  0.13149  1.0000
  H   H863      1.0  0.18036  0.82292  0.16088  1.0000
  H   H864      1.0  0.14650  0.81137  0.14924  1.0000
  H   H865      1.0  0.15437  0.86419  0.11493  1.0000
  H   H866      1.0  0.14464  0.95259  0.47696  1.0000
  H   H867      1.0  0.16716  0.79410  0.04200  1.0000
  H   H868      1.0  0.98324  0.78710  0.02767  1.0000
  H   H869      1.0  0.16658  0.90161  0.22920  1.0000
  H   H870      1.0  0.12760  0.87117  0.47010  1.0000
  H   H871      1.0  0.15912  0.91233  0.15901  1.0000
  C   C520      1.0  0.98720  0.79183  0.09103  1.0000
  N   N36       1.0  0.19366  0.83137  0.32529  1.0000
  C   C521      1.0  0.21400  0.83924  0.33450  1.0000
  C   C522      1.0  0.19275  0.82417  0.29750  1.0000
  C   C523      1.0  0.18305  0.81543  0.34312  1.0000
  C   C524      1.0  0.18648  0.84690  0.32702  1.0000
  C   C525      1.0  0.21785  0.84591  0.36349  1.0000
  C   C526      1.0  0.20432  0.83835  0.27723  1.0000
  C   C527      1.0  0.16570  0.79927  0.33131  1.0000
  C   C528      1.0  0.16623  0.84232  0.31697  1.0000
  H   H872      1.0  0.22032  0.82867  0.33177  1.0000
  H   H873      1.0  0.22243  0.85152  0.32280  1.0000
  H   H874      1.0  0.17813  0.81819  0.28946  1.0000
  H   H875      1.0  0.19757  0.81238  0.29721  1.0000
  H   H876      1.0  0.19231  0.80844  0.35084  1.0000
  H   H877      1.0  0.17846  0.82075  0.36078  1.0000
  H   H878      1.0  0.18694  0.85167  0.34767  1.0000
  H   H879      1.0  0.19575  0.85942  0.31644  1.0000
  H   H880      1.0  0.20985  0.83497  0.37736  1.0000
  H   H881      1.0  0.23295  0.84951  0.36844  1.0000
  H   H882      1.0  0.21508  0.85876  0.36694  1.0000
  H   H883      1.0  0.21963  0.84256  0.28093  1.0000
  H   H884      1.0  0.20127  0.83147  0.25748  1.0000
  H   H885      1.0  0.20061  0.85080  0.27616  1.0000
  H   H886      1.0  0.15579  0.80396  0.32046  1.0000
  H   H887      1.0  0.15787  0.79033  0.34748  1.0000
  H   H888      1.0  0.17004  0.79023  0.31817  1.0000
  H   H889      1.0  0.16416  0.83809  0.29596  1.0000
  H   H890      1.0  0.16304  0.85511  0.31891  1.0000
  H   H891      1.0  0.15600  0.83157  0.32909  1.0000
  H   H892      1.0  0.04068  0.88634  0.33197  1.0000
  H   H893      1.0  0.13334  0.82740  0.44511  1.0000
  N   N37       1.0  0.16214  0.87839  0.20245  1.0000
  C   C529      1.0  0.13028  0.85010  0.20119  1.0000
  H   H894      1.0  0.14875  0.81085  0.03197  1.0000
  N   N38       1.0  0.29111  0.82404  0.25153  1.0000
  H   H895      1.0  0.12461  0.83457  0.20133  1.0000
  H   H896      1.0  0.17100  0.95384  0.44761  1.0000
  H   H897      1.0  0.20511  0.82590  0.08934  1.0000
  H   H898      1.0  0.08731  0.88806  0.46278  1.0000
  C   C530      1.0  0.16663  0.79703  0.08356  1.0000
  H   H899      1.0  0.14472  0.81617  0.08191  1.0000
  H   H900      1.0  0.13757  0.87016  0.42389  1.0000
  C   C531      1.0  0.17544  0.80466  0.05708  1.0000
  H   H901      1.0  0.15870  0.83566  0.02965  1.0000
  H   H902      1.0  0.15628  0.88016  0.16095  1.0000
  H   H903      1.0  0.18942  0.80371  0.05686  1.0000
  H   H904      1.0  0.15719  0.88850  0.46179  1.0000
  C   C532      1.0  0.18656  0.83841  0.07068  1.0000
  C   C533      1.0  0.19177  0.87088  0.21291  1.0000
  C   C534      1.0  0.18358  0.98524  0.42216  1.0000
  H   H905      1.0  0.14010  0.80528  0.47343  1.0000
  H   H906      1.0  0.16959  0.80778  0.09922  1.0000
  H   H907      1.0  0.07912  0.87065  0.29483  1.0000
  C   C535      1.0  0.16528  0.90818  0.17663  1.0000
  H   H908      1.0  0.15532  0.85232  0.18139  1.0000
  H   H909      1.0  0.16630  0.81971  0.99351  1.0000
  H   H910      1.0  0.08028  0.84828  0.29683  1.0000
  H   H911      1.0  0.19105  0.89811  0.20710  1.0000
  H   H912      1.0  0.13120  0.82313  0.05859  1.0000
  H   H913      1.0  0.17814  0.83644  0.08849  1.0000
  H   H914      1.0  0.17689  0.80309  0.00185  1.0000
  H   H915      1.0  0.25342  0.80496  0.23034  1.0000
  C   C536      1.0  0.16786  0.88226  0.46177  1.0000
  H   H916      1.0  0.13896  0.94530  0.98416  1.0000
  C   C537      1.0  0.15931  0.86072  0.45938  1.0000
  H   H917      1.0  0.05855  0.85030  0.30338  1.0000
  H   H918      1.0  0.26807  0.83353  0.25355  1.0000
  C   C538      1.0  0.28769  0.81879  0.27991  1.0000
  H   H919      1.0  0.08981  0.91281  0.37396  1.0000
  H   H920      1.0  0.18903  0.86912  0.23406  1.0000
  H   H921      1.0  0.98258  0.78637  0.17645  1.0000
  C   C539      1.0  0.13483  0.90944  0.46695  1.0000
  C   C540      1.0  0.98618  0.80938  0.08837  1.0000
  N   N39       1.0  0.07448  0.87407  0.35062  1.0000
  C   C541      1.0  0.08150  0.87432  0.37862  1.0000
  C   C542      1.0  0.08461  0.89344  0.34014  1.0000
  C   C543      1.0  0.08001  0.86036  0.33523  1.0000
  C   C544      1.0  0.05342  0.86824  0.35048  1.0000
  C   C545      1.0  0.07440  0.85547  0.39291  1.0000
  C   C546      1.0  0.08161  0.90942  0.35510  1.0000
  C   C547      1.0  0.07399  0.85751  0.30598  1.0000
  C   C548      1.0  0.04422  0.87416  0.32667  1.0000
  H   H922      1.0  0.09712  0.87978  0.37963  1.0000
  H   H923      1.0  0.07754  0.88400  0.39111  1.0000
  H   H924      1.0  0.08109  0.89454  0.31922  1.0000
  H   H925      1.0  0.10001  0.89688  0.34041  1.0000
  H   H926      1.0  0.09556  0.86451  0.33644  1.0000
  H   H927      1.0  0.07387  0.84615  0.34359  1.0000
  H   H928      1.0  0.04642  0.85276  0.35209  1.0000
  H   H929      1.0  0.04928  0.87416  0.36815  1.0000
  H   H930      1.0  0.05894  0.84815  0.39131  1.0000
  H   H931      1.0  0.08138  0.84621  0.38593  1.0000
  H   H932      1.0  0.07821  0.85820  0.41415  1.0000
  H   H933      1.0  0.08692  0.92230  0.34322  1.0000
  H   H934      1.0  0.06665  0.90628  0.35888  1.0000
  H   H935      1.0  0.16295  0.91613  0.19341  1.0000
  C   C549      1.0  0.14213  0.96008  0.42010  1.0000
  H   H936      1.0  0.17677  0.88581  0.26068  1.0000
  H   H937      1.0  0.15258  0.87990  0.26872  1.0000
  H   H938      1.0  0.12967  0.97255  0.98441  1.0000
  H   H939      1.0  0.28854  0.79590  0.24068  1.0000
  H   H940      1.0  0.18074  0.97181  0.41148  1.0000
  C   C550      1.0  0.29262  0.85826  0.24802  1.0000
  C   C551      1.0  0.28258  0.80637  0.23497  1.0000
  H   H941      1.0  0.18831  0.85262  0.06388  1.0000
  H   H942      1.0  0.15296  0.96627  0.00308  1.0000
  C   C552      1.0  0.15523  0.88685  0.17990  1.0000
  N   N40       1.0  0.17673  0.82391  0.04962  1.0000
  C   C553      1.0  0.15816  0.88632  0.22762  1.0000
  N   N41       1.0  0.14081  0.85097  0.47224  1.0000
  H   H943      1.0  0.14012  0.88427  0.18166  1.0000
  C   C554      1.0  0.18830  0.82947  0.02528  1.0000
  H   H944      1.0  0.20209  0.82821  0.02820  1.0000
  C   C555      1.0  0.16203  0.87822  0.25364  1.0000
  H   H945      1.0  0.18699  0.85697  0.20293  1.0000
  H   H946      1.0  0.14352  0.88553  0.22762  1.0000
  C   C556      1.0  0.14576  0.82597  0.06583  1.0000
  H   H947      1.0  0.28739  0.84219  0.30424  1.0000
  H   H948      1.0  0.12553  0.85487  0.21919  1.0000
  H   H949      1.0  0.10788  0.83275  0.00114  1.0000
  C   C557      1.0  0.18300  0.88360  0.19963  1.0000
  H   H950      1.0  0.30233  0.88037  0.18024  1.0000
  H   H951      1.0  0.00499  0.81167  0.15068  1.0000
  H   H952      1.0  0.25648  0.78398  0.22212  1.0000
  C   C558      1.0  0.10140  0.89303  0.47126  1.0000
  C   C559      1.0  0.29668  0.83449  0.30062  1.0000
  H   H953      1.0  0.15141  0.84054  0.07368  1.0000
  H   H954      1.0  0.17296  0.78729  0.09125  1.0000
  H   H955      1.0  0.11172  0.84791  0.46757  1.0000
  H   H956      1.0  0.27774  0.83544  0.22222  1.0000
  H   H957      1.0  0.20725  0.87724  0.21084  1.0000
  H   H958      1.0  0.11153  0.85515  0.01490  1.0000
  H   H959      1.0  0.31081  0.84446  0.29567  1.0000
  H   H960      1.0  0.12394  0.85389  0.18348  1.0000
  H   H961      1.0  0.19163  0.84446  0.02080  1.0000
  H   H962      1.0  0.98437  0.81492  0.21619  1.0000
  H   H963      1.0  0.14144  0.94732  0.43047  1.0000
  C   C560      1.0  0.26108  0.79601  0.23620  1.0000
  H   H964      1.0  0.29167  0.80680  0.28498  1.0000
  H   H965      1.0  0.18754  0.96987  0.46948  1.0000
  H   H966      1.0  0.18651  0.88367  0.17852  1.0000
  H   H967      1.0  0.25662  0.79009  0.25580  1.0000
  C   C561      1.0  0.28157  0.83709  0.24352  1.0000
  H   H968      1.0  0.99284  0.81770  0.02110  1.0000
  H   H969      1.0  0.28591  0.80940  0.21388  1.0000
  H   H970      1.0  0.17022  0.85609  0.46783  1.0000
  H   H971      1.0  0.20984  0.98598  0.44156  1.0000
  H   H972      1.0  0.27240  0.81327  0.28369  1.0000
  H   H973      1.0  0.15652  0.84995  0.21539  1.0000
  H   H974      1.0  0.15877  0.86305  0.25279  1.0000
  H   H975      1.0  0.18050  0.91248  0.17334  1.0000
  H   H976      1.0  0.12742  0.95829  0.41520  1.0000
  C   C562      1.0  0.99016  0.84309  0.00952  1.0000
  H   H977      1.0  0.21170  0.85026  0.09567  1.0000
  C   C563      1.0  0.20600  0.83918  0.08022  1.0000
  H   H978      1.0  0.28322  0.86575  0.24332  1.0000
  C   C564      1.0  0.15752  0.82389  0.04295  1.0000
  H   H979      1.0  0.00402  0.81698  0.18506  1.0000
  H   H980      1.0  0.15847  0.85662  0.43839  1.0000
  C   C565      1.0  0.13857  0.90555  0.99387  1.0000
  H   H981      1.0  0.00184  0.85159  0.02316  1.0000
  Fe  Fe80      1.0  0.17165  0.74824  0.42013  1.0000
  N   N42       1.0  0.17156  0.98210  0.44595  1.0000
  C   C566      1.0  0.13432  0.83025  0.46665  1.0000
  H   H982      1.0  0.13126  0.85108  0.00347  1.0000
  C   C567      1.0  0.11618  0.84792  0.99928  1.0000
  C   C568      1.0  0.00155  0.82076  0.16486  1.0000
  C   C569      1.0  0.15159  0.97800  0.43700  1.0000
  C   C570      1.0  0.14681  0.82049  0.47821  1.0000
  H   H983      1.0  0.21511  0.98776  0.35025  1.0000
  C   C571      1.0  0.12484  0.85900  0.43143  1.0000
  C   C572      1.0  0.17943  0.81811  0.99994  1.0000
  H   H984      1.0  0.99640  0.84342  0.99008  1.0000
  H   H985      1.0  0.15081  0.98968  0.42502  1.0000
  H   H986      1.0  0.14924  0.96102  0.40122  1.0000
  C   C573      1.0  0.12593  0.85743  0.46154  1.0000
  C   C574      1.0  0.31174  0.83260  0.24564  1.0000
  H   H987      1.0  0.01175  0.83525  0.16162  1.0000
  H   H988      1.0  0.30453  0.86372  0.23453  1.0000
  H   H989      1.0  0.14254  0.97718  0.45402  1.0000
  C   C575      1.0  0.17311  0.96598  0.46092  1.0000
  H   H990      1.0  0.29780  0.86195  0.26850  1.0000
  H   H991      1.0  0.16028  0.94723  0.00042  1.0000
  H   H992      1.0  0.29881  0.82820  0.31935  1.0000
  H   H993      1.0  0.16079  0.82542  0.46919  1.0000
  H   H994      1.0  0.31351  0.83550  0.22430  1.0000
  C   C576      1.0  0.15335  0.95527  0.98935  1.0000
  H   H995      1.0  0.17683  0.88696  0.47987  1.0000
  H   H996      1.0  0.18943  0.82343  0.98378  1.0000
  H   H997      1.0  0.98113  0.82336  0.13855  1.0000
  C   C577      1.0  0.98141  0.81994  0.15972  1.0000
  C   C578      1.0  0.98136  0.82306  0.02009  1.0000
  Fe  Fe81      1.0  0.23534  0.80614  0.63817  1.0000
  S   S160      1.0  0.25219  0.83695  0.63517  1.0000
  S   S161      1.0  0.22669  0.78437  0.60474  1.0000
  Fe  Fe82      1.0  0.22888  0.80939  0.69803  1.0000
  S   S162      1.0  0.24528  0.84052  0.69871  1.0000
  S   S163      1.0  0.21059  0.79188  0.73063  1.0000
  Fe  Fe83      1.0  0.22975  0.84007  0.66032  1.0000
  S   S164      1.0  0.21512  0.85972  0.64956  1.0000
  Fe  Fe84      1.0  0.26638  0.83459  0.67362  1.0000
  S   S165      1.0  0.29811  0.84289  0.68276  1.0000
  S   S166      1.0  0.21235  0.80951  0.66105  1.0000
  S   S167      1.0  0.25051  0.80319  0.67519  1.0000
  Fe  Fe85      1.0  0.11164  0.84735  0.61581  1.0000
  S   S168      1.0  0.12860  0.87776  0.61212  1.0000
  S   S169      1.0  0.12677  0.82819  0.62631  1.0000
  Fe  Fe86      1.0  0.07419  0.85259  0.60772  1.0000
  S   S170      1.0  0.08981  0.88389  0.60332  1.0000
  S   S171      1.0  0.04205  0.84319  0.61178  1.0000
  Fe  Fe87      1.0  0.10943  0.87650  0.57742  1.0000
  S   S172      1.0  0.12687  0.89127  0.54224  1.0000
  Fe  Fe88      1.0  0.10762  0.88208  0.63823  1.0000
  S   S173      1.0  0.11868  0.90365  0.67192  1.0000
  S   S174      1.0  0.09310  0.84534  0.57993  1.0000
  S   S175      1.0  0.09143  0.85154  0.64381  1.0000
  Fe  Fe89      1.0  0.19834  0.77851  0.88656  1.0000
  S   S176      1.0  0.16723  0.76261  0.88098  1.0000
  S   S177      1.0  0.22054  0.79057  0.85538  1.0000
  Fe  Fe90      1.0  0.19498  0.78270  0.94706  1.0000
  S   S178      1.0  0.16358  0.76742  0.94514  1.0000
  H   H998      1.0  0.18864  0.87311  0.82812  1.0000
  H   H999      1.0  0.19167  0.87482  0.62131  1.0000
  Fe  Fe91      1.0  0.16464  0.78437  0.90874  1.0000
  S   S179      1.0  0.14631  0.80071  0.89871  1.0000
  S   S180      1.0  0.20069  0.76175  0.92158  1.0000
  S   S181      1.0  0.19542  0.80067  0.91247  1.0000
  Fe  Fe92      1.0  0.13616  0.90843  0.83087  1.0000
  S   S182      1.0  0.16774  0.92263  0.83307  1.0000
  S   S183      1.0  0.11841  0.89108  0.79594  1.0000
  Fe  Fe93      1.0  0.13317  0.91470  0.89101  1.0000
  S   S184      1.0  0.16432  0.92930  0.89647  1.0000
  S   S185      1.0  0.11247  0.90885  0.92433  1.0000
  Fe  Fe94      1.0  0.16347  0.94462  0.85904  1.0000
  S   S186      1.0  0.17349  0.97696  0.85709  1.0000
  Fe  Fe95      1.0  0.16546  0.90612  0.87031  1.0000
  S   S187      1.0  0.18245  0.88907  0.88313  1.0000
  S   S188      1.0  0.13173  0.93085  0.85493  1.0000
  S   S189      1.0  0.13441  0.89101  0.86679  1.0000
  H   H1000     1.0  0.20317  0.87343  0.71580  1.0000
  C   C579      1.0  0.17164  0.86467  0.88844  1.0000
  C   C580      1.0  0.15414  0.85370  0.87698  1.0000
  C   C581      1.0  0.14661  0.83415  0.88013  1.0000
  C   C582      1.0  0.15643  0.82533  0.89484  1.0000
  C   C583      1.0  0.17378  0.83635  0.90661  1.0000
  C   C584      1.0  0.18136  0.85586  0.90331  1.0000
  H   H1001     1.0  0.14666  0.86016  0.86496  1.0000
  H   H1002     1.0  0.13321  0.82579  0.87085  1.0000
  H   H1003     1.0  0.18135  0.82990  0.91847  1.0000
  H   H1004     1.0  0.19491  0.86419  0.91224  1.0000
  C   C585      1.0  0.02058  0.82484  0.60066  1.0000
  C   C586      1.0  0.00333  0.82549  0.60807  1.0000
  H   H1005     1.0  0.19908  0.89439  0.71959  1.0000
  C   C587      1.0  0.13040  0.96380  0.90911  1.0000
  C   C588      1.0  0.00275  0.79559  0.57698  1.0000
  C   C589      1.0  0.02014  0.80973  0.58501  1.0000
  H   H1006     1.0  0.00337  0.83707  0.62002  1.0000
  H   H1007     1.0  0.27985  0.80718  0.71888  1.0000
  H   H1008     1.0  0.00268  0.78404  0.56487  1.0000
  H   H1009     1.0  0.03318  0.80893  0.57909  1.0000
  C   C590      1.0  0.12224  0.89587  0.50919  1.0000
  C   C591      1.0  0.18294  0.84335  0.82785  1.0000
  H   H1010     1.0  0.06182  0.89948  0.63710  1.0000
  C   C592      1.0  0.11721  0.90506  0.95763  1.0000
  H   H1011     1.0  0.18184  0.89284  0.65862  1.0000
  H   H1012     1.0  0.09470  0.85920  0.89721  1.0000
  H   H1013     1.0  0.09222  0.88164  0.50959  1.0000
  H   H1014     1.0  0.14711  0.91387  0.95420  1.0000
  H   H1015     1.0  0.26960  0.82214  0.75006  1.0000
  H   H1016     1.0  0.14838  0.82191  0.49985  1.0000
  C   C593      1.0  0.11811  0.89995  0.70639  1.0000
  C   C594      1.0  0.12863  0.91488  0.72341  1.0000
  C   C595      1.0  0.12900  0.91246  0.75083  1.0000
  C   C596      1.0  0.11850  0.89514  0.76162  1.0000
  C   C597      1.0  0.10774  0.88027  0.74460  1.0000
  C   C598      1.0  0.10773  0.88258  0.71716  1.0000
  H   H1017     1.0  0.13672  0.92838  0.71533  1.0000
  H   H1018     1.0  0.13729  0.92404  0.76363  1.0000
  H   H1019     1.0  0.09964  0.86679  0.75272  1.0000
  H   H1020     1.0  0.09980  0.87088  0.70438  1.0000
  C   C599      1.0  0.21946  0.79588  0.51733  1.0000
  C   C600      1.0  0.21234  0.77759  0.52667  1.0000
  C   C601      1.0  0.21525  0.77421  0.55330  1.0000
  C   C602      1.0  0.22509  0.78905  0.57087  1.0000
  C   C603      1.0  0.23266  0.80724  0.56131  1.0000
  C   C604      1.0  0.22988  0.81060  0.53471  1.0000
  H   H1021     1.0  0.20438  0.76612  0.51351  1.0000
  H   H1022     1.0  0.20947  0.76007  0.56046  1.0000
  H   H1023     1.0  0.24048  0.81875  0.57449  1.0000
  H   H1024     1.0  0.23559  0.82477  0.52762  1.0000
  C   C605      1.0  0.21375  0.79140  0.76524  1.0000
  C   C606      1.0  0.22982  0.80377  0.77842  1.0000
  C   C607      1.0  0.23175  0.80313  0.80592  1.0000
  C   C608      1.0  0.21744  0.79034  0.82070  1.0000
  C   C609      1.0  0.20120  0.77807  0.80759  1.0000
  C   C610      1.0  0.19945  0.77851  0.77998  1.0000
  H   H1025     1.0  0.24061  0.81389  0.76733  1.0000
  H   H1026     1.0  0.24428  0.81276  0.81592  1.0000
  H   H1027     1.0  0.19459  0.82184  0.61285  1.0000
  H   H1028     1.0  0.18728  0.86319  0.79568  1.0000
  C   C611      1.0  0.19055  0.85079  0.64333  1.0000
  C   C612      1.0  0.17868  0.83354  0.65301  1.0000
  C   C613      1.0  0.15919  0.82687  0.64779  1.0000
  C   C614      1.0  0.15128  0.83749  0.63326  1.0000
  C   C615      1.0  0.16310  0.85488  0.62390  1.0000
  C   C616      1.0  0.18263  0.86146  0.62888  1.0000
  H   H1029     1.0  0.18446  0.82536  0.66474  1.0000
  H   H1030     1.0  0.15019  0.81343  0.65519  1.0000
  H   H1031     1.0  0.15732  0.86307  0.61220  1.0000
  H   H1032     1.0  0.14398  0.88456  0.73267  1.0000
  H   H1033     1.0  0.14963  0.86486  0.73970  1.0000
  C   C617      1.0  0.14821  0.81509  0.56770  1.0000
  H   H1034     1.0  0.20331  0.88655  0.68768  1.0000
  H   H1035     1.0  0.14066  0.80842  0.58552  1.0000
  C   C618      1.0  0.28867  0.80395  0.73408  1.0000
  C   C619      1.0  0.14383  0.86795  0.68747  1.0000
  C   C620      1.0  0.13263  0.84778  0.69627  1.0000
  H   H1036     1.0  0.08464  0.84267  0.92172  1.0000
  H   H1037     1.0  0.14737  0.86668  0.66672  1.0000
  H   H1038     1.0  0.12504  0.84754  0.71456  1.0000
  H   H1039     1.0  0.12170  0.84052  0.68095  1.0000
  H   H1040     1.0  0.04717  0.87553  0.73015  1.0000
  H   H1041     1.0  0.15436  0.78069  0.54399  1.0000
  H   H1042     1.0  0.14382  0.82690  0.56340  1.0000
  H   H1043     1.0  0.12140  0.85298  0.90701  1.0000
  H   H1044     1.0  0.11426  0.84878  0.51236  1.0000
  H   H1045     1.0  0.16144  0.79512  0.81111  1.0000
  H   H1046     1.0  0.13007  0.84993  0.53891  1.0000
  H   H1047     1.0  0.18756  0.78422  0.61396  1.0000
  C   C621      1.0  0.11283  0.85533  0.97240  1.0000
  H   H1048     1.0  0.16697  0.86648  0.95706  1.0000
  H   H1049     1.0  0.05905  0.90984  0.71578  1.0000
  H   H1050     1.0  0.21399  0.98688  0.84821  1.0000
  H   H1051     1.0  0.09011  0.82433  0.95067  1.0000
  H   H1052     1.0  0.15630  0.78876  0.84434  1.0000
  C   C622      1.0  0.20721  0.83659  0.77832  1.0000
  H   H1053     1.0  0.14148  0.84222  0.93273  1.0000
  H   H1054     1.0  0.06062  0.87096  0.65046  1.0000
  H   H1055     1.0  0.08807  0.89543  0.96772  1.0000
  C   C623      1.0  0.29868  0.82970  0.78982  1.0000
  H   H1056     1.0  0.28244  0.84138  0.73130  1.0000
  H   H1057     1.0  0.20876  0.83486  0.87828  1.0000
  H   H1058     1.0  0.09296  0.86721  0.93005  1.0000
  C   C624      1.0  0.04116  0.85329  0.68783  1.0000
  H   H1059     1.0  0.22193  0.84969  0.82342  1.0000
  S   S190      1.0  0.21484  0.80147  0.48485  1.0000
  H   H1060     1.0  0.20394  0.83081  0.75795  1.0000
  C   C625      1.0  0.21276  0.83809  0.83545  1.0000
  C   C626      1.0  0.31430  0.85458  0.75909  1.0000
  C   C627      1.0  0.02285  0.87387  0.65675  1.0000
  H   H1061     1.0  0.20439  0.84874  0.58234  1.0000
  H   H1062     1.0  0.08456  0.90647  0.65125  1.0000
  C   C628      1.0  0.27356  0.84841  0.76814  1.0000
  C   C629      1.0  0.13543  0.90866  0.96723  1.0000
  C   C630      1.0  0.12643  0.84520  0.51813  1.0000
  H   H1063     1.0  0.27970  0.79562  0.74969  1.0000
  H   H1064     1.0  0.27948  0.81173  0.81803  1.0000
  C   C631      1.0  0.30462  0.82198  0.74439  1.0000
  N   N43       1.0  0.19277  0.83001  0.82484  1.0000
  H   H1065     1.0  0.17110  0.78072  0.52126  1.0000
  H   H1066     1.0  0.28784  0.79922  0.79478  1.0000
  C   C632      1.0  0.21042  0.83785  0.58117  1.0000
  H   H1067     1.0  0.17782  0.77176  0.58340  1.0000
  H   H1068     1.0  0.20547  0.81006  0.59368  1.0000
  H   H1069     1.0  0.11605  0.95316  0.90498  1.0000
  C   C633      1.0  0.10490  0.82628  0.94702  1.0000
  H   H1070     1.0  0.16397  0.79907  0.61291  1.0000
  H   H1071     1.0  0.08125  0.90783  0.70827  1.0000
  H   H1072     1.0  0.20777  0.85105  0.77789  1.0000
  H   H1073     1.0  0.16859  0.83737  0.81872  1.0000
  H   H1074     1.0  0.05598  0.84364  0.71828  1.0000
  H   H1075     1.0  0.16867  0.95277  0.95569  1.0000
  C   C634      1.0  0.13777  0.84785  0.95086  1.0000
  H   H1076     1.0  0.15160  0.91102  0.50213  1.0000
  H   H1077     1.0  0.21449  0.83650  0.56082  1.0000
  H   H1078     1.0  0.29799  0.84087  0.80313  1.0000
  C   C635      1.0  0.06948  0.90044  0.65614  1.0000
  C   C636      1.0  0.10504  0.81602  0.92106  1.0000
  C   C637      1.0  0.16509  0.96392  0.96531  1.0000
  C   C638      1.0  0.11578  0.85715  0.92484  1.0000
  C   C639      1.0  0.06827  0.90212  0.71975  1.0000
  H   H1079     1.0  0.16426  0.76717  0.61227  1.0000
  H   H1080     1.0  0.07292  0.90480  0.74072  1.0000
  H   H1081     1.0  0.10049  0.82213  0.90392  1.0000
  H   H1082     1.0  0.15569  0.85251  0.50948  1.0000
  C   C640      1.0  0.28107  0.83611  0.75168  1.0000
  S   S191      1.0  0.21276  0.79963  0.98190  1.0000
  H   H1083     1.0  0.15394  0.87675  0.93812  1.0000
  H   H1084     1.0  0.17258  0.96891  0.91327  1.0000
  H   H1085     1.0  0.16228  0.79911  0.52004  1.0000
  C   C641      1.0  0.09585  0.85647  0.91843  1.0000
  H   H1086     1.0  0.09506  0.80124  0.92220  1.0000
  H   H1087     1.0  0.11901  0.81568  0.91767  1.0000
  H   H1088     1.0  0.28308  0.86336  0.76823  1.0000
  H   H1089     1.0  0.02389  0.87683  0.69885  1.0000
  C   C642      1.0  0.03414  0.88111  0.68273  1.0000
  H   H1090     1.0  0.06732  0.91077  0.66928  1.0000
  H   H1091     1.0  0.14239  0.94568  0.92675  1.0000
  H   H1092     1.0  0.27064  0.84337  0.78850  1.0000
  C   C643      1.0  0.13914  0.95784  0.93321  1.0000
  C   C644      1.0  0.18321  0.80211  0.55154  1.0000
  C   C645      1.0  0.17322  0.90077  0.66434  1.0000
  C   C646      1.0  0.16660  0.79015  0.53344  1.0000
  H   H1093     1.0  0.19194  0.81399  0.53939  1.0000
  H   H1094     1.0  0.19227  0.79415  0.55475  1.0000
  C   C647      1.0  0.17513  0.86975  0.70157  1.0000
  H   H1095     1.0  0.06801  0.84923  0.68754  1.0000
  C   C648      1.0  0.28311  0.81099  0.79720  1.0000
  H   H1096     1.0  0.15122  0.87455  0.97337  1.0000
  C   C649      1.0  0.18240  0.81285  0.84067  1.0000
  H   H1097     1.0  0.17852  0.97426  0.97367  1.0000
  H   H1098     1.0  0.14742  0.87062  0.50498  1.0000
  H   H1099     1.0  0.15267  0.78562  0.58499  1.0000
  H   H1100     1.0  0.03580  0.84770  0.66776  1.0000
  N   N44       1.0  0.15642  0.97282  0.94542  1.0000
  C   C650      1.0  0.05819  0.88089  0.71517  1.0000
  C   C651      1.0  0.19208  0.82382  0.79651  1.0000
  N   N45       1.0  0.16125  0.87909  0.70379  1.0000
  C   C652      1.0  0.06483  0.88075  0.66765  1.0000
  N   N46       1.0  0.17881  0.80906  0.57719  1.0000
  H   H1101     1.0  0.17421  0.86385  0.68146  1.0000
  H   H1102     1.0  0.17143  0.85755  0.71481  1.0000
  C   C653      1.0  0.16674  0.79332  0.59407  1.0000
  H   H1103     1.0  0.13954  0.83887  0.96680  1.0000
  C   C654      1.0  0.05413  0.84328  0.69659  1.0000
  C   C655      1.0  0.19615  0.88209  0.70657  1.0000
  H   H1104     1.0  0.18130  0.91574  0.66010  1.0000
  H   H1105     1.0  0.21054  0.85744  0.86610  1.0000
  H   H1106     1.0  0.14348  0.80519  0.55089  1.0000
  H   H1107     1.0  0.26003  0.84766  0.75912  1.0000
  C   C656      1.0  0.16210  0.80092  0.83122  1.0000
  C   C657      1.0  0.16851  0.89879  0.69366  1.0000
  H   H1108     1.0  0.18125  0.90811  0.70461  1.0000
  H   H1109     1.0  0.16027  0.89630  0.65176  1.0000
  C   C658      1.0  0.15542  0.87924  0.73178  1.0000
  H   H1110     1.0  0.16400  0.89038  0.77115  1.0000
  C   C659      1.0  0.16968  0.82294  0.57262  1.0000
  C   C660      1.0  0.17070  0.89078  0.75196  1.0000
  H   H1111     1.0  0.15801  0.90525  0.69674  1.0000
  H   H1112     1.0  0.03912  0.89654  0.68277  1.0000
  H   H1113     1.0  0.17733  0.90574  0.74692  1.0000
  H   H1114     1.0  0.18138  0.88462  0.75519  1.0000
  H   H1115     1.0  0.13394  0.87526  0.68659  1.0000
  H   H1116     1.0  0.29491  0.79493  0.72425  1.0000
  H   H1117     1.0  0.18141  0.81662  0.86147  1.0000
  C   C661      1.0  0.15307  0.86764  0.95515  1.0000
  H   H1118     1.0  0.02868  0.84817  0.70054  1.0000
  H   H1119     1.0  0.13864  0.96434  0.89135  1.0000
  H   H1120     1.0  0.12068  0.87063  0.97279  1.0000
  N   N47       1.0  0.04986  0.87444  0.68804  1.0000
  H   H1121     1.0  0.01291  0.85913  0.65848  1.0000
  H   H1122     1.0  0.23076  0.85167  0.86912  1.0000
  H   H1123     1.0  0.17820  0.82156  0.78704  1.0000
  H   H1124     1.0  0.14159  0.83958  0.69853  1.0000
  H   H1125     1.0  0.06897  0.87515  0.72039  1.0000
  C   C662      1.0  0.98596  0.81136  0.60004  1.0000
  H   H1126     1.0  0.18691  0.76886  0.76998  1.0000
  C   C663      1.0  0.17479  0.77844  0.60106  1.0000
  C   C664      1.0  0.10412  0.88940  0.49786  1.0000
  C   C665      1.0  0.19233  0.86298  0.81621  1.0000
  H   H1127     1.0  0.30772  0.88285  0.67150  1.0000
  H   H1128     1.0  0.22358  0.84310  0.59342  1.0000
  H   H1129     1.0  0.17618  0.83216  0.55592  1.0000
  H   H1130     1.0  0.16498  0.98770  0.90898  1.0000
  H   H1131     1.0  0.19341  0.81004  0.79535  1.0000
  H   H1132     1.0  0.21906  0.82736  0.83459  1.0000
  H   H1133     1.0  0.01431  0.88225  0.65215  1.0000
  N   N48       1.0  0.11780  0.84664  0.94874  1.0000
  H   H1134     1.0  0.03197  0.87484  0.63989  1.0000
  H   H1135     1.0  0.19008  0.76811  0.81865  1.0000
  H   H1136     1.0  0.20782  0.86852  0.81704  1.0000
  H   H1137     1.0  0.18030  0.84514  0.84876  1.0000
  H   H1138     1.0  0.19016  0.80334  0.84127  1.0000
  C   C666      1.0  0.19716  0.81901  0.59221  1.0000
  H   H1139     1.0  0.10853  0.81825  0.96278  1.0000
  C   C667      1.0  0.21553  0.84587  0.86386  1.0000
  H   H1140     1.0  0.22128  0.83668  0.78360  1.0000
  H   H1141     1.0  0.04759  0.82831  0.69043  1.0000
  H   H1142     1.0  0.17220  0.83241  0.58998  1.0000
  H   H1143     1.0  0.12466  0.87231  0.92719  1.0000
  H   H1144     1.0  0.19858  0.98793  0.94229  1.0000
  H   H1145     1.0  0.15272  0.80870  0.83259  1.0000
  H   H1146     1.0  0.07815  0.88013  0.67549  1.0000
  H   H1147     1.0  0.26976  0.80774  0.78604  1.0000
  C   C668      1.0  0.10222  0.89821  0.97492  1.0000
  C   C669      1.0  0.14358  0.85537  0.50126  1.0000
  H   H1148     1.0  0.12232  0.82983  0.51762  1.0000
  C   C670      1.0  0.13753  0.90600  0.49359  1.0000
  N   N49       1.0  0.29931  0.83517  0.76144  1.0000
  H   H1149     1.0  0.12158  0.97992  0.95482  1.0000
  C   C671      1.0  0.98551  0.79626  0.58439  1.0000
  H   H1150     1.0  0.98323  0.80310  0.97850  1.0000
  H   H1151     1.0  0.09779  0.85351  0.97128  1.0000
  H   H1152     1.0  0.12786  0.95193  0.94753  1.0000
  C   C672      1.0  0.17038  0.98047  0.92396  1.0000
  Fe  Fe96      1.0  0.16898  0.74687  0.91776  1.0000
  C   C673      1.0  0.13306  0.98384  0.96995  1.0000
  H   H1153     1.0  0.16157  0.96946  0.49916  1.0000
  H   H1154     1.0  0.31198  0.86461  0.77289  1.0000
  H   H1155     1.0  0.31162  0.82913  0.72645  1.0000
  H   H1156     1.0  0.12938  0.97756  0.91204  1.0000
  H   H1157     1.0  0.31374  0.86013  0.73909  1.0000
  H   H1158     1.0  0.31208  0.82849  0.79609  1.0000
  H   H1159     1.0  0.16247  0.94716  0.49339  1.0000
  C   C674      1.0  0.15245  0.98873  0.95760  1.0000
  C   C675      1.0  0.15956  0.95864  0.48377  1.0000
  H   H1160     1.0  0.39533  0.23563  0.11878  1.0000
  H   H1161     1.0  0.36654  0.24076  0.36187  1.0000
  S   S192      1.0  0.55846  0.11130  0.44733  1.0000
  Fe  Fe97      1.0  0.52904  0.08977  0.04069  1.0000
  S   S193      1.0  0.49759  0.07624  0.03597  1.0000
  S   S194      1.0  0.54397  0.08460  0.07738  1.0000
  H   H1162     1.0  0.52247  0.05492  0.12214  1.0000
  H   H1163     1.0  0.31996  0.20684  0.22769  1.0000
  Fe  Fe98      1.0  0.49985  0.10115  0.01160  1.0000
  C   C676      1.0  0.37536  0.20890  0.41672  1.0000
  C   C677      1.0  0.49336  0.17366  0.45438  1.0000
  S   S195      1.0  0.53116  0.11582  0.01875  1.0000
  Fe  Fe99      1.0  0.55605  0.09380  0.29017  1.0000
  S   S196      1.0  0.57158  0.07436  0.28985  1.0000
  S   S197      1.0  0.53905  0.09746  0.32453  1.0000
  Fe  Fe100     1.0  0.56017  0.09996  0.23039  1.0000
  S   S198      1.0  0.57553  0.08078  0.22671  1.0000
  S   S199      1.0  0.55366  0.11512  0.19558  1.0000
  Fe  Fe101     1.0  0.55392  0.06175  0.25340  1.0000
  S   S200      1.0  0.54037  0.03039  0.24432  1.0000
  Fe  Fe102     1.0  0.59194  0.09557  0.26322  1.0000
  S   S201      1.0  0.62397  0.10311  0.26239  1.0000
  S   S202      1.0  0.53752  0.08006  0.25480  1.0000
  S   S203      1.0  0.57734  0.11577  0.26574  1.0000
  Fe  Fe103     1.0  0.39975  0.18591  0.03651  1.0000
  S   S204      1.0  0.40329  0.21587  0.03480  1.0000
  S   S205      1.0  0.37099  0.16377  0.04392  1.0000
  Fe  Fe104     1.0  0.44159  0.19545  0.02948  1.0000
  S   S206      1.0  0.44747  0.22633  0.02705  1.0000
  S   S207      1.0  0.46842  0.18951  0.02905  1.0000
  Fe  Fe105     1.0  0.42844  0.22157  0.06145  1.0000
  N   N50       1.0  0.48070  0.20619  0.10719  1.0000
  H   H1164     1.0  0.60320  0.15624  0.23742  1.0000
  C   C678      1.0  0.47269  0.03612  0.18174  1.0000
  S   S208      1.0  0.42394  0.19136  0.06534  1.0000
  H   H1165     1.0  0.46765  0.10774  0.42357  1.0000
  S   S209      1.0  0.42406  0.22564  0.21792  1.0000
  S   S210      1.0  0.35934  0.22673  0.30202  1.0000
  S   S211      1.0  0.40858  0.22446  0.28793  1.0000
  H   H1166     1.0  0.47345  0.23217  0.14486  1.0000
  H   H1167     1.0  0.47836  0.14089  0.42350  1.0000
  C   C679      1.0  0.32981  0.19645  0.31988  1.0000
  C   C680      1.0  0.34768  0.20263  0.30892  1.0000
  C   C681      1.0  0.35558  0.18951  0.30345  1.0000
  C   C682      1.0  0.34558  0.17042  0.30864  1.0000
  H   H1168     1.0  0.37264  0.18256  0.43669  1.0000
  H   H1169     1.0  0.36928  0.19401  0.29493  1.0000
  H   H1170     1.0  0.35177  0.16037  0.30415  1.0000
  H   H1171     1.0  0.35780  0.19674  0.09749  1.0000
  C   C683      1.0  0.42804  0.21986  0.13918  1.0000
  C   C684      1.0  0.42602  0.21654  0.16629  1.0000
  C   C685      1.0  0.42701  0.23089  0.18408  1.0000
  H   H1172     1.0  0.42684  0.20861  0.12574  1.0000
  H   H1173     1.0  0.42343  0.20270  0.17355  1.0000
  H   H1174     1.0  0.59487  0.11635  0.19054  1.0000
  C   C686      1.0  0.32763  0.16421  0.31940  1.0000
  H   H1175     1.0  0.36819  0.20329  0.16762  1.0000
  H   H1176     1.0  0.47893  0.22103  0.17243  1.0000
  C   C687      1.0  0.64278  0.13314  0.19701  1.0000
  C   C688      1.0  0.35345  0.17222  0.05151  1.0000
  C   C689      1.0  0.33836  0.16159  0.06698  1.0000
  H   H1177     1.0  0.32468  0.20979  0.26276  1.0000
  H   H1178     1.0  0.56076  0.06664  0.42908  1.0000
  C   C690      1.0  0.34047  0.19624  0.04872  1.0000
  C   C691      1.0  0.35415  0.18933  0.04188  1.0000
  H   H1179     1.0  0.33757  0.14821  0.07422  1.0000
  H   H1180     1.0  0.34202  0.16195  0.47590  1.0000
  H   H1181     1.0  0.36506  0.19719  0.02886  1.0000
  H   H1182     1.0  0.51179  0.19704  0.12032  1.0000
  C   C692      1.0  0.51614  0.01802  0.23695  1.0000
  H   H1183     1.0  0.35721  0.18626  0.12770  1.0000
  C   C693      1.0  0.38109  0.19773  0.43784  1.0000
  H   H1184     1.0  0.54631  0.15741  0.43560  1.0000
  C   C694      1.0  0.48360  0.01516  0.23631  1.0000
  C   C695      1.0  0.50281  0.02578  0.24157  1.0000
  C   C696      1.0  0.32571  0.18591  0.06475  1.0000
  H   H1185     1.0  0.47335  0.02117  0.24036  1.0000
  H   H1186     1.0  0.50725  0.03981  0.24963  1.0000
  C   C697      1.0  0.47403  0.13290  0.01734  1.0000
  C   C698      1.0  0.48983  0.14908  0.02341  1.0000
  C   C699      1.0  0.48786  0.16631  0.02707  1.0000
  C   C700      1.0  0.47012  0.16749  0.02473  1.0000
  C   C701      1.0  0.45435  0.15130  0.01884  1.0000
  C   C702      1.0  0.42883  0.23851  0.43349  1.0000
  H   H1187     1.0  0.50351  0.14830  0.02525  1.0000
  H   H1188     1.0  0.50013  0.17879  0.03163  1.0000
  H   H1189     1.0  0.61260  0.11050  0.15000  1.0000
  H   H1190     1.0  0.51933  0.06014  0.35694  1.0000
  C   C703      1.0  0.54742  0.09423  0.10969  1.0000
  C   C704      1.0  0.55533  0.08635  0.12902  1.0000
  C   C705      1.0  0.55732  0.09261  0.15534  1.0000
  C   C706      1.0  0.55185  0.10717  0.16254  1.0000
  C   C707      1.0  0.54447  0.11548  0.14310  1.0000
  C   C708      1.0  0.54208  0.10893  0.11681  1.0000
  H   H1191     1.0  0.55962  0.07505  0.12368  1.0000
  H   H1192     1.0  0.56300  0.08610  0.17006  1.0000
  H   H1193     1.0  0.54024  0.12680  0.14848  1.0000
  H   H1194     1.0  0.53605  0.11517  0.10213  1.0000
  C   C709      1.0  0.55286  0.10771  0.41321  1.0000
  C   C710      1.0  0.56717  0.10921  0.39568  1.0000
  C   C711      1.0  0.56324  0.10606  0.36848  1.0000
  C   C712      1.0  0.54499  0.10172  0.35848  1.0000
  C   C713      1.0  0.53074  0.10048  0.37599  1.0000
  C   C714      1.0  0.53459  0.10327  0.40321  1.0000
  H   H1195     1.0  0.58136  0.11268  0.40321  1.0000
  H   H1196     1.0  0.57436  0.10712  0.35526  1.0000
  H   H1197     1.0  0.51658  0.09715  0.36842  1.0000
  H   H1198     1.0  0.52344  0.10199  0.41643  1.0000
  H   H1199     1.0  0.50513  0.15860  0.47956  1.0000
  H   H1200     1.0  0.52161  0.13513  0.39917  1.0000
  H   H1201     1.0  0.60682  0.15819  0.14827  1.0000
  H   H1202     1.0  0.44064  0.15202  0.01697  1.0000
  H   H1203     1.0  0.62201  0.09844  0.17317  1.0000
  H   H1204     1.0  0.36383  0.23340  0.17973  1.0000
  H   H1205     1.0  0.46245  0.02171  0.18535  1.0000
  C   C715      1.0  0.38427  0.19590  0.11127  1.0000
  C   C716      1.0  0.51364  0.15815  0.41416  1.0000
  H   H1206     1.0  0.38198  0.18585  0.09466  1.0000
  H   H1207     1.0  0.45904  0.20837  0.15201  1.0000
  C   C717      1.0  0.61058  0.10352  0.16921  1.0000
  N   N51       1.0  0.36770  0.21648  0.13026  1.0000
  H   H1208     1.0  0.55060  0.16212  0.98589  1.0000
  H   H1209     1.0  0.47184  0.03985  0.14060  1.0000
  H   H1210     1.0  0.62158  0.13725  0.23532  1.0000
  C   C718      1.0  0.48291  0.11529  0.42788  1.0000
  H   H1211     1.0  0.50809  0.22413  0.09344  1.0000
  C   C719      1.0  0.64554  0.14000  0.27902  1.0000
  H   H1212     1.0  0.59360  0.13936  0.16831  1.0000
  H   H1213     1.0  0.48369  0.99804  0.31039  1.0000
  H   H1214     1.0  0.35479  0.18517  0.35937  1.0000
  H   H1215     1.0  0.50065  0.22386  0.13660  1.0000
  H   H1216     1.0  0.34210  0.21614  0.11142  1.0000
  H   H1217     1.0  0.47301  0.00246  0.47489  1.0000
  H   H1218     1.0  0.49365  0.07099  0.19570  1.0000
  H   H1219     1.0  0.51748  0.01076  0.38025  1.0000
  S   S212      1.0  0.48424  0.03450  0.98534  1.0000
  C   C720      1.0  0.35198  0.16813  0.39354  1.0000
  H   H1220     1.0  0.38063  0.17991  0.34766  1.0000
  H   H1221     1.0  0.52942  0.05657  0.16748  1.0000
  C   C721      1.0  0.47752  0.99686  0.22596  1.0000
  H   H1222     1.0  0.39155  0.18580  0.39613  1.0000
  H   H1223     1.0  0.55497  0.06786  0.46229  1.0000
  C   C722      1.0  0.47049  0.21729  0.09451  1.0000
  H   H1224     1.0  0.50272  0.05136  0.08260  1.0000
  N   N52       1.0  0.52172  0.04695  0.41127  1.0000
  C   C723      1.0  0.50390  0.05005  0.40510  1.0000
  C   C724      1.0  0.53554  0.05442  0.38958  1.0000
  C   C725      1.0  0.51809  0.02671  0.41626  1.0000
  C   C726      1.0  0.48859  0.04322  0.42581  1.0000
  C   C727      1.0  0.52762  0.05143  0.36108  1.0000
  C   C728      1.0  0.50752  0.01231  0.39456  1.0000
  H   H1225     1.0  0.49712  0.04331  0.38629  1.0000
  H   H1226     1.0  0.50719  0.06522  0.40223  1.0000
  H   H1227     1.0  0.54312  0.06981  0.39192  1.0000
  H   H1228     1.0  0.39724  0.20353  0.34163  1.0000
  H   H1229     1.0  0.60419  0.16050  0.20313  1.0000
  H   H1230     1.0  0.50380  0.16418  0.40574  1.0000
  H   H1231     1.0  0.49297  0.05140  0.44442  1.0000
  H   H1232     1.0  0.47588  0.04530  0.41838  1.0000
  H   H1233     1.0  0.48428  0.02811  0.42976  1.0000
  H   H1234     1.0  0.51909  0.03667  0.35611  1.0000
  H   H1235     1.0  0.53953  0.05622  0.34745  1.0000
  H   H1236     1.0  0.63245  0.14136  0.28329  1.0000
  H   H1237     1.0  0.49638  0.01543  0.38414  1.0000
  H   H1238     1.0  0.63339  0.15930  0.22058  1.0000
  H   H1239     1.0  0.54748  0.14300  0.46201  1.0000
  H   H1240     1.0  0.54271  0.16321  0.46919  1.0000
  C   C729      1.0  0.44466  0.22936  0.39847  1.0000
  C   C730      1.0  0.46839  0.18563  0.10499  1.0000
  H   H1241     1.0  0.50150  0.01562  0.17337  1.0000
  C   C731      1.0  0.43956  0.22862  0.42498  1.0000
  H   H1242     1.0  0.50046  0.01218  0.07877  1.0000
  C   C732      1.0  0.44995  0.17899  0.11993  1.0000
  H   H1243     1.0  0.47936  0.13376  0.45622  1.0000
  H   H1244     1.0  0.53152  0.02482  0.41987  1.0000
  H   H1245     1.0  0.40484  0.20921  0.38920  1.0000
  H   H1246     1.0  0.45793  0.21632  0.10547  1.0000
  H   H1247     1.0  0.34946  0.23115  0.13920  1.0000
  H   H1248     1.0  0.46474  0.18137  0.08400  1.0000
  H   H1249     1.0  0.47586  0.17686  0.11252  1.0000
  H   H1250     1.0  0.49363  0.99783  0.27997  1.0000
  H   H1251     1.0  0.36191  0.23290  0.08166  1.0000
  C   C733      1.0  0.31987  0.17739  0.32523  1.0000
  C   C734      1.0  0.49801  0.20934  0.09150  1.0000
  H   H1252     1.0  0.49037  0.11464  0.40993  1.0000
  C   C735      1.0  0.50549  0.07848  0.18300  1.0000
  H   H1253     1.0  0.39051  0.21673  0.15581  1.0000
  H   H1254     1.0  0.44124  0.16440  0.11357  1.0000
  H   H1255     1.0  0.44141  0.18735  0.11585  1.0000
  H   H1256     1.0  0.45265  0.17859  0.14134  1.0000
  H   H1257     1.0  0.52165  0.17568  0.46017  1.0000
  H   H1258     1.0  0.36424  0.16422  0.39623  1.0000
  C   C736      1.0  0.51271  0.00192  0.31296  1.0000
  H   H1259     1.0  0.32312  0.17800  0.26686  1.0000
  H   H1260     1.0  0.50206  0.07007  0.10227  1.0000
  H   H1261     1.0  0.60298  0.13514  0.13798  1.0000
  C   C737      1.0  0.43873  0.23963  0.38015  1.0000
  H   H1262     1.0  0.34466  0.19147  0.38596  1.0000
  C   C738      1.0  0.50749  0.16420  0.45935  1.0000
  H   H1263     1.0  0.37858  0.22214  0.07563  1.0000
  H   H1264     1.0  0.52104  0.03248  0.99417  1.0000
  H   H1265     1.0  0.34424  0.13999  0.47746  1.0000
  S   S213      1.0  0.53396  0.07544  0.00450  1.0000
  H   H1266     1.0  0.59733  0.09091  0.16762  1.0000
  H   H1267     1.0  0.39624  0.20026  0.43697  1.0000
  C   C739      1.0  0.51523  0.02660  0.16857  1.0000
  C   C740      1.0  0.60384  0.14998  0.21797  1.0000
  S   S214      1.0  0.41682  0.18692  0.00081  1.0000
  H   H1268     1.0  0.52151  0.05202  0.45330  1.0000
  C   C741      1.0  0.50701  0.04765  0.12413  1.0000
  H   H1269     1.0  0.51380  0.13372  0.47090  1.0000
  H   H1270     1.0  0.63299  0.14287  0.15364  1.0000
  H   H1271     1.0  0.50296  0.13860  0.38057  1.0000
  H   H1272     1.0  0.45305  0.22177  0.39207  1.0000
  H   H1273     1.0  0.47512  0.00363  0.05059  1.0000
  H   H1274     1.0  0.36143  0.20883  0.42207  1.0000
  H   H1275     1.0  0.60930  0.10870  0.21040  1.0000
  C   C742      1.0  0.36308  0.22873  0.37533  1.0000
  H   H1276     1.0  0.48295  0.03937  0.19825  1.0000
  H   H1277     1.0  0.51280  0.01831  0.04929  1.0000
  H   H1278     1.0  0.46524  0.04587  0.18258  1.0000
  H   H1279     1.0  0.52574  0.02571  0.18324  1.0000
  C   C743      1.0  0.50315  0.00618  0.06021  1.0000
  C   C744      1.0  0.49777  0.05465  0.10157  1.0000
  H   H1280     1.0  0.51098  0.99718  0.06452  1.0000
  C   C745      1.0  0.32446  0.16839  0.07353  1.0000
  H   H1281     1.0  0.46493  0.21140  0.07465  1.0000
  H   H1282     1.0  0.34140  0.20970  0.04163  1.0000
  H   H1283     1.0  0.50381  0.03267  0.11956  1.0000
  Fe  Fe106     1.0  0.42167  0.21749  0.00050  1.0000
  H   H1284     1.0  0.50230  0.18280  0.09087  1.0000
  H   H1285     1.0  0.51985  0.02365  0.14924  1.0000
  C   C746      1.0  0.38032  0.23348  0.11594  1.0000
  C   C747      1.0  0.36583  0.19863  0.11629  1.0000
  C   C748      1.0  0.33395  0.20208  0.14767  1.0000
  H   H1286     1.0  0.54663  0.04854  0.39074  1.0000
  C   C749      1.0  0.33392  0.14664  0.47425  1.0000
  C   C750      1.0  0.48667  0.21208  0.13541  1.0000
  H   H1287     1.0  0.36386  0.23440  0.39553  1.0000
  H   H1288     1.0  0.52714  0.15445  0.37873  1.0000
  H   H1289     1.0  0.47954  0.02212  0.14914  1.0000
  C   C751      1.0  0.50299  0.07017  0.15488  1.0000
  H   H1290     1.0  0.40518  0.18657  0.35460  1.0000
  H   H1291     1.0  0.52029  0.99361  0.22292  1.0000
  H   H1292     1.0  0.39567  0.20878  0.10493  1.0000
  H   H1293     1.0  0.50633  0.09311  0.18187  1.0000
  H   H1294     1.0  0.33847  0.20241  0.16852  1.0000
  H   H1295     1.0  0.51213  0.04840  0.19122  1.0000
  H   H1296     1.0  0.63290  0.16189  0.17323  1.0000
  H   H1297     1.0  0.34224  0.15712  0.38008  1.0000
  H   H1298     1.0  0.51891  0.07941  0.19254  1.0000
  H   H1299     1.0  0.34090  0.20579  0.24189  1.0000
  C   C752      1.0  0.37607  0.21648  0.15726  1.0000
  H   H1300     1.0  0.32086  0.17379  0.23250  1.0000
  H   H1301     1.0  0.37911  0.20278  0.45758  1.0000
  S   S215      1.0  0.44506  0.23994  0.34689  1.0000
  H   H1302     1.0  0.51800  0.12711  0.43950  1.0000
  C   C753      1.0  0.31628  0.18064  0.24871  1.0000
  N   N53       1.0  0.50668  0.14903  0.43996  1.0000
  C   C754      1.0  0.60591  0.14441  0.15565  1.0000
  C   C755      1.0  0.39154  0.19739  0.38355  1.0000
  C   C756      1.0  0.60914  0.11617  0.19188  1.0000
  H   H1303     1.0  0.55075  0.04548  0.44814  1.0000
  C   C757      1.0  0.47362  0.21867  0.15172  1.0000
  H   H1304     1.0  0.51064  0.02202  0.43482  1.0000
  H   H1305     1.0  0.49064  0.07207  0.14556  1.0000
  H   H1306     1.0  0.33036  0.18792  0.13896  1.0000
  H   H1307     1.0  0.48226  0.04776  0.10094  1.0000
  C   C758      1.0  0.39346  0.19154  0.35512  1.0000
  H   H1308     1.0  0.59082  0.13736  0.21563  1.0000
  H   H1309     1.0  0.32778  0.14269  0.45416  1.0000
  C   C759      1.0  0.48648  0.13541  0.43711  1.0000
  H   H1310     1.0  0.48666  0.10751  0.44376  1.0000
  H   H1311     1.0  0.37595  0.21531  0.35013  1.0000
  N   N54       1.0  0.37504  0.20278  0.38840  1.0000
  C   C760      1.0  0.35652  0.18735  0.38095  1.0000
  C   C761      1.0  0.37771  0.23303  0.17550  1.0000
  C   C762      1.0  0.51623  0.14565  0.39215  1.0000
  C   C763      1.0  0.48137  0.03666  0.15472  1.0000
  H   H1312     1.0  0.53101  0.07253  0.43478  1.0000
  H   H1313     1.0  0.49520  0.18059  0.43512  1.0000
  C   C764      1.0  0.53034  0.05796  0.43614  1.0000
  H   H1314     1.0  0.51540  0.07968  0.14442  1.0000
  H   H1315     1.0  0.32068  0.20459  0.14732  1.0000
  H   H1316     1.0  0.34503  0.16736  0.41256  1.0000
  S   S216      1.0  0.50705  0.08908  0.47611  1.0000
  H   H1317     1.0  0.49432  0.20696  0.07016  1.0000
  C   C765      1.0  0.37723  0.21931  0.37128  1.0000
  C   C766      1.0  0.55031  0.05933  0.44395  1.0000
  N   N55       1.0  0.62431  0.13554  0.19341  1.0000
  C   C767      1.0  0.32566  0.20196  0.24489  1.0000
  S   S217      1.0  0.47549  0.11092  0.01155  1.0000
  H   H1318     1.0  0.44403  0.22053  0.43884  1.0000
  C   C768      1.0  0.51887  0.13947  0.45130  1.0000
  C   C769      1.0  0.64530  0.12294  0.26933  1.0000
  H   H1319     1.0  0.39150  0.23039  0.37407  1.0000
  C   C770      1.0  0.37630  0.23361  0.08617  1.0000
  H   H1320     1.0  0.52702  0.17060  0.41677  1.0000
  C   C771      1.0  0.51006  0.99968  0.22668  1.0000
  H   H1321     1.0  0.49573  0.18468  0.46970  1.0000
  C   C772      1.0  0.50932  0.19729  0.09885  1.0000
  H   H1322     1.0  0.52324  0.20321  0.08964  1.0000
  H   H1323     1.0  0.38546  0.22364  0.41974  1.0000
  C   C773      1.0  0.62163  0.14553  0.21754  1.0000
  C   C774      1.0  0.53997  0.15176  0.45455  1.0000
  C   C775      1.0  0.34852  0.21733  0.13148  1.0000
  H   H1324     1.0  0.64591  0.12654  0.17925  1.0000
  S   S218      1.0  0.42174  0.23808  0.46642  1.0000
  C   C776      1.0  0.43146  0.23769  0.12955  1.0000
  H   H1325     1.0  0.32637  0.17271  0.98840  1.0000
  H   H1326     1.0  0.64209  0.12341  0.21335  1.0000
  H   H1327     1.0  0.38908  0.19044  0.12890  1.0000
  H   H1328     1.0  0.48860  0.20051  0.14632  1.0000
  H   H1329     1.0  0.32360  0.20648  0.32428  1.0000
  H   H1330     1.0  0.51620  0.01722  0.31439  1.0000
  Fe  Fe107     1.0  0.50280  0.06372  0.99873  1.0000
  N   N56       1.0  0.50135  0.05017  0.15167  1.0000
  C   C777      1.0  0.51485  0.04633  0.17043  1.0000
  C   C778      1.0  0.45633  0.13412  0.01511  1.0000
  H   H1331     1.0  0.34850  0.21921  0.37006  1.0000
  H   H1332     1.0  0.47859  0.16375  0.45619  1.0000
  C   C779      1.0  0.62499  0.14671  0.16900  1.0000
  C   C780      1.0  0.48781  0.00523  0.47759  1.0000
  H   H1333     1.0  0.48776  0.00145  0.02315  1.0000
  C   C781      1.0  0.48471  0.99694  0.04372  1.0000
  H   H1334     1.0  0.52364  0.00021  0.30065  1.0000
  Fe  Fe108     1.0  0.39016  0.24061  0.29122  1.0000
  C   C782      1.0  0.51371  0.99505  0.47319  1.0000
  C   C783      1.0  0.31996  0.15805  0.99515  1.0000
  H   H1335     1.0  0.38420  0.23145  0.19459  1.0000
  H   H1336     1.0  0.50006  0.99853  0.40373  1.0000
  Fe  Fe109     1.0  0.53820  0.10275  0.48120  1.0000
  H   H1337     1.0  0.34372  0.14969  0.99236  1.0000
  H   H1338     1.0  0.51352  0.99687  0.33305  1.0000
  H   H1339     1.0  0.31916  0.17314  0.47615  1.0000
  H   H1340     1.0  0.44404  0.12168  0.01040  1.0000
  H   H1341     1.0  0.32416  0.15927  0.01621  1.0000
  S   S219      1.0  0.31555  0.14001  0.32534  1.0000
  C   C784      1.0  0.48234  0.23826  0.09086  1.0000
  H   H1342     1.0  0.49146  0.24036  0.07366  1.0000
  C   C785      1.0  0.51203  0.02023  0.98311  1.0000
  H   H1343     1.0  0.53242  0.00734  0.98302  1.0000
  C   C786      1.0  0.49295  0.99240  0.30018  1.0000
  C   C787      1.0  0.31892  0.13978  0.49538  1.0000
  H   H1344     1.0  0.36348  0.20079  0.85920  1.0000
  S   S220      1.0  0.55485  0.11273  0.95034  1.0000
  Fe  Fe110     1.0  0.53646  0.09891  0.54155  1.0000
  S   S221      1.0  0.50490  0.08494  0.54040  1.0000
  S   S222      1.0  0.55569  0.09957  0.57675  1.0000
  H   H1345     1.0  0.51468  0.20626  0.59810  1.0000
  C   C788      1.0  0.49988  0.02215  0.48912  1.0000
  H   H1346     1.0  0.50261  0.99247  0.52701  1.0000
  H   H1347     1.0  0.50574  0.12378  0.89407  1.0000
  S   S223      1.0  0.53991  0.08088  0.50875  1.0000
  S   S224      1.0  0.53728  0.12211  0.51408  1.0000
  Fe  Fe111     1.0  0.55856  0.09736  0.79203  1.0000
  S   S225      1.0  0.57461  0.07842  0.78995  1.0000
  S   S226      1.0  0.54091  0.09980  0.82639  1.0000
  Fe  Fe112     1.0  0.56148  0.10427  0.73223  1.0000
  S   S227      1.0  0.57756  0.08595  0.72683  1.0000
  S   S228      1.0  0.55137  0.11732  0.69823  1.0000
  Fe  Fe113     1.0  0.55674  0.06608  0.75359  1.0000
  S   S229      1.0  0.54345  0.03515  0.74211  1.0000
  Fe  Fe114     1.0  0.59419  0.10035  0.76337  1.0000
  S   S230      1.0  0.62613  0.10759  0.76192  1.0000
  S   S231      1.0  0.53978  0.08364  0.75696  1.0000
  S   S232      1.0  0.57898  0.12002  0.76740  1.0000
  Fe  Fe115     1.0  0.40089  0.18877  0.53399  1.0000
  S   S233      1.0  0.40516  0.21896  0.53321  1.0000
  S   S234      1.0  0.37150  0.16676  0.53793  1.0000
  Fe  Fe116     1.0  0.44298  0.19760  0.53192  1.0000
  S   S235      1.0  0.44964  0.22867  0.53053  1.0000
  S   S236      1.0  0.46922  0.19078  0.53675  1.0000
  Fe  Fe117     1.0  0.42866  0.22344  0.56252  1.0000
  H   H1348     1.0  0.45078  0.12790  0.49650  1.0000
  C   C789      1.0  0.32504  0.17092  0.56842  1.0000
  H   H1349     1.0  0.38379  0.20874  0.92806  1.0000
  S   S237      1.0  0.42321  0.19297  0.56545  1.0000
  H   H1350     1.0  0.61860  0.13467  0.72907  1.0000
  S   S238      1.0  0.42399  0.22418  0.71909  1.0000
  S   S239      1.0  0.35905  0.22654  0.80269  1.0000
  S   S240      1.0  0.40823  0.22399  0.78962  1.0000
  C   C790      1.0  0.31977  0.17756  0.82742  1.0000
  S   S241      1.0  0.49026  0.03809  0.49984  1.0000
  H   H1351     1.0  0.31470  0.13629  0.74829  1.0000
  C   C791      1.0  0.34754  0.20261  0.81064  1.0000
  C   C792      1.0  0.35568  0.18954  0.80635  1.0000
  C   C793      1.0  0.34592  0.17061  0.81260  1.0000
  C   C794      1.0  0.33314  0.20293  0.64457  1.0000
  H   H1352     1.0  0.36946  0.19397  0.79809  1.0000
  H   H1353     1.0  0.35235  0.16062  0.80918  1.0000
  H   H1354     1.0  0.50502  0.00895  0.78951  1.0000
  C   C795      1.0  0.42686  0.21982  0.63990  1.0000
  C   C796      1.0  0.42502  0.21594  0.66689  1.0000
  Fe  Fe118     1.0  0.53344  0.10015  0.98209  1.0000
  H   H1355     1.0  0.42569  0.20888  0.62590  1.0000
  H   H1356     1.0  0.42252  0.20196  0.67352  1.0000
  H   H1357     1.0  0.44856  0.19794  0.61061  1.0000
  H   H1358     1.0  0.51114  0.07311  0.71426  1.0000
  H   H1359     1.0  0.38166  0.18775  0.59139  1.0000
  C   C797      1.0  0.50381  0.06972  0.67177  1.0000
  H   H1360     1.0  0.49514  0.05297  0.93250  1.0000
  C   C798      1.0  0.35418  0.17527  0.54648  1.0000
  C   C799      1.0  0.33885  0.16419  0.56120  1.0000
  C   C800      1.0  0.51812  0.05977  0.63579  1.0000
  H   H1361     1.0  0.33779  0.15048  0.56734  1.0000
  C   C801      1.0  0.34174  0.19974  0.54598  1.0000
  C   C802      1.0  0.35536  0.19292  0.53852  1.0000
  H   H1362     1.0  0.40877  0.19129  0.85382  1.0000
  H   H1363     1.0  0.34290  0.21351  0.53996  1.0000
  H   H1364     1.0  0.36659  0.20125  0.52625  1.0000
  H   H1365     1.0  0.47852  0.16789  0.94801  1.0000
  C   C803      1.0  0.51910  0.02254  0.73594  1.0000
  C   C804      1.0  0.51303  0.00457  0.72446  1.0000
  C   C805      1.0  0.47419  0.99737  0.55097  1.0000
  H   H1366     1.0  0.60637  0.16232  0.69978  1.0000
  C   C806      1.0  0.48641  0.01902  0.73807  1.0000
  C   C807      1.0  0.50568  0.02977  0.74263  1.0000
  H   H1367     1.0  0.49458  0.03358  0.68813  1.0000
  H   H1368     1.0  0.47613  0.02465  0.74353  1.0000
  H   H1369     1.0  0.51011  0.04352  0.75164  1.0000
  C   C808      1.0  0.47826  0.13704  0.51524  1.0000
  C   C809      1.0  0.49195  0.15147  0.52971  1.0000
  C   C810      1.0  0.48889  0.16779  0.53623  1.0000
  C   C811      1.0  0.47207  0.16974  0.52864  1.0000
  C   C812      1.0  0.45831  0.15522  0.51444  1.0000
  C   C813      1.0  0.50896  0.05029  0.89614  1.0000
  H   H1370     1.0  0.50496  0.15017  0.53557  1.0000
  H   H1371     1.0  0.49963  0.17899  0.54717  1.0000
  C   C814      1.0  0.37655  0.23563  0.58491  1.0000
  H   H1372     1.0  0.48067  0.12329  0.91703  1.0000
  C   C815      1.0  0.55421  0.10477  0.61033  1.0000
  C   C816      1.0  0.54237  0.11339  0.61895  1.0000
  C   C817      1.0  0.54180  0.11731  0.64591  1.0000
  C   C818      1.0  0.55265  0.11220  0.66454  1.0000
  C   C819      1.0  0.56430  0.10336  0.65595  1.0000
  C   C820      1.0  0.56527  0.09992  0.62896  1.0000
  H   H1373     1.0  0.53385  0.11726  0.60483  1.0000
  H   H1374     1.0  0.53280  0.12422  0.65237  1.0000
  H   H1375     1.0  0.57268  0.09932  0.67007  1.0000
  H   H1376     1.0  0.57446  0.09323  0.62245  1.0000
  C   C821      1.0  0.55081  0.10896  0.91592  1.0000
  C   C822      1.0  0.53282  0.10357  0.90446  1.0000
  C   C823      1.0  0.53023  0.10126  0.87700  1.0000
  C   C824      1.0  0.54544  0.10374  0.86070  1.0000
  C   C825      1.0  0.56343  0.10904  0.87216  1.0000
  C   C826      1.0  0.56610  0.11184  0.89961  1.0000
  H   H1377     1.0  0.52093  0.10132  0.91670  1.0000
  H   H1378     1.0  0.51627  0.09725  0.86829  1.0000
  H   H1379     1.0  0.57528  0.11110  0.85988  1.0000
  H   H1380     1.0  0.58010  0.11611  0.90826  1.0000
  H   H1381     1.0  0.37734  0.18450  0.96210  1.0000
  H   H1382     1.0  0.48794  0.02910  0.92019  1.0000
  H   H1383     1.0  0.52844  0.03871  0.50131  1.0000
  C   C827      1.0  0.37670  0.23316  0.67419  1.0000
  H   H1384     1.0  0.47232  0.00153  0.53052  1.0000
  H   H1385     1.0  0.51297  0.02009  0.92452  1.0000
  H   H1386     1.0  0.46955  0.19036  0.65881  1.0000
  C   C828      1.0  0.61231  0.13670  0.71002  1.0000
  H   H1387     1.0  0.46364  0.23089  0.58672  1.0000
  H   H1388     1.0  0.32644  0.15885  0.76287  1.0000
  N   N57       1.0  0.62638  0.14025  0.68858  1.0000
  S   S242      1.0  0.41437  0.23151  0.96494  1.0000
  H   H1389     1.0  0.56246  0.06077  0.93187  1.0000
  C   C829      1.0  0.48036  0.00098  0.72675  1.0000
  C   C830      1.0  0.37825  0.18082  0.94119  1.0000
  H   H1390     1.0  0.32644  0.21803  0.76236  1.0000
  H   H1391     1.0  0.38967  0.21723  0.65395  1.0000
  H   H1392     1.0  0.52564  0.05105  0.62880  1.0000
  C   C831      1.0  0.35787  0.17127  0.88714  1.0000
  H   H1393     1.0  0.51384  0.22921  0.59752  1.0000
  H   H1394     1.0  0.48161  0.14947  0.96584  1.0000
  H   H1395     1.0  0.35995  0.19480  0.93093  1.0000
  C   C832      1.0  0.54329  0.15472  0.96760  1.0000
  H   H1396     1.0  0.50191  0.02060  0.55189  1.0000
  H   H1397     1.0  0.55403  0.15822  0.95227  1.0000
  C   C833      1.0  0.50066  0.16001  0.93264  1.0000
  C   C834      1.0  0.46119  0.17753  0.60749  1.0000
  C   C835      1.0  0.37320  0.19445  0.92361  1.0000
  H   H1398     1.0  0.61410  0.10224  0.70327  1.0000
  C   C836      1.0  0.51093  0.99838  0.79448  1.0000
  H   H1399     1.0  0.47470  0.17638  0.60298  1.0000
  H   H1400     1.0  0.49104  0.04314  0.61559  1.0000
  C   C837      1.0  0.33751  0.16629  0.89576  1.0000
  Fe  Fe119     1.0  0.42546  0.22115  0.50119  1.0000
  C   C838      1.0  0.39118  0.19116  0.88663  1.0000
  C   C839      1.0  0.33051  0.14751  0.98104  1.0000
  C   C840      1.0  0.53209  0.05561  0.93183  1.0000
  C   C841      1.0  0.48922  0.16269  0.95564  1.0000
  C   C842      1.0  0.39455  0.19131  0.85683  1.0000
  H   H1401     1.0  0.46535  0.23233  0.63409  1.0000
  C   C843      1.0  0.35376  0.21256  0.89117  1.0000
  C   C844      1.0  0.46890  0.20418  0.65450  1.0000
  Fe  Fe120     1.0  0.50863  0.06862  0.50596  1.0000
  H   H1402     1.0  0.39392  0.17905  0.89453  1.0000
  C   C845      1.0  0.32957  0.19651  0.82133  1.0000
  C   C846      1.0  0.34804  0.21859  0.62935  1.0000
  H   H1403     1.0  0.33055  0.15086  0.89738  1.0000
  C   C847      1.0  0.32784  0.16446  0.82293  1.0000
  H   H1404     1.0  0.47989  0.04529  0.90444  1.0000
  C   C848      1.0  0.51309  0.13895  0.89069  1.0000
  H   H1405     1.0  0.59877  0.14039  0.63259  1.0000
  C   C849      1.0  0.43806  0.22892  0.92601  1.0000
  N   N58       1.0  0.37213  0.19045  0.89448  1.0000
  H   H1406     1.0  0.54564  0.07126  0.88716  1.0000
  H   H1407     1.0  0.53421  0.14207  0.91972  1.0000
  H   H1408     1.0  0.39540  0.21026  0.60336  1.0000
  H   H1409     1.0  0.32625  0.14449  0.51475  1.0000
  C   C850      1.0  0.46145  0.13900  0.50770  1.0000
  H   H1410     1.0  0.32001  0.20568  0.64453  1.0000
  S   S243      1.0  0.42000  0.19040  0.50041  1.0000
  H   H1411     1.0  0.48239  0.10403  0.93384  1.0000
  N   N59       1.0  0.47652  0.21087  0.62776  1.0000
  H   H1412     1.0  0.47693  0.23069  0.67731  1.0000
  H   H1413     1.0  0.54789  0.04018  0.94992  1.0000
  H   H1414     1.0  0.49851  0.99217  0.83192  1.0000
  H   H1415     1.0  0.49627  0.06812  0.61766  1.0000
  H   H1416     1.0  0.54924  0.05521  0.84532  1.0000
  H   H1417     1.0  0.49042  0.15308  0.91655  1.0000
  H   H1418     1.0  0.53674  0.07419  0.68623  1.0000
  H   H1419     1.0  0.62307  0.10200  0.67071  1.0000
  H   H1420     1.0  0.32289  0.13219  0.98023  1.0000
  H   H1421     1.0  0.52849  0.07434  0.63436  1.0000
  C   C851      1.0  0.32659  0.18880  0.56100  1.0000
  H   H1422     1.0  0.49302  0.01300  0.58419  1.0000
  H   H1423     1.0  0.46802  0.00065  0.95578  1.0000
  H   H1424     1.0  0.44472  0.22339  0.94080  1.0000
  C   C852      1.0  0.52726  0.16124  0.96017  1.0000
  H   H1425     1.0  0.35647  0.18746  0.62439  1.0000
  H   H1426     1.0  0.60009  0.12336  0.70603  1.0000
  H   H1427     1.0  0.59215  0.14268  0.66504  1.0000
  C   C853      1.0  0.42317  0.23401  0.93274  1.0000
  C   C854      1.0  0.60440  0.15198  0.71534  1.0000
  H   H1428     1.0  0.36718  0.20359  0.66502  1.0000
  H   H1429     1.0  0.39444  0.20416  0.84744  1.0000
  H   H1430     1.0  0.45629  0.22763  0.89517  1.0000
  C   C855      1.0  0.50529  0.21407  0.59963  1.0000
  H   H1431     1.0  0.45377  0.20194  0.65521  1.0000
  S   S244      1.0  0.31623  0.14049  0.83073  1.0000
  H   H1432     1.0  0.39295  0.18216  0.93858  1.0000
  H   H1433     1.0  0.61023  0.15941  0.73423  1.0000
  H   H1434     1.0  0.61262  0.16076  0.65113  1.0000
  H   H1435     1.0  0.34193  0.21803  0.60922  1.0000
  H   H1436     1.0  0.63577  0.14667  0.77991  1.0000
  H   H1437     1.0  0.36844  0.16612  0.93795  1.0000
  C   C856      1.0  0.50183  0.01983  0.65669  1.0000
  Fe  Fe121     1.0  0.50576  0.10677  0.51077  1.0000
  H   H1438     1.0  0.33635  0.17186  0.91532  1.0000
  H   H1439     1.0  0.45567  0.17035  0.62600  1.0000
  H   H1440     1.0  0.53808  0.13956  0.97145  1.0000
  C   C857      1.0  0.62681  0.10693  0.69134  1.0000
  H   H1441     1.0  0.53396  0.17618  0.95442  1.0000
  N   N60       1.0  0.36718  0.21763  0.62824  1.0000
  C   C858      1.0  0.37522  0.21700  0.65527  1.0000
  H   H1442     1.0  0.51194  0.12205  0.94772  1.0000
  N   N61       1.0  0.51340  0.14982  0.93910  1.0000
  C   C859      1.0  0.52443  0.14922  0.91528  1.0000
  C   C860      1.0  0.44456  0.23131  0.90011  1.0000
  C   C861      1.0  0.38004  0.23490  0.61472  1.0000
  H   H1443     1.0  0.55058  0.02804  0.91098  1.0000
  H   H1444     1.0  0.47222  0.11794  0.94993  1.0000
  C   C862      1.0  0.49575  0.21020  0.62642  1.0000
  H   H1445     1.0  0.36221  0.23490  0.58005  1.0000
  H   H1446     1.0  0.52330  0.99884  0.71923  1.0000
  H   H1447     1.0  0.37917  0.22446  0.57407  1.0000
  C   C863      1.0  0.51903  0.02571  0.49228  1.0000
  C   C864      1.0  0.43016  0.23785  0.63113  1.0000
  H   H1448     1.0  0.49297  0.08059  0.70420  1.0000
  H   H1449     1.0  0.53851  0.03751  0.66504  1.0000
  N   N62       1.0  0.52600  0.04652  0.90508  1.0000
  H   H1450     1.0  0.51044  0.01855  0.88983  1.0000
  C   C865      1.0  0.49747  0.03643  0.66704  1.0000
  H   H1451     1.0  0.35682  0.16925  0.86548  1.0000
  C   C866      1.0  0.54425  0.05228  0.67162  1.0000
  H   H1452     1.0  0.50061  0.13110  0.97068  1.0000
  H   H1453     1.0  0.32075  0.17226  0.51078  1.0000
  C   C867      1.0  0.48913  0.01511  0.56384  1.0000
  H   H1454     1.0  0.50830  0.05923  0.59540  1.0000
  H   H1455     1.0  0.54069  0.01482  0.48710  1.0000
  H   H1456     1.0  0.34898  0.23222  0.63782  1.0000
  H   H1457     1.0  0.48838  0.00787  0.65231  1.0000
  C   C868      1.0  0.50228  0.05730  0.61528  1.0000
  C   C869      1.0  0.43600  0.23840  0.88061  1.0000
  H   H1458     1.0  0.63592  0.09989  0.69924  1.0000
  H   H1459     1.0  0.48343  0.02629  0.56437  1.0000
  H   H1460     1.0  0.44533  0.15655  0.50846  1.0000
  H   H1461     1.0  0.50897  0.17416  0.92500  1.0000
  C   C870      1.0  0.55007  0.05466  0.94429  1.0000
  H   H1462     1.0  0.50319  0.14512  0.88316  1.0000
  C   C871      1.0  0.36534  0.20004  0.61358  1.0000
  H   H1463     1.0  0.52001  0.16130  0.97879  1.0000
  H   H1464     1.0  0.32423  0.19211  0.73407  1.0000
  H   H1465     1.0  0.64446  0.13103  0.71320  1.0000
  C   C872      1.0  0.52594  0.01217  0.48425  1.0000
  C   C873      1.0  0.50306  0.13041  0.94931  1.0000
  H   H1466     1.0  0.52303  0.14010  0.87473  1.0000
  C   C874      1.0  0.53652  0.01822  0.90432  1.0000
  H   H1467     1.0  0.38435  0.17880  0.84642  1.0000
  C   C875      1.0  0.61660  0.13477  0.66203  1.0000
  N   N63       1.0  0.51220  0.05581  0.66382  1.0000
  C   C876      1.0  0.36820  0.20548  0.87971  1.0000
  H   H1468     1.0  0.52480  0.05241  0.70097  1.0000
  H   H1469     1.0  0.50572  0.22059  0.64036  1.0000
  H   H1470     1.0  0.50821  0.99401  0.56072  1.0000
  C   C877      1.0  0.48361  0.11871  0.93647  1.0000
  H   H1471     1.0  0.55431  0.05356  0.89066  1.0000
  H   H1472     1.0  0.45105  0.16979  0.59151  1.0000
  C   C878      1.0  0.49219  0.04393  0.91463  1.0000
  H   H1473     1.0  0.55452  0.05351  0.68790  1.0000
  H   H1474     1.0  0.49545  0.20906  0.58258  1.0000
  H   H1475     1.0  0.35942  0.22105  0.90935  1.0000
  H   H1476     1.0  0.33745  0.20247  0.66534  1.0000
  H   H1477     1.0  0.35096  0.22194  0.87671  1.0000
  C   C879      1.0  0.46284  0.19802  0.60775  1.0000
  H   H1478     1.0  0.49821  0.17336  0.97005  1.0000
  S   S245      1.0  0.48176  0.11678  0.50461  1.0000
  H   H1479     1.0  0.50933  0.02252  0.63804  1.0000
  H   H1480     1.0  0.53419  0.07065  0.93121  1.0000
  H   H1481     1.0  0.52965  0.03461  0.85403  1.0000
  C   C880      1.0  0.60452  0.14554  0.65263  1.0000
  H   H1482     1.0  0.38810  0.19109  0.62597  1.0000
  H   H1483     1.0  0.51360  0.08426  0.66753  1.0000
  H   H1484     1.0  0.32940  0.17084  0.88099  1.0000
  H   H1485     1.0  0.40255  0.20377  0.89526  1.0000
  H   H1486     1.0  0.48770  0.05614  0.70652  1.0000
  H   H1487     1.0  0.32318  0.20652  0.82490  1.0000
  C   C881      1.0  0.53623  0.04999  0.85683  1.0000
  H   H1488     1.0  0.35759  0.19864  0.59464  1.0000
  H   H1489     1.0  0.50330  0.04330  0.87689  1.0000
  H   H1490     1.0  0.50982  0.01531  0.67167  1.0000
  H   H1491     1.0  0.55227  0.06125  0.65564  1.0000
  S   S246      1.0  0.50250  0.08727  0.97381  1.0000
  C   C882      1.0  0.52915  0.05900  0.68166  1.0000
  H   H1492     1.0  0.52691  0.05659  0.84833  1.0000
  H   H1493     1.0  0.60680  0.11986  0.66162  1.0000
  H   H1494     1.0  0.46066  0.99485  0.56063  1.0000
  H   H1495     1.0  0.51278  0.06546  0.89291  1.0000
  H   H1496     1.0  0.53340  0.16369  0.90940  1.0000
  C   C883      1.0  0.64024  0.16027  0.68809  1.0000
  H   H1497     1.0  0.46617  0.20296  0.58751  1.0000
  H   H1498     1.0  0.49066  0.06742  0.66027  1.0000
  H   H1499     1.0  0.38310  0.23122  0.69317  1.0000
  C   C884      1.0  0.54128  0.05582  0.88591  1.0000
  C   C885      1.0  0.52056  0.02561  0.90622  1.0000
  H   H1500     1.0  0.48357  0.03515  0.65858  1.0000
  H   H1501     1.0  0.36246  0.16000  0.89388  1.0000
  H   H1502     1.0  0.38130  0.21824  0.87813  1.0000
  H   H1503     1.0  0.52104  0.04925  0.94637  1.0000
  C   C886      1.0  0.49870  0.06962  0.70090  1.0000
  H   H1504     1.0  0.58899  0.14518  0.71790  1.0000
  H   H1505     1.0  0.55355  0.06311  0.96277  1.0000
  H   H1506     1.0  0.32941  0.18906  0.63488  1.0000
  H   H1507     1.0  0.52512  0.00604  0.80346  1.0000
  C   C887      1.0  0.38375  0.19724  0.60865  1.0000
  H   H1508     1.0  0.62704  0.13608  0.64663  1.0000
  C   C888      1.0  0.42614  0.22992  0.68539  1.0000
  H   H1509     1.0  0.36277  0.23337  0.67849  1.0000
  H   H1510     1.0  0.49576  0.19660  0.63347  1.0000
  H   H1511     1.0  0.39500  0.23700  0.61794  1.0000
  H   H1512     1.0  0.49389  0.21968  0.67990  1.0000
  C   C889      1.0  0.47755  0.23067  0.62479  1.0000
  H   H1513     1.0  0.53718  0.01322  0.88405  1.0000
  H   H1514     1.0  0.34013  0.20124  0.89499  1.0000
  H   H1515     1.0  0.47218  0.21037  0.69642  1.0000
  C   C890      1.0  0.48213  0.00222  0.96167  1.0000
  C   C891      1.0  0.41469  0.24119  0.91324  1.0000
  C   C892      1.0  0.63769  0.12829  0.69327  1.0000
  H   H1516     1.0  0.53311  0.00568  0.91680  1.0000
  H   H1517     1.0  0.33417  0.15285  0.96094  1.0000
  C   C893      1.0  0.47878  0.21717  0.67806  1.0000
  C   C894      1.0  0.49379  0.99387  0.71978  1.0000
  H   H1518     1.0  0.63344  0.17016  0.68344  1.0000
  H   H1519     1.0  0.64330  0.16511  0.73114  1.0000
  H   H1520     1.0  0.47437  0.99395  0.78264  1.0000
  C   C895      1.0  0.51842  0.00599  0.97686  1.0000
  H   H1521     1.0  0.47013  0.99441  0.81647  1.0000
  C   C896      1.0  0.49373  0.01819  0.97582  1.0000
  Fe  Fe122     1.0  0.42044  0.24118  0.75402  1.0000
  Fe  Fe123     1.0  0.38987  0.24030  0.79171  1.0000
  H   H1522     1.0  0.32279  0.18563  0.76730  1.0000
  C   C897      1.0  0.47756  0.23793  0.59669  1.0000
  H   H1523     1.0  0.48854  0.23648  0.58442  1.0000
  C   C898      1.0  0.31471  0.18871  0.75096  1.0000
  H   H1524     1.0  0.49021  0.24078  0.63535  1.0000
  S   S247      1.0  0.44497  0.24178  0.84851  1.0000
  Fe  Fe124     1.0  0.50498  0.45588  0.24400  1.0000
  S   S248      1.0  0.53566  0.47257  0.24933  1.0000
  S   S249      1.0  0.48627  0.47091  0.23035  1.0000
  Fe  Fe125     1.0  0.50934  0.41860  0.25598  1.0000
  S   S250      1.0  0.54080  0.43399  0.26219  1.0000
  S   S251      1.0  0.50028  0.38641  0.25553  1.0000
  Fe  Fe126     1.0  0.53387  0.45533  0.28545  1.0000
  S   S252      1.0  0.54775  0.47391  0.32158  1.0000
  Fe  Fe127     1.0  0.53935  0.44983  0.22570  1.0000
  S   S253      1.0  0.56099  0.45719  0.19336  1.0000
  S   S254      1.0  0.50254  0.43937  0.28116  1.0000
  S   S255      1.0  0.50860  0.43373  0.21836  1.0000
  H   H1525     1.0  0.52502  0.39523  0.21230  1.0000
  S   S256      1.0  0.56544  0.46063  0.44139  1.0000
  H   H1526     1.0  0.50888  0.45916  0.35250  1.0000
  S   S257      1.0  0.54623  0.46513  0.07080  1.0000
  C   C899      1.0  0.35044  0.48587  0.44266  1.0000
  C   C900      1.0  0.31600  0.47046  0.44440  1.0000
  C   C901      1.0  0.51846  0.36465  0.14443  1.0000
  H   H1527     1.0  0.47356  0.33248  0.39642  1.0000
  C   C902      1.0  0.54020  0.40808  0.12316  1.0000
  S   S258      1.0  0.41033  0.26257  0.31832  1.0000
  C   C903      1.0  0.45169  0.29779  0.35258  1.0000
  H   H1528     1.0  0.54405  0.43996  0.35056  1.0000
  Fe  Fe128     1.0  0.42357  0.27845  0.28204  1.0000
  S   S259      1.0  0.43140  0.31039  0.28403  1.0000
  S   S260      1.0  0.44388  0.26406  0.27810  1.0000
  H   H1529     1.0  0.48229  0.39124  0.17159  1.0000
  H   H1530     1.0  0.46909  0.30843  0.30616  1.0000
  H   H1531     1.0  0.49654  0.35163  0.35169  1.0000
  H   H1532     1.0  0.43515  0.26593  0.14008  1.0000
  H   H1533     1.0  0.55166  0.42227  0.15916  1.0000
  H   H1534     1.0  0.51782  0.36834  0.18653  1.0000
  H   H1535     1.0  0.43100  0.25986  0.18788  1.0000
  H   H1536     1.0  0.48139  0.36122  0.33587  1.0000
  H   H1537     1.0  0.50741  0.39576  0.14235  1.0000
  C   C904      1.0  0.35016  0.47285  0.42330  1.0000
  C   C905      1.0  0.33294  0.45880  0.41457  1.0000
  C   C906      1.0  0.55470  0.40474  0.20814  1.0000
  H   H1538     1.0  0.49060  0.37304  0.17779  1.0000
  H   H1539     1.0  0.38627  0.24688  0.07805  1.0000
  H   H1540     1.0  0.33298  0.44882  0.39965  1.0000
  C   C907      1.0  0.48064  0.36550  0.26291  1.0000
  C   C908      1.0  0.48157  0.34800  0.25733  1.0000
  C   C909      1.0  0.46658  0.33104  0.26302  1.0000
  C   C910      1.0  0.45038  0.33127  0.27459  1.0000
  C   C911      1.0  0.44947  0.34876  0.28019  1.0000
  C   C912      1.0  0.46442  0.36573  0.27437  1.0000
  H   H1541     1.0  0.49400  0.34756  0.24849  1.0000
  H   H1542     1.0  0.46758  0.31779  0.25848  1.0000
  H   H1543     1.0  0.43709  0.34921  0.28918  1.0000
  H   H1544     1.0  0.46339  0.37897  0.27882  1.0000
  C   C913      1.0  0.55663  0.45962  0.15944  1.0000
  C   C914      1.0  0.53840  0.45371  0.14860  1.0000
  C   C915      1.0  0.53556  0.45528  0.12140  1.0000
  C   C916      1.0  0.55085  0.46318  0.10478  1.0000
  C   C917      1.0  0.56907  0.46927  0.11569  1.0000
  C   C918      1.0  0.57192  0.46731  0.14280  1.0000
  H   H1545     1.0  0.52650  0.44799  0.16113  1.0000
  H   H1546     1.0  0.52141  0.45058  0.11320  1.0000
  H   H1547     1.0  0.52089  0.43835  0.43196  1.0000
  H   H1548     1.0  0.58608  0.47184  0.15094  1.0000
  C   C919      1.0  0.55285  0.46978  0.35465  1.0000
  H   H1549     1.0  0.46663  0.48447  0.31132  1.0000
  C   C920      1.0  0.48285  0.45034  0.42196  1.0000
  C   C921      1.0  0.56080  0.46466  0.40813  1.0000
  C   C922      1.0  0.55371  0.44937  0.39041  1.0000
  C   C923      1.0  0.54960  0.45187  0.36389  1.0000
  H   H1550     1.0  0.36320  0.47355  0.41507  1.0000
  H   H1551     1.0  0.49262  0.32800  0.40941  1.0000
  H   H1552     1.0  0.55128  0.43546  0.39726  1.0000
  H   H1553     1.0  0.55695  0.41016  0.22871  1.0000
  H   H1554     1.0  0.55334  0.41531  0.11244  1.0000
  H   H1555     1.0  0.49641  0.39286  0.20019  1.0000
  H   H1556     1.0  0.51056  0.34976  0.14932  1.0000
  H   H1557     1.0  0.49231  0.31974  0.31948  1.0000
  H   H1558     1.0  0.56636  0.41463  0.19684  1.0000
  H   H1559     1.0  0.42496  0.28929  0.37204  1.0000
  H   H1560     1.0  0.52984  0.47236  0.44002  1.0000
  H   H1561     1.0  0.45371  0.28590  0.36256  1.0000
  H   H1562     1.0  0.50810  0.36890  0.13390  1.0000
  H   H1563     1.0  0.55560  0.39081  0.20856  1.0000
  C   C924      1.0  0.48113  0.29014  0.32363  1.0000
  H   H1564     1.0  0.55685  0.40218  0.15362  1.0000
  C   C925      1.0  0.33321  0.48455  0.45308  1.0000
  S   S261      1.0  0.58511  0.47387  0.01227  1.0000
  H   H1565     1.0  0.45292  0.48892  0.28476  1.0000
  S   S262      1.0  0.54603  0.47883  0.99995  1.0000
  C   C926      1.0  0.62038  0.47887  0.46366  1.0000
  C   C927      1.0  0.46748  0.33153  0.34324  1.0000
  H   H1566     1.0  0.63443  0.47698  0.42840  1.0000
  C   C928      1.0  0.43256  0.25208  0.14733  1.0000
  H   H1567     1.0  0.47373  0.45235  0.40602  1.0000
  C   C929      1.0  0.32367  0.47766  0.00012  1.0000
  C   C930      1.0  0.46716  0.49059  0.29159  1.0000
  H   H1568     1.0  0.52432  0.44468  0.46582  1.0000
  H   H1569     1.0  0.62358  0.46813  0.47484  1.0000
  H   H1570     1.0  0.48671  0.45422  0.36699  1.0000
  C   C931      1.0  0.51489  0.46314  0.44288  1.0000
  Fe  Fe129     1.0  0.57136  0.48072  0.47665  1.0000
  C   C932      1.0  0.56391  0.48256  0.39898  1.0000
  Fe  Fe130     1.0  0.42091  0.24259  0.25319  1.0000
  H   H1571     1.0  0.45707  0.32941  0.32686  1.0000
  C   C933      1.0  0.42801  0.24947  0.38869  1.0000
  C   C934      1.0  0.56015  0.48511  0.37235  1.0000
  H   H1572     1.0  0.52593  0.46817  0.39454  1.0000
  H   H1573     1.0  0.45863  0.44022  0.44696  1.0000
  H   H1574     1.0  0.48212  0.43580  0.41920  1.0000
  N   N64       1.0  0.50275  0.46427  0.41983  1.0000
  C   C935      1.0  0.31572  0.45748  0.42499  1.0000
  H   H1575     1.0  0.37942  0.24643  0.12424  1.0000
  H   H1576     1.0  0.42338  0.25740  0.37484  1.0000
  C   C936      1.0  0.42322  0.24903  0.41523  1.0000
  H   H1577     1.0  0.48509  0.30166  0.37422  1.0000
  N   N65       1.0  0.47034  0.31358  0.34811  1.0000
  H   H1578     1.0  0.46112  0.33576  0.36007  1.0000
  H   H1579     1.0  0.49027  0.34738  0.31689  1.0000
  H   H1580     1.0  0.52984  0.36538  0.13101  1.0000
  H   H1581     1.0  0.53554  0.41819  0.19996  1.0000
  C   C937      1.0  0.53532  0.40378  0.19798  1.0000
  H   H1582     1.0  0.53310  0.39411  0.11394  1.0000
  C   C938      1.0  0.51183  0.39935  0.16317  1.0000
  H   H1583     1.0  0.41498  0.25678  0.42164  1.0000
  H   H1584     1.0  0.47286  0.24574  0.08668  1.0000
  H   H1585     1.0  0.53151  0.41650  0.12007  1.0000
  S   S263      1.0  0.40118  0.25778  0.25515  1.0000
  C   C939      1.0  0.52662  0.37591  0.16999  1.0000
  N   N66       1.0  0.52956  0.39631  0.17030  1.0000
  H   H1586     1.0  0.51435  0.41446  0.16509  1.0000
  C   C940      1.0  0.49449  0.38837  0.17931  1.0000
  C   C941      1.0  0.47831  0.30886  0.32355  1.0000
  C   C942      1.0  0.54523  0.40737  0.15251  1.0000
  H   H1587     1.0  0.46970  0.30932  0.40823  1.0000
  H   H1588     1.0  0.54015  0.37428  0.17391  1.0000
  C   C943      1.0  0.47939  0.32152  0.39750  1.0000
  H   H1589     1.0  0.46810  0.27803  0.32784  1.0000
  H   H1590     1.0  0.43134  0.31122  0.35641  1.0000
  C   C944      1.0  0.48398  0.31537  0.37061  1.0000
  C   C945      1.0  0.51068  0.45990  0.39509  1.0000
  H   H1591     1.0  0.44449  0.29199  0.33343  1.0000
  C   C946      1.0  0.48514  0.34872  0.33664  1.0000
  C   C947      1.0  0.43706  0.30245  0.36813  1.0000
  H   H1592     1.0  0.49250  0.29049  0.33760  1.0000
  H   H1593     1.0  0.58097  0.47530  0.10317  1.0000
  H   H1594     1.0  0.50094  0.43320  0.45305  1.0000
  H   H1595     1.0  0.48542  0.28755  0.30381  1.0000
  H   H1596     1.0  0.49857  0.32464  0.36577  1.0000
  H   H1597     1.0  0.44258  0.30931  0.38731  1.0000
  H   H1598     1.0  0.50930  0.44506  0.39457  1.0000
  C   C948      1.0  0.51499  0.44360  0.44840  1.0000
  Fe  Fe131     1.0  0.56401  0.48031  0.03616  1.0000
  H   H1599     1.0  0.50413  0.47798  0.36627  1.0000
  H   H1600     1.0  0.60648  0.47153  0.45376  1.0000
  H   H1601     1.0  0.48038  0.44807  0.46520  1.0000
  H   H1602     1.0  0.51098  0.46850  0.46121  1.0000
  H   H1603     1.0  0.51879  0.48234  0.14674  1.0000
  C   C949      1.0  0.63586  0.48786  0.44368  1.0000
  H   H1604     1.0  0.32009  0.46529  0.98687  1.0000
  H   H1605     1.0  0.47182  0.46466  0.45081  1.0000
  C   C950      1.0  0.47313  0.45105  0.44782  1.0000
  C   C951      1.0  0.50187  0.46309  0.36900  1.0000
  H   H1606     1.0  0.32703  0.49051  0.98846  1.0000
  H   H1607     1.0  0.48208  0.48064  0.98805  1.0000
  H   H1608     1.0  0.38708  0.24659  0.16751  1.0000
  H   H1609     1.0  0.33681  0.47913  0.01106  1.0000
  C   C952      1.0  0.50265  0.48369  0.41929  1.0000
  Fe  Fe132     1.0  0.42944  0.24728  0.31299  1.0000
  H   H1610     1.0  0.49772  0.48711  0.43811  1.0000
  H   H1611     1.0  0.47157  0.48166  0.27834  1.0000
  C   C953      1.0  0.43019  0.24869  0.17444  1.0000
  S   S264      1.0  0.43409  0.24255  0.09553  1.0000
  H   H1612     1.0  0.61954  0.48923  0.47810  1.0000
  H   H1613     1.0  0.51016  0.48508  0.17829  1.0000
  H   H1614     1.0  0.54335  0.48908  0.18493  1.0000
  H   H1615     1.0  0.61358  0.48913  0.40417  1.0000
  C   C954      1.0  0.51380  0.49141  0.15866  1.0000
  H   H1616     1.0  0.49243  0.48471  0.40421  1.0000
  H   H1617     1.0  0.54901  0.49104  0.14031  1.0000
  H   H1618     1.0  0.50080  0.49109  0.14842  1.0000
  H   H1619     1.0  0.49109  0.24488  0.10850  1.0000
  Fe  Fe133     1.0  0.50669  0.45373  0.74680  1.0000
  S   S265      1.0  0.53748  0.47012  0.75070  1.0000
  S   S266      1.0  0.48805  0.46938  0.73596  1.0000
  Fe  Fe134     1.0  0.51103  0.41613  0.75459  1.0000
  S   S267      1.0  0.54264  0.43110  0.75924  1.0000
  S   S268      1.0  0.50181  0.38397  0.75232  1.0000
  Fe  Fe135     1.0  0.53666  0.45176  0.78515  1.0000
  S   S269      1.0  0.55339  0.46933  0.82041  1.0000
  Fe  Fe136     1.0  0.54039  0.44814  0.72453  1.0000
  S   S270      1.0  0.56159  0.45747  0.69166  1.0000
  S   S271      1.0  0.50524  0.43613  0.78256  1.0000
  S   S272      1.0  0.50943  0.43248  0.71860  1.0000
  C   C955      1.0  0.31906  0.47700  0.93096  1.0000
  S   S273      1.0  0.56049  0.45394  0.94240  1.0000
  H   H1620     1.0  0.38092  0.48125  0.54681  1.0000
  S   S274      1.0  0.54622  0.46339  0.56893  1.0000
  H   H1621     1.0  0.35076  0.48784  0.86693  1.0000
  S   S275      1.0  0.58691  0.47735  0.51304  1.0000
  C   C956      1.0  0.53437  0.40501  0.69110  1.0000
  S   S276      1.0  0.40067  0.25633  0.75467  1.0000
  H   H1622     1.0  0.38660  0.24912  0.57747  1.0000
  S   S277      1.0  0.41018  0.26318  0.81758  1.0000
  C   C957      1.0  0.31991  0.45927  0.92975  1.0000
  H   H1623     1.0  0.54069  0.43460  0.85066  1.0000
  Fe  Fe137     1.0  0.42317  0.27781  0.78046  1.0000
  S   S278      1.0  0.43058  0.30964  0.77932  1.0000
  S   S279      1.0  0.44346  0.26332  0.77794  1.0000
  C   C958      1.0  0.43125  0.25183  0.64961  1.0000
  H   H1624     1.0  0.61536  0.45590  0.93203  1.0000
  C   C959      1.0  0.50005  0.46302  0.92673  1.0000
  C   C960      1.0  0.33821  0.49034  0.85970  1.0000
  C   C961      1.0  0.48511  0.32026  0.86609  1.0000
  H   H1625     1.0  0.47929  0.35175  0.85083  1.0000
  H   H1626     1.0  0.49723  0.36901  0.66179  1.0000
  H   H1627     1.0  0.50577  0.45318  0.85287  1.0000
  H   H1628     1.0  0.52587  0.40277  0.70903  1.0000
  C   C962      1.0  0.35431  0.47420  0.93476  1.0000
  C   C963      1.0  0.33764  0.45803  0.93163  1.0000
  H   H1629     1.0  0.48397  0.48105  0.49691  1.0000
  H   H1630     1.0  0.45853  0.30037  0.81090  1.0000
  H   H1631     1.0  0.36779  0.47294  0.93622  1.0000
  H   H1632     1.0  0.33854  0.44443  0.93061  1.0000
  C   C964      1.0  0.48173  0.36353  0.75986  1.0000
  C   C965      1.0  0.48263  0.34578  0.75663  1.0000
  C   C966      1.0  0.46717  0.32916  0.76218  1.0000
  C   C967      1.0  0.45046  0.33002  0.77102  1.0000
  C   C968      1.0  0.44954  0.34776  0.77416  1.0000
  C   C969      1.0  0.46503  0.36438  0.76871  1.0000
  H   H1633     1.0  0.49542  0.34487  0.74980  1.0000
  H   H1634     1.0  0.46815  0.31570  0.75956  1.0000
  H   H1635     1.0  0.43674  0.34867  0.78096  1.0000
  H   H1636     1.0  0.46400  0.37783  0.77126  1.0000
  C   C970      1.0  0.55706  0.45839  0.65744  1.0000
  C   C971      1.0  0.57205  0.46820  0.64122  1.0000
  C   C972      1.0  0.56906  0.46984  0.61410  1.0000
  C   C973      1.0  0.55103  0.46133  0.60277  1.0000
  C   C974      1.0  0.53609  0.45111  0.61888  1.0000
  C   C975      1.0  0.53902  0.44986  0.64611  1.0000
  H   H1637     1.0  0.58608  0.47479  0.64975  1.0000
  H   H1638     1.0  0.48002  0.25303  0.59772  1.0000
  H   H1639     1.0  0.52209  0.44450  0.61030  1.0000
  H   H1640     1.0  0.52730  0.44244  0.65830  1.0000
  C   C976      1.0  0.55548  0.46441  0.85404  1.0000
  C   C977      1.0  0.61468  0.48278  0.94610  1.0000
  C   C978      1.0  0.56654  0.47643  0.89856  1.0000
  C   C979      1.0  0.55900  0.45833  0.90842  1.0000
  C   C980      1.0  0.54984  0.44327  0.89090  1.0000
  C   C981      1.0  0.54793  0.44628  0.86388  1.0000
  H   H1641     1.0  0.53720  0.47864  0.67986  1.0000
  C   C982      1.0  0.42085  0.24308  0.88724  1.0000
  H   H1642     1.0  0.54399  0.42920  0.89831  1.0000
  C   C983      1.0  0.48396  0.32840  0.89338  1.0000
  H   H1643     1.0  0.50963  0.35290  0.69897  1.0000
  H   H1644     1.0  0.60209  0.48244  0.93487  1.0000
  C   C984      1.0  0.52968  0.39651  0.64349  1.0000
  H   H1645     1.0  0.50026  0.37823  0.69433  1.0000
  H   H1646     1.0  0.44406  0.31712  0.83329  1.0000
  C   C985      1.0  0.44175  0.29438  0.88524  1.0000
  H   H1647     1.0  0.64039  0.47754  0.90736  1.0000
  C   C986      1.0  0.56493  0.47942  0.87153  1.0000
  H   H1648     1.0  0.49565  0.33143  0.85463  1.0000
  H   H1649     1.0  0.52636  0.46499  0.88781  1.0000
  H   H1650     1.0  0.44904  0.30519  0.90030  1.0000
  H   H1651     1.0  0.51032  0.47456  0.64836  1.0000
  H   H1652     1.0  0.52217  0.38513  0.62892  1.0000
  H   H1653     1.0  0.52673  0.37172  0.71789  1.0000
  H   H1654     1.0  0.56446  0.40981  0.68531  1.0000
  H   H1655     1.0  0.41412  0.24855  0.87247  1.0000
  H   H1656     1.0  0.46329  0.28551  0.87169  1.0000
  H   H1657     1.0  0.43001  0.25877  0.69060  1.0000
  N   N67       1.0  0.52531  0.38944  0.67107  1.0000
  C   C987      1.0  0.42912  0.24788  0.67659  1.0000
  H   H1658     1.0  0.36785  0.47143  0.51727  1.0000
  H   H1659     1.0  0.43608  0.28089  0.89559  1.0000
  H   H1660     1.0  0.53279  0.35337  0.70438  1.0000
  H   H1661     1.0  0.58069  0.47765  0.60195  1.0000
  H   H1662     1.0  0.49249  0.39544  0.64402  1.0000
  H   H1663     1.0  0.49683  0.46819  0.94573  1.0000
  C   C988      1.0  0.45465  0.29297  0.86336  1.0000
  C   C989      1.0  0.36904  0.48114  0.53401  1.0000
  H   H1664     1.0  0.48298  0.28899  0.80161  1.0000
  H   H1665     1.0  0.48056  0.39094  0.67441  1.0000
  H   H1666     1.0  0.56013  0.42136  0.71300  1.0000
  Fe  Fe138     1.0  0.56459  0.48151  0.53689  1.0000
  N   N68       1.0  0.51247  0.47929  0.91096  1.0000
  C   C990      1.0  0.50799  0.44797  0.93322  1.0000
  H   H1667     1.0  0.31956  0.46525  0.87745  1.0000
  H   H1668     1.0  0.53478  0.41854  0.68335  1.0000
  H   H1669     1.0  0.60588  0.48630  0.89294  1.0000
  H   H1670     1.0  0.51156  0.44192  0.91537  1.0000
  H   H1671     1.0  0.52569  0.36284  0.65844  1.0000
  H   H1672     1.0  0.44508  0.28304  0.84848  1.0000
  H   H1673     1.0  0.52037  0.45338  0.94690  1.0000
  H   H1674     1.0  0.62133  0.46105  0.96663  1.0000
  H   H1675     1.0  0.48871  0.45192  0.87575  1.0000
  H   H1676     1.0  0.35574  0.47528  0.54465  1.0000
  C   C991      1.0  0.50422  0.38212  0.67367  1.0000
  H   H1677     1.0  0.45031  0.32623  0.86527  1.0000
  H   H1678     1.0  0.48106  0.31868  0.81350  1.0000
  H   H1679     1.0  0.55460  0.39693  0.71430  1.0000
  C   C992      1.0  0.49465  0.39559  0.66565  1.0000
  H   H1680     1.0  0.50277  0.41009  0.67253  1.0000
  S   S280      1.0  0.54771  0.48181  0.50030  1.0000
  C   C993      1.0  0.46803  0.34346  0.83660  1.0000
  H   H1681     1.0  0.55147  0.40766  0.61503  1.0000
  H   H1682     1.0  0.49715  0.43630  0.94340  1.0000
  H   H1683     1.0  0.37903  0.24771  0.62339  1.0000
  C   C994      1.0  0.45643  0.32378  0.84688  1.0000
  C   C995      1.0  0.47151  0.30609  0.82363  1.0000
  H   H1684     1.0  0.54668  0.37756  0.67450  1.0000
  H   H1685     1.0  0.49516  0.29724  0.83212  1.0000
  N   N69       1.0  0.46693  0.31099  0.85064  1.0000
  C   C996      1.0  0.48102  0.29181  0.82250  1.0000
  H   H1686     1.0  0.43373  0.26581  0.64303  1.0000
  H   H1687     1.0  0.45860  0.35116  0.83372  1.0000
  C   C997      1.0  0.55448  0.40821  0.70113  1.0000
  H   H1688     1.0  0.49193  0.31014  0.86971  1.0000
  C   C998      1.0  0.53122  0.37317  0.67496  1.0000
  H   H1689     1.0  0.49749  0.34015  0.89824  1.0000
  C   C999      1.0  0.55052  0.40487  0.63641  1.0000
  H   H1690     1.0  0.61076  0.46544  0.88884  1.0000
  H   H1691     1.0  0.47420  0.34312  0.81735  1.0000
  H   H1692     1.0  0.47726  0.47583  0.88488  1.0000
  H   H1693     1.0  0.49677  0.47148  0.85362  1.0000
  H   H1694     1.0  0.48135  0.31761  0.90868  1.0000
  H   H1695     1.0  0.47327  0.33461  0.89437  1.0000
  H   H1696     1.0  0.42950  0.29684  0.87680  1.0000
  H   H1697     1.0  0.32593  0.46210  0.84524  1.0000
  Fe  Fe139     1.0  0.42908  0.24752  0.81359  1.0000
  C   C1000     1.0  0.52469  0.36232  0.70060  1.0000
  H   H1698     1.0  0.47228  0.27818  0.83095  1.0000
  H   H1699     1.0  0.55790  0.41866  0.64634  1.0000
  C   C1001     1.0  0.53155  0.48987  0.67920  1.0000
  H   H1700     1.0  0.48617  0.45557  0.91693  1.0000
  H   H1701     1.0  0.55789  0.39535  0.64040  1.0000
  C   C1002     1.0  0.61236  0.46227  0.94997  1.0000
  H   H1702     1.0  0.52461  0.40790  0.63943  1.0000
  C   C1003     1.0  0.50105  0.46196  0.86599  1.0000
  C   C1004     1.0  0.51737  0.47313  0.88504  1.0000
  C   C1005     1.0  0.32132  0.47139  0.85756  1.0000
  H   H1703     1.0  0.38606  0.24691  0.66673  1.0000
  C   C1006     1.0  0.35351  0.49194  0.93595  1.0000
  H   H1704     1.0  0.62072  0.48463  0.86794  1.0000
  H   H1705     1.0  0.53871  0.47970  0.92812  1.0000
  H   H1706     1.0  0.52756  0.49107  0.94746  1.0000
  C   C1007     1.0  0.53053  0.48876  0.92681  1.0000
  H   H1707     1.0  0.57348  0.48814  0.91178  1.0000
  S   S281      1.0  0.43284  0.24354  0.59738  1.0000
  H   H1708     1.0  0.40319  0.24521  0.91826  1.0000
  H   H1709     1.0  0.48772  0.48756  0.80522  1.0000
  H   H1710     1.0  0.46798  0.48295  0.78357  1.0000
  C   C1008     1.0  0.61688  0.48097  0.88863  1.0000
  H   H1711     1.0  0.59764  0.45387  0.95516  1.0000
  H   H1712     1.0  0.50316  0.46902  0.68119  1.0000
  C   C1009     1.0  0.51114  0.48074  0.66826  1.0000
  Fe  Fe140     1.0  0.56855  0.47554  0.97598  1.0000
  H   H1713     1.0  0.52638  0.48540  0.87378  1.0000
  H   H1714     1.0  0.54110  0.48667  0.63317  1.0000
  H   H1715     1.0  0.47428  0.47878  0.91953  1.0000
  C   C1010     1.0  0.48196  0.48559  0.90186  1.0000
  H   H1716     1.0  0.46745  0.49095  0.81698  1.0000
  H   H1717     1.0  0.61341  0.48844  0.96579  1.0000
  H   H1718     1.0  0.50381  0.49055  0.66828  1.0000
  C   C1011     1.0  0.63487  0.48889  0.90641  1.0000
  H   H1719     1.0  0.31567  0.49099  0.81578  1.0000
  H   H1720     1.0  0.33499  0.49104  0.53161  1.0000
  Fe  Fe141     1.0  0.49803  0.57408  0.20668  1.0000
  S   S282      1.0  0.46732  0.55686  0.20416  1.0000
  S   S283      1.0  0.51787  0.55922  0.21519  1.0000
  Fe  Fe142     1.0  0.49254  0.61105  0.19951  1.0000
  S   S284      1.0  0.46099  0.59538  0.19711  1.0000
  S   S285      1.0  0.50052  0.64294  0.19569  1.0000
  Fe  Fe143     1.0  0.46452  0.57854  0.23124  1.0000
  S   S286      1.0  0.44295  0.56769  0.26354  1.0000
  Fe  Fe144     1.0  0.46659  0.57504  0.17025  1.0000
  S   S287      1.0  0.44750  0.56009  0.13511  1.0000
  S   S288      1.0  0.49554  0.59527  0.23557  1.0000
  S   S289      1.0  0.49784  0.59119  0.17086  1.0000
  H   H1721     1.0  0.49229  0.62599  0.37634  1.0000
  S   S290      1.0  0.57981  0.51153  0.03459  1.0000
  H   H1722     1.0  0.48801  0.53004  0.45442  1.0000
  H   H1723     1.0  0.49399  0.55545  0.99191  1.0000
  H   H1724     1.0  0.61275  0.52759  0.41749  1.0000
  H   H1725     1.0  0.58057  0.52201  0.19925  1.0000
  Fe  Fe145     1.0  0.40375  0.51472  0.44924  1.0000
  S   S291      1.0  0.41780  0.54614  0.44484  1.0000
  H   H1726     1.0  0.50705  0.56575  0.04941  1.0000
  Fe  Fe146     1.0  0.44226  0.51162  0.45725  1.0000
  S   S292      1.0  0.45779  0.54228  0.45355  1.0000
  H   H1727     1.0  0.52130  0.72358  0.21708  1.0000
  H   H1728     1.0  0.53354  0.53530  0.24056  1.0000
  S   S293      1.0  0.45271  0.57162  0.01101  1.0000
  Fe  Fe147     1.0  0.43829  0.54019  0.41904  1.0000
  S   S294      1.0  0.45585  0.55799  0.38612  1.0000
  H   H1729     1.0  0.52222  0.54406  0.46461  1.0000
  S   S295      1.0  0.42347  0.50879  0.42132  1.0000
  S   S296      1.0  0.57209  0.71555  0.16492  1.0000
  H   H1730     1.0  0.46591  0.54469  0.27175  1.0000
  H   H1731     1.0  0.56775  0.73908  0.30644  1.0000
  N   N70       1.0  0.55241  0.72513  0.25267  1.0000
  H   H1732     1.0  0.53183  0.50126  0.43171  1.0000
  C   C1012     1.0  0.51768  0.53427  0.05390  1.0000
  H   H1733     1.0  0.62497  0.52392  0.38906  1.0000
  H   H1734     1.0  0.57462  0.72065  0.27542  1.0000
  S   S297      1.0  0.45904  0.49393  0.46780  1.0000
  C   C1013     1.0  0.50459  0.56090  0.00811  1.0000
  H   H1735     1.0  0.45449  0.53350  0.31481  1.0000
  H   H1736     1.0  0.54402  0.54642  0.18921  1.0000
  H   H1737     1.0  0.57342  0.70580  0.22950  1.0000
  C   C1014     1.0  0.45568  0.50871  0.03058  1.0000
  N   N71       1.0  0.47541  0.52653  0.29499  1.0000
  C   C1015     1.0  0.52064  0.66289  0.18700  1.0000
  C   C1016     1.0  0.51866  0.68004  0.18281  1.0000
  C   C1017     1.0  0.53408  0.69622  0.17567  1.0000
  C   C1018     1.0  0.55184  0.69553  0.17296  1.0000
  C   C1019     1.0  0.55377  0.67837  0.17708  1.0000
  C   C1020     1.0  0.53833  0.66217  0.18397  1.0000
  H   H1738     1.0  0.50506  0.68081  0.18500  1.0000
  H   H1739     1.0  0.53226  0.70921  0.17235  1.0000
  H   H1740     1.0  0.56739  0.67762  0.17496  1.0000
  H   H1741     1.0  0.54015  0.64915  0.18705  1.0000
  C   C1021     1.0  0.44940  0.56325  0.10063  1.0000
  C   C1022     1.0  0.46454  0.57753  0.08970  1.0000
  C   C1023     1.0  0.46507  0.58018  0.06235  1.0000
  C   C1024     1.0  0.45097  0.56791  0.04541  1.0000
  C   C1025     1.0  0.43615  0.55314  0.05624  1.0000
  C   C1026     1.0  0.43525  0.55102  0.08373  1.0000
  H   H1742     1.0  0.47593  0.58630  0.10237  1.0000
  H   H1743     1.0  0.47672  0.59149  0.05415  1.0000
  H   H1744     1.0  0.42519  0.54360  0.04350  1.0000
  H   H1745     1.0  0.42350  0.53981  0.09195  1.0000
  C   C1027     1.0  0.44661  0.56574  0.29781  1.0000
  C   C1028     1.0  0.46415  0.57486  0.31031  1.0000
  C   C1029     1.0  0.46654  0.57255  0.33742  1.0000
  C   C1030     1.0  0.45152  0.56095  0.35234  1.0000
  C   C1031     1.0  0.43391  0.55200  0.33995  1.0000
  C   C1032     1.0  0.43147  0.55449  0.31287  1.0000
  H   H1746     1.0  0.47587  0.58369  0.29905  1.0000
  H   H1747     1.0  0.48021  0.57963  0.34680  1.0000
  H   H1748     1.0  0.42219  0.54310  0.35114  1.0000
  H   H1749     1.0  0.41781  0.54745  0.30344  1.0000
  C   C1033     1.0  0.50893  0.53463  0.21896  1.0000
  C   C1034     1.0  0.49130  0.52302  0.20860  1.0000
  H   H1750     1.0  0.46275  0.49872  0.02882  1.0000
  H   H1751     1.0  0.56918  0.49443  0.41241  1.0000
  C   C1035     1.0  0.51325  0.50700  0.23578  1.0000
  C   C1036     1.0  0.51992  0.52648  0.23237  1.0000
  H   H1752     1.0  0.48283  0.52898  0.19769  1.0000
  C   C1037     1.0  0.46894  0.52896  0.02466  1.0000
  C   C1038     1.0  0.49343  0.58774  0.46663  1.0000
  H   H1753     1.0  0.48024  0.53547  0.25461  1.0000
  H   H1754     1.0  0.53519  0.67669  0.25947  1.0000
  H   H1755     1.0  0.49999  0.52406  0.01928  1.0000
  H   H1756     1.0  0.52027  0.56268  0.29867  1.0000
  H   H1757     1.0  0.50420  0.60228  0.43198  1.0000
  C   C1039     1.0  0.55127  0.50447  0.18720  1.0000
  H   H1758     1.0  0.52764  0.53070  0.04166  1.0000
  H   H1759     1.0  0.48970  0.51243  0.27262  1.0000
  S   S298      1.0  0.58680  0.51183  0.47561  1.0000
  C   C1040     1.0  0.55417  0.50642  0.13940  1.0000
  H   H1760     1.0  0.43912  0.51233  0.26761  1.0000
  H   H1761     1.0  0.52165  0.50108  0.24685  1.0000
  Fe  Fe148     1.0  0.43618  0.54537  0.47942  1.0000
  C   C1041     1.0  0.45981  0.52205  0.31426  1.0000
  H   H1762     1.0  0.50294  0.61167  0.39117  1.0000
  Fe  Fe149     1.0  0.56257  0.50944  0.99723  1.0000
  H   H1763     1.0  0.31693  0.52158  0.36402  1.0000
  N   N72       1.0  0.54846  0.51445  0.16317  1.0000
  C   C1042     1.0  0.58162  0.72060  0.23517  1.0000
  H   H1764     1.0  0.53225  0.50451  0.10956  1.0000
  H   H1765     1.0  0.49259  0.51138  0.30712  1.0000
  H   H1766     1.0  0.47090  0.49473  0.20413  1.0000
  H   H1767     1.0  0.52919  0.69008  0.28417  1.0000
  N   N73       1.0  0.48584  0.53756  0.04305  1.0000
  H   H1768     1.0  0.43830  0.60020  0.41965  1.0000
  N   N74       1.0  0.47729  0.60463  0.43686  1.0000
  C   C1043     1.0  0.49552  0.49541  0.22569  1.0000
  H   H1769     1.0  0.50503  0.55933  0.27074  1.0000
  C   C1044     1.0  0.47869  0.53643  0.07059  1.0000
  H   H1770     1.0  0.54941  0.71596  0.30789  1.0000
  H   H1771     1.0  0.50550  0.54788  0.09385  1.0000
  N   N75       1.0  0.47900  0.63485  0.11162  1.0000
  C   C1045     1.0  0.46933  0.62111  0.13268  1.0000
  C   C1046     1.0  0.49676  0.63205  0.10520  1.0000
  C   C1047     1.0  0.46581  0.63036  0.08782  1.0000
  C   C1048     1.0  0.48289  0.65423  0.12228  1.0000
  C   C1049     1.0  0.44973  0.62027  0.14025  1.0000
  C   C1050     1.0  0.51197  0.63712  0.12727  1.0000
  C   C1051     1.0  0.47453  0.63667  0.06088  1.0000
  C   C1052     1.0  0.49485  0.67087  0.10558  1.0000
  H   H1772     1.0  0.46755  0.60666  0.12684  1.0000
  H   H1773     1.0  0.47790  0.62420  0.15120  1.0000
  H   H1774     1.0  0.50381  0.64031  0.08813  1.0000
  H   H1775     1.0  0.49345  0.61731  0.09909  1.0000
  H   H1776     1.0  0.45793  0.61492  0.08559  1.0000
  H   H1777     1.0  0.45493  0.63638  0.09022  1.0000
  H   H1778     1.0  0.46951  0.65619  0.12525  1.0000
  H   H1779     1.0  0.48938  0.65627  0.14244  1.0000
  H   H1780     1.0  0.45055  0.63338  0.15010  1.0000
  H   H1781     1.0  0.43961  0.61678  0.12334  1.0000
  H   H1782     1.0  0.44370  0.60891  0.15454  1.0000
  H   H1783     1.0  0.52435  0.63472  0.12007  1.0000
  H   H1784     1.0  0.51694  0.65210  0.13306  1.0000
  H   H1785     1.0  0.50722  0.62828  0.14469  1.0000
  H   H1786     1.0  0.46306  0.63439  0.04599  1.0000
  H   H1787     1.0  0.48231  0.62802  0.05432  1.0000
  H   H1788     1.0  0.48378  0.65164  0.06060  1.0000
  H   H1789     1.0  0.48587  0.67484  0.09148  1.0000
  H   H1790     1.0  0.50607  0.66850  0.09495  1.0000
  H   H1791     1.0  0.50244  0.68306  0.11881  1.0000
  H   H1792     1.0  0.47447  0.52195  0.07808  1.0000
  C   C1053     1.0  0.50845  0.55197  0.28748  1.0000
  H   H1793     1.0  0.57816  0.50217  0.17814  1.0000
  H   H1794     1.0  0.48684  0.55493  0.31064  1.0000
  H   H1795     1.0  0.56072  0.53969  0.20782  1.0000
  C   C1054     1.0  0.55156  0.73592  0.22839  1.0000
  C   C1055     1.0  0.47628  0.60960  0.40837  1.0000
  H   H1796     1.0  0.45708  0.58721  0.46446  1.0000
  S   S299      1.0  0.63257  0.51365  0.01120  1.0000
  C   C1056     1.0  0.56041  0.53508  0.16473  1.0000
  H   H1797     1.0  0.52488  0.70352  0.24516  1.0000
  C   C1057     1.0  0.44253  0.60030  0.44065  1.0000
  H   H1798     1.0  0.50206  0.59992  0.47914  1.0000
  C   C1058     1.0  0.55806  0.54568  0.18921  1.0000
  S   S300      1.0  0.54692  0.52802  0.98563  1.0000
  H   H1799     1.0  0.52409  0.51754  0.17910  1.0000
  N   N76       1.0  0.63608  0.50559  0.43119  1.0000
  H   H1800     1.0  0.47975  0.63293  0.44500  1.0000
  H   H1801     1.0  0.46760  0.61815  0.40579  1.0000
  H   H1802     1.0  0.54258  0.69964  0.22866  1.0000
  C   C1059     1.0  0.46501  0.51898  0.34278  1.0000
  S   S301      1.0  0.37169  0.50405  0.45461  1.0000
  H   H1803     1.0  0.45482  0.50506  0.24806  1.0000
  H   H1804     1.0  0.64265  0.54485  0.42722  1.0000
  H   H1805     1.0  0.46912  0.59679  0.39601  1.0000
  C   C1060     1.0  0.53973  0.70495  0.24770  1.0000
  C   C1061     1.0  0.45168  0.51703  0.25534  1.0000
  H   H1806     1.0  0.47349  0.53249  0.35277  1.0000
  C   C1062     1.0  0.48498  0.62246  0.45320  1.0000
  C   C1063     1.0  0.49515  0.62074  0.39555  1.0000
  H   H1807     1.0  0.46020  0.53755  0.02438  1.0000
  H   H1808     1.0  0.49755  0.54028  0.32419  1.0000
  H   H1809     1.0  0.47322  0.52865  0.00409  1.0000
  H   H1810     1.0  0.51732  0.52791  0.07344  1.0000
  H   H1811     1.0  0.48442  0.58111  0.42610  1.0000
  H   H1812     1.0  0.58384  0.72955  0.21770  1.0000
  H   H1813     1.0  0.52394  0.54965  0.05603  1.0000
  H   H1814     1.0  0.50408  0.63305  0.40758  1.0000
  H   H1815     1.0  0.51358  0.54134  0.28019  1.0000
  H   H1816     1.0  0.55331  0.69338  0.27820  1.0000
  C   C1064     1.0  0.52809  0.51185  0.16122  1.0000
  H   H1817     1.0  0.57558  0.53762  0.16359  1.0000
  H   H1818     1.0  0.55386  0.50550  0.09677  1.0000
  C   C1065     1.0  0.46898  0.53186  0.26918  1.0000
  Fe  Fe150     1.0  0.60032  0.50527  0.00867  1.0000
  H   H1819     1.0  0.64628  0.50033  0.39399  1.0000
  C   C1066     1.0  0.64015  0.52056  0.45229  1.0000
  C   C1067     1.0  0.54573  0.73339  0.27542  1.0000
  H   H1820     1.0  0.59576  0.72154  0.24193  1.0000
  H   H1821     1.0  0.52528  0.52023  0.14523  1.0000
  H   H1822     1.0  0.55505  0.72963  0.21059  1.0000
  H   H1823     1.0  0.47260  0.50941  0.34392  1.0000
  H   H1824     1.0  0.51164  0.57618  0.00503  1.0000
  C   C1068     1.0  0.53247  0.73738  0.22203  1.0000
  C   C1069     1.0  0.57262  0.72761  0.25737  1.0000
  C   C1070     1.0  0.48461  0.50355  0.21209  1.0000
  C   C1071     1.0  0.49566  0.55769  0.03528  1.0000
  C   C1072     1.0  0.49806  0.52647  0.04027  1.0000
  H   H1825     1.0  0.55251  0.52647  0.10960  1.0000
  H   H1826     1.0  0.46574  0.53954  0.07066  1.0000
  C   C1073     1.0  0.61406  0.51714  0.40351  1.0000
  C   C1074     1.0  0.49442  0.52244  0.46613  1.0000
  C   C1075     1.0  0.49196  0.54953  0.09177  1.0000
  H   H1827     1.0  0.33317  0.49448  0.46808  1.0000
  H   H1828     1.0  0.55737  0.54236  0.14756  1.0000
  C   C1076     1.0  0.53945  0.69077  0.26890  1.0000
  C   C1077     1.0  0.54771  0.51121  0.11250  1.0000
  H   H1829     1.0  0.48034  0.57937  0.47656  1.0000
  H   H1830     1.0  0.52820  0.49819  0.39640  1.0000
  C   C1078     1.0  0.48214  0.51077  0.29129  1.0000
  H   H1831     1.0  0.53010  0.72782  0.27545  1.0000
  H   H1832     1.0  0.62702  0.51929  0.46217  1.0000
  H   H1833     1.0  0.49435  0.56438  0.08826  1.0000
  H   H1834     1.0  0.51551  0.55494  0.00663  1.0000
  H   H1835     1.0  0.51968  0.51313  0.41415  1.0000
  H   H1836     1.0  0.49093  0.51210  0.04784  1.0000
  H   H1837     1.0  0.56266  0.49902  0.36544  1.0000
  H   H1838     1.0  0.57188  0.49886  0.21166  1.0000
  H   H1839     1.0  0.48572  0.56492  0.03549  1.0000
  H   H1840     1.0  0.54525  0.73614  0.31785  1.0000
  H   H1841     1.0  0.44705  0.61465  0.44895  1.0000
  H   H1842     1.0  0.56971  0.51098  0.13893  1.0000
  H   H1843     1.0  0.56839  0.56036  0.18881  1.0000
  H   H1844     1.0  0.44916  0.50757  0.04996  1.0000
  C   C1079     1.0  0.57175  0.50727  0.19412  1.0000
  H   H1845     1.0  0.48509  0.54615  0.11105  1.0000
  C   C1080     1.0  0.45770  0.59200  0.44406  1.0000
  H   H1846     1.0  0.42976  0.59138  0.45103  1.0000
  C   C1081     1.0  0.49164  0.54352  0.30560  1.0000
  H   H1847     1.0  0.54527  0.50845  0.20478  1.0000
  C   C1082     1.0  0.48349  0.50464  0.47514  1.0000
  H   H1848     1.0  0.60573  0.49658  0.43291  1.0000
  H   H1849     1.0  0.50056  0.62894  0.45209  1.0000
  H   H1850     1.0  0.44399  0.50412  0.01571  1.0000
  H   H1851     1.0  0.64306  0.55457  0.01558  1.0000
  C   C1083     1.0  0.51054  0.50107  0.98709  1.0000
  H   H1852     1.0  0.44736  0.50955  0.30827  1.0000
  H   H1853     1.0  0.44791  0.52336  0.23772  1.0000
  C   C1084     1.0  0.51390  0.53029  0.47168  1.0000
  H   H1854     1.0  0.45195  0.51277  0.35404  1.0000
  C   C1085     1.0  0.61699  0.50114  0.41826  1.0000
  H   H1855     1.0  0.50156  0.57866  0.46490  1.0000
  H   H1856     1.0  0.60054  0.51132  0.39217  1.0000
  C   C1086     1.0  0.55251  0.73074  0.30328  1.0000
  C   C1087     1.0  0.48995  0.59388  0.43898  1.0000
  C   C1088     1.0  0.52180  0.49974  0.41504  1.0000
  H   H1857     1.0  0.45294  0.57886  0.43207  1.0000
  H   H1858     1.0  0.51636  0.49251  0.99788  1.0000
  Fe  Fe151     1.0  0.50361  0.57235  0.70630  1.0000
  S   S302      1.0  0.47295  0.55510  0.70337  1.0000
  S   S303      1.0  0.52276  0.55736  0.71843  1.0000
  Fe  Fe152     1.0  0.49808  0.60846  0.69159  1.0000
  S   S304      1.0  0.46649  0.59253  0.68806  1.0000
  S   S305      1.0  0.50667  0.63973  0.68153  1.0000
  Fe  Fe153     1.0  0.46943  0.57851  0.72577  1.0000
  S   S306      1.0  0.44760  0.56978  0.75811  1.0000
  Fe  Fe154     1.0  0.47304  0.57053  0.66607  1.0000
  S   S307      1.0  0.45818  0.55106  0.63131  1.0000
  S   S308      1.0  0.50041  0.59546  0.73065  1.0000
  S   S309      1.0  0.50427  0.58676  0.66773  1.0000
  H   H1859     1.0  0.48937  0.51702  0.58923  1.0000
  C   C1089     1.0  0.52232  0.51888  0.97899  1.0000
  C   C1090     1.0  0.45593  0.51130  0.76947  1.0000
  H   H1860     1.0  0.52327  0.49893  0.75441  1.0000
  C   C1091     1.0  0.33574  0.49318  0.93394  1.0000
  S   S310      1.0  0.63361  0.51813  0.52019  1.0000
  Fe  Fe155     1.0  0.40633  0.52213  0.94407  1.0000
  S   S311      1.0  0.42228  0.55361  0.94208  1.0000
  S   S312      1.0  0.37400  0.51296  0.94000  1.0000
  Fe  Fe156     1.0  0.44328  0.51619  0.95298  1.0000
  S   S313      1.0  0.46055  0.54665  0.95111  1.0000
  C   C1092     1.0  0.53835  0.52259  0.66952  1.0000
  H   H1861     1.0  0.53627  0.53318  0.74759  1.0000
  S   S314      1.0  0.44565  0.56796  0.51152  1.0000
  Fe  Fe157     1.0  0.44223  0.54689  0.91612  1.0000
  S   S315      1.0  0.45966  0.56363  0.88214  1.0000
  H   H1862     1.0  0.38596  0.53784  0.58978  1.0000
  S   S316      1.0  0.42583  0.51572  0.91645  1.0000
  S   S317      1.0  0.57822  0.71703  0.67213  1.0000
  C   C1093     1.0  0.49259  0.53234  0.58948  1.0000
  C   C1094     1.0  0.49289  0.52705  0.54192  1.0000
  H   H1863     1.0  0.33493  0.50682  0.93478  1.0000
  C   C1095     1.0  0.53043  0.69561  0.73506  1.0000
  H   H1864     1.0  0.46836  0.62566  0.48609  1.0000
  H   H1865     1.0  0.46922  0.53320  0.52554  1.0000
  C   C1096     1.0  0.52272  0.52035  0.48598  1.0000
  C   C1097     1.0  0.56770  0.51582  0.70469  1.0000
  H   H1866     1.0  0.62138  0.51815  0.89612  1.0000
  C   C1098     1.0  0.55647  0.72204  0.75724  1.0000
  H   H1867     1.0  0.55047  0.72373  0.70439  1.0000
  H   H1868     1.0  0.64549  0.50054  0.89577  1.0000
  H   H1869     1.0  0.56553  0.54495  0.65916  1.0000
  H   H1870     1.0  0.47877  0.53364  0.59122  1.0000
  C   C1099     1.0  0.52701  0.66072  0.67769  1.0000
  C   C1100     1.0  0.52473  0.67659  0.66730  1.0000
  C   C1101     1.0  0.54021  0.69376  0.66473  1.0000
  C   C1102     1.0  0.55826  0.69540  0.67284  1.0000
  C   C1103     1.0  0.56057  0.67948  0.68297  1.0000
  C   C1104     1.0  0.54510  0.66229  0.68538  1.0000
  H   H1871     1.0  0.51084  0.67558  0.66117  1.0000
  H   H1872     1.0  0.53815  0.70573  0.65665  1.0000
  H   H1873     1.0  0.57443  0.68050  0.68925  1.0000
  H   H1874     1.0  0.54717  0.65030  0.69341  1.0000
  C   C1105     1.0  0.45459  0.55637  0.59833  1.0000
  C   C1106     1.0  0.44584  0.54150  0.58039  1.0000
  C   C1107     1.0  0.44307  0.54486  0.55381  1.0000
  C   C1108     1.0  0.44888  0.56318  0.54487  1.0000
  C   C1109     1.0  0.45748  0.57809  0.56281  1.0000
  C   C1110     1.0  0.46041  0.57472  0.58941  1.0000
  H   H1875     1.0  0.44126  0.52726  0.58713  1.0000
  H   H1876     1.0  0.43652  0.53327  0.54022  1.0000
  H   H1877     1.0  0.46196  0.59234  0.55614  1.0000
  H   H1878     1.0  0.46712  0.58630  0.60302  1.0000
  C   C1111     1.0  0.45108  0.56875  0.79272  1.0000
  C   C1112     1.0  0.46876  0.57739  0.80509  1.0000
  C   C1113     1.0  0.47097  0.57583  0.83244  1.0000
  C   C1114     1.0  0.45563  0.56551  0.84785  1.0000
  C   C1115     1.0  0.43793  0.55688  0.83551  1.0000
  C   C1116     1.0  0.43567  0.55864  0.80817  1.0000
  H   H1879     1.0  0.48071  0.58536  0.79359  1.0000
  H   H1880     1.0  0.48471  0.58262  0.84174  1.0000
  H   H1881     1.0  0.42598  0.54897  0.84705  1.0000
  H   H1882     1.0  0.42191  0.55198  0.79888  1.0000
  C   C1117     1.0  0.51302  0.53286  0.72298  1.0000
  C   C1118     1.0  0.49587  0.52148  0.71105  1.0000
  H   H1883     1.0  0.52708  0.73281  0.68280  1.0000
  H   H1884     1.0  0.38558  0.50473  0.51165  1.0000
  C   C1119     1.0  0.51572  0.50504  0.74191  1.0000
  C   C1120     1.0  0.52296  0.52452  0.73831  1.0000
  H   H1885     1.0  0.48831  0.52757  0.69856  1.0000
  H   H1886     1.0  0.35730  0.52194  0.57216  1.0000
  N   N77       1.0  0.54454  0.50662  0.66466  1.0000
  H   H1887     1.0  0.53653  0.72290  0.94439  1.0000
  C   C1121     1.0  0.37663  0.53333  0.52889  1.0000
  H   H1888     1.0  0.50406  0.56392  0.53879  1.0000
  H   H1889     1.0  0.36472  0.53094  0.51471  1.0000
  C   C1122     1.0  0.52305  0.72452  0.70094  1.0000
  H   H1890     1.0  0.48544  0.53913  0.75430  1.0000
  H   H1891     1.0  0.62071  0.53391  0.92128  1.0000
  H   H1892     1.0  0.48299  0.55534  0.55651  1.0000
  H   H1893     1.0  0.47335  0.53828  0.85224  1.0000
  C   C1123     1.0  0.47175  0.52189  0.53619  1.0000
  H   H1894     1.0  0.52273  0.71230  0.77831  1.0000
  C   C1124     1.0  0.48849  0.50206  0.71499  1.0000
  H   H1895     1.0  0.49447  0.51356  0.54557  1.0000
  H   H1896     1.0  0.42938  0.50943  0.75136  1.0000
  C   C1125     1.0  0.39062  0.51821  0.56163  1.0000
  H   H1897     1.0  0.54847  0.55289  0.67013  1.0000
  H   H1898     1.0  0.52327  0.54367  0.95908  1.0000
  H   H1899     1.0  0.50614  0.56747  0.77558  1.0000
  H   H1900     1.0  0.52387  0.66761  0.74962  1.0000
  H   H1901     1.0  0.49225  0.63090  0.49422  1.0000
  C   C1126     1.0  0.39446  0.54164  0.51249  1.0000
  C   C1127     1.0  0.63388  0.51511  0.93418  1.0000
  H   H1902     1.0  0.63308  0.51980  0.95469  1.0000
  S   S318      1.0  0.42244  0.51975  0.98077  1.0000
  C   C1128     1.0  0.49836  0.49371  0.73037  1.0000
  S   S319      1.0  0.42146  0.51464  0.48531  1.0000
  C   C1129     1.0  0.52394  0.71967  0.75939  1.0000
  H   H1903     1.0  0.48901  0.53188  0.94954  1.0000
  H   H1904     1.0  0.53797  0.51866  0.91765  1.0000
  H   H1905     1.0  0.49736  0.56032  0.80722  1.0000
  C   C1130     1.0  0.54294  0.50151  0.63579  1.0000
  H   H1906     1.0  0.40289  0.51788  0.55092  1.0000
  H   H1907     1.0  0.51560  0.69074  0.72766  1.0000
  H   H1908     1.0  0.40636  0.53835  0.52003  1.0000
  C   C1131     1.0  0.50340  0.49330  0.90702  1.0000
  H   H1909     1.0  0.39957  0.55715  0.51288  1.0000
  C   C1132     1.0  0.50594  0.57456  0.57843  1.0000
  S   S320      1.0  0.58446  0.50627  0.97116  1.0000
  H   H1910     1.0  0.43657  0.52540  0.77873  1.0000
  H   H1911     1.0  0.58275  0.51920  0.70973  1.0000
  H   H1912     1.0  0.58247  0.71701  0.75749  1.0000
  C   C1133     1.0  0.49105  0.49440  0.98164  1.0000
  H   H1913     1.0  0.56772  0.70638  0.73017  1.0000
  H   H1914     1.0  0.52132  0.57951  0.58179  1.0000
  H   H1915     1.0  0.47675  0.60713  0.49142  1.0000
  H   H1916     1.0  0.50580  0.50243  0.92476  1.0000
  C   C1134     1.0  0.54410  0.50784  0.91684  1.0000
  C   C1135     1.0  0.48305  0.50553  0.96841  1.0000
  H   H1917     1.0  0.56472  0.52832  0.70991  1.0000
  H   H1918     1.0  0.45166  0.51262  0.81821  1.0000
  C   C1136     1.0  0.49483  0.52331  0.96031  1.0000
  H   H1919     1.0  0.46138  0.50780  0.75094  1.0000
  H   H1920     1.0  0.64646  0.49711  0.97208  1.0000
  C   C1137     1.0  0.51433  0.52991  0.96555  1.0000
  H   H1921     1.0  0.51496  0.55423  0.61459  1.0000
  H   H1922     1.0  0.49234  0.53706  0.83461  1.0000
  C   C1138     1.0  0.57254  0.71905  0.74288  1.0000
  H   H1923     1.0  0.51552  0.70975  0.69455  1.0000
  H   H1924     1.0  0.47508  0.51636  0.84886  1.0000
  N   N78       1.0  0.53798  0.71616  0.74229  1.0000
  H   H1925     1.0  0.53032  0.55589  0.57939  1.0000
  Fe  Fe158     1.0  0.60150  0.50898  0.51336  1.0000
  C   C1139     1.0  0.55029  0.54170  0.65808  1.0000
  H   H1926     1.0  0.57484  0.52240  0.66477  1.0000
  H   H1927     1.0  0.47765  0.49748  0.89772  1.0000
  C   C1140     1.0  0.39747  0.53618  0.57884  1.0000
  H   H1928     1.0  0.50992  0.53020  0.62323  1.0000
  H   H1929     1.0  0.46338  0.51829  0.55413  1.0000
  H   H1930     1.0  0.56359  0.52771  0.61952  1.0000
  H   H1931     1.0  0.58027  0.73128  0.73062  1.0000
  H   H1932     1.0  0.47506  0.49344  0.70598  1.0000
  H   H1933     1.0  0.53054  0.49352  0.70005  1.0000
  H   H1934     1.0  0.40460  0.54882  0.56705  1.0000
  C   C1141     1.0  0.50011  0.55503  0.78818  1.0000
  H   H1935     1.0  0.52850  0.55184  0.54535  1.0000
  H   H1936     1.0  0.52553  0.51973  0.54982  1.0000
  H   H1937     1.0  0.46631  0.50935  0.52305  1.0000
  H   H1938     1.0  0.37602  0.54441  0.54244  1.0000
  H   H1939     1.0  0.57082  0.49349  0.86411  1.0000
  H   H1940     1.0  0.57702  0.73971  0.96238  1.0000
  N   N79       1.0  0.63273  0.49520  0.93383  1.0000
  H   H1941     1.0  0.51103  0.54908  0.79027  1.0000
  H   H1942     1.0  0.60458  0.51032  0.92220  1.0000
  H   H1943     1.0  0.52387  0.51917  0.66153  1.0000
  Fe  Fe159     1.0  0.56371  0.51266  0.50154  1.0000
  H   H1944     1.0  0.51631  0.74106  0.77791  1.0000
  H   H1945     1.0  0.49405  0.54092  0.63057  1.0000
  N   N80       1.0  0.47195  0.52290  0.78776  1.0000
  C   C1142     1.0  0.52599  0.72039  0.88857  1.0000
  H   H1946     1.0  0.53806  0.69281  0.71850  1.0000
  H   H1947     1.0  0.55680  0.51297  0.92999  1.0000
  N   N81       1.0  0.37417  0.51559  0.54316  1.0000
  C   C1143     1.0  0.55967  0.51243  0.61854  1.0000
  H   H1948     1.0  0.55582  0.73124  0.88622  1.0000
  H   H1949     1.0  0.54578  0.54281  0.63753  1.0000
  C   C1144     1.0  0.55088  0.73216  0.93847  1.0000
  C   C1145     1.0  0.46404  0.52546  0.81365  1.0000
  H   H1950     1.0  0.52371  0.70988  0.90413  1.0000
  C   C1146     1.0  0.48190  0.54142  0.77473  1.0000
  C   C1147     1.0  0.61912  0.51924  0.91737  1.0000
  C   C1148     1.0  0.53082  0.68225  0.75714  1.0000
  H   H1951     1.0  0.55579  0.50791  0.59773  1.0000
  C   C1149     1.0  0.52250  0.54529  0.56425  1.0000
  H   H1952     1.0  0.47261  0.54932  0.77281  1.0000
  H   H1953     1.0  0.64393  0.55888  0.51445  1.0000
  H   H1954     1.0  0.55704  0.72278  0.92931  1.0000
  H   H1955     1.0  0.38721  0.50630  0.57535  1.0000
  C   C1150     1.0  0.48513  0.51280  0.79044  1.0000
  H   H1956     1.0  0.49851  0.57086  0.59722  1.0000
  H   H1957     1.0  0.40800  0.53552  0.59364  1.0000
  H   H1958     1.0  0.44781  0.53160  0.74745  1.0000
  S   S321      1.0  0.45843  0.49664  0.96214  1.0000
  H   H1959     1.0  0.50959  0.71369  0.75015  1.0000
  H   H1960     1.0  0.57210  0.50906  0.62353  1.0000
  H   H1961     1.0  0.45866  0.53684  0.81236  1.0000
  C   C1151     1.0  0.49824  0.55837  0.55820  1.0000
  H   H1962     1.0  0.53697  0.52473  0.69074  1.0000
  H   H1963     1.0  0.52305  0.68364  0.77449  1.0000
  H   H1964     1.0  0.44748  0.49767  0.77835  1.0000
  C   C1152     1.0  0.56421  0.51077  0.67518  1.0000
  H   H1965     1.0  0.56191  0.73724  0.76198  1.0000
  H   H1966     1.0  0.55493  0.71551  0.77688  1.0000
  H   H1967     1.0  0.50021  0.53236  0.52331  1.0000
  N   N82       1.0  0.50166  0.54087  0.56422  1.0000
  C   C1153     1.0  0.52828  0.52843  0.56803  1.0000
  S   S322      1.0  0.57968  0.51281  0.53939  1.0000
  H   H1968     1.0  0.54539  0.68418  0.76304  1.0000
  H   H1969     1.0  0.51822  0.49494  0.50673  1.0000
  H   H1970     1.0  0.53016  0.50260  0.62659  1.0000
  C   C1154     1.0  0.54515  0.73690  0.89185  1.0000
  H   H1971     1.0  0.51421  0.72529  0.88777  1.0000
  H   H1972     1.0  0.54367  0.53362  0.57208  1.0000
  H   H1973     1.0  0.50305  0.58666  0.57087  1.0000
  C   C1155     1.0  0.47728  0.52946  0.83821  1.0000
  H   H1974     1.0  0.49729  0.52021  0.80380  1.0000
  C   C1156     1.0  0.44175  0.52015  0.76156  1.0000
  H   H1975     1.0  0.49147  0.51251  0.77132  1.0000
  Fe  Fe160     1.0  0.43928  0.55053  0.97720  1.0000
  C   C1157     1.0  0.51178  0.50256  0.49505  1.0000
  H   H1976     1.0  0.52549  0.71316  0.86949  1.0000
  H   H1977     1.0  0.56810  0.49850  0.67165  1.0000
  H   H1978     1.0  0.55960  0.50393  0.71715  1.0000
  C   C1158     1.0  0.54097  0.72730  0.71749  1.0000
  C   C1159     1.0  0.52815  0.74034  0.76659  1.0000
  H   H1979     1.0  0.33603  0.49998  0.87426  1.0000
  H   H1980     1.0  0.39141  0.53657  0.49181  1.0000
  H   H1981     1.0  0.54893  0.50684  0.89681  1.0000
  H   H1982     1.0  0.52117  0.51959  0.58459  1.0000
  C   C1160     1.0  0.50387  0.54009  0.61544  1.0000
  S   S323      1.0  0.54718  0.53093  0.49313  1.0000
  C   C1161     1.0  0.49228  0.49477  0.48968  1.0000
  H   H1983     1.0  0.51002  0.50288  0.89071  1.0000
  H   H1984     1.0  0.55626  0.73074  0.98045  1.0000
  H   H1985     1.0  0.51341  0.72956  0.71137  1.0000
  C   C1162     1.0  0.56281  0.74006  0.96393  1.0000
  C   C1163     1.0  0.37256  0.50067  0.52307  1.0000
  H   H1986     1.0  0.33700  0.51514  0.53069  1.0000
  C   C1164     1.0  0.35671  0.51012  0.55914  1.0000
  H   H1987     1.0  0.34173  0.49726  0.84051  1.0000
  H   H1988     1.0  0.52059  0.74108  0.92571  1.0000
  H   H1989     1.0  0.32628  0.50068  0.55750  1.0000
  C   C1165     1.0  0.33786  0.50396  0.54346  1.0000
  H   H1990     1.0  0.35569  0.49858  0.57271  1.0000
  H   H1991     1.0  0.36130  0.49917  0.50814  1.0000
  C   C1166     1.0  0.47633  0.49242  0.79972  1.0000
  C   C1167     1.0  0.48007  0.62099  0.48264  1.0000
  H   H1992     1.0  0.64756  0.52486  0.92688  1.0000
  Fe  Fe161     1.0  0.50031  0.94837  0.45922  1.0000
  S   S324      1.0  0.46940  0.94067  0.45485  1.0000
  C   C1168     1.0  0.54745  0.94461  0.46107  1.0000
  Fe  Fe162     1.0  0.49617  0.90753  0.45688  1.0000
  S   S325      1.0  0.46445  0.89685  0.45230  1.0000
  C   C1169     1.0  0.47592  0.96814  0.07142  1.0000
  Fe  Fe163     1.0  0.47000  0.92039  0.42339  1.0000
  S   S326      1.0  0.45256  0.92288  0.38774  1.0000
  H   H1993     1.0  0.34014  0.89642  0.10351  1.0000
  S   S327      1.0  0.43757  0.91881  0.01822  1.0000
  S   S328      1.0  0.50150  0.92967  0.42604  1.0000
  H   H1994     1.0  0.54267  0.95469  0.45078  1.0000
  Fe  Fe164     1.0  0.43520  0.91518  0.23430  1.0000
  S   S329      1.0  0.41892  0.93363  0.23864  1.0000
  S   S330      1.0  0.44775  0.90212  0.26568  1.0000
  Fe  Fe165     1.0  0.43776  0.92052  0.17453  1.0000
  S   S331      1.0  0.42205  0.93964  0.17477  1.0000
  S   S332      1.0  0.45189  0.91226  0.14070  1.0000
  Fe  Fe166     1.0  0.43975  0.95282  0.21097  1.0000
  H   H1995     1.0  0.49791  0.86081  0.21065  1.0000
  Fe  Fe167     1.0  0.40237  0.91866  0.20217  1.0000
  S   S333      1.0  0.37066  0.91177  0.19637  1.0000
  S   S334      1.0  0.45679  0.93521  0.20866  1.0000
  S   S335      1.0  0.41731  0.89877  0.19985  1.0000
  Fe  Fe168     1.0  0.60705  0.83411  0.41290  1.0000
  S   S336      1.0  0.60156  0.80365  0.41264  1.0000
  H   H1996     1.0  0.54571  0.87956  0.47424  1.0000
  Fe  Fe169     1.0  0.56551  0.82689  0.40704  1.0000
  S   S337      1.0  0.55735  0.79552  0.40602  1.0000
  S   S338      1.0  0.54219  0.83768  0.39910  1.0000
  Fe  Fe170     1.0  0.57828  0.80092  0.43985  1.0000
  H   H1997     1.0  0.57476  0.97795  0.42111  1.0000
  Fe  Fe171     1.0  0.58149  0.80122  0.37886  1.0000
  S   S339      1.0  0.58467  0.78378  0.34426  1.0000
  S   S340      1.0  0.58498  0.83185  0.44252  1.0000
  S   S341      1.0  0.58831  0.83206  0.37762  1.0000
  H   H1998     1.0  0.44784  0.97745  0.05049  1.0000
  S   S342      1.0  0.55781  0.76077  0.16039  1.0000
  Fe  Fe172     1.0  0.61200  0.78527  0.15430  1.0000
  S   S343      1.0  0.59309  0.80110  0.15488  1.0000
  C   C1170     1.0  0.55907  0.93927  0.41884  1.0000
  Fe  Fe173     1.0  0.57868  0.78209  0.18776  1.0000
  S   S344      1.0  0.56896  0.79378  0.22315  1.0000
  Fe  Fe174     1.0  0.57425  0.77844  0.12741  1.0000
  S   S345      1.0  0.56023  0.78737  0.09300  1.0000
  S   S346      1.0  0.59893  0.76764  0.18920  1.0000
  S   S347      1.0  0.59387  0.76331  0.12514  1.0000
  H   H1999     1.0  0.62275  0.78863  0.08789  1.0000
  C   C1171     1.0  0.57824  0.79412  0.00685  1.0000
  C   C1172     1.0  0.56578  0.80184  0.01599  1.0000
  C   C1173     1.0  0.56013  0.79933  0.04229  1.0000
  C   C1174     1.0  0.56697  0.78925  0.05974  1.0000
  C   C1175     1.0  0.57919  0.78128  0.05044  1.0000
  C   C1176     1.0  0.58474  0.78369  0.02414  1.0000
  H   H2000     1.0  0.56065  0.80989  0.00291  1.0000
  H   H2001     1.0  0.55060  0.80548  0.04926  1.0000
  H   H2002     1.0  0.58441  0.77333  0.06356  1.0000
  H   H2003     1.0  0.59433  0.77759  0.01723  1.0000
  C   C1177     1.0  0.58032  0.78700  0.31075  1.0000
  C   C1178     1.0  0.57003  0.79760  0.30287  1.0000
  C   C1179     1.0  0.56670  0.79955  0.27595  1.0000
  C   C1180     1.0  0.57382  0.79118  0.25669  1.0000
  C   C1181     1.0  0.58448  0.78095  0.26459  1.0000
  C   C1182     1.0  0.58747  0.77864  0.29148  1.0000
  H   H2004     1.0  0.56445  0.80411  0.31749  1.0000
  H   H2005     1.0  0.55850  0.80757  0.27002  1.0000
  H   H2006     1.0  0.59046  0.77490  0.24993  1.0000
  H   H2007     1.0  0.59556  0.77053  0.29742  1.0000
  C   C1183     1.0  0.34964  0.89154  0.19043  1.0000
  C   C1184     1.0  0.34961  0.87350  0.18801  1.0000
  C   C1185     1.0  0.33264  0.85807  0.18244  1.0000
  H   H2008     1.0  0.40690  0.88106  0.13900  1.0000
  H   H2009     1.0  0.62156  0.84450  0.28655  1.0000
  C   C1186     1.0  0.33241  0.89379  0.18750  1.0000
  H   H2010     1.0  0.36267  0.87146  0.19025  1.0000
  H   H2011     1.0  0.33287  0.84424  0.18042  1.0000
  C   C1187     1.0  0.49844  0.96539  0.28391  1.0000
  H   H2012     1.0  0.33221  0.90764  0.18931  1.0000
  H   H2013     1.0  0.48645  0.97516  0.21299  1.0000
  C   C1188     1.0  0.53619  0.85424  0.41702  1.0000
  C   C1189     1.0  0.54541  0.86233  0.44065  1.0000
  C   C1190     1.0  0.53887  0.87387  0.45556  1.0000
  C   C1191     1.0  0.52351  0.87800  0.44661  1.0000
  C   C1192     1.0  0.51478  0.87054  0.42249  1.0000
  C   C1193     1.0  0.52100  0.85858  0.40790  1.0000
  H   H2014     1.0  0.55722  0.85927  0.44780  1.0000
  H   H2015     1.0  0.62315  0.81722  0.10855  1.0000
  H   H2016     1.0  0.50294  0.87358  0.41538  1.0000
  H   H2017     1.0  0.51380  0.85243  0.38962  1.0000
  C   C1194     1.0  0.44219  0.91737  0.05217  1.0000
  C   C1195     1.0  0.43201  0.92312  0.07044  1.0000
  C   C1196     1.0  0.43522  0.92221  0.09763  1.0000
  C   C1197     1.0  0.44826  0.91498  0.10678  1.0000
  C   C1198     1.0  0.45857  0.90943  0.08853  1.0000
  C   C1199     1.0  0.45569  0.91077  0.06135  1.0000
  H   H2018     1.0  0.42176  0.92853  0.06347  1.0000
  H   H2019     1.0  0.42755  0.92696  0.11148  1.0000
  H   H2020     1.0  0.46879  0.90393  0.09541  1.0000
  H   H2021     1.0  0.46366  0.90635  0.04750  1.0000
  C   C1200     1.0  0.45118  0.91623  0.35414  1.0000
  C   C1201     1.0  0.46245  0.90758  0.34361  1.0000
  C   C1202     1.0  0.46106  0.90309  0.31655  1.0000
  C   C1203     1.0  0.44864  0.90748  0.29972  1.0000
  C   C1204     1.0  0.43736  0.91608  0.31029  1.0000
  C   C1205     1.0  0.43858  0.92034  0.33734  1.0000
  H   H2022     1.0  0.47213  0.90426  0.35633  1.0000
  H   H2023     1.0  0.46973  0.89629  0.30861  1.0000
  H   H2024     1.0  0.42757  0.91932  0.29768  1.0000
  H   H2025     1.0  0.42969  0.92689  0.34533  1.0000
  H   H2026     1.0  0.61640  0.85879  0.04085  1.0000
  H   H2027     1.0  0.51450  0.82682  0.47154  1.0000
  H   H2028     1.0  0.45851  0.94897  0.28832  1.0000
  H   H2029     1.0  0.50748  0.96091  0.01434  1.0000
  H   H2030     1.0  0.58149  0.74265  0.26090  1.0000
  H   H2031     1.0  0.58653  0.96274  0.47184  1.0000
  H   H2032     1.0  0.57200  0.93031  0.48126  1.0000
  C   C1206     1.0  0.63394  0.83445  0.33223  1.0000
  H   H2033     1.0  0.53476  0.82656  0.45591  1.0000
  H   H2034     1.0  0.38502  0.93542  0.12469  1.0000
  H   H2035     1.0  0.47036  0.97066  0.11263  1.0000
  C   C1207     1.0  0.62201  0.83031  0.28694  1.0000
  H   H2036     1.0  0.43495  0.97281  0.00716  1.0000
  C   C1208     1.0  0.59569  0.83803  0.09389  1.0000
  H   H2037     1.0  0.53514  0.93115  0.45981  1.0000
  C   C1209     1.0  0.32338  0.82094  0.25320  1.0000
  H   H2038     1.0  0.56223  0.75049  0.22983  1.0000
  H   H2039     1.0  0.55029  0.74884  0.27341  1.0000
  H   H2040     1.0  0.60365  0.80716  0.08672  1.0000
  H   H2041     1.0  0.45739  0.96008  0.34543  1.0000
  C   C1210     1.0  0.58124  0.96062  0.45108  1.0000
  H   H2042     1.0  0.38422  0.86802  0.10434  1.0000
  H   H2043     1.0  0.43473  0.85931  0.22470  1.0000
  H   H2044     1.0  0.46951  0.95257  0.07061  1.0000
  H   H2045     1.0  0.61137  0.82755  0.24655  1.0000
  H   H2046     1.0  0.63613  0.83318  0.24888  1.0000
  C   C1211     1.0  0.35665  0.88011  0.11745  1.0000
  H   H2047     1.0  0.63445  0.83270  0.15743  1.0000
  H   H2048     1.0  0.50181  0.97300  0.26510  1.0000
  H   H2049     1.0  0.33839  0.82932  0.24939  1.0000
  H   H2050     1.0  0.53200  0.91531  0.42164  1.0000
  H   H2051     1.0  0.32253  0.81755  0.27434  1.0000
  C   C1212     1.0  0.61712  0.84562  0.09037  1.0000
  H   H2052     1.0  0.50457  0.81936  0.42910  1.0000
  H   H2053     1.0  0.60823  0.82096  0.29455  1.0000
  H   H2054     1.0  0.50282  0.94191  0.26591  1.0000
  H   H2055     1.0  0.63056  0.85156  0.01881  1.0000
  C   C1213     1.0  0.61525  0.82988  0.04670  1.0000
  H   H2056     1.0  0.37491  0.88496  0.03129  1.0000
  H   H2057     1.0  0.43985  0.84955  0.19513  1.0000
  H   H2058     1.0  0.49948  0.86753  0.24446  1.0000
  N   N83       1.0  0.63791  0.83007  0.30467  1.0000
  H   H2059     1.0  0.48529  0.97901  0.46025  1.0000
  C   C1214     1.0  0.51165  0.79513  0.44037  1.0000
  C   C1215     1.0  0.61730  0.84690  0.02973  1.0000
  H   H2060     1.0  0.40095  0.88992  0.09455  1.0000
  C   C1216     1.0  0.50385  0.96938  0.02928  1.0000
  C   C1217     1.0  0.36652  0.88235  0.07207  1.0000
  S   S348      1.0  0.48731  0.92259  0.98945  1.0000
  C   C1218     1.0  0.46615  0.97458  0.09327  1.0000
  H   H2061     1.0  0.64045  0.86446  0.32479  1.0000
  S   S349      1.0  0.57511  0.78072  0.47346  1.0000
  H   H2062     1.0  0.50681  0.96451  0.04860  1.0000
  H   H2063     1.0  0.61584  0.85047  0.32923  1.0000
  H   H2064     1.0  0.36037  0.86675  0.07136  1.0000
  H   H2065     1.0  0.62388  0.84780  0.11035  1.0000
  H   H2066     1.0  0.42438  0.86146  0.19336  1.0000
  H   H2067     1.0  0.43899  0.96599  0.28014  1.0000
  H   H2068     1.0  0.39421  0.91712  0.09423  1.0000
  C   C1219     1.0  0.45018  0.97569  0.00914  1.0000
  H   H2069     1.0  0.55522  0.91414  0.46055  1.0000
  N   N84       1.0  0.62425  0.83365  0.07382  1.0000
  C   C1220     1.0  0.45454  0.97060  0.03708  1.0000
  H   H2070     1.0  0.52472  0.79980  0.42888  1.0000
  H   H2071     1.0  0.45013  0.97491  0.31111  1.0000
  H   H2072     1.0  0.47639  0.94743  0.32462  1.0000
  H   H2073     1.0  0.50852  0.88521  0.22044  1.0000
  H   H2074     1.0  0.59212  0.84853  0.10506  1.0000
  H   H2075     1.0  0.62104  0.85988  0.08253  1.0000
  H   H2076     1.0  0.63184  0.85672  0.35674  1.0000
  C   C1221     1.0  0.47261  0.96895  0.34683  1.0000
  C   C1222     1.0  0.62258  0.82486  0.25785  1.0000
  H   H2077     1.0  0.62101  0.82132  0.03484  1.0000
  S   S350      1.0  0.64359  0.79974  0.14839  1.0000
  H   H2078     1.0  0.40523  0.90317  0.13827  1.0000
  H   H2079     1.0  0.50461  0.77981  0.43665  1.0000
  H   H2080     1.0  0.62356  0.80032  0.30974  1.0000
  H   H2081     1.0  0.58602  0.92599  0.42706  1.0000
  H   H2082     1.0  0.38483  0.91598  0.14317  1.0000
  C   C1223     1.0  0.37796  0.92001  0.12644  1.0000
  N   N85       1.0  0.47294  0.88038  0.19738  1.0000
  C   C1224     1.0  0.48666  0.90012  0.19305  1.0000
  C   C1225     1.0  0.47401  0.86826  0.17467  1.0000
  C   C1226     1.0  0.47744  0.87268  0.22255  1.0000
  C   C1227     1.0  0.45358  0.88064  0.19912  1.0000
  C   C1228     1.0  0.49129  0.91359  0.21705  1.0000
  C   C1229     1.0  0.46615  0.87188  0.14808  1.0000
  C   C1230     1.0  0.49702  0.87165  0.22430  1.0000
  C   C1231     1.0  0.43737  0.86160  0.20341  1.0000
  H   H2083     1.0  0.50027  0.90032  0.18595  1.0000
  H   H2084     1.0  0.48131  0.90676  0.17715  1.0000
  H   H2085     1.0  0.46686  0.85313  0.17891  1.0000
  H   H2086     1.0  0.48884  0.87015  0.17137  1.0000
  H   H2087     1.0  0.47588  0.88077  0.23988  1.0000
  H   H2088     1.0  0.46715  0.85818  0.22558  1.0000
  H   H2089     1.0  0.45306  0.88978  0.21564  1.0000
  H   H2090     1.0  0.44990  0.88737  0.18187  1.0000
  H   H2091     1.0  0.47859  0.91365  0.22655  1.0000
  H   H2092     1.0  0.50019  0.91026  0.23197  1.0000
  H   H2093     1.0  0.49934  0.92807  0.21054  1.0000
  H   H2094     1.0  0.46884  0.86312  0.13261  1.0000
  H   H2095     1.0  0.45072  0.86794  0.14825  1.0000
  H   H2096     1.0  0.47308  0.88665  0.14214  1.0000
  H   H2097     1.0  0.61945  0.80973  0.25518  1.0000
  H   H2098     1.0  0.48926  0.93562  0.29464  1.0000
  C   C1232     1.0  0.54531  0.91935  0.41113  1.0000
  H   H2099     1.0  0.47476  0.95115  0.02424  1.0000
  S   S351      1.0  0.45322  0.98423  0.21936  1.0000
  H   H2100     1.0  0.48222  0.97151  0.00487  1.0000
  C   C1233     1.0  0.49171  0.94436  0.27695  1.0000
  H   H2101     1.0  0.47894  0.93950  0.26402  1.0000
  H   H2102     1.0  0.35514  0.88681  0.06497  1.0000
  H   H2103     1.0  0.35360  0.86486  0.11878  1.0000
  N   N86       1.0  0.48505  0.97131  0.29925  1.0000
  Fe  Fe175     1.0  0.57871  0.74701  0.16012  1.0000
  S   S352      1.0  0.63685  0.85567  0.41444  1.0000
  C   C1234     1.0  0.57891  0.97864  0.44219  1.0000
  H   H2104     1.0  0.62334  0.79746  0.05563  1.0000
  C   C1235     1.0  0.48351  0.96290  0.32612  1.0000
  H   H2105     1.0  0.46825  0.96504  0.26301  1.0000
  C   C1236     1.0  0.46627  0.96407  0.28463  1.0000
  H   H2106     1.0  0.39187  0.88193  0.05300  1.0000
  H   H2107     1.0  0.49753  0.96494  0.33491  1.0000
  H   H2108     1.0  0.52119  0.76456  0.45414  1.0000
  H   H2109     1.0  0.51209  0.96906  0.29480  1.0000
  C   C1237     1.0  0.52529  0.82053  0.47246  1.0000
  H   H2110     1.0  0.37128  0.91529  0.08554  1.0000
  C   C1238     1.0  0.63040  0.85264  0.33563  1.0000
  H   H2111     1.0  0.63958  0.80627  0.28357  1.0000
  H   H2112     1.0  0.54171  0.91876  0.38983  1.0000
  H   H2113     1.0  0.60010  0.82095  0.04733  1.0000
  H   H2114     1.0  0.62136  0.82285  0.33971  1.0000
  C   C1239     1.0  0.48310  0.96652  0.02500  1.0000
  H   H2115     1.0  0.45789  0.98818  0.28152  1.0000
  H   H2116     1.0  0.60533  0.84283  0.01525  1.0000
  N   N87       1.0  0.37289  0.88947  0.09975  1.0000
  C   C1240     1.0  0.37937  0.91055  0.10024  1.0000
  C   C1241     1.0  0.63755  0.81044  0.30379  1.0000
  C   C1242     1.0  0.61909  0.81508  0.08733  1.0000
  C   C1243     1.0  0.38173  0.88891  0.05108  1.0000
  H   H2117     1.0  0.36005  0.88552  0.13788  1.0000
  S   S353      1.0  0.52227  0.97780  0.46449  1.0000
  C   C1244     1.0  0.33805  0.88202  0.10938  1.0000
  C   C1245     1.0  0.38874  0.88342  0.10732  1.0000
  H   H2118     1.0  0.49050  0.97137  0.07851  1.0000
  C   C1246     1.0  0.62776  0.80164  0.07632  1.0000
  H   H2119     1.0  0.36319  0.91711  0.13139  1.0000
  H   H2120     1.0  0.45065  0.96733  0.09138  1.0000
  S   S354      1.0  0.51574  0.89231  0.46657  1.0000
  H   H2121     1.0  0.59068  0.82509  0.10553  1.0000
  H   H2122     1.0  0.57182  0.94236  0.40703  1.0000
  C   C1247     1.0  0.39687  0.88803  0.13554  1.0000
  H   H2123     1.0  0.44665  0.95534  0.03911  1.0000
  H   H2124     1.0  0.45304  0.96689  0.99391  1.0000
  H   H2125     1.0  0.38941  0.90429  0.05141  1.0000
  H   H2126     1.0  0.58774  0.83558  0.07489  1.0000
  H   H2127     1.0  0.47785  0.96713  0.36672  1.0000
  C   C1248     1.0  0.45276  0.97400  0.29007  1.0000
  H   H2128     1.0  0.38613  0.88293  0.15073  1.0000
  H   H2129     1.0  0.47465  0.98383  0.34617  1.0000
  H   H2130     1.0  0.58077  0.90746  0.44942  1.0000
  H   H2131     1.0  0.63968  0.81936  0.40939  1.0000
  H   H2132     1.0  0.55155  0.90877  0.41455  1.0000
  H   H2133     1.0  0.52796  0.74440  0.23796  1.0000
  C   C1249     1.0  0.49087  0.98917  0.22111  1.0000
  H   H2134     1.0  0.32851  0.87835  0.12626  1.0000
  H   H2135     1.0  0.33071  0.87209  0.09313  1.0000
  N   N88       1.0  0.56398  0.94291  0.44777  1.0000
  H   H2136     1.0  0.55260  0.94893  0.41119  1.0000
  C   C1250     1.0  0.56803  0.92719  0.46013  1.0000
  C   C1251     1.0  0.31541  0.87832  0.18230  1.0000
  H   H2137     1.0  0.54307  0.79681  0.46525  1.0000
  H   H2138     1.0  0.48959  0.77708  0.47722  1.0000
  N   N89       1.0  0.47503  0.97591  0.04457  1.0000
  H   H2139     1.0  0.59761  0.93046  0.45884  1.0000
  C   C1252     1.0  0.49869  0.80390  0.42743  1.0000
  C   C1253     1.0  0.58409  0.92273  0.44812  1.0000
  H   H2140     1.0  0.48437  0.79817  0.43531  1.0000
  H   H2141     1.0  0.49727  0.80047  0.40608  1.0000
  H   H2142     1.0  0.59301  0.95958  0.43982  1.0000
  H   H2143     1.0  0.48921  0.79946  0.47906  1.0000
  N   N90       1.0  0.51634  0.79951  0.46923  1.0000
  C   C1254     1.0  0.53022  0.79095  0.47717  1.0000
  C   C1255     1.0  0.52303  0.76945  0.47489  1.0000
  H   H2144     1.0  0.53389  0.74617  0.20450  1.0000
  Fe  Fe176     1.0  0.45667  0.91733  0.98537  1.0000
  H   H2145     1.0  0.31941  0.80801  0.24103  1.0000
  C   C1256     1.0  0.64541  0.84246  0.07244  1.0000
  H   H2146     1.0  0.64551  0.83538  0.34618  1.0000
  C   C1257     1.0  0.31539  0.86032  0.17970  1.0000
  H   H2147     1.0  0.64329  0.80746  0.07841  1.0000
  H   H2148     1.0  0.51328  0.98407  0.02595  1.0000
  H   H2149     1.0  0.56864  0.98188  0.45408  1.0000
  H   H2150     1.0  0.59258  0.99063  0.44487  1.0000
  H   H2151     1.0  0.47004  0.98992  0.09349  1.0000
  H   H2152     1.0  0.45781  0.99072  0.00507  1.0000
  H   H2153     1.0  0.31895  0.84642  0.25543  1.0000
  C   C1258     1.0  0.49473  0.99182  0.46945  1.0000
  Fe  Fe177     1.0  0.49103  0.94229  0.95582  1.0000
  S   S355      1.0  0.46077  0.93841  0.95365  1.0000
  C   C1259     1.0  0.53753  0.82854  0.49741  1.0000
  Fe  Fe178     1.0  0.48166  0.90046  0.95775  1.0000
  S   S356      1.0  0.45051  0.89383  0.95589  1.0000
  H   H2154     1.0  0.45772  0.97413  0.84968  1.0000
  Fe  Fe179     1.0  0.45744  0.91548  0.92434  1.0000
  S   S357      1.0  0.43777  0.91243  0.88891  1.0000
  C   C1260     1.0  0.63030  0.79164  0.55644  1.0000
  S   S358      1.0  0.44497  0.91540  0.51572  1.0000
  S   S359      1.0  0.48818  0.92068  0.92431  1.0000
  H   H2155     1.0  0.62836  0.80229  0.50410  1.0000
  Fe  Fe180     1.0  0.43904  0.91878  0.73293  1.0000
  S   S360      1.0  0.42166  0.93624  0.73622  1.0000
  S   S361      1.0  0.45108  0.90720  0.76673  1.0000
  Fe  Fe181     1.0  0.44441  0.92596  0.67348  1.0000
  S   S362      1.0  0.42773  0.94417  0.67322  1.0000
  S   S363      1.0  0.46129  0.92185  0.63947  1.0000
  Fe  Fe182     1.0  0.44350  0.95672  0.71100  1.0000
  C   C1261     1.0  0.50484  0.96776  0.54304  1.0000
  Fe  Fe183     1.0  0.40728  0.92184  0.69827  1.0000
  S   S364      1.0  0.37600  0.91451  0.68769  1.0000
  S   S365      1.0  0.46143  0.94001  0.70965  1.0000
  S   S366      1.0  0.42338  0.90289  0.69656  1.0000
  Fe  Fe184     1.0  0.60637  0.84129  0.90081  1.0000
  S   S367      1.0  0.59919  0.81083  0.90638  1.0000
  C   C1262     1.0  0.48296  0.97837  0.60140  1.0000
  Fe  Fe185     1.0  0.56569  0.83703  0.90626  1.0000
  S   S368      1.0  0.55549  0.80574  0.91213  1.0000
  S   S369      1.0  0.54932  0.85556  0.89814  1.0000
  Fe  Fe186     1.0  0.58113  0.81304  0.93923  1.0000
  H   H2156     1.0  0.42313  0.88070  0.62534  1.0000
  Fe  Fe187     1.0  0.57454  0.80591  0.87902  1.0000
  S   S370      1.0  0.56978  0.78261  0.84842  1.0000
  S   S371      1.0  0.59013  0.84427  0.93532  1.0000
  S   S372      1.0  0.58291  0.83637  0.87134  1.0000
  H   H2157     1.0  0.35574  0.84936  0.65003  1.0000
  S   S373      1.0  0.56317  0.76216  0.66474  1.0000
  Fe  Fe188     1.0  0.61742  0.78558  0.65576  1.0000
  S   S374      1.0  0.59890  0.80168  0.65716  1.0000
  H   H2158     1.0  0.64184  0.85754  0.79857  1.0000
  Fe  Fe189     1.0  0.58490  0.78359  0.69102  1.0000
  S   S375      1.0  0.57805  0.79855  0.72566  1.0000
  Fe  Fe190     1.0  0.57914  0.77902  0.63065  1.0000
  S   S376      1.0  0.56768  0.79086  0.59642  1.0000
  S   S377      1.0  0.60495  0.76889  0.69162  1.0000
  S   S378      1.0  0.59827  0.76337  0.62779  1.0000
  H   H2159     1.0  0.48192  0.96721  0.61565  1.0000
  C   C1263     1.0  0.57413  0.78443  0.50767  1.0000
  C   C1264     1.0  0.57149  0.80005  0.51779  1.0000
  C   C1265     1.0  0.56945  0.80176  0.54500  1.0000
  C   C1266     1.0  0.57083  0.78831  0.56246  1.0000
  C   C1267     1.0  0.57419  0.77306  0.55242  1.0000
  C   C1268     1.0  0.57556  0.77102  0.52513  1.0000
  H   H2160     1.0  0.57084  0.81065  0.50463  1.0000
  H   H2161     1.0  0.56693  0.81364  0.55262  1.0000
  H   H2162     1.0  0.57514  0.76254  0.56560  1.0000
  H   H2163     1.0  0.57759  0.75888  0.51749  1.0000
  C   C1269     1.0  0.57217  0.78716  0.81430  1.0000
  C   C1270     1.0  0.56946  0.80250  0.80347  1.0000
  C   C1271     1.0  0.57100  0.80551  0.77625  1.0000
  C   C1272     1.0  0.57561  0.79347  0.75957  1.0000
  C   C1273     1.0  0.57868  0.77830  0.77042  1.0000
  C   C1274     1.0  0.57675  0.77504  0.79764  1.0000
  H   H2164     1.0  0.56588  0.81191  0.81598  1.0000
  H   H2165     1.0  0.56869  0.81735  0.76807  1.0000
  H   H2166     1.0  0.58266  0.76922  0.75784  1.0000
  H   H2167     1.0  0.57902  0.76321  0.80586  1.0000
  C   C1275     1.0  0.35441  0.89450  0.68762  1.0000
  C   C1276     1.0  0.35351  0.87668  0.69433  1.0000
  C   C1277     1.0  0.33624  0.86112  0.69231  1.0000
  H   H2168     1.0  0.50991  0.76245  0.48561  1.0000
  H   H2169     1.0  0.60985  0.82745  0.61028  1.0000
  C   C1278     1.0  0.33771  0.89650  0.67940  1.0000
  H   H2170     1.0  0.36617  0.87483  0.70062  1.0000
  H   H2171     1.0  0.33588  0.84740  0.69699  1.0000
  C   C1279     1.0  0.47908  0.96184  0.77928  1.0000
  H   H2172     1.0  0.33818  0.91019  0.67415  1.0000
  H   H2173     1.0  0.55118  0.82696  0.49626  1.0000
  C   C1280     1.0  0.53435  0.86188  0.91856  1.0000
  C   C1281     1.0  0.52495  0.85073  0.93927  1.0000
  C   C1282     1.0  0.51171  0.85533  0.95324  1.0000
  C   C1283     1.0  0.50795  0.87124  0.94691  1.0000
  C   C1284     1.0  0.51779  0.88271  0.92677  1.0000
  C   C1285     1.0  0.53074  0.87791  0.91247  1.0000
  H   H2174     1.0  0.52750  0.83831  0.94404  1.0000
  H   H2175     1.0  0.54081  0.84381  0.49877  1.0000
  H   H2176     1.0  0.51522  0.89511  0.92197  1.0000
  H   H2177     1.0  0.53797  0.88662  0.89649  1.0000
  C   C1286     1.0  0.45000  0.91762  0.55001  1.0000
  C   C1287     1.0  0.43733  0.92090  0.56682  1.0000
  C   C1288     1.0  0.44083  0.92274  0.59419  1.0000
  C   C1289     1.0  0.45670  0.92068  0.60510  1.0000
  C   C1290     1.0  0.46946  0.91761  0.58827  1.0000
  C   C1291     1.0  0.46624  0.91627  0.56085  1.0000
  H   H2178     1.0  0.42480  0.92212  0.55857  1.0000
  H   H2179     1.0  0.43126  0.92565  0.60693  1.0000
  H   H2180     1.0  0.48186  0.91611  0.59653  1.0000
  H   H2181     1.0  0.47611  0.91375  0.54818  1.0000
  C   C1292     1.0  0.44227  0.91199  0.85503  1.0000
  C   C1293     1.0  0.45892  0.91115  0.84609  1.0000
  C   C1294     1.0  0.46126  0.90938  0.81901  1.0000
  C   C1295     1.0  0.44749  0.90955  0.80053  1.0000
  C   C1296     1.0  0.43114  0.91111  0.80942  1.0000
  C   C1297     1.0  0.42845  0.91205  0.83656  1.0000
  H   H2182     1.0  0.46988  0.91165  0.86001  1.0000
  H   H2183     1.0  0.47393  0.90812  0.81229  1.0000
  H   H2184     1.0  0.42038  0.91113  0.79543  1.0000
  H   H2185     1.0  0.41554  0.91278  0.84329  1.0000
  C   C1298     1.0  0.53442  0.75295  0.92509  1.0000
  C   C1299     1.0  0.33478  0.85648  0.76436  1.0000
  H   H2186     1.0  0.51219  0.78966  0.52222  1.0000
  H   H2187     1.0  0.34426  0.87129  0.76143  1.0000
  H   H2188     1.0  0.49951  0.80506  0.52244  1.0000
  C   C1300     1.0  0.46849  0.98472  0.79952  1.0000
  H   H2189     1.0  0.45738  0.96620  0.57935  1.0000
  C   C1301     1.0  0.62166  0.81171  0.58610  1.0000
  S   S379      1.0  0.63538  0.86193  0.89125  1.0000
  H   H2190     1.0  0.45602  0.94776  0.81772  1.0000
  H   H2191     1.0  0.61557  0.78947  0.82619  1.0000
  H   H2192     1.0  0.33722  0.85304  0.78483  1.0000
  H   H2193     1.0  0.46474  0.95142  0.77421  1.0000
  H   H2194     1.0  0.63788  0.79059  0.53862  1.0000
  H   H2195     1.0  0.43857  0.95662  0.54477  1.0000
  H   H2196     1.0  0.47274  0.97330  0.50916  1.0000
  H   H2197     1.0  0.62397  0.82261  0.49652  1.0000
  H   H2198     1.0  0.63554  0.76825  0.57317  1.0000
  H   H2199     1.0  0.55207  0.93929  0.50269  1.0000
  H   H2200     1.0  0.50414  0.84638  0.96879  1.0000
  H   H2201     1.0  0.62662  0.84193  0.58827  1.0000
  H   H2202     1.0  0.60222  0.84234  0.82097  1.0000
  H   H2203     1.0  0.31515  0.81767  0.75476  1.0000
  C   C1302     1.0  0.49215  0.95094  0.77899  1.0000
  C   C1303     1.0  0.62232  0.81662  0.53818  1.0000
  H   H2204     1.0  0.43930  0.95364  0.51026  1.0000
  H   H2205     1.0  0.63526  0.80079  0.84902  1.0000
  H   H2206     1.0  0.59809  0.77068  0.91168  1.0000
  C   C1304     1.0  0.53632  0.76334  0.95152  1.0000
  H   H2207     1.0  0.53301  0.76235  0.90939  1.0000
  H   H2208     1.0  0.48279  0.97150  0.76247  1.0000
  C   C1305     1.0  0.32038  0.88099  0.67780  1.0000
  H   H2209     1.0  0.60740  0.84353  0.78640  1.0000
  H   H2210     1.0  0.62528  0.80414  0.78902  1.0000
  H   H2211     1.0  0.64475  0.82283  0.75754  1.0000
  C   C1306     1.0  0.62048  0.81895  0.83583  1.0000
  C   C1307     1.0  0.61281  0.84937  0.80624  1.0000
  H   H2212     1.0  0.60547  0.81642  0.83202  1.0000
  N   N91       1.0  0.47835  0.97981  0.55074  1.0000
  H   H2213     1.0  0.40394  0.87503  0.64692  1.0000
  H   H2214     1.0  0.48002  0.97420  0.86213  1.0000
  H   H2215     1.0  0.47958  0.97606  0.94402  1.0000
  C   C1308     1.0  0.46706  0.96736  0.52834  1.0000
  H   H2216     1.0  0.46814  0.95347  0.52887  1.0000
  H   H2217     1.0  0.54953  0.77579  0.95369  1.0000
  C   C1309     1.0  0.61521  0.82807  0.59014  1.0000
  H   H2218     1.0  0.49819  0.98609  0.59922  1.0000
  H   H2219     1.0  0.63035  0.81154  0.60370  1.0000
  H   H2220     1.0  0.56632  0.77310  0.90279  1.0000
  C   C1310     1.0  0.49979  0.79186  0.51416  1.0000
  H   H2221     1.0  0.35371  0.84865  0.61518  1.0000
  H   H2222     1.0  0.56223  0.96388  0.49416  1.0000
  H   H2223     1.0  0.43946  0.96607  0.80921  1.0000
  Fe  Fe191     1.0  0.58381  0.74792  0.66373  1.0000
  N   N92       1.0  0.47906  0.97217  0.80449  1.0000
  C   C1311     1.0  0.47239  0.96915  0.57577  1.0000
  C   C1312     1.0  0.63810  0.78296  0.57865  1.0000
  H   H2224     1.0  0.48760  0.78001  0.52171  1.0000
  H   H2225     1.0  0.54089  0.74653  0.77942  1.0000
  C   C1313     1.0  0.44732  0.97471  0.79290  1.0000
  H   H2226     1.0  0.48990  0.94309  0.76004  1.0000
  C   C1314     1.0  0.55038  0.95034  0.49042  1.0000
  H   H2227     1.0  0.63771  0.83214  0.65137  1.0000
  H   H2228     1.0  0.52029  0.97310  0.54077  1.0000
  H   H2229     1.0  0.63710  0.85568  0.83223  1.0000
  H   H2230     1.0  0.62182  0.82135  0.74644  1.0000
  H   H2231     1.0  0.63820  0.82714  0.90696  1.0000
  H   H2232     1.0  0.61534  0.78216  0.55268  1.0000
  H   H2233     1.0  0.60743  0.80677  0.53657  1.0000
  H   H2234     1.0  0.48900  0.94046  0.79464  1.0000
  H   H2235     1.0  0.48938  0.98009  0.71087  1.0000
  H   H2236     1.0  0.54558  0.74731  0.87654  1.0000
  H   H2237     1.0  0.62154  0.83051  0.54080  1.0000
  H   H2238     1.0  0.61176  0.79390  0.85935  1.0000
  H   H2239     1.0  0.53064  0.82235  0.51570  1.0000
  S   S380      1.0  0.48982  0.87536  0.96321  1.0000
  N   N93       1.0  0.63241  0.82908  0.81333  1.0000
  C   C1315     1.0  0.31952  0.86313  0.68412  1.0000
  H   H2240     1.0  0.53471  0.75389  0.96832  1.0000
  N   N94       1.0  0.46083  0.85880  0.87518  1.0000
  C   C1316     1.0  0.45175  0.86247  0.85044  1.0000
  C   C1317     1.0  0.47466  0.87724  0.88603  1.0000
  C   C1318     1.0  0.44640  0.84990  0.89563  1.0000
  C   C1319     1.0  0.47046  0.84572  0.86869  1.0000
  C   C1320     1.0  0.43649  0.84520  0.83708  1.0000
  C   C1321     1.0  0.49233  0.88693  0.86979  1.0000
  C   C1322     1.0  0.43250  0.85948  0.90066  1.0000
  C   C1323     1.0  0.48256  0.84226  0.89115  1.0000
  H   H2241     1.0  0.44546  0.87298  0.85411  1.0000
  H   H2242     1.0  0.46236  0.86877  0.83526  1.0000
  H   H2243     1.0  0.47955  0.87582  0.90629  1.0000
  H   H2244     1.0  0.46780  0.88740  0.88814  1.0000
  H   H2245     1.0  0.43797  0.83495  0.89064  1.0000
  H   H2246     1.0  0.45331  0.84963  0.91497  1.0000
  H   H2247     1.0  0.45997  0.83176  0.86242  1.0000
  H   H2248     1.0  0.47958  0.85088  0.85149  1.0000
  H   H2249     1.0  0.42985  0.84999  0.82057  1.0000
  H   H2250     1.0  0.44259  0.83567  0.82846  1.0000
  H   H2251     1.0  0.42516  0.83736  0.85046  1.0000
  H   H2252     1.0  0.50094  0.90057  0.87934  1.0000
  H   H2253     1.0  0.50137  0.87874  0.86917  1.0000
  H   H2254     1.0  0.48892  0.89004  0.84960  1.0000
  H   H2255     1.0  0.42236  0.85740  0.88400  1.0000
  H   H2256     1.0  0.43972  0.87465  0.90479  1.0000
  H   H2257     1.0  0.42420  0.85324  0.91815  1.0000
  H   H2258     1.0  0.47887  0.82700  0.89333  1.0000
  H   H2259     1.0  0.48093  0.84774  0.91059  1.0000
  H   H2260     1.0  0.49766  0.84829  0.88629  1.0000
  C   C1324     1.0  0.63206  0.84843  0.81288  1.0000
  C   C1325     1.0  0.62104  0.79973  0.84260  1.0000
  S   S381      1.0  0.51406  0.97130  0.95762  1.0000
  H   H2261     1.0  0.60880  0.81437  0.78685  1.0000
  H   H2262     1.0  0.61441  0.86426  0.80634  1.0000
  H   H2263     1.0  0.58604  0.74624  0.91730  1.0000
  H   H2264     1.0  0.60869  0.79878  0.58733  1.0000
  H   H2265     1.0  0.52479  0.76856  0.95269  1.0000
  C   C1326     1.0  0.62416  0.81802  0.78850  1.0000
  C   C1327     1.0  0.44586  0.96348  0.52697  1.0000
  H   H2266     1.0  0.50644  0.97499  0.82003  1.0000
  N   N95       1.0  0.63188  0.81148  0.56124  1.0000
  H   H2267     1.0  0.47829  0.94954  0.82975  1.0000
  C   C1328     1.0  0.63097  0.81668  0.51120  1.0000
  H   H2268     1.0  0.45905  0.95392  0.86453  1.0000
  C   C1329     1.0  0.48856  0.98812  0.95532  1.0000
  H   H2269     1.0  0.57254  0.77064  0.93527  1.0000
  C   C1330     1.0  0.46982  0.95799  0.82511  1.0000
  H   H2270     1.0  0.50155  0.95891  0.56069  1.0000
  N   N96       1.0  0.38118  0.88685  0.61002  1.0000
  C   C1331     1.0  0.36987  0.87658  0.63279  1.0000
  C   C1332     1.0  0.38783  0.90757  0.61566  1.0000
  C   C1333     1.0  0.39806  0.88187  0.60632  1.0000
  C   C1334     1.0  0.36895  0.88141  0.58540  1.0000
  C   C1335     1.0  0.36354  0.85510  0.63197  1.0000
  C   C1336     1.0  0.37241  0.91571  0.61629  1.0000
  C   C1337     1.0  0.41105  0.88434  0.63075  1.0000
  C   C1338     1.0  0.37767  0.89216  0.56046  1.0000
  H   H2271     1.0  0.37773  0.88182  0.65170  1.0000
  H   H2272     1.0  0.35677  0.87930  0.63432  1.0000
  H   H2273     1.0  0.39828  0.91569  0.60118  1.0000
  H   H2274     1.0  0.39532  0.91119  0.63511  1.0000
  H   H2275     1.0  0.39381  0.86723  0.59892  1.0000
  H   H2276     1.0  0.40714  0.89059  0.59094  1.0000
  H   H2277     1.0  0.36512  0.86635  0.58048  1.0000
  H   H2278     1.0  0.35536  0.88297  0.58838  1.0000
  C   C1339     1.0  0.56807  0.76278  0.91658  1.0000
  S   S382      1.0  0.58659  0.79738  0.97442  1.0000
  H   H2279     1.0  0.58405  0.75609  0.88571  1.0000
  H   H2280     1.0  0.36195  0.90917  0.63143  1.0000
  H   H2281     1.0  0.37907  0.93081  0.62164  1.0000
  H   H2282     1.0  0.36514  0.91465  0.59700  1.0000
  H   H2283     1.0  0.49852  0.95913  0.52523  1.0000
  H   H2284     1.0  0.41709  0.89903  0.63795  1.0000
  N   N97       1.0  0.54979  0.74619  0.91870  1.0000
  H   H2285     1.0  0.38088  0.90734  0.56238  1.0000
  H   H2286     1.0  0.36742  0.88680  0.54374  1.0000
  H   H2287     1.0  0.39056  0.89007  0.55496  1.0000
  H   H2288     1.0  0.47271  0.95496  0.57418  1.0000
  H   H2289     1.0  0.37550  0.85054  0.63170  1.0000
  C   C1340     1.0  0.46662  0.96585  0.85167  1.0000
  H   H2290     1.0  0.44477  0.96602  0.77478  1.0000
  H   H2291     1.0  0.62453  0.82768  0.85412  1.0000
  H   H2292     1.0  0.52943  0.74917  0.74915  1.0000
  H   H2293     1.0  0.64618  0.82543  0.51131  1.0000
  S   S383      1.0  0.49731  0.92722  0.49035  1.0000
  S   S384      1.0  0.45596  0.98783  0.72196  1.0000
  C   C1341     1.0  0.63275  0.82672  0.76240  1.0000
  H   H2294     1.0  0.47664  0.98768  0.61017  1.0000
  H   H2295     1.0  0.44314  0.97631  0.52315  1.0000
  H   H2296     1.0  0.60329  0.82680  0.57659  1.0000
  C   C1342     1.0  0.58488  0.75841  0.90730  1.0000
  C   C1343     1.0  0.49875  0.98398  0.81404  1.0000
  H   H2297     1.0  0.63713  0.84206  0.76195  1.0000
  C   C1344     1.0  0.49881  0.98452  0.54549  1.0000
  H   H2298     1.0  0.50719  0.96026  0.78032  1.0000
  H   H2299     1.0  0.63096  0.78248  0.59733  1.0000
  H   H2300     1.0  0.33920  0.84799  0.75044  1.0000
  H   H2301     1.0  0.53765  0.95222  0.49726  1.0000
  H   H2302     1.0  0.53546  0.79461  0.49767  1.0000
  H   H2303     1.0  0.44129  0.98540  0.78899  1.0000
  H   H2304     1.0  0.54848  0.74254  0.72169  1.0000
  H   H2305     1.0  0.56419  0.75423  0.97014  1.0000
  C   C1345     1.0  0.50651  0.98969  0.96347  1.0000
  Fe  Fe192     1.0  0.46627  0.91814  0.48393  1.0000
  C   C1346     1.0  0.49830  0.79163  0.48391  1.0000
  H   H2306     1.0  0.53375  0.76480  0.48389  1.0000
  H   H2307     1.0  0.51295  0.99169  0.77617  1.0000
  Fe  Fe193     1.0  0.73351  0.18256  0.28235  1.0000
  S   S385      1.0  0.74853  0.21398  0.27911  1.0000
  S   S386      1.0  0.70136  0.17410  0.28360  1.0000
  Fe  Fe194     1.0  0.77128  0.17824  0.29084  1.0000
  S   S387      1.0  0.78767  0.20882  0.28835  1.0000
  S   S388      1.0  0.78746  0.15988  0.30051  1.0000
  Fe  Fe195     1.0  0.76607  0.21204  0.31401  1.0000
  N   N98       1.0  0.87193  0.17876  0.98485  1.0000
  Fe  Fe196     1.0  0.76894  0.20793  0.25335  1.0000
  H   H2308     1.0  0.86907  0.15726  0.01339  1.0000
  S   S389      1.0  0.75036  0.18129  0.31877  1.0000
  S   S390      1.0  0.75324  0.17663  0.25446  1.0000
  Fe  Fe197     1.0  0.89635  0.14080  0.30687  1.0000
  S   S391      1.0  0.91231  0.17182  0.30408  1.0000
  S   S392      1.0  0.88479  0.11933  0.27312  1.0000
  Fe  Fe198     1.0  0.89351  0.14322  0.36793  1.0000
  S   S393      1.0  0.90929  0.17445  0.36880  1.0000
  S   S394      1.0  0.87672  0.12549  0.40148  1.0000
  Fe  Fe199     1.0  0.89138  0.17414  0.33287  1.0000
  S   S395      1.0  0.87550  0.19341  0.32704  1.0000
  Fe  Fe200     1.0  0.92895  0.16929  0.34015  1.0000
  S   S396      1.0  0.96124  0.17846  0.34344  1.0000
  S   S397      1.0  0.87478  0.14346  0.33351  1.0000
  S   S398      1.0  0.91381  0.13772  0.34132  1.0000
  S   S399      1.0  0.79952  0.22037  0.03954  1.0000
  S   S400      1.0  0.84890  0.22075  0.05426  1.0000
  Fe  Fe201     1.0  0.83942  0.07917  0.08825  1.0000
  S   S401      1.0  0.87104  0.09461  0.09076  1.0000
  S   S402      1.0  0.83166  0.04754  0.09546  1.0000
  Fe  Fe202     1.0  0.83475  0.11632  0.07727  1.0000
  S   S403      1.0  0.86556  0.13313  0.07970  1.0000
  S   S404      1.0  0.81601  0.13213  0.06704  1.0000
  Fe  Fe203     1.0  0.86805  0.11026  0.05494  1.0000
  S   S405      1.0  0.89003  0.11901  0.02303  1.0000
  Fe  Fe204     1.0  0.86561  0.11614  0.11529  1.0000
  S   S406      1.0  0.88398  0.13304  0.14983  1.0000
  S   S407      1.0  0.83697  0.09376  0.05062  1.0000
  S   S408      1.0  0.83433  0.10043  0.11459  1.0000
  C   C1347     1.0  0.83953  0.19607  0.05745  1.0000
  C   C1348     1.0  0.82191  0.18477  0.04667  1.0000
  C   C1349     1.0  0.81508  0.16520  0.04924  1.0000
  C   C1350     1.0  0.82576  0.15666  0.06258  1.0000
  C   C1351     1.0  0.84341  0.16796  0.07327  1.0000
  C   C1352     1.0  0.85025  0.18753  0.07067  1.0000
  H   H2309     1.0  0.81362  0.19104  0.03598  1.0000
  H   H2310     1.0  0.80141  0.15662  0.04093  1.0000
  H   H2311     1.0  0.85160  0.16174  0.08423  1.0000
  H   H2312     1.0  0.86384  0.19611  0.07921  1.0000
  C   C1353     1.0  0.79742  0.18145  0.37499  1.0000
  C   C1354     1.0  0.88411  0.12374  0.23905  1.0000
  C   C1355     1.0  0.89596  0.14054  0.22827  1.0000
  C   C1356     1.0  0.89551  0.14317  0.20096  1.0000
  C   C1357     1.0  0.88302  0.12922  0.18415  1.0000
  C   C1358     1.0  0.87088  0.11255  0.19497  1.0000
  C   C1359     1.0  0.87159  0.10977  0.22226  1.0000
  H   H2313     1.0  0.90575  0.15135  0.24091  1.0000
  H   H2314     1.0  0.90503  0.15609  0.19276  1.0000
  H   H2315     1.0  0.86115  0.10171  0.18232  1.0000
  H   H2316     1.0  0.86235  0.09672  0.23044  1.0000
  C   C1360     1.0  0.88162  0.12552  0.43568  1.0000
  C   C1361     1.0  0.89939  0.13570  0.44691  1.0000
  H   H2317     1.0  0.87790  0.16701  0.22713  1.0000
  H   H2318     1.0  0.68754  0.18780  0.39145  1.0000
  H   H2319     1.0  0.85633  0.13748  0.21353  1.0000
  C   C1362     1.0  0.86708  0.11491  0.45209  1.0000
  H   H2320     1.0  0.91073  0.14382  0.43450  1.0000
  N   N99       1.0  0.84891  0.15560  0.23910  1.0000
  H   H2321     1.0  0.81051  0.14380  0.26600  1.0000
  H   H2322     1.0  0.85329  0.10695  0.44356  1.0000
  C   C1363     1.0  0.78304  0.22772  0.18631  1.0000
  C   C1364     1.0  0.76536  0.21927  0.17390  1.0000
  C   C1365     1.0  0.76313  0.22146  0.14667  1.0000
  H   H2323     1.0  0.75336  0.21120  0.18526  1.0000
  H   H2324     1.0  0.74937  0.21497  0.13730  1.0000
  H   H2325     1.0  0.70728  0.20361  0.42611  1.0000
  C   C1366     1.0  0.77309  0.21086  0.38869  1.0000
  C   C1367     1.0  0.77575  0.20733  0.41526  1.0000
  H   H2326     1.0  0.76586  0.19939  0.37519  1.0000
  H   H2327     1.0  0.77041  0.19308  0.42207  1.0000
  C   C1368     1.0  0.81192  0.16958  0.30797  1.0000
  C   C1369     1.0  0.82322  0.18803  0.30187  1.0000
  C   C1370     1.0  0.84262  0.19518  0.30798  1.0000
  C   C1371     1.0  0.85101  0.18391  0.31991  1.0000
  C   C1372     1.0  0.83970  0.16552  0.32618  1.0000
  C   C1373     1.0  0.82031  0.15837  0.32003  1.0000
  H   H2328     1.0  0.81715  0.19672  0.29200  1.0000
  H   H2329     1.0  0.85122  0.20943  0.30308  1.0000
  H   H2330     1.0  0.84578  0.15681  0.33602  1.0000
  H   H2331     1.0  0.81174  0.14409  0.32487  1.0000
  C   C1374     1.0  0.88456  0.17468  0.45056  1.0000
  C   C1375     1.0  0.81411  0.00894  0.09786  1.0000
  C   C1376     1.0  0.81150  0.02602  0.09747  1.0000
  C   C1377     1.0  0.79320  0.02541  0.09944  1.0000
  C   C1378     1.0  0.77788  0.00808  0.10185  1.0000
  H   H2332     1.0  0.82814  0.00913  0.09629  1.0000
  H   H2333     1.0  0.79083  0.03831  0.09926  1.0000
  H   H2334     1.0  0.76386  0.00791  0.10350  1.0000
  C   C1379     1.0  0.77976  0.22922  0.37970  1.0000
  C   C1380     1.0  0.66260  0.12156  0.26415  1.0000
  C   C1381     1.0  0.67986  0.13691  0.26850  1.0000
  C   C1382     1.0  0.68009  0.15399  0.27806  1.0000
  C   C1383     1.0  0.66279  0.15539  0.28324  1.0000
  H   H2335     1.0  0.69175  0.15962  0.36224  1.0000
  H   H2336     1.0  0.66268  0.10848  0.25667  1.0000
  H   H2337     1.0  0.69295  0.13552  0.26437  1.0000
  H   H2338     1.0  0.66271  0.16848  0.29062  1.0000
  C   C1384     1.0  0.77855  0.23184  0.13143  1.0000
  C   C1385     1.0  0.81343  0.14860  0.24553  1.0000
  H   H2339     1.0  0.71459  0.19687  0.32982  1.0000
  C   C1386     1.0  0.87541  0.18629  0.25589  1.0000
  H   H2340     1.0  0.86582  0.19299  0.26231  1.0000
  C   C1387     1.0  0.88901  0.19327  0.99844  1.0000
  C   C1388     1.0  0.85056  0.20830  0.38937  1.0000
  S   S409      1.0  0.78686  0.22580  0.22061  1.0000
  H   H2341     1.0  0.84281  0.11645  0.25414  1.0000
  H   H2342     1.0  0.72897  0.19945  0.42745  1.0000
  C   C1389     1.0  0.86050  0.16457  0.00431  1.0000
  Fe  Fe205     1.0  0.80029  0.23782  0.00404  1.0000
  N   N100      1.0  0.71425  0.19988  0.37240  1.0000
  H   H2343     1.0  0.80978  0.13638  0.23215  1.0000
  C   C1390     1.0  0.83977  0.12592  0.26810  1.0000
  H   H2344     1.0  0.74102  0.21870  0.38933  1.0000
  H   H2345     1.0  0.66079  0.15631  0.22300  1.0000
  H   H2346     1.0  0.90024  0.18766  0.00152  1.0000
  S   S410      1.0  0.78879  0.21650  0.46606  1.0000
  H   H2347     1.0  0.85949  0.22265  0.39648  1.0000
  H   H2348     1.0  0.80983  0.19789  0.42413  1.0000
  H   H2349     1.0  0.82419  0.23711  0.35100  1.0000
  H   H2350     1.0  0.81111  0.21853  0.38924  1.0000
  C   C1391     1.0  0.82493  0.20053  0.42167  1.0000
  C   C1392     1.0  0.79842  0.23823  0.17111  1.0000
  H   H2351     1.0  0.93561  0.07439  0.19192  1.0000
  H   H2352     1.0  0.66145  0.16234  0.18850  1.0000
  C   C1393     1.0  0.72177  0.22596  0.33812  1.0000
  H   H2353     1.0  0.70808  0.22699  0.34161  1.0000
  H   H2354     1.0  0.83217  0.15566  0.98579  1.0000
  H   H2355     1.0  0.88830  0.19764  0.24903  1.0000
  H   H2356     1.0  0.83295  0.23057  0.11136  1.0000
  H   H2357     1.0  0.82851  0.22677  0.44240  1.0000
  H   H2358     1.0  0.87484  0.20554  0.02605  1.0000
  N   N101      1.0  0.90795  0.08946  0.16614  1.0000
  C   C1394     1.0  0.89054  0.08383  0.14857  1.0000
  C   C1395     1.0  0.91905  0.11003  0.16216  1.0000
  C   C1396     1.0  0.90186  0.08594  0.19426  1.0000
  C   C1397     1.0  0.91871  0.07767  0.15840  1.0000
  C   C1398     1.0  0.87550  0.06401  0.15236  1.0000
  C   C1399     1.0  0.92496  0.11589  0.13384  1.0000
  C   C1400     1.0  0.91551  0.09814  0.21588  1.0000
  C   C1401     1.0  0.93767  0.08168  0.17286  1.0000
  H   H2359     1.0  0.88343  0.09384  0.15100  1.0000
  H   H2360     1.0  0.89426  0.08437  0.12756  1.0000
  H   H2361     1.0  0.93202  0.11548  0.17461  1.0000
  H   H2362     1.0  0.91083  0.11826  0.16863  1.0000
  H   H2363     1.0  0.88866  0.08826  0.19701  1.0000
  H   H2364     1.0  0.89841  0.07104  0.19935  1.0000
  H   H2365     1.0  0.91027  0.06266  0.16193  1.0000
  H   H2366     1.0  0.92093  0.07792  0.13688  1.0000
  H   H2367     1.0  0.86348  0.06195  0.13851  1.0000
  H   H2368     1.0  0.88072  0.05291  0.14757  1.0000
  H   H2369     1.0  0.86975  0.06201  0.17233  1.0000
  H   H2370     1.0  0.91269  0.11429  0.12077  1.0000
  H   H2371     1.0  0.93407  0.13102  0.13395  1.0000
  H   H2372     1.0  0.93315  0.10825  0.12548  1.0000
  H   H2373     1.0  0.92967  0.09776  0.21512  1.0000
  H   H2374     1.0  0.90983  0.09294  0.23540  1.0000
  H   H2375     1.0  0.91659  0.11286  0.21507  1.0000
  H   H2376     1.0  0.81161  0.01996  0.17625  1.0000
  H   H2377     1.0  0.94618  0.09672  0.17603  1.0000
  H   H2378     1.0  0.72314  0.22770  0.39005  1.0000
  C   C1402     1.0  0.90251  0.13527  0.47423  1.0000
  H   H2379     1.0  0.85187  0.15456  0.28145  1.0000
  H   H2380     1.0  0.82602  0.18742  0.42881  1.0000
  H   H2381     1.0  0.85780  0.19479  0.42362  1.0000
  H   H2382     1.0  0.89685  0.17121  0.45603  1.0000
  H   H2383     1.0  0.83366  0.17317  0.22793  1.0000
  H   H2384     1.0  0.83657  0.13807  0.17464  1.0000
  C   C1403     1.0  0.85257  0.14652  0.26365  1.0000
  H   H2385     1.0  0.88421  0.18960  0.04081  1.0000
  C   C1404     1.0  0.84091  0.14968  0.18944  1.0000
  C   C1405     1.0  0.78539  0.22204  0.43308  1.0000
  C   C1406     1.0  0.86754  0.16378  0.46739  1.0000
  C   C1407     1.0  0.69383  0.19698  0.37461  1.0000
  H   H2386     1.0  0.83493  0.14021  0.00980  1.0000
  H   H2387     1.0  0.94646  0.07662  0.16044  1.0000
  H   H2388     1.0  0.73678  0.20799  0.34492  1.0000
  H   H2389     1.0  0.85043  0.22441  0.43644  1.0000
  N   N102      1.0  0.82999  0.20398  0.39327  1.0000
  H   H2390     1.0  0.84311  0.22922  0.34945  1.0000
  H   H2391     1.0  0.83667  0.17152  0.26164  1.0000
  H   H2392     1.0  0.80350  0.15530  0.23981  1.0000
  H   H2393     1.0  0.85099  0.18010  0.39416  1.0000
  C   C1408     1.0  0.81878  0.18655  0.37750  1.0000
  H   H2394     1.0  0.86459  0.18011  0.21646  1.0000
  C   C1409     1.0  0.84204  0.14948  0.99347  1.0000
  H   H2395     1.0  0.96761  0.21850  0.34807  1.0000
  H   H2396     1.0  0.67310  0.14786  0.20070  1.0000
  C   C1410     1.0  0.80314  0.00768  0.18794  1.0000
  H   H2397     1.0  0.85643  0.17121  0.02105  1.0000
  H   H2398     1.0  0.81029  0.00911  0.20742  1.0000
  H   H2399     1.0  0.87983  0.18000  0.27296  1.0000
  H   H2400     1.0  0.87333  0.19886  0.39685  1.0000
  C   C1411     1.0  0.66034  0.15112  0.20254  1.0000
  H   H2401     1.0  0.85482  0.16460  0.45758  1.0000
  C   C1412     1.0  0.88640  0.20048  0.02573  1.0000
  C   C1413     1.0  0.83371  0.16300  0.24325  1.0000
  H   H2402     1.0  0.83585  0.21091  0.46105  1.0000
  H   H2403     1.0  0.72935  0.22215  0.43394  1.0000
  H   H2404     1.0  0.88878  0.18999  0.45177  1.0000
  S   S411      1.0  0.77504  0.23364  0.09702  1.0000
  C   C1414     1.0  0.84456  0.14215  0.21607  1.0000
  H   H2405     1.0  0.79099  0.16821  0.36336  1.0000
  C   C1415     1.0  0.82567  0.22046  0.38444  1.0000
  H   H2406     1.0  0.82401  0.18755  0.35731  1.0000
  H   H2407     1.0  0.82468  0.12332  0.26698  1.0000
  S   S412      1.0  0.77611  0.23426  0.34659  1.0000
  C   C1416     1.0  0.86679  0.17198  0.23322  1.0000
  H   H2408     1.0  0.88100  0.17030  0.42964  1.0000
  H   H2409     1.0  0.89713  0.07279  0.45565  1.0000
  H   H2410     1.0  0.85353  0.20839  0.36808  1.0000
  H   H2411     1.0  0.86712  0.14680  0.26405  1.0000
  H   H2412     1.0  0.86588  0.14894  0.46496  1.0000
  C   C1417     1.0  0.68085  0.18882  0.35012  1.0000
  H   H2413     1.0  0.82399  0.22229  0.14253  1.0000
  H   H2414     1.0  0.82066  0.17413  0.38588  1.0000
  C   C1418     1.0  0.71725  0.18213  0.37828  1.0000
  C   C1419     1.0  0.72573  0.21460  0.39240  1.0000
  C   C1420     1.0  0.83558  0.21669  0.44122  1.0000
  H   H2415     1.0  0.82943  0.15492  0.19026  1.0000
  C   C1421     1.0  0.70717  0.16519  0.35988  1.0000
  Fe  Fe206     1.0  0.83035  0.23666  0.04324  1.0000
  H   H2416     1.0  0.83757  0.21155  0.12431  1.0000
  H   H2417     1.0  0.68545  0.18042  0.33644  1.0000
  H   H2418     1.0  0.73250  0.18481  0.37837  1.0000
  H   H2419     1.0  0.71237  0.17705  0.39818  1.0000
  H   H2420     1.0  0.89960  0.04570  0.47028  1.0000
  H   H2421     1.0  0.91137  0.09699  0.45382  1.0000
  H   H2422     1.0  0.89942  0.21248  0.03181  1.0000
  C   C1422     1.0  0.85833  0.19457  0.40193  1.0000
  C   C1423     1.0  0.72196  0.20681  0.34586  1.0000
  H   H2423     1.0  0.85383  0.16063  0.18203  1.0000
  H   H2424     1.0  0.71181  0.15373  0.36535  1.0000
  H   H2425     1.0  0.83227  0.12907  0.21936  1.0000
  N   N103      1.0  0.79842  0.18568  0.12048  1.0000
  C   C1424     1.0  0.78258  0.17481  0.10144  1.0000
  C   C1425     1.0  0.81157  0.17547  0.12223  1.0000
  C   C1426     1.0  0.80854  0.20470  0.10890  1.0000
  C   C1427     1.0  0.79020  0.18724  0.14656  1.0000
  C   C1428     1.0  0.76848  0.18395  0.09447  1.0000
  C   C1429     1.0  0.80261  0.15472  0.12980  1.0000
  C   C1430     1.0  0.82676  0.21768  0.12304  1.0000
  C   C1431     1.0  0.80317  0.19042  0.17128  1.0000
  H   H2426     1.0  0.78822  0.17207  0.08260  1.0000
  H   H2427     1.0  0.77403  0.16082  0.10923  1.0000
  H   H2428     1.0  0.82352  0.18229  0.13616  1.0000
  H   H2429     1.0  0.81824  0.17599  0.10313  1.0000
  H   H2430     1.0  0.81214  0.20323  0.08822  1.0000
  H   H2431     1.0  0.79934  0.21274  0.10793  1.0000
  H   H2432     1.0  0.78477  0.19861  0.14617  1.0000
  H   H2433     1.0  0.77781  0.17417  0.15021  1.0000
  H   H2434     1.0  0.77472  0.19602  0.08138  1.0000
  H   H2435     1.0  0.75627  0.17368  0.08340  1.0000
  H   H2436     1.0  0.76303  0.18843  0.11207  1.0000
  H   H2437     1.0  0.81390  0.14959  0.13470  1.0000
  H   H2438     1.0  0.79354  0.15253  0.14699  1.0000
  H   H2439     1.0  0.79442  0.14593  0.11296  1.0000
  C   C1432     1.0  0.72239  0.20937  0.42152  1.0000
  H   H2440     1.0  0.67850  0.20010  0.33909  1.0000
  H   H2441     1.0  0.69259  0.21055  0.37913  1.0000
  H   H2442     1.0  0.79913  0.19884  0.18586  1.0000
  H   H2443     1.0  0.81828  0.19804  0.16811  1.0000
  H   H2444     1.0  0.80079  0.17695  0.18104  1.0000
  H   H2445     1.0  0.83465  0.23338  0.39550  1.0000
  H   H2446     1.0  0.71062  0.16812  0.33903  1.0000
  H   H2447     1.0  0.79064  0.17898  0.39425  1.0000
  H   H2448     1.0  0.89520  0.20578  0.98596  1.0000
  H   H2449     1.0  0.84287  0.12194  0.28805  1.0000
  C   C1433     1.0  0.88624  0.12277  0.98936  1.0000
  H   H2450     1.0  0.73317  0.23753  0.34870  1.0000
  H   H2451     1.0  0.78920  0.00849  0.19012  1.0000
  C   C1434     1.0  0.90029  0.08647  0.46534  1.0000
  H   H2452     1.0  0.88791  0.09037  0.46369  1.0000
  H   H2453     1.0  0.66676  0.17945  0.35664  1.0000
  H   H2454     1.0  0.87649  0.04526  0.47625  1.0000
  H   H2455     1.0  0.72450  0.22805  0.31684  1.0000
  H   H2456     1.0  0.84459  0.18993  0.00468  1.0000
  H   H2457     1.0  0.85609  0.11137  0.99023  1.0000
  C   C1435     1.0  0.79624  0.24021  0.14386  1.0000
  H   H2458     1.0  0.87180  0.20350  0.46888  1.0000
  H   H2459     1.0  0.79395  0.19209  0.36412  1.0000
  C   C1436     1.0  0.82827  0.22507  0.35503  1.0000
  C   C1437     1.0  0.79218  0.24040  0.42406  1.0000
  H   H2460     1.0  0.85908  0.21213  0.99124  1.0000
  C   C1438     1.0  0.85007  0.19732  0.98647  1.0000
  H   H2461     1.0  0.81916  0.21337  0.34217  1.0000
  C   C1439     1.0  0.87012  0.11472  0.47945  1.0000
  H   H2462     1.0  0.83545  0.13648  0.48063  1.0000
  C   C1440     1.0  0.98100  0.21710  0.35015  1.0000
  Fe  Fe207     1.0  0.73717  0.18540  0.77956  1.0000
  S   S413      1.0  0.75239  0.21688  0.77705  1.0000
  S   S414      1.0  0.70495  0.17725  0.78070  1.0000
  Fe  Fe208     1.0  0.77506  0.18081  0.78650  1.0000
  S   S415      1.0  0.79150  0.21146  0.78476  1.0000
  S   S416      1.0  0.79130  0.16228  0.79499  1.0000
  Fe  Fe209     1.0  0.77013  0.21431  0.81150  1.0000
  C   C1441     1.0  0.71053  0.21560  0.87867  1.0000
  Fe  Fe210     1.0  0.77239  0.21088  0.75030  1.0000
  S   S417      1.0  0.78966  0.22729  0.71601  1.0000
  S   S418      1.0  0.75442  0.18346  0.81525  1.0000
  S   S419      1.0  0.75651  0.17962  0.75086  1.0000
  Fe  Fe211     1.0  0.90006  0.14354  0.80852  1.0000
  S   S420      1.0  0.91666  0.17415  0.80285  1.0000
  S   S421      1.0  0.88721  0.12036  0.77735  1.0000
  Fe  Fe212     1.0  0.89633  0.14928  0.86887  1.0000
  S   S422      1.0  0.91257  0.18036  0.86666  1.0000
  S   S423      1.0  0.87729  0.13409  0.90226  1.0000
  Fe  Fe213     1.0  0.89551  0.17851  0.82929  1.0000
  S   S424      1.0  0.87969  0.19711  0.81855  1.0000
  Fe  Fe214     1.0  0.93244  0.17317  0.84064  1.0000
  S   S425      1.0  0.96460  0.18195  0.84590  1.0000
  S   S426      1.0  0.87847  0.14816  0.83291  1.0000
  S   S427      1.0  0.91665  0.14182  0.84479  1.0000
  S   S428      1.0  0.80314  0.22017  0.53857  1.0000
  S   S429      1.0  0.85231  0.22064  0.55502  1.0000
  Fe  Fe215     1.0  0.84287  0.07965  0.58695  1.0000
  S   S430      1.0  0.87446  0.09529  0.59086  1.0000
  S   S431      1.0  0.83440  0.04751  0.58648  1.0000
  Fe  Fe216     1.0  0.83740  0.11677  0.58073  1.0000
  S   S432      1.0  0.86803  0.13383  0.58466  1.0000
  S   S433      1.0  0.81841  0.13244  0.57157  1.0000
  Fe  Fe217     1.0  0.87140  0.11279  0.55719  1.0000
  S   S434      1.0  0.89267  0.12480  0.52492  1.0000
  Fe  Fe218     1.0  0.86815  0.11504  0.61811  1.0000
  S   S435      1.0  0.88630  0.13152  0.65313  1.0000
  S   S436      1.0  0.84054  0.09620  0.55141  1.0000
  S   S437      1.0  0.83683  0.09889  0.61595  1.0000
  C   C1442     1.0  0.84247  0.19619  0.55999  1.0000
  C   C1443     1.0  0.85285  0.18782  0.57437  1.0000
  C   C1444     1.0  0.84570  0.16834  0.57801  1.0000
  C   C1445     1.0  0.82811  0.15698  0.56719  1.0000
  C   C1446     1.0  0.81775  0.16536  0.55284  1.0000
  C   C1447     1.0  0.82495  0.18481  0.54904  1.0000
  H   H2463     1.0  0.86644  0.19646  0.58286  1.0000
  H   H2464     1.0  0.85366  0.16223  0.58968  1.0000
  H   H2465     1.0  0.80415  0.15673  0.54435  1.0000
  H   H2466     1.0  0.81700  0.19092  0.53733  1.0000
  H   H2467     1.0  0.87464  0.19823  0.75338  1.0000
  C   C1448     1.0  0.88747  0.12341  0.74276  1.0000
  C   C1449     1.0  0.87518  0.10896  0.72637  1.0000
  C   C1450     1.0  0.87469  0.11102  0.69887  1.0000
  C   C1451     1.0  0.88668  0.12754  0.68742  1.0000
  C   C1452     1.0  0.89913  0.14185  0.70382  1.0000
  C   C1453     1.0  0.89945  0.13988  0.73129  1.0000
  H   H2468     1.0  0.86589  0.09613  0.73500  1.0000
  H   H2469     1.0  0.86506  0.09989  0.68653  1.0000
  H   H2470     1.0  0.90852  0.15464  0.69518  1.0000
  H   H2471     1.0  0.90909  0.15105  0.74357  1.0000
  C   C1454     1.0  0.88138  0.12952  0.93551  1.0000
  C   C1455     1.0  0.89943  0.13447  0.94660  1.0000
  H   H2472     1.0  0.81524  0.20431  0.58826  1.0000
  H   H2473     1.0  0.65991  0.18296  0.71232  1.0000
  H   H2474     1.0  0.70955  0.21097  0.81100  1.0000
  C   C1456     1.0  0.86581  0.12104  0.95142  1.0000
  H   H2475     1.0  0.91155  0.14098  0.93464  1.0000
  C   C1457     1.0  0.88448  0.19180  0.74702  1.0000
  H   H2476     1.0  0.81126  0.17499  0.86241  1.0000
  H   H2477     1.0  0.85178  0.11717  0.94310  1.0000
  H   H2478     1.0  0.86409  0.21257  0.49641  1.0000
  H   H2479     1.0  0.75234  0.21900  0.63280  1.0000
  C   C1458     1.0  0.80159  0.00255  0.50829  1.0000
  C   C1459     1.0  0.78408  0.17777  0.66592  1.0000
  H   H2480     1.0  0.83164  0.00174  0.67514  1.0000
  N   N104      1.0  0.80247  0.18922  0.62304  1.0000
  C   C1460     1.0  0.80169  0.18236  0.86564  1.0000
  H   H2481     1.0  0.70363  0.22584  0.87705  1.0000
  H   H2482     1.0  0.83059  0.14013  0.77364  1.0000
  H   H2483     1.0  0.93145  0.09885  0.53560  1.0000
  C   C1461     1.0  0.81584  0.17239  0.80166  1.0000
  C   C1462     1.0  0.82440  0.16207  0.81557  1.0000
  C   C1463     1.0  0.84386  0.16953  0.82106  1.0000
  C   C1464     1.0  0.85509  0.18731  0.81230  1.0000
  C   C1465     1.0  0.84652  0.19772  0.79854  1.0000
  C   C1466     1.0  0.82702  0.19027  0.79314  1.0000
  H   H2484     1.0  0.81588  0.14828  0.82239  1.0000
  H   H2485     1.0  0.85003  0.16159  0.83245  1.0000
  H   H2486     1.0  0.85503  0.21150  0.79170  1.0000
  H   H2487     1.0  0.82076  0.19824  0.78185  1.0000
  H   H2488     1.0  0.82553  0.04412  0.86647  1.0000
  C   C1467     1.0  0.81667  0.00948  0.59382  1.0000
  C   C1468     1.0  0.81466  0.02684  0.59419  1.0000
  C   C1469     1.0  0.79708  0.02704  0.59994  1.0000
  C   C1470     1.0  0.78178  0.01015  0.60488  1.0000
  H   H2489     1.0  0.83018  0.00910  0.58948  1.0000
  H   H2490     1.0  0.79521  0.04019  0.60030  1.0000
  H   H2491     1.0  0.76825  0.01056  0.60901  1.0000
  H   H2492     1.0  0.79331  0.17346  0.67911  1.0000
  C   C1471     1.0  0.66484  0.12497  0.76331  1.0000
  C   C1472     1.0  0.68239  0.14001  0.76712  1.0000
  C   C1473     1.0  0.68323  0.15756  0.77554  1.0000
  C   C1474     1.0  0.66621  0.15977  0.78003  1.0000
  C   C1475     1.0  0.87881  0.16842  0.96506  1.0000
  H   H2493     1.0  0.66446  0.11150  0.75680  1.0000
  H   H2494     1.0  0.69526  0.13799  0.76355  1.0000
  H   H2495     1.0  0.66659  0.17325  0.78645  1.0000
  H   H2496     1.0  0.91044  0.10197  0.50096  1.0000
  N   N105      1.0  0.86864  0.16907  0.49622  1.0000
  C   C1476     1.0  0.83209  0.23535  0.86539  1.0000
  H   H2497     1.0  0.75599  0.21483  0.68077  1.0000
  H   H2498     1.0  0.88597  0.16960  0.72272  1.0000
  H   H2499     1.0  0.85629  0.15518  0.53211  1.0000
  S   S438      1.0  0.77861  0.23645  0.59251  1.0000
  C   C1477     1.0  0.81640  0.18013  0.62800  1.0000
  S   S439      1.0  0.78020  0.23529  0.84596  1.0000
  H   H2500     1.0  0.66277  0.16140  0.71655  1.0000
  H   H2501     1.0  0.91583  0.13482  0.98175  1.0000
  C   C1478     1.0  0.88860  0.17543  0.50676  1.0000
  C   C1479     1.0  0.85709  0.15181  0.51108  1.0000
  C   C1480     1.0  0.76610  0.22503  0.64226  1.0000
  H   H2502     1.0  0.64942  0.13181  0.67932  1.0000
  C   C1481     1.0  0.76812  0.22263  0.66949  1.0000
  H   H2503     1.0  0.84210  0.21468  0.62130  1.0000
  H   H2504     1.0  0.77499  0.18251  0.67827  1.0000
  H   H2505     1.0  0.81780  0.14257  0.73553  1.0000
  C   C1482     1.0  0.85178  0.14598  0.71222  1.0000
  H   H2506     1.0  0.85023  0.17781  0.95605  1.0000
  H   H2507     1.0  0.88601  0.18777  0.93156  1.0000
  H   H2508     1.0  0.83848  0.12426  0.75520  1.0000
  C   C1483     1.0  0.85159  0.15237  0.68364  1.0000
  H   H2509     1.0  0.84394  0.17767  0.75330  1.0000
  H   H2510     1.0  0.90569  0.19079  0.95401  1.0000
  H   H2511     1.0  0.87445  0.18309  0.70778  1.0000
  H   H2512     1.0  0.86974  0.19898  0.95724  1.0000
  H   H2513     1.0  0.86181  0.13889  0.71349  1.0000
  C   C1484     1.0  0.90754  0.08741  0.49401  1.0000
  C   C1485     1.0  0.89694  0.05484  0.51037  1.0000
  H   H2514     1.0  0.89671  0.20304  0.73845  1.0000
  C   C1486     1.0  0.80144  0.24054  0.66691  1.0000
  H   H2515     1.0  0.78376  0.00304  0.69221  1.0000
  H   H2516     1.0  0.76000  0.17414  0.58620  1.0000
  H   H2517     1.0  0.83796  0.13466  0.71521  1.0000
  H   H2518     1.0  0.84361  0.16151  0.68119  1.0000
  H   H2519     1.0  0.86610  0.15960  0.67666  1.0000
  H   H2520     1.0  0.84490  0.13987  0.67061  1.0000
  H   H2521     1.0  0.67371  0.20684  0.86299  1.0000
  H   H2522     1.0  0.82591  0.18253  0.61122  1.0000
  H   H2523     1.0  0.86385  0.14145  0.51101  1.0000
  N   N106      1.0  0.85692  0.08532  0.84979  1.0000
  C   C1487     1.0  0.87692  0.09442  0.86038  1.0000
  C   C1488     1.0  0.84503  0.09201  0.86703  1.0000
  C   C1489     1.0  0.85657  0.09224  0.82228  1.0000
  C   C1490     1.0  0.85127  0.06439  0.84992  1.0000
  C   C1491     1.0  0.89212  0.09107  0.84435  1.0000
  C   C1492     1.0  0.84398  0.08595  0.89594  1.0000
  C   C1493     1.0  0.83738  0.08625  0.80779  1.0000
  C   C1494     1.0  0.82998  0.05213  0.84814  1.0000
  H   H2524     1.0  0.88119  0.10986  0.86215  1.0000
  H   H2525     1.0  0.87834  0.08963  0.88054  1.0000
  H   H2526     1.0  0.83037  0.08749  0.85959  1.0000
  H   H2527     1.0  0.85022  0.10758  0.86694  1.0000
  H   H2528     1.0  0.86286  0.10781  0.82228  1.0000
  H   H2529     1.0  0.86530  0.08751  0.80924  1.0000
  H   H2530     1.0  0.85794  0.05987  0.83353  1.0000
  H   H2531     1.0  0.85686  0.06021  0.86813  1.0000
  H   H2532     1.0  0.89450  0.09861  0.82550  1.0000
  H   H2533     1.0  0.90569  0.09689  0.85564  1.0000
  H   H2534     1.0  0.88899  0.07603  0.84080  1.0000
  H   H2535     1.0  0.83382  0.09051  0.90606  1.0000
  H   H2536     1.0  0.83906  0.07059  0.89789  1.0000
  H   H2537     1.0  0.85759  0.09276  0.90675  1.0000
  H   H2538     1.0  0.83962  0.09300  0.78829  1.0000
  H   H2539     1.0  0.82742  0.09104  0.81786  1.0000
  H   H2540     1.0  0.83116  0.07100  0.80377  1.0000
  H   H2541     1.0  0.82716  0.04157  0.83206  1.0000
  H   H2542     1.0  0.82061  0.05966  0.84435  1.0000
  C   C1495     1.0  0.81074  0.20304  0.85804  1.0000
  H   H2543     1.0  0.92737  0.07500  0.54490  1.0000
  C   C1496     1.0  0.77149  0.18487  0.59786  1.0000
  H   H2544     1.0  0.82990  0.12898  0.51345  1.0000
  N   N107      1.0  0.70922  0.20564  0.85266  1.0000
  H   H2545     1.0  0.78771  0.20302  0.64525  1.0000
  H   H2546     1.0  0.84537  0.18110  0.71898  1.0000
  H   H2547     1.0  0.70263  0.20537  0.89365  1.0000
  C   C1497     1.0  0.84251  0.17019  0.73424  1.0000
  H   H2548     1.0  0.84710  0.13177  0.78761  1.0000
  C   C1498     1.0  0.72313  0.19635  0.85087  1.0000
  H   H2549     1.0  0.89806  0.18791  0.49638  1.0000
  H   H2550     1.0  0.89691  0.17132  0.93194  1.0000
  C   C1499     1.0  0.73085  0.23537  0.82884  1.0000
  H   H2551     1.0  0.82966  0.22563  0.64101  1.0000
  C   C1500     1.0  0.77166  0.21290  0.89016  1.0000
  C   C1501     1.0  0.85927  0.15341  0.75925  1.0000
  H   H2552     1.0  0.68902  0.18157  0.83151  1.0000
  H   H2553     1.0  0.85121  0.18602  0.87625  1.0000
  H   H2554     1.0  0.84648  0.05760  0.52246  1.0000
  H   H2555     1.0  0.81680  0.15800  0.70953  1.0000
  H   H2556     1.0  0.89095  0.04584  0.52750  1.0000
  H   H2557     1.0  0.88669  0.19162  0.54185  1.0000
  H   H2558     1.0  0.82057  0.24021  0.86970  1.0000
  C   C1502     1.0  0.79577  0.19405  0.64852  1.0000
  H   H2559     1.0  0.85864  0.18516  0.52189  1.0000
  C   C1503     1.0  0.83655  0.14153  0.50124  1.0000
  S   S440      1.0  0.78364  0.22002  0.96875  1.0000
  C   C1504     1.0  0.88790  0.12489  0.49066  1.0000
  H   H2560     1.0  0.87165  0.14936  0.75911  1.0000
  H   H2561     1.0  0.90701  0.18596  0.54113  1.0000
  H   H2562     1.0  0.84600  0.17905  0.49172  1.0000
  C   C1505     1.0  0.83606  0.23858  0.83590  1.0000
  C   C1506     1.0  0.78647  0.17694  0.60533  1.0000
  H   H2563     1.0  0.68673  0.18064  0.86611  1.0000
  H   H2564     1.0  0.92523  0.09132  0.56816  1.0000
  C   C1507     1.0  0.78046  0.23084  0.88013  1.0000
  H   H2565     1.0  0.92150  0.08634  0.49325  1.0000
  H   H2566     1.0  0.79636  0.18043  0.88583  1.0000
  C   C1508     1.0  0.72104  0.18101  0.87115  1.0000
  C   C1509     1.0  0.73046  0.22605  0.89099  1.0000
  C   C1510     1.0  0.90150  0.08092  0.54051  1.0000
  H   H2567     1.0  0.86356  0.06217  0.54828  1.0000
  H   H2568     1.0  0.65025  0.16213  0.67193  1.0000
  C   C1511     1.0  0.84536  0.19443  0.88828  1.0000
  H   H2569     1.0  0.82031  0.15440  0.63678  1.0000
  C   C1512     1.0  0.77239  0.20998  0.91739  1.0000
  C   C1513     1.0  0.68986  0.19037  0.84931  1.0000
  H   H2570     1.0  0.81641  0.01224  0.51202  1.0000
  H   H2571     1.0  0.83193  0.18456  0.89568  1.0000
  H   H2572     1.0  0.70128  0.22535  0.83023  1.0000
  H   H2573     1.0  0.73345  0.17710  0.87046  1.0000
  H   H2574     1.0  0.81468  0.20284  0.83727  1.0000
  H   H2575     1.0  0.89001  0.18677  0.76440  1.0000
  H   H2576     1.0  0.80332  0.21542  0.60674  1.0000
  H   H2577     1.0  0.81296  0.16270  0.74238  1.0000
  H   H2578     1.0  0.76449  0.20124  0.87694  1.0000
  H   H2579     1.0  0.88521  0.16809  0.54872  1.0000
  H   H2580     1.0  0.80783  0.20297  0.66123  1.0000
  C   C1514     1.0  0.80851  0.15876  0.63172  1.0000
  H   H2581     1.0  0.79287  0.01030  0.51439  1.0000
  H   H2582     1.0  0.91198  0.05677  0.51132  1.0000
  H   H2583     1.0  0.89396  0.07050  0.55543  1.0000
  N   N108      1.0  0.89507  0.07346  0.51295  1.0000
  C   C1515     1.0  0.84267  0.13640  0.76893  1.0000
  H   H2584     1.0  0.67259  0.20285  0.82764  1.0000
  H   H2585     1.0  0.81750  0.20103  0.91137  1.0000
  C   C1516     1.0  0.86057  0.18785  0.97009  1.0000
  H   H2586     1.0  0.86243  0.16421  0.77505  1.0000
  H   H2587     1.0  0.77880  0.16308  0.61391  1.0000
  N   N109      1.0  0.82728  0.21559  0.87470  1.0000
  H   H2588     1.0  0.86691  0.15816  0.95340  1.0000
  H   H2589     1.0  0.82567  0.18668  0.64540  1.0000
  H   H2590     1.0  0.76556  0.19604  0.92494  1.0000
  C   C1517     1.0  0.89261  0.18057  0.94473  1.0000
  H   H2591     1.0  0.77421  0.16554  0.65479  1.0000
  H   H2592     1.0  0.79937  0.20856  0.85769  1.0000
  C   C1518     1.0  0.78231  0.22486  0.93488  1.0000
  C   C1519     1.0  0.83122  0.22076  0.62106  1.0000
  H   H2593     1.0  0.76506  0.18834  0.61529  1.0000
  C   C1520     1.0  0.64783  0.12713  0.76791  1.0000
  C   C1521     1.0  0.71183  0.21881  0.83005  1.0000
  H   H2594     1.0  0.80990  0.00516  0.67005  1.0000
  H   H2595     1.0  0.83667  0.23341  0.60876  1.0000
  H   H2596     1.0  0.89422  0.16435  0.50316  1.0000
  H   H2597     1.0  0.83186  0.22523  0.94245  1.0000
  H   H2598     1.0  0.89814  0.09341  0.54464  1.0000
  N   N110      1.0  0.85674  0.16119  0.73300  1.0000
  H   H2599     1.0  0.77718  0.19726  0.58520  1.0000
  C   C1522     1.0  0.86070  0.05788  0.52734  1.0000
  H   H2600     1.0  0.86007  0.04344  0.52461  1.0000
  H   H2601     1.0  0.82488  0.01527  0.69764  1.0000
  H   H2602     1.0  0.65992  0.18441  0.84878  1.0000
  H   H2603     1.0  0.84521  0.20689  0.85056  1.0000
  C   C1523     1.0  0.87502  0.07187  0.50941  1.0000
  C   C1524     1.0  0.82165  0.21510  0.90289  1.0000
  H   H2604     1.0  0.97073  0.22199  0.84618  1.0000
  H   H2605     1.0  0.85555  0.20014  0.90497  1.0000
  Fe  Fe219     1.0  0.80413  0.23562  0.50098  1.0000
  H   H2606     1.0  0.79837  0.15410  0.64763  1.0000
  C   C1525     1.0  0.89171  0.18050  0.53631  1.0000
  C   C1526     1.0  0.82156  0.15729  0.73009  1.0000
  Fe  Fe220     1.0  0.83401  0.23638  0.54195  1.0000
  C   C1527     1.0  0.87552  0.17601  0.72632  1.0000
  H   H2607     1.0  0.88577  0.20962  0.49935  1.0000
  C   C1528     1.0  0.81236  0.20724  0.60872  1.0000
  C   C1529     1.0  0.87141  0.20331  0.49051  1.0000
  C   C1530     1.0  0.67327  0.19680  0.84713  1.0000
  C   C1531     1.0  0.65208  0.16761  0.71361  1.0000
  H   H2608     1.0  0.78928  0.17533  0.85235  1.0000
  C   C1532     1.0  0.78586  0.23033  0.68199  1.0000
  H   H2609     1.0  0.80889  0.21834  0.90407  1.0000
  H   H2610     1.0  0.80008  0.99951  0.48689  1.0000
  H   H2611     1.0  0.80199  0.15117  0.61319  1.0000
  H   H2612     1.0  0.72021  0.18571  0.89148  1.0000
  H   H2613     1.0  0.74204  0.23061  0.87707  1.0000
  H   H2614     1.0  0.79204  0.17384  0.58668  1.0000
  H   H2615     1.0  0.74284  0.23092  0.82835  1.0000
  H   H2616     1.0  0.85871  0.10667  0.49178  1.0000
  H   H2617     1.0  0.87418  0.08573  0.51281  1.0000
  H   H2618     1.0  0.72194  0.18975  0.83112  1.0000
  C   C1533     1.0  0.92264  0.08673  0.54722  1.0000
  C   C1534     1.0  0.86037  0.18358  0.50067  1.0000
  H   H2619     1.0  0.70864  0.16805  0.86633  1.0000
  C   C1535     1.0  0.84416  0.21051  0.87139  1.0000
  H   H2620     1.0  0.73360  0.21757  0.90650  1.0000
  H   H2621     1.0  0.73784  0.20648  0.85247  1.0000
  H   H2622     1.0  0.84656  0.23310  0.82918  1.0000
  H   H2623     1.0  0.82815  0.15025  0.50362  1.0000
  C   C1536     1.0  0.90181  0.13101  0.97334  1.0000
  C   C1537     1.0  0.81923  0.00252  0.68488  1.0000
  H   H2624     1.0  0.88594  0.16015  0.97526  1.0000
  C   C1538     1.0  0.78177  0.23489  0.62709  1.0000
  H   H2625     1.0  0.73089  0.23892  0.90124  1.0000
  C   C1539     1.0  0.80140  0.99261  0.59889  1.0000
  C   C1540     1.0  0.86820  0.11781  0.97822  1.0000
  H   H2626     1.0  0.86949  0.06795  0.48907  1.0000
  C   C1541     1.0  0.78376  0.99280  0.60429  1.0000
  C   C1542     1.0  0.83647  0.22876  0.92198  1.0000
  H   H2627     1.0  0.88328  0.02800  0.49002  1.0000
  H   H2628     1.0  0.82296  0.23247  0.82370  1.0000
  H   H2629     1.0  0.85043  0.22797  0.92030  1.0000
  C   C1543     1.0  0.64865  0.14470  0.77630  1.0000
  H   H2630     1.0  0.85731  0.22288  0.87600  1.0000
  H   H2631     1.0  0.83740  0.19698  0.97526  1.0000
  H   H2632     1.0  0.84440  0.14038  0.97832  1.0000
  C   C1544     1.0  0.88865  0.04309  0.48519  1.0000
  H   H2633     1.0  0.91634  0.14312  0.48269  1.0000
  H   H2634     1.0  0.90233  0.34214  0.00608  1.0000
  C   C1545     1.0  0.83475  0.29673  0.25666  1.0000
  C   C1546     1.0  0.81492  0.28113  0.25580  1.0000
  Fe  Fe221     1.0  0.91380  0.41233  0.00008  1.0000
  S   S441      1.0  0.89248  0.42558  0.99904  1.0000
  C   C1547     1.0  0.96363  0.46885  0.10500  1.0000
  H   H2635     1.0  0.83779  0.26076  0.26585  1.0000
  S   S442      1.0  0.89817  0.45331  0.43428  1.0000
  Fe  Fe222     1.0  0.91238  0.44687  0.02752  1.0000
  S   S443      1.0  0.90241  0.45927  0.06184  1.0000
  H   H2636     1.0  0.97904  0.47010  0.41648  1.0000
  S   S444      1.0  0.93294  0.43278  0.03035  1.0000
  Fe  Fe223     1.0  0.91611  0.47252  0.27770  1.0000
  S   S445      1.0  0.92102  0.45745  0.31396  1.0000
  Fe  Fe224     1.0  0.91259  0.46660  0.21696  1.0000
  S   S446      1.0  0.91220  0.44644  0.18371  1.0000
  S   S447      1.0  0.93643  0.47306  0.24635  1.0000
  S   S448      1.0  0.89154  0.46333  0.24849  1.0000
  Fe  Fe225     1.0  0.82623  0.27413  0.03276  1.0000
  S   S449      1.0  0.79454  0.25922  0.02869  1.0000
  S   S450      1.0  0.83612  0.30637  0.02964  1.0000
  H   H2637     1.0  0.81195  0.25619  0.31251  1.0000
  H   H2638     1.0  0.84097  0.36135  0.12004  1.0000
  H   H2639     1.0  0.85318  0.40265  0.11241  1.0000
  C   C1548     1.0  0.77330  0.26448  0.26358  1.0000
  H   H2640     1.0  0.84604  0.40196  0.05577  1.0000
  S   S451      1.0  0.83173  0.25316  0.00632  1.0000
  S   S452      1.0  0.82782  0.25890  0.07008  1.0000
  H   H2641     1.0  0.78057  0.27574  0.32084  1.0000
  C   C1549     1.0  0.87192  0.39850  0.14137  1.0000
  H   H2642     1.0  0.87670  0.41905  0.11206  1.0000
  H   H2643     1.0  0.84513  0.29284  0.26793  1.0000
  H   H2644     1.0  0.83224  0.24430  0.29178  1.0000
  C   C1550     1.0  0.81953  0.26492  0.29591  1.0000
  H   H2645     1.0  0.95739  0.45925  0.39657  1.0000
  Fe  Fe226     1.0  0.94678  0.45102  0.99630  1.0000
  H   H2646     1.0  0.97781  0.46863  0.10433  1.0000
  H   H2647     1.0  0.79437  0.25824  0.39087  1.0000
  C   C1551     1.0  0.88706  0.36024  0.00946  1.0000
  N   N111      1.0  0.80732  0.27352  0.28207  1.0000
  C   C1552     1.0  0.87357  0.32622  0.01614  1.0000
  C   C1553     1.0  0.85608  0.32675  0.02155  1.0000
  C   C1554     1.0  0.85422  0.34417  0.02072  1.0000
  C   C1555     1.0  0.86953  0.36077  0.01467  1.0000
  H   H2648     1.0  0.88722  0.40295  0.14562  1.0000
  C   C1556     1.0  0.80665  0.28926  0.29909  1.0000
  H   H2649     1.0  0.78878  0.24685  0.26578  1.0000
  H   H2650     1.0  0.87631  0.39744  0.04886  1.0000
  C   C1557     1.0  0.90645  0.45645  0.09560  1.0000
  C   C1558     1.0  0.90113  0.46674  0.11435  1.0000
  C   C1559     1.0  0.90319  0.46415  0.14141  1.0000
  C   C1560     1.0  0.91011  0.45084  0.14995  1.0000
  C   C1561     1.0  0.91550  0.44060  0.13117  1.0000
  C   C1562     1.0  0.91410  0.44371  0.10416  1.0000
  H   H2651     1.0  0.96646  0.44588  0.19257  1.0000
  H   H2652     1.0  0.85634  0.36915  0.06530  1.0000
  H   H2653     1.0  0.92092  0.43030  0.13760  1.0000
  H   H2654     1.0  0.91864  0.43603  0.08993  1.0000
  C   C1563     1.0  0.90412  0.45376  0.40070  1.0000
  C   C1564     1.0  0.91537  0.44464  0.39152  1.0000
  C   C1565     1.0  0.92012  0.44575  0.36486  1.0000
  C   C1566     1.0  0.91379  0.45602  0.34703  1.0000
  C   C1567     1.0  0.90249  0.46510  0.35618  1.0000
  H   H2655     1.0  0.84222  0.37820  0.08212  1.0000
  H   H2656     1.0  0.92030  0.43663  0.40492  1.0000
  H   H2657     1.0  0.92879  0.43858  0.35799  1.0000
  H   H2658     1.0  0.87531  0.31301  0.01667  1.0000
  H   H2659     1.0  0.84317  0.34591  0.09484  1.0000
  S   S453      1.0  0.90691  0.38064  0.00114  1.0000
  H   H2660     1.0  0.90793  0.37665  0.08153  1.0000
  S   S454      1.0  0.92741  0.46631  0.99545  1.0000
  H   H2661     1.0  0.83454  0.30994  0.26496  1.0000
  H   H2662     1.0  0.80134  0.27467  0.33699  1.0000
  H   H2663     1.0  0.88875  0.41743  0.06865  1.0000
  H   H2664     1.0  0.78209  0.25156  0.29629  1.0000
  H   H2665     1.0  0.81487  0.26972  0.24229  1.0000
  H   H2666     1.0  0.86283  0.35843  0.11486  1.0000
  C   C1568     1.0  0.88891  0.34283  0.01017  1.0000
  H   H2667     1.0  0.85900  0.42279  0.07550  1.0000
  H   H2668     1.0  0.89745  0.47300  0.34273  1.0000
  H   H2669     1.0  0.79757  0.29603  0.33652  1.0000
  H   H2670     1.0  0.75921  0.25656  0.27149  1.0000
  C   C1569     1.0  0.96437  0.46359  0.16084  1.0000
  H   H2671     1.0  0.83227  0.27583  0.30520  1.0000
  H   H2672     1.0  0.86404  0.42158  0.04196  1.0000
  Fe  Fe227     1.0  0.91166  0.44468  0.46972  1.0000
  H   H2673     1.0  0.90164  0.40329  0.09999  1.0000
  H   H2674     1.0  0.88888  0.38185  0.11451  1.0000
  C   C1570     1.0  0.95593  0.47907  0.42673  1.0000
  H   H2675     1.0  0.94912  0.45512  0.15814  1.0000
  C   C1571     1.0  0.85044  0.35965  0.10507  1.0000
  H   H2676     1.0  0.89946  0.38752  0.05657  1.0000
  C   C1572     1.0  0.96441  0.48982  0.36346  1.0000
  C   C1573     1.0  0.82640  0.25236  0.27883  1.0000
  H   H2677     1.0  0.88423  0.36530  0.06992  1.0000
  C   C1574     1.0  0.79586  0.28333  0.32472  1.0000
  H   H2678     1.0  0.80565  0.28715  0.24563  1.0000
  H   H2679     1.0  0.84073  0.34476  0.02464  1.0000
  H   H2680     1.0  0.80064  0.29815  0.28815  1.0000
  H   H2681     1.0  0.86768  0.37389  0.01377  1.0000
  H   H2682     1.0  0.86471  0.38345  0.14524  1.0000
  H   H2683     1.0  0.83979  0.29968  0.23629  1.0000
  H   H2684     1.0  0.86681  0.40623  0.15572  1.0000
  S   S455      1.0  0.93140  0.42953  0.46926  1.0000
  H   H2685     1.0  0.77282  0.26143  0.24215  1.0000
  C   C1575     1.0  0.78803  0.25852  0.27773  1.0000
  H   H2686     1.0  0.89892  0.47208  0.15563  1.0000
  C   C1576     1.0  0.89536  0.37919  0.07461  1.0000
  H   H2687     1.0  0.79958  0.25186  0.43757  1.0000
  H   H2688     1.0  0.77581  0.27941  0.26643  1.0000
  H   H2689     1.0  0.95974  0.47177  0.08485  1.0000
  H   H2690     1.0  0.95898  0.45250  0.42939  1.0000
  H   H2691     1.0  0.88879  0.47088  0.38969  1.0000
  N   N112      1.0  0.87188  0.39315  0.09071  1.0000
  C   C1577     1.0  0.87515  0.40523  0.06669  1.0000
  C   C1578     1.0  0.88962  0.38976  0.09628  1.0000
  C   C1579     1.0  0.86803  0.40380  0.11334  1.0000
  C   C1580     1.0  0.85520  0.37529  0.08468  1.0000
  C   C1581     1.0  0.86000  0.41313  0.05997  1.0000
  C   C1582     1.0  0.89760  0.46387  0.38283  1.0000
  H   H2692     1.0  0.94042  0.47172  0.42629  1.0000
  C   C1583     1.0  0.96351  0.46472  0.41625  1.0000
  S   S456      1.0  0.97825  0.46671  0.99167  1.0000
  H   H2693     1.0  0.94236  0.48205  0.16863  1.0000
  H   H2694     1.0  0.82111  0.29902  0.30502  1.0000
  H   H2695     1.0  0.94698  0.48155  0.12314  1.0000
  C   C1584     1.0  0.95753  0.49133  0.16946  1.0000
  H   H2696     1.0  0.95355  0.45465  0.10974  1.0000
  N   N113      1.0  0.96863  0.48343  0.15248  1.0000
  H   H2697     1.0  0.89519  0.47665  0.10790  1.0000
  C   C1585     1.0  0.78923  0.24396  0.39754  1.0000
  C   C1586     1.0  0.96215  0.48371  0.12424  1.0000
  H   H2698     1.0  0.96141  0.46511  0.20381  1.0000
  H   H2699     1.0  0.64933  0.49043  0.45457  1.0000
  C   C1587     1.0  0.96973  0.46098  0.18943  1.0000
  H   H2700     1.0  0.95421  0.48072  0.34851  1.0000
  H   H2701     1.0  0.97308  0.48207  0.36996  1.0000
  Fe  Fe228     1.0  0.79674  0.24307  0.06455  1.0000
  H   H2702     1.0  0.97150  0.45664  0.14844  1.0000
  H   H2703     1.0  0.80820  0.24834  0.13248  1.0000
  H   H2704     1.0  0.92867  0.49043  0.44659  1.0000
  H   H2705     1.0  0.81216  0.24488  0.18045  1.0000
  H   H2706     1.0  0.93892  0.48401  0.38471  1.0000
  H   H2707     1.0  0.96016  0.48146  0.44791  1.0000
  H   H2708     1.0  0.96197  0.49203  0.19046  1.0000
  H   H2709     1.0  0.97553  0.49189  0.24493  1.0000
  H   H2710     1.0  0.81505  0.24215  0.26651  1.0000
  H   H2711     1.0  0.97094  0.48045  0.83320  1.0000
  Fe  Fe229     1.0  0.91655  0.41487  0.50557  1.0000
  C   C1588     1.0  0.89051  0.38163  0.58712  1.0000
  H   H2712     1.0  0.91600  0.41116  0.90546  1.0000
  H   H2713     1.0  0.97105  0.46722  0.60372  1.0000
  H   H2714     1.0  0.88991  0.37180  0.57077  1.0000
  H   H2715     1.0  0.96338  0.49055  0.55755  1.0000
  S   S457      1.0  0.89663  0.45129  0.93070  1.0000
  Fe  Fe230     1.0  0.91666  0.45118  0.52988  1.0000
  S   S458      1.0  0.90875  0.46568  0.56402  1.0000
  H   H2716     1.0  0.93748  0.48158  0.92476  1.0000
  S   S459      1.0  0.93707  0.43703  0.53279  1.0000
  H   H2717     1.0  0.95820  0.48274  0.88997  1.0000
  S   S460      1.0  0.92982  0.46396  0.81574  1.0000
  H   H2718     1.0  0.90259  0.37037  0.92342  1.0000
  S   S461      1.0  0.91289  0.45065  0.68650  1.0000
  S   S462      1.0  0.93799  0.47932  0.74609  1.0000
  S   S463      1.0  0.89354  0.46447  0.75439  1.0000
  Fe  Fe231     1.0  0.83033  0.27329  0.52622  1.0000
  S   S464      1.0  0.79860  0.25847  0.52238  1.0000
  S   S465      1.0  0.84080  0.30431  0.51374  1.0000
  C   C1589     1.0  0.87338  0.39533  0.55845  1.0000
  H   H2719     1.0  0.91145  0.40613  0.56830  1.0000
  H   H2720     1.0  0.92091  0.39173  0.58564  1.0000
  C   C1590     1.0  0.85641  0.37026  0.58982  1.0000
  H   H2721     1.0  0.89021  0.37359  0.60525  1.0000
  H   H2722     1.0  0.86242  0.40523  0.60502  1.0000
  S   S466      1.0  0.83178  0.26027  0.56560  1.0000
  C   C1591     1.0  0.79115  0.24280  0.92484  1.0000
  H   H2723     1.0  0.91299  0.40697  0.60383  1.0000
  S   S467      1.0  0.91009  0.38441  0.51816  1.0000
  H   H2724     1.0  0.87650  0.38700  0.54276  1.0000
  H   H2725     1.0  0.88006  0.40988  0.64688  1.0000
  C   C1592     1.0  0.90162  0.38427  0.92549  1.0000
  H   H2726     1.0  0.86713  0.39603  0.87436  1.0000
  C   C1593     1.0  0.87533  0.40208  0.60553  1.0000
  C   C1594     1.0  0.85225  0.35384  0.57007  1.0000
  H   H2727     1.0  0.85528  0.36804  0.94124  1.0000
  C   C1595     1.0  0.89082  0.36213  0.51575  1.0000
  C   C1596     1.0  0.89229  0.34679  0.52900  1.0000
  C   C1597     1.0  0.87730  0.32905  0.52853  1.0000
  C   C1598     1.0  0.86052  0.32628  0.51468  1.0000
  Fe  Fe232     1.0  0.80062  0.24431  0.56040  1.0000
  H   H2728     1.0  0.88891  0.40845  0.94455  1.0000
  H   H2729     1.0  0.90514  0.34865  0.53980  1.0000
  H   H2730     1.0  0.87874  0.31751  0.53890  1.0000
  H   H2731     1.0  0.85976  0.34469  0.57593  1.0000
  C   C1599     1.0  0.87589  0.38763  0.87233  1.0000
  C   C1600     1.0  0.91010  0.46126  0.59795  1.0000
  C   C1601     1.0  0.90429  0.47150  0.61619  1.0000
  C   C1602     1.0  0.90537  0.46865  0.64336  1.0000
  C   C1603     1.0  0.91190  0.45520  0.65255  1.0000
  C   C1604     1.0  0.91760  0.44486  0.63429  1.0000
  C   C1605     1.0  0.91704  0.44812  0.60715  1.0000
  H   H2732     1.0  0.85673  0.40451  0.53116  1.0000
  H   H2733     1.0  0.83692  0.34539  0.56890  1.0000
  H   H2734     1.0  0.92272  0.43446  0.64125  1.0000
  H   H2735     1.0  0.92183  0.44039  0.59331  1.0000
  C   C1606     1.0  0.90573  0.45420  0.89865  1.0000
  C   C1607     1.0  0.92143  0.45024  0.89262  1.0000
  C   C1608     1.0  0.92836  0.45295  0.86701  1.0000
  C   C1609     1.0  0.91986  0.45990  0.84724  1.0000
  C   C1610     1.0  0.90418  0.46388  0.85327  1.0000
  C   C1611     1.0  0.89710  0.46092  0.87881  1.0000
  H   H2736     1.0  0.92834  0.44525  0.90774  1.0000
  H   H2737     1.0  0.94049  0.44983  0.86253  1.0000
  H   H2738     1.0  0.87521  0.37696  0.96290  1.0000
  H   H2739     1.0  0.88469  0.40949  0.55703  1.0000
  H   H2740     1.0  0.97339  0.45976  0.63605  1.0000
  Fe  Fe233     1.0  0.94972  0.45292  0.49647  1.0000
  C   C1612     1.0  0.87074  0.35044  0.94422  1.0000
  N   N114      1.0  0.87389  0.38729  0.58524  1.0000
  H   H2741     1.0  0.85110  0.40621  0.56459  1.0000
  H   H2742     1.0  0.85607  0.35850  0.54986  1.0000
  C   C1613     1.0  0.87835  0.39751  0.63429  1.0000
  H   H2743     1.0  0.91386  0.39036  0.88651  1.0000
  H   H2744     1.0  0.95076  0.47525  0.63316  1.0000
  N   N115      1.0  0.88160  0.38274  0.92192  1.0000
  Fe  Fe234     1.0  0.91957  0.47611  0.78053  1.0000
  S   S468      1.0  0.83553  0.25066  0.50310  1.0000
  C   C1614     1.0  0.90994  0.39773  0.58621  1.0000
  H   H2745     1.0  0.96399  0.44720  0.74934  1.0000
  H   H2746     1.0  0.85732  0.36431  0.60935  1.0000
  C   C1615     1.0  0.85909  0.34161  0.50132  1.0000
  H   H2747     1.0  0.88438  0.35078  0.95223  1.0000
  H   H2748     1.0  0.86607  0.38570  0.64155  1.0000
  C   C1616     1.0  0.86117  0.40212  0.92811  1.0000
  H   H2749     1.0  0.87261  0.37091  0.49146  1.0000
  C   C1617     1.0  0.88099  0.40180  0.92617  1.0000
  H   H2750     1.0  0.79877  0.25438  0.93804  1.0000
  H   H2751     1.0  0.85111  0.39283  0.91328  1.0000
  H   H2752     1.0  0.84480  0.24529  0.87602  1.0000
  C   C1618     1.0  0.87038  0.37023  0.94323  1.0000
  H   H2753     1.0  0.84314  0.38368  0.54763  1.0000
  C   C1619     1.0  0.97629  0.47237  0.62388  1.0000
  H   H2754     1.0  0.97653  0.45993  0.83547  1.0000
  H   H2755     1.0  0.87931  0.36368  0.88943  1.0000
  Fe  Fe235     1.0  0.91243  0.47058  0.71955  1.0000
  C   C1620     1.0  0.85490  0.39744  0.55039  1.0000
  H   H2756     1.0  0.90698  0.38934  0.94576  1.0000
  H   H2757     1.0  0.88493  0.46401  0.88326  1.0000
  H   H2758     1.0  0.90079  0.47660  0.65716  1.0000
  H   H2759     1.0  0.89893  0.48173  0.60927  1.0000
  C   C1621     1.0  0.91596  0.39689  0.90636  1.0000
  H   H2760     1.0  0.85993  0.34182  0.95793  1.0000
  H   H2761     1.0  0.93026  0.39846  0.91330  1.0000
  H   H2762     1.0  0.88684  0.41556  0.60103  1.0000
  S   S469      1.0  0.93064  0.46851  0.49537  1.0000
  H   H2763     1.0  0.89750  0.46921  0.83824  1.0000
  H   H2764     1.0  0.88819  0.41162  0.91051  1.0000
  H   H2765     1.0  0.79688  0.25973  0.89014  1.0000
  C   C1622     1.0  0.87341  0.37413  0.89546  1.0000
  H   H2766     1.0  0.85799  0.36601  0.89642  1.0000
  H   H2767     1.0  0.84374  0.37378  0.59109  1.0000
  C   C1623     1.0  0.87406  0.35937  0.50183  1.0000
  H   H2768     1.0  0.87109  0.37930  0.85382  1.0000
  H   H2769     1.0  0.89059  0.39725  0.86970  1.0000
  H   H2770     1.0  0.89126  0.39466  0.63739  1.0000
  S   S470      1.0  0.89556  0.42866  0.50430  1.0000
  H   H2771     1.0  0.86192  0.41658  0.92500  1.0000
  H   H2772     1.0  0.85563  0.39807  0.94802  1.0000
  H   H2773     1.0  0.86752  0.34319  0.92483  1.0000
  H   H2774     1.0  0.96873  0.48515  0.65709  1.0000
  H   H2775     1.0  0.73277  0.24560  0.84506  1.0000
  C   C1624     1.0  0.79005  0.24577  0.89766  1.0000
  H   H2776     1.0  0.81160  0.25057  0.62841  1.0000
  C   C1625     1.0  0.96595  0.48413  0.63550  1.0000
  S   S471      1.0  0.92992  0.42923  0.96617  1.0000
  H   H2777     1.0  0.97382  0.48296  0.93300  1.0000
  H   H2778     1.0  0.96746  0.48914  0.78742  1.0000
  Fe  Fe236     1.0  0.90982  0.44375  0.96710  1.0000
  H   H2779     1.0  0.96712  0.45998  0.79174  1.0000
  H   H2780     1.0  0.97195  0.47169  0.74337  1.0000
  H   H2781     1.0  0.81520  0.24669  0.67636  1.0000
  H   H2782     1.0  0.84624  0.33973  0.49049  1.0000
  H   H2783     1.0  0.64919  0.48038  0.95049  1.0000
  H   H2784     1.0  0.84176  0.25385  0.83224  1.0000
  C   C1626     1.0  0.79945  0.24275  0.63967  1.0000
  C   C1627     1.0  0.97605  0.46078  0.75228  1.0000
  H   H2785     1.0  0.95018  0.47810  0.58465  1.0000
  H   H2786     1.0  0.73119  0.24295  0.81031  1.0000
  H   H2787     1.0  0.83763  0.24336  0.91907  1.0000
  C   C1628     1.0  0.98087  0.46439  0.78191  1.0000
  C   C1629     1.0  0.76804  0.71949  0.31768  1.0000
  H   H2788     1.0  0.95748  0.52344  0.41838  1.0000
  C   C1630     1.0  0.98017  0.50336  0.99183  1.0000
  H   H2789     1.0  0.83624  0.68295  0.24672  1.0000
  H   H2790     1.0  0.90288  0.56375  0.18704  1.0000
  C   C1631     1.0  0.65453  0.53337  0.01237  1.0000
  S   S472      1.0  0.82515  0.71674  0.32450  1.0000
  Fe  Fe237     1.0  0.83569  0.62458  0.28182  1.0000
  S   S473      1.0  0.80450  0.61440  0.27663  1.0000
  S   S474      1.0  0.85505  0.65490  0.28836  1.0000
  Fe  Fe238     1.0  0.83549  0.58475  0.27767  1.0000
  S   S475      1.0  0.80398  0.57213  0.27140  1.0000
  S   S476      1.0  0.85432  0.56903  0.28952  1.0000
  Fe  Fe239     1.0  0.80803  0.59623  0.24395  1.0000
  S   S477      1.0  0.79191  0.59875  0.20652  1.0000
  Fe  Fe240     1.0  0.80345  0.59159  0.30441  1.0000
  S   S478      1.0  0.78276  0.58105  0.33775  1.0000
  S   S479      1.0  0.83968  0.60763  0.24814  1.0000
  S   S480      1.0  0.83448  0.60312  0.31165  1.0000
  S   S481      1.0  0.88367  0.70002  0.05823  1.0000
  Fe  Fe241     1.0  0.78031  0.59316  0.99077  1.0000
  H   H2791     1.0  0.78131  0.73740  0.26816  1.0000
  S   S482      1.0  0.79932  0.59596  0.46118  1.0000
  Fe  Fe242     1.0  0.77650  0.58686  0.05085  1.0000
  S   S483      1.0  0.76069  0.60559  0.05488  1.0000
  S   S484      1.0  0.78466  0.57301  0.08587  1.0000
  Fe  Fe243     1.0  0.74435  0.59068  0.01840  1.0000
  S   S485      1.0  0.71231  0.58338  0.01773  1.0000
  Fe  Fe244     1.0  0.78198  0.62487  0.02802  1.0000
  S   S486      1.0  0.79573  0.65615  0.03720  1.0000
  S   S487      1.0  0.75944  0.57088  0.01542  1.0000
  S   S488      1.0  0.79874  0.60699  0.02617  1.0000
  C   C1632     1.0  0.85924  0.68837  0.05168  1.0000
  C   C1633     1.0  0.84648  0.69667  0.05722  1.0000
  C   C1634     1.0  0.82709  0.68664  0.05263  1.0000
  C   C1635     1.0  0.82025  0.66825  0.04244  1.0000
  C   C1636     1.0  0.83305  0.66009  0.03648  1.0000
  C   C1637     1.0  0.85243  0.67008  0.04118  1.0000
  H   H2792     1.0  0.85149  0.71069  0.06544  1.0000
  H   H2793     1.0  0.81730  0.69310  0.05721  1.0000
  H   H2794     1.0  0.82806  0.64608  0.02822  1.0000
  H   H2795     1.0  0.86221  0.66359  0.03670  1.0000
  C   C1638     1.0  0.78623  0.57997  0.11945  1.0000
  C   C1639     1.0  0.77773  0.59182  0.12854  1.0000
  C   C1640     1.0  0.77944  0.59715  0.15529  1.0000
  C   C1641     1.0  0.78983  0.59091  0.17328  1.0000
  C   C1642     1.0  0.79830  0.57902  0.16422  1.0000
  C   C1643     1.0  0.79636  0.57347  0.13749  1.0000
  H   H2796     1.0  0.76992  0.59697  0.11495  1.0000
  H   H2797     1.0  0.77281  0.60633  0.16211  1.0000
  H   H2798     1.0  0.80626  0.57403  0.17781  1.0000
  H   H2799     1.0  0.80291  0.56421  0.13072  1.0000
  C   C1644     1.0  0.78724  0.58697  0.37181  1.0000
  C   C1645     1.0  0.80510  0.59826  0.38179  1.0000
  C   C1646     1.0  0.80838  0.60128  0.40912  1.0000
  C   C1647     1.0  0.79380  0.59349  0.42685  1.0000
  C   C1648     1.0  0.77579  0.58270  0.41683  1.0000
  C   C1649     1.0  0.77260  0.57935  0.38950  1.0000
  H   H2800     1.0  0.81647  0.60445  0.36850  1.0000
  H   H2801     1.0  0.82237  0.60961  0.41661  1.0000
  H   H2802     1.0  0.76446  0.57648  0.43017  1.0000
  H   H2803     1.0  0.75872  0.57064  0.38205  1.0000
  C   C1650     1.0  0.83297  0.69857  0.31743  1.0000
  C   C1651     1.0  0.85179  0.70113  0.32162  1.0000
  C   C1652     1.0  0.85823  0.68735  0.31340  1.0000
  C   C1653     1.0  0.84586  0.67070  0.30139  1.0000
  C   C1654     1.0  0.82685  0.66774  0.29824  1.0000
  C   C1655     1.0  0.82044  0.68167  0.30619  1.0000
  H   H2804     1.0  0.86148  0.71380  0.33088  1.0000
  H   H2805     1.0  0.87292  0.68968  0.31612  1.0000
  H   H2806     1.0  0.81718  0.65498  0.28899  1.0000
  H   H2807     1.0  0.80582  0.67948  0.30310  1.0000
  C   C1656     1.0  0.86957  0.52297  0.25053  1.0000
  C   C1657     1.0  0.87606  0.52952  0.27598  1.0000
  C   C1658     1.0  0.87099  0.54341  0.28771  1.0000
  C   C1659     1.0  0.85937  0.55089  0.27420  1.0000
  C   C1660     1.0  0.85261  0.54409  0.24896  1.0000
  C   C1661     1.0  0.85762  0.53016  0.23728  1.0000
  H   H2808     1.0  0.88516  0.52405  0.28648  1.0000
  H   H2809     1.0  0.87626  0.54855  0.30728  1.0000
  H   H2810     1.0  0.84359  0.54962  0.23839  1.0000
  H   H2811     1.0  0.85240  0.52508  0.21766  1.0000
  C   C1662     1.0  0.95425  0.50979  0.42815  1.0000
  H   H2812     1.0  0.89114  0.72916  0.26813  1.0000
  C   C1663     1.0  0.67351  0.56683  0.01594  1.0000
  C   C1664     1.0  0.69034  0.56373  0.01475  1.0000
  C   C1665     1.0  0.68910  0.54527  0.01216  1.0000
  C   C1666     1.0  0.65577  0.55183  0.01462  1.0000
  H   H2813     1.0  0.67420  0.58100  0.01794  1.0000
  H   H2814     1.0  0.64940  0.51870  0.46823  1.0000
  N   N116      1.0  0.96172  0.49748  0.41277  1.0000
  C   C1667     1.0  0.81973  0.66365  0.48172  1.0000
  H   H2815     1.0  0.93115  0.58754  0.19865  1.0000
  H   H2816     1.0  0.81569  0.65087  0.46910  1.0000
  H   H2817     1.0  0.83948  0.53610  0.35520  1.0000
  C   C1668     1.0  0.67136  0.53024  0.01119  1.0000
  H   H2818     1.0  0.87210  0.69511  0.26311  1.0000
  H   H2819     1.0  0.97335  0.52182  0.16679  1.0000
  H   H2820     1.0  0.82101  0.57488  0.36038  1.0000
  H   H2821     1.0  0.94504  0.54349  0.26238  1.0000
  H   H2822     1.0  0.81718  0.63498  0.14912  1.0000
  H   H2823     1.0  0.86517  0.66320  0.13385  1.0000
  H   H2824     1.0  0.85441  0.58841  0.35175  1.0000
  H   H2825     1.0  0.93050  0.53974  0.21967  1.0000
  H   H2826     1.0  0.67128  0.49863  0.42152  1.0000
  C   C1669     1.0  0.90695  0.53797  0.18215  1.0000
  C   C1670     1.0  0.92565  0.54767  0.23390  1.0000
  H   H2827     1.0  0.90134  0.55916  0.25333  1.0000
  C   C1671     1.0  0.84301  0.63167  0.15568  1.0000
  H   H2828     1.0  0.67639  0.53107  0.07295  1.0000
  C   C1672     1.0  0.82446  0.53264  0.34979  1.0000
  H   H2829     1.0  0.75920  0.73954  0.29904  1.0000
  H   H2830     1.0  0.79628  0.55072  0.31844  1.0000
  C   C1673     1.0  0.79647  0.54023  0.35839  1.0000
  C   C1674     1.0  0.65072  0.51084  0.41041  1.0000
  C   C1675     1.0  0.90468  0.55304  0.20008  1.0000
  H   H2831     1.0  0.94335  0.57205  0.16993  1.0000
  H   H2832     1.0  0.85623  0.67472  0.19947  1.0000
  H   H2833     1.0  0.83481  0.66529  0.09510  1.0000
  H   H2834     1.0  0.94552  0.58709  0.22535  1.0000
  H   H2835     1.0  0.75910  0.74061  0.33382  1.0000
  N   N117      1.0  0.82960  0.63788  0.11092  1.0000
  C   C1676     1.0  0.81096  0.63228  0.09618  1.0000
  C   C1677     1.0  0.84188  0.63087  0.09499  1.0000
  C   C1678     1.0  0.82589  0.62923  0.13765  1.0000
  C   C1679     1.0  0.79712  0.64058  0.10669  1.0000
  C   C1680     1.0  0.83460  0.60950  0.09053  1.0000
  H   H2836     1.0  0.81309  0.63620  0.07521  1.0000
  H   H2837     1.0  0.80332  0.61686  0.09583  1.0000
  H   H2838     1.0  0.85620  0.63509  0.10378  1.0000
  H   H2839     1.0  0.84401  0.63738  0.07528  1.0000
  H   H2840     1.0  0.81705  0.61409  0.13624  1.0000
  H   H2841     1.0  0.79283  0.63612  0.12692  1.0000
  H   H2842     1.0  0.80272  0.65605  0.10557  1.0000
  H   H2843     1.0  0.78414  0.63539  0.09411  1.0000
  H   H2844     1.0  0.84538  0.60603  0.08016  1.0000
  H   H2845     1.0  0.83201  0.60176  0.10919  1.0000
  H   H2846     1.0  0.82176  0.60426  0.07772  1.0000
  N   N118      1.0  0.71250  0.55464  0.09654  1.0000
  C   C1681     1.0  0.72477  0.55493  0.07381  1.0000
  C   C1682     1.0  0.70105  0.56606  0.08945  1.0000
  C   C1683     1.0  0.69927  0.53502  0.10228  1.0000
  C   C1684     1.0  0.72500  0.56257  0.12045  1.0000
  S   S489      1.0  0.91809  0.49671  0.21055  1.0000
  C   C1685     1.0  0.71185  0.58741  0.08935  1.0000
  C   C1686     1.0  0.68619  0.52435  0.07910  1.0000
  C   C1687     1.0  0.71501  0.56403  0.14578  1.0000
  H   H2847     1.0  0.71663  0.55200  0.05488  1.0000
  H   H2848     1.0  0.73576  0.56913  0.07162  1.0000
  H   H2849     1.0  0.68894  0.56310  0.10253  1.0000
  H   H2850     1.0  0.69445  0.56208  0.06951  1.0000
  H   H2851     1.0  0.70709  0.52645  0.10955  1.0000
  H   H2852     1.0  0.68995  0.53508  0.11859  1.0000
  H   H2853     1.0  0.73312  0.55384  0.12563  1.0000
  H   H2854     1.0  0.73617  0.57646  0.11657  1.0000
  H   H2855     1.0  0.89610  0.53430  0.16607  1.0000
  H   H2856     1.0  0.74492  0.54435  0.09267  1.0000
  H   H2857     1.0  0.74396  0.54329  0.05790  1.0000
  H   H2858     1.0  0.70232  0.59408  0.08176  1.0000
  H   H2859     1.0  0.71674  0.59325  0.10934  1.0000
  H   H2860     1.0  0.72384  0.59146  0.07611  1.0000
  Fe  Fe245     1.0  0.89755  0.73085  0.06983  1.0000
  C   C1688     1.0  0.73516  0.54140  0.07539  1.0000
  H   H2861     1.0  0.82050  0.50356  0.34382  1.0000
  H   H2862     1.0  0.96628  0.49801  0.99982  1.0000
  H   H2863     1.0  0.70203  0.56661  0.14213  1.0000
  H   H2864     1.0  0.92464  0.49685  0.41356  1.0000
  H   H2865     1.0  0.89656  0.58849  0.24965  1.0000
  H   H2866     1.0  0.79907  0.50637  0.34998  1.0000
  H   H2867     1.0  0.82598  0.56512  0.33160  1.0000
  H   H2868     1.0  0.85503  0.63078  0.14525  1.0000
  C   C1689     1.0  0.78991  0.53758  0.32930  1.0000
  H   H2869     1.0  0.83181  0.66400  0.12950  1.0000
  H   H2870     1.0  0.85642  0.56634  0.35025  1.0000
  H   H2871     1.0  0.78111  0.71861  0.32569  1.0000
  C   C1690     1.0  0.84874  0.57408  0.35979  1.0000
  H   H2872     1.0  0.82424  0.53438  0.32810  1.0000
  H   H2873     1.0  0.76491  0.71283  0.29783  1.0000
  H   H2874     1.0  0.80176  0.55832  0.40742  1.0000
  C   C1691     1.0  0.84521  0.71465  0.45951  1.0000
  S   S490      1.0  0.92198  0.50336  0.27476  1.0000
  S   S491      1.0  0.96895  0.52585  0.23366  1.0000
  H   H2875     1.0  0.67481  0.52011  0.43904  1.0000
  H   H2876     1.0  0.85263  0.71154  0.27186  1.0000
  H   H2877     1.0  0.96120  0.51320  0.44800  1.0000
  H   H2878     1.0  0.79273  0.52623  0.31928  1.0000
  H   H2879     1.0  0.80433  0.74059  0.30865  1.0000
  N   N119      1.0  0.83888  0.69946  0.47965  1.0000
  H   H2880     1.0  0.96971  0.49765  0.11550  1.0000
  H   H2881     1.0  0.83285  0.71538  0.44849  1.0000
  H   H2882     1.0  0.71150  0.55111  0.15743  1.0000
  C   C1692     1.0  0.95899  0.51127  0.16277  1.0000
  H   H2883     1.0  0.65234  0.52427  0.40114  1.0000
  H   H2884     1.0  0.72542  0.52654  0.07513  1.0000
  H   H2885     1.0  0.89903  0.72992  0.23468  1.0000
  H   H2886     1.0  0.85202  0.71890  0.19879  1.0000
  H   H2887     1.0  0.82495  0.72766  0.99091  1.0000
  H   H2888     1.0  0.85129  0.70170  0.42411  1.0000
  H   H2889     1.0  0.82597  0.57415  0.40539  1.0000
  H   H2890     1.0  0.87052  0.70974  0.44813  1.0000
  C   C1693     1.0  0.89381  0.72096  0.25190  1.0000
  H   H2891     1.0  0.95437  0.56578  0.24759  1.0000
  H   H2892     1.0  0.95191  0.50795  0.37869  1.0000
  H   H2893     1.0  0.96316  0.58343  0.19195  1.0000
  H   H2894     1.0  0.85216  0.72868  0.46865  1.0000
  H   H2895     1.0  0.82314  0.70651  0.24447  1.0000
  H   H2896     1.0  0.85205  0.57556  0.38113  1.0000
  Fe  Fe246     1.0  0.89862  0.49438  0.24384  1.0000
  H   H2897     1.0  0.86480  0.73228  0.25463  1.0000
  C   C1694     1.0  0.82067  0.54507  0.39274  1.0000
  H   H2898     1.0  0.83234  0.72800  0.26216  1.0000
  H   H2899     1.0  0.94963  0.51512  0.17571  1.0000
  H   H2900     1.0  0.84753  0.64499  0.16712  1.0000
  C   C1695     1.0  0.84360  0.68801  0.22801  1.0000
  H   H2901     1.0  0.92075  0.54246  0.17296  1.0000
  C   C1696     1.0  0.81654  0.55961  0.40966  1.0000
  N   N120      1.0  0.91984  0.56214  0.22087  1.0000
  H   H2902     1.0  0.83541  0.54670  0.39722  1.0000
  H   H2903     1.0  0.86685  0.66711  0.09885  1.0000
  C   C1697     1.0  0.82923  0.68110  0.46487  1.0000
  H   H2904     1.0  0.90530  0.71673  0.25906  1.0000
  C   C1698     1.0  0.90135  0.58297  0.23225  1.0000
  H   H2905     1.0  0.90430  0.52491  0.19303  1.0000
  C   C1699     1.0  0.91161  0.57041  0.24182  1.0000
  H   H2906     1.0  0.68098  0.52050  0.40527  1.0000
  H   H2907     1.0  0.70180  0.54254  0.01097  1.0000
  H   H2908     1.0  0.93673  0.56087  0.27261  1.0000
  C   C1700     1.0  0.94865  0.57263  0.19050  1.0000
  H   H2909     1.0  0.79171  0.55102  0.36643  1.0000
  H   H2910     1.0  0.91332  0.53679  0.24301  1.0000
  C   C1701     1.0  0.83811  0.65899  0.11316  1.0000
  H   H2911     1.0  0.88848  0.57500  0.22033  1.0000
  H   H2912     1.0  0.83292  0.68964  0.21423  1.0000
  S   S492      1.0  0.76434  0.61216  0.99168  1.0000
  H   H2913     1.0  0.81682  0.68913  0.99727  1.0000
  H   H2914     1.0  0.81181  0.53116  0.40047  1.0000
  C   C1702     1.0  0.85964  0.66848  0.11689  1.0000
  H   H2915     1.0  0.95440  0.51232  0.14228  1.0000
  H   H2916     1.0  0.89086  0.54591  0.20932  1.0000
  C   C1703     1.0  0.81420  0.51169  0.35561  1.0000
  C   C1704     1.0  0.94134  0.55521  0.25528  1.0000
  N   N121      1.0  0.85988  0.70651  0.23262  1.0000
  C   C1705     1.0  0.95339  0.49486  0.38520  1.0000
  C   C1706     1.0  0.87638  0.70327  0.24482  1.0000
  H   H2917     1.0  0.85560  0.66653  0.23273  1.0000
  C   C1707     1.0  0.86473  0.71756  0.20774  1.0000
  H   H2918     1.0  0.83607  0.71717  0.01298  1.0000
  H   H2919     1.0  0.69407  0.52288  0.06191  1.0000
  H   H2920     1.0  0.83470  0.65948  0.21296  1.0000
  C   C1708     1.0  0.87323  0.70998  0.18555  1.0000
  H   H2921     1.0  0.88208  0.72191  0.17355  1.0000
  H   H2922     1.0  0.83936  0.67779  0.45266  1.0000
  H   H2923     1.0  0.88127  0.69447  0.23219  1.0000
  H   H2924     1.0  0.80715  0.74031  0.35131  1.0000
  H   H2925     1.0  0.81824  0.68194  0.45088  1.0000
  C   C1709     1.0  0.93286  0.50185  0.43216  1.0000
  C   C1710     1.0  0.83882  0.72721  0.99658  1.0000
  C   C1711     1.0  0.85880  0.71271  0.43904  1.0000
  Fe  Fe247     1.0  0.94072  0.50299  0.24170  1.0000
  H   H2926     1.0  0.81594  0.50865  0.37650  1.0000
  H   H2927     1.0  0.67742  0.51000  0.08537  1.0000
  H   H2928     1.0  0.95029  0.55940  0.19509  1.0000
  H   H2929     1.0  0.83664  0.68299  0.98934  1.0000
  C   C1712     1.0  0.83528  0.72009  0.24579  1.0000
  H   H2930     1.0  0.83901  0.61992  0.16970  1.0000
  H   H2931     1.0  0.77449  0.53384  0.32814  1.0000
  S   S493      1.0  0.87661  0.50664  0.23377  1.0000
  H   H2932     1.0  0.86202  0.70008  0.17254  1.0000
  H   H2933     1.0  0.88285  0.70338  0.19251  1.0000
  H   H2934     1.0  0.86141  0.70959  0.00205  1.0000
  C   C1713     1.0  0.93618  0.57790  0.20960  1.0000
  N   N122      1.0  0.81725  0.54575  0.36358  1.0000
  C   C1714     1.0  0.82743  0.56513  0.35335  1.0000
  H   H2935     1.0  0.86356  0.68373  0.12022  1.0000
  H   H2936     1.0  0.91060  0.59517  0.22125  1.0000
  C   C1715     1.0  0.85398  0.71783  0.25216  1.0000
  H   H2937     1.0  0.92261  0.57898  0.25632  1.0000
  H   H2938     1.0  0.92878  0.51301  0.44042  1.0000
  C   C1716     1.0  0.84810  0.67149  0.21755  1.0000
  H   H2939     1.0  0.78818  0.52718  0.36875  1.0000
  H   H2940     1.0  0.72444  0.57614  0.15787  1.0000
  H   H2941     1.0  0.87419  0.73234  0.21181  1.0000
  H   H2942     1.0  0.78423  0.73427  0.36563  1.0000
  H   H2943     1.0  0.83601  0.72821  0.22774  1.0000
  H   H2944     1.0  0.75657  0.71044  0.33014  1.0000
  H   H2945     1.0  0.66475  0.54471  0.43936  1.0000
  H   H2946     1.0  0.97308  0.50250  0.35273  1.0000
  H   H2947     1.0  0.67069  0.51607  0.00952  1.0000
  C   C1717     1.0  0.76758  0.73934  0.31707  1.0000
  C   C1718     1.0  0.67052  0.51262  0.41988  1.0000
  H   H2948     1.0  0.81894  0.55736  0.43072  1.0000
  H   H2949     1.0  0.86503  0.72606  0.42835  1.0000
  H   H2950     1.0  0.87539  0.73133  0.99001  1.0000
  C   C1719     1.0  0.64981  0.54113  0.44395  1.0000
  C   C1720     1.0  0.86421  0.71780  0.98366  1.0000
  H   H2951     1.0  0.64976  0.55038  0.46069  1.0000
  C   C1721     1.0  0.94541  0.49642  0.93077  1.0000
  H   H2952     1.0  0.81909  0.69111  0.51117  1.0000
  N   N123      1.0  0.95681  0.50735  0.90836  1.0000
  H   H2953     1.0  0.79289  0.64810  0.93202  1.0000
  H   H2954     1.0  0.87446  0.73417  0.70141  1.0000
  S   S494      1.0  0.76653  0.61630  0.49858  1.0000
  S   S495      1.0  0.82185  0.71640  0.82578  1.0000
  Fe  Fe248     1.0  0.83341  0.62343  0.78905  1.0000
  S   S496      1.0  0.80225  0.61119  0.78276  1.0000
  S   S497      1.0  0.85138  0.65176  0.80607  1.0000
  Fe  Fe249     1.0  0.83770  0.58739  0.77112  1.0000
  S   S498      1.0  0.80659  0.57228  0.76331  1.0000
  S   S499      1.0  0.86249  0.57907  0.76438  1.0000
  Fe  Fe250     1.0  0.80786  0.59918  0.74485  1.0000
  S   S500      1.0  0.79549  0.60601  0.70701  1.0000
  Fe  Fe251     1.0  0.80377  0.58569  0.80193  1.0000
  S   S501      1.0  0.78324  0.57087  0.83368  1.0000
  S   S502      1.0  0.83917  0.61335  0.75028  1.0000
  S   S503      1.0  0.83469  0.59886  0.81061  1.0000
  S   S504      1.0  0.88440  0.70241  0.57583  1.0000
  H   H2955     1.0  0.95685  0.52139  0.66720  1.0000
  N   N124      1.0  0.84703  0.72082  0.97360  1.0000
  H   H2956     1.0  0.80421  0.54088  0.79809  1.0000
  Fe  Fe252     1.0  0.77556  0.58758  0.55565  1.0000
  S   S505      1.0  0.76037  0.60688  0.56059  1.0000
  S   S506      1.0  0.77954  0.57107  0.59077  1.0000
  Fe  Fe253     1.0  0.74500  0.59405  0.52257  1.0000
  S   S507      1.0  0.71321  0.58796  0.51800  1.0000
  Fe  Fe254     1.0  0.78322  0.62683  0.53634  1.0000
  S   S508      1.0  0.79738  0.65784  0.54714  1.0000
  S   S509      1.0  0.75930  0.57363  0.51850  1.0000
  S   S510      1.0  0.79920  0.60820  0.53348  1.0000
  C   C1722     1.0  0.86002  0.68973  0.56927  1.0000
  C   C1723     1.0  0.84710  0.69833  0.57090  1.0000
  C   C1724     1.0  0.82797  0.68820  0.56472  1.0000
  C   C1725     1.0  0.82143  0.66934  0.55669  1.0000
  C   C1726     1.0  0.83427  0.66059  0.55539  1.0000
  C   C1727     1.0  0.85347  0.67073  0.56174  1.0000
  H   H2957     1.0  0.85178  0.71279  0.57702  1.0000
  H   H2958     1.0  0.81817  0.69509  0.56597  1.0000
  H   H2959     1.0  0.82947  0.64608  0.54922  1.0000
  H   H2960     1.0  0.86328  0.66388  0.56047  1.0000
  C   C1728     1.0  0.78395  0.58087  0.62302  1.0000
  C   C1729     1.0  0.78750  0.59974  0.62775  1.0000
  C   C1730     1.0  0.79100  0.60713  0.65356  1.0000
  C   C1731     1.0  0.79113  0.59581  0.67497  1.0000
  C   C1732     1.0  0.78727  0.57684  0.67033  1.0000
  C   C1733     1.0  0.78378  0.56944  0.64446  1.0000
  H   H2961     1.0  0.78764  0.60871  0.61149  1.0000
  H   H2962     1.0  0.79374  0.62177  0.65693  1.0000
  H   H2963     1.0  0.78672  0.56785  0.68669  1.0000
  H   H2964     1.0  0.78081  0.55476  0.64102  1.0000
  C   C1734     1.0  0.78741  0.57711  0.86755  1.0000
  C   C1735     1.0  0.80562  0.58455  0.87851  1.0000
  C   C1736     1.0  0.80852  0.58866  0.90563  1.0000
  C   C1737     1.0  0.79331  0.58575  0.92212  1.0000
  C   C1738     1.0  0.77508  0.57844  0.91116  1.0000
  C   C1739     1.0  0.77216  0.57391  0.88407  1.0000
  H   H2965     1.0  0.81748  0.58693  0.86615  1.0000
  H   H2966     1.0  0.82267  0.59420  0.91392  1.0000
  H   H2967     1.0  0.76323  0.57602  0.92358  1.0000
  H   H2968     1.0  0.75800  0.56801  0.87584  1.0000
  C   C1740     1.0  0.82914  0.69759  0.82205  1.0000
  C   C1741     1.0  0.84660  0.69892  0.83212  1.0000
  C   C1742     1.0  0.85310  0.68466  0.82718  1.0000
  C   C1743     1.0  0.84198  0.66867  0.81271  1.0000
  C   C1744     1.0  0.82405  0.66676  0.80366  1.0000
  C   C1745     1.0  0.81762  0.68123  0.80838  1.0000
  H   H2969     1.0  0.85512  0.71090  0.84394  1.0000
  H   H2970     1.0  0.86688  0.68610  0.83454  1.0000
  H   H2971     1.0  0.81534  0.65441  0.79254  1.0000
  H   H2972     1.0  0.80396  0.68000  0.80078  1.0000
  C   C1746     1.0  0.86766  0.52200  0.75677  1.0000
  C   C1747     1.0  0.88360  0.53853  0.75933  1.0000
  C   C1748     1.0  0.88167  0.55584  0.76174  1.0000
  C   C1749     1.0  0.86385  0.55681  0.76171  1.0000
  C   C1750     1.0  0.84787  0.54031  0.75888  1.0000
  C   C1751     1.0  0.84979  0.52297  0.75646  1.0000
  H   H2973     1.0  0.89740  0.53798  0.75954  1.0000
  H   H2974     1.0  0.89412  0.56856  0.76368  1.0000
  H   H2975     1.0  0.83408  0.54089  0.75834  1.0000
  H   H2976     1.0  0.83741  0.51022  0.75431  1.0000
  C   C1752     1.0  0.70996  0.58075  0.58621  1.0000
  H   H2977     1.0  0.70339  0.57008  0.57063  1.0000
  C   C1753     1.0  0.67439  0.57122  0.51568  1.0000
  C   C1754     1.0  0.69127  0.56821  0.51799  1.0000
  C   C1755     1.0  0.69011  0.54982  0.52085  1.0000
  C   C1756     1.0  0.67240  0.53482  0.52165  1.0000
  C   C1757     1.0  0.95507  0.73342  0.54952  1.0000
  H   H2978     1.0  0.70285  0.54713  0.52236  1.0000
  H   H2979     1.0  0.81041  0.54080  0.89203  1.0000
  H   H2980     1.0  0.95972  0.72113  0.61096  1.0000
  H   H2981     1.0  0.79395  0.51570  0.80170  1.0000
  H   H2982     1.0  0.74834  0.57869  0.64554  1.0000
  H   H2983     1.0  0.81963  0.50621  0.83216  1.0000
  C   C1758     1.0  0.64867  0.49454  0.95115  1.0000
  C   C1759     1.0  0.94876  0.72674  0.60662  1.0000
  H   H2984     1.0  0.85188  0.66280  0.87624  1.0000
  C   C1760     1.0  0.81555  0.66287  0.88057  1.0000
  H   H2985     1.0  0.67101  0.52278  0.95120  1.0000
  C   C1761     1.0  0.93111  0.50381  0.94209  1.0000
  H   H2986     1.0  0.74630  0.59801  0.66220  1.0000
  H   H2987     1.0  0.77251  0.62089  0.84461  1.0000
  H   H2988     1.0  0.88145  0.73267  0.74286  1.0000
  C   C1762     1.0  0.95317  0.50827  0.62752  1.0000
  H   H2989     1.0  0.84020  0.72135  0.91578  1.0000
  H   H2990     1.0  0.93320  0.51052  0.65546  1.0000
  H   H2991     1.0  0.85879  0.73352  0.77298  1.0000
  N   N125      1.0  0.81199  0.64274  0.88635  1.0000
  C   C1763     1.0  0.78747  0.63019  0.84819  1.0000
  C   C1764     1.0  0.79258  0.62956  0.87751  1.0000
  C   C1765     1.0  0.92740  0.70455  0.53925  1.0000
  H   H2992     1.0  0.80601  0.67666  0.91167  1.0000
  H   H2993     1.0  0.79573  0.62471  0.83550  1.0000
  H   H2994     1.0  0.78176  0.52989  0.81228  1.0000
  H   H2995     1.0  0.67502  0.58534  0.51348  1.0000
  C   C1766     1.0  0.84675  0.64753  0.87936  1.0000
  H   H2996     1.0  0.78907  0.64442  0.84205  1.0000
  C   C1767     1.0  0.83199  0.70319  0.96246  1.0000
  H   H2997     1.0  0.94853  0.69092  0.57634  1.0000
  H   H2998     1.0  0.80652  0.66350  0.49009  1.0000
  H   H2999     1.0  0.68448  0.54530  0.58810  1.0000
  H   H3000     1.0  0.82456  0.52001  0.87582  1.0000
  C   C1768     1.0  0.94327  0.50884  0.88728  1.0000
  H   H3001     1.0  0.84644  0.53842  0.87145  1.0000
  H   H3002     1.0  0.81662  0.66553  0.85916  1.0000
  H   H3003     1.0  0.82746  0.65239  0.92331  1.0000
  H   H3004     1.0  0.73867  0.60070  0.61662  1.0000
  C   C1769     1.0  0.83111  0.53462  0.86868  1.0000
  H   H3005     1.0  0.67152  0.50807  0.92348  1.0000
  H   H3006     1.0  0.73708  0.54750  0.57054  1.0000
  H   H3007     1.0  0.90390  0.67864  0.52926  1.0000
  H   H3008     1.0  0.85514  0.52105  0.84475  1.0000
  H   H3009     1.0  0.73331  0.55538  0.61476  1.0000
  H   H3010     1.0  0.69293  0.53036  0.60712  1.0000
  H   H3011     1.0  0.86126  0.72076  0.67425  1.0000
  N   N126      1.0  0.84521  0.58509  0.67393  1.0000
  C   C1770     1.0  0.83208  0.57670  0.69602  1.0000
  C   C1771     1.0  0.85764  0.60490  0.68187  1.0000
  C   C1772     1.0  0.85736  0.57422  0.66869  1.0000
  C   C1773     1.0  0.83374  0.58458  0.64937  1.0000
  C   C1774     1.0  0.81976  0.55564  0.69329  1.0000
  C   C1775     1.0  0.84831  0.61933  0.68045  1.0000
  C   C1776     1.0  0.86867  0.57159  0.69262  1.0000
  C   C1777     1.0  0.84495  0.59297  0.62467  1.0000
  H   H3012     1.0  0.83995  0.57876  0.71514  1.0000
  H   H3013     1.0  0.82234  0.58405  0.69854  1.0000
  H   H3014     1.0  0.87046  0.61030  0.66995  1.0000
  H   H3015     1.0  0.86313  0.60548  0.70243  1.0000
  H   H3016     1.0  0.84886  0.56013  0.66018  1.0000
  H   H3017     1.0  0.86776  0.58120  0.65348  1.0000
  H   H3018     1.0  0.82462  0.56996  0.64371  1.0000
  H   H3019     1.0  0.82358  0.59136  0.65255  1.0000
  H   H3020     1.0  0.80999  0.55240  0.67601  1.0000
  H   H3021     1.0  0.82818  0.54684  0.69266  1.0000
  H   H3022     1.0  0.81092  0.55134  0.71082  1.0000
  H   H3023     1.0  0.85786  0.63268  0.68986  1.0000
  H   H3024     1.0  0.84571  0.62245  0.65985  1.0000
  H   H3025     1.0  0.83493  0.61469  0.69094  1.0000
  H   H3026     1.0  0.87775  0.56425  0.68623  1.0000
  H   H3027     1.0  0.85941  0.56276  0.70766  1.0000
  H   H3028     1.0  0.87800  0.58510  0.70176  1.0000
  H   H3029     1.0  0.84739  0.58197  0.61302  1.0000
  H   H3030     1.0  0.85865  0.60443  0.62913  1.0000
  H   H3031     1.0  0.83685  0.59919  0.61225  1.0000
  N   N127      1.0  0.86179  0.70382  0.73808  1.0000
  C   C1778     1.0  0.86163  0.68488  0.74545  1.0000
  C   C1779     1.0  0.88068  0.71830  0.74645  1.0000
  C   C1780     1.0  0.85957  0.70383  0.70857  1.0000
  C   C1781     1.0  0.84570  0.70663  0.75129  1.0000
  C   C1782     1.0  0.84397  0.66782  0.73662  1.0000
  C   C1783     1.0  0.85397  0.73044  0.92476  1.0000
  C   C1784     1.0  0.86121  0.72238  0.69593  1.0000
  C   C1785     1.0  0.84789  0.72691  0.75747  1.0000
  H   H3032     1.0  0.87407  0.68281  0.73754  1.0000
  H   H3033     1.0  0.86279  0.68378  0.76711  1.0000
  Fe  Fe255     1.0  0.93837  0.50811  0.74268  1.0000
  H   H3034     1.0  0.89197  0.71692  0.73439  1.0000
  H   H3035     1.0  0.87019  0.69945  0.69921  1.0000
  H   H3036     1.0  0.84561  0.69348  0.70180  1.0000
  H   H3037     1.0  0.83240  0.69995  0.73952  1.0000
  H   H3038     1.0  0.84296  0.69951  0.77048  1.0000
  H   H3039     1.0  0.84353  0.66517  0.71515  1.0000
  H   H3040     1.0  0.84438  0.65515  0.74623  1.0000
  H   H3041     1.0  0.83081  0.66918  0.74256  1.0000
  H   H3042     1.0  0.85698  0.57094  0.85872  1.0000
  H   H3043     1.0  0.93811  0.51782  0.95148  1.0000
  H   H3044     1.0  0.92335  0.67484  0.54400  1.0000
  S   S511      1.0  0.91362  0.49979  0.71439  1.0000
  H   H3045     1.0  0.94498  0.49609  0.66680  1.0000
  C   C1786     1.0  0.96791  0.49659  0.89791  1.0000
  H   H3046     1.0  0.93889  0.51295  0.84578  1.0000
  H   H3047     1.0  0.95542  0.52200  0.61845  1.0000
  C   C1787     1.0  0.94950  0.51033  0.85851  1.0000
  H   H3048     1.0  0.70781  0.55260  0.63964  1.0000
  C   C1788     1.0  0.73113  0.56484  0.59982  1.0000
  H   H3049     1.0  0.72813  0.57545  0.66527  1.0000
  H   H3050     1.0  0.69368  0.56542  0.63508  1.0000
  C   C1789     1.0  0.68781  0.54193  0.60815  1.0000
  H   H3051     1.0  0.70120  0.60185  0.60497  1.0000
  H   H3052     1.0  0.97538  0.72964  0.52262  1.0000
  H   H3053     1.0  0.69035  0.59319  0.57382  1.0000
  H   H3054     1.0  0.67409  0.53676  0.61799  1.0000
  H   H3055     1.0  0.68266  0.57863  0.60159  1.0000
  H   H3056     1.0  0.92501  0.72299  0.58115  1.0000
  H   H3057     1.0  0.81526  0.67398  0.97025  1.0000
  C   C1790     1.0  0.69523  0.58901  0.59255  1.0000
  C   C1791     1.0  0.73811  0.58478  0.65131  1.0000
  S   S512      1.0  0.92156  0.50584  0.77898  1.0000
  H   H3058     1.0  0.82254  0.62219  0.87240  1.0000
  H   H3059     1.0  0.83642  0.55319  0.80676  1.0000
  H   H3060     1.0  0.85823  0.53250  0.81304  1.0000
  C   C1792     1.0  0.70182  0.55878  0.62397  1.0000
  H   H3061     1.0  0.72172  0.59183  0.57644  1.0000
  H   H3062     1.0  0.72805  0.56351  0.55680  1.0000
  C   C1793     1.0  0.87376  0.70891  0.96460  1.0000
  H   H3063     1.0  0.82890  0.56137  0.88015  1.0000
  H   H3064     1.0  0.82845  0.56380  0.83191  1.0000
  C   C1794     1.0  0.72662  0.55395  0.57345  1.0000
  C   C1795     1.0  0.83606  0.55440  0.82848  1.0000
  S   S513      1.0  0.86933  0.49984  0.75460  1.0000
  C   C1796     1.0  0.85645  0.56550  0.83843  1.0000
  N   N128      1.0  0.97014  0.50330  0.62431  1.0000
  H   H3065     1.0  0.89193  0.70655  0.77874  1.0000
  N   N129      1.0  0.71733  0.57301  0.60905  1.0000
  C   C1797     1.0  0.94699  0.50907  0.65599  1.0000
  H   H3066     1.0  0.71257  0.54257  0.57250  1.0000
  H   H3067     1.0  0.71833  0.59546  0.63572  1.0000
  H   H3068     1.0  0.85523  0.64223  0.86668  1.0000
  H   H3069     1.0  0.80174  0.54270  0.84868  1.0000
  H   H3070     1.0  0.82478  0.52037  0.80382  1.0000
  C   C1798     1.0  0.66860  0.50831  0.94462  1.0000
  H   H3071     1.0  0.86281  0.57789  0.82584  1.0000
  N   N130      1.0  0.82568  0.53547  0.84024  1.0000
  C   C1799     1.0  0.80487  0.53137  0.83880  1.0000
  H   H3072     1.0  0.83341  0.54852  0.90679  1.0000
  H   H3073     1.0  0.96090  0.53461  0.92486  1.0000
  H   H3074     1.0  0.81900  0.62780  0.91814  1.0000
  H   H3075     1.0  0.74521  0.57612  0.59745  1.0000
  C   C1800     1.0  0.82584  0.63744  0.87112  1.0000
  C   C1801     1.0  0.82881  0.52021  0.82489  1.0000
  C   C1802     1.0  0.82561  0.54714  0.88777  1.0000
  C   C1803     1.0  0.84898  0.52077  0.82484  1.0000
  H   H3076     1.0  0.79684  0.51832  0.84946  1.0000
  Fe  Fe256     1.0  0.78159  0.59656  0.49651  1.0000
  C   C1804     1.0  0.72788  0.58924  0.62744  1.0000
  C   C1805     1.0  0.80172  0.67096  0.89145  1.0000
  H   H3077     1.0  0.78738  0.62318  0.93006  1.0000
  C   C1806     1.0  0.88649  0.71776  0.77554  1.0000
  C   C1807     1.0  0.79874  0.63717  0.93356  1.0000
  H   H3078     1.0  0.82490  0.64016  0.84987  1.0000
  H   H3079     1.0  0.82961  0.67223  0.88846  1.0000
  H   H3080     1.0  0.78142  0.63180  0.88859  1.0000
  H   H3081     1.0  0.78697  0.66097  0.89105  1.0000
  H   H3082     1.0  0.79071  0.61488  0.88181  1.0000
  S   S514      1.0  0.96646  0.53146  0.73612  1.0000
  H   H3083     1.0  0.92653  0.70198  0.59224  1.0000
  H   H3084     1.0  0.80168  0.68252  0.87862  1.0000
  C   C1808     1.0  0.81526  0.64023  0.91521  1.0000
  H   H3085     1.0  0.80373  0.63727  0.95423  1.0000
  H   H3086     1.0  0.84969  0.64466  0.89991  1.0000
  C   C1809     1.0  0.91520  0.68389  0.54469  1.0000
  H   H3087     1.0  0.95413  0.72975  0.50612  1.0000
  H   H3088     1.0  0.86557  0.55750  0.83746  1.0000
  H   H3089     1.0  0.91787  0.71235  0.53847  1.0000
  H   H3090     1.0  0.86166  0.69001  0.48554  1.0000
  H   H3091     1.0  0.85111  0.73590  0.74014  1.0000
  H   H3092     1.0  0.84953  0.69050  0.51439  1.0000
  H   H3093     1.0  0.84886  0.72584  0.69995  1.0000
  N   N131      1.0  0.94356  0.71394  0.55849  1.0000
  C   C1810     1.0  0.95568  0.70286  0.56319  1.0000
  H   H3094     1.0  0.95713  0.67928  0.54052  1.0000
  H   H3095     1.0  0.97060  0.50028  0.49874  1.0000
  C   C1811     1.0  0.65667  0.55620  0.51625  1.0000
  H   H3096     1.0  0.67178  0.52072  0.52395  1.0000
  H   H3097     1.0  0.83653  0.69802  0.94465  1.0000
  H   H3098     1.0  0.97678  0.52503  0.93738  1.0000
  Fe  Fe257     1.0  0.89603  0.73427  0.57870  1.0000
  H   H3099     1.0  0.87476  0.71562  0.78890  1.0000
  H   H3100     1.0  0.96384  0.49752  0.70900  1.0000
  H   H3101     1.0  0.86427  0.72383  0.92268  1.0000
  C   C1812     1.0  0.85212  0.73602  0.95337  1.0000
  C   C1813     1.0  0.96933  0.52640  0.91907  1.0000
  C   C1814     1.0  0.93500  0.71588  0.58418  1.0000
  H   H3102     1.0  0.87604  0.71580  0.52451  1.0000
  C   C1815     1.0  0.83095  0.72074  0.51293  1.0000
  C   C1816     1.0  0.79593  0.52937  0.81096  1.0000
  H   H3103     1.0  0.83448  0.72674  0.76523  1.0000
  H   H3104     1.0  0.93917  0.52088  0.89141  1.0000
  H   H3105     1.0  0.86401  0.69839  0.95088  1.0000
  C   C1817     1.0  0.96162  0.69467  0.53876  1.0000
  S   S515      1.0  0.79813  0.59152  0.95609  1.0000
  C   C1818     1.0  0.82500  0.68655  0.98118  1.0000
  C   C1819     1.0  0.97436  0.50424  0.59548  1.0000
  H   H3106     1.0  0.94074  0.72549  0.62481  1.0000
  H   H3107     1.0  0.97897  0.51894  0.58865  1.0000
  H   H3108     1.0  0.96884  0.71157  0.57414  1.0000
  C   C1820     1.0  0.65552  0.53785  0.51932  1.0000
  H   H3109     1.0  0.97718  0.70050  0.53767  1.0000
  H   H3110     1.0  0.95598  0.69730  0.51977  1.0000
  H   H3111     1.0  0.93199  0.70487  0.51885  1.0000
  H   H3112     1.0  0.81952  0.70609  0.95573  1.0000
  H   H3113     1.0  0.96318  0.52173  0.85533  1.0000
  H   H3114     1.0  0.84149  0.72120  0.52835  1.0000
  C   C1821     1.0  0.97846  0.50634  0.71194  1.0000
  H   H3115     1.0  0.90803  0.68207  0.56362  1.0000
  C   C1822     1.0  0.95794  0.49225  0.57698  1.0000
  H   H3116     1.0  0.84876  0.50787  0.81486  1.0000
  H   H3117     1.0  0.88076  0.70115  0.97616  1.0000
  H   H3118     1.0  0.96685  0.74071  0.56370  1.0000
  Fe  Fe258     1.0  0.89646  0.49466  0.75098  1.0000
  H   H3119     1.0  0.92321  0.49422  0.95761  1.0000
  H   H3120     1.0  0.81199  0.70167  0.48445  1.0000
  H   H3121     1.0  0.94786  0.49916  0.57346  1.0000
  H   H3122     1.0  0.81872  0.72128  0.52347  1.0000
  H   H3123     1.0  0.88464  0.71983  0.95336  1.0000
  H   H3124     1.0  0.82914  0.66231  0.49765  1.0000
  H   H3125     1.0  0.83625  0.73344  0.50082  1.0000
  C   C1823     1.0  0.85492  0.69830  0.49615  1.0000
  H   H3126     1.0  0.92047  0.50405  0.92724  1.0000
  H   H3127     1.0  0.67908  0.50435  0.95566  1.0000
  H   H3128     1.0  0.86746  0.72946  0.50454  1.0000
  H   H3129     1.0  0.97651  0.50377  0.88114  1.0000
  H   H3130     1.0  0.92990  0.49622  0.88713  1.0000
  H   H3131     1.0  0.97829  0.54325  0.88361  1.0000
  H   H3132     1.0  0.95001  0.49696  0.85140  1.0000
  H   H3133     1.0  0.88342  0.71968  0.49180  1.0000
  H   H3134     1.0  0.95462  0.49598  0.94766  1.0000
  C   C1824     1.0  0.87108  0.71700  0.50425  1.0000
  H   H3135     1.0  0.89801  0.73125  0.78119  1.0000
  H   H3136     1.0  0.94066  0.49790  0.61706  1.0000
  C   C1825     1.0  0.82446  0.70242  0.49663  1.0000
  C   C1826     1.0  0.96434  0.73546  0.52268  1.0000
  H   H3137     1.0  0.98082  0.52340  0.79343  1.0000
  H   H3138     1.0  0.94627  0.74192  0.54883  1.0000
  H   H3139     1.0  0.95532  0.74193  0.60269  1.0000
  Fe  Fe259     1.0  0.85266  0.78653  0.32036  1.0000
  S   S516      1.0  0.88424  0.79650  0.32336  1.0000
  S   S517      1.0  0.83700  0.80530  0.30942  1.0000
  H   H3140     1.0  0.75769  0.76947  0.32681  1.0000
  H   H3141     1.0  0.67584  0.84240  0.32651  1.0000
  Fe  Fe260     1.0  0.87901  0.77644  0.35697  1.0000
  S   S518      1.0  0.89859  0.78519  0.39305  1.0000
  Fe  Fe261     1.0  0.88126  0.77200  0.29698  1.0000
  S   S519      1.0  0.90127  0.77101  0.26526  1.0000
  H   H3142     1.0  0.70989  0.85596  0.42134  1.0000
  H   H3143     1.0  0.65227  0.81059  0.34170  1.0000
  Fe  Fe262     1.0  0.93538  0.76367  0.08274  1.0000
  S   S520      1.0  0.92147  0.78432  0.08518  1.0000
  S   S521      1.0  0.96682  0.77063  0.08993  1.0000
  H   H3144     1.0  0.78448  0.76519  0.35698  1.0000
  C   C1827     1.0  0.67250  0.85283  0.31507  1.0000
  Fe  Fe263     1.0  0.90504  0.76957  0.04888  1.0000
  S   S522      1.0  0.89869  0.78563  0.01544  1.0000
  Fe  Fe264     1.0  0.89931  0.76211  0.10785  1.0000
  S   S523      1.0  0.88401  0.76816  0.14212  1.0000
  H   H3145     1.0  0.65410  0.85607  0.28544  1.0000
  C   C1828     1.0  0.95696  0.79159  0.01953  1.0000
  Fe  Fe265     1.0  0.72917  0.85134  0.36481  1.0000
  S   S524      1.0  0.73633  0.88192  0.36133  1.0000
  S   S525      1.0  0.69930  0.83038  0.36820  1.0000
  Fe  Fe266     1.0  0.77049  0.85619  0.36510  1.0000
  S   S526      1.0  0.78045  0.88771  0.36164  1.0000
  S   S527      1.0  0.78850  0.83957  0.37644  1.0000
  Fe  Fe267     1.0  0.75892  0.88566  0.39203  1.0000
  S   S528      1.0  0.76036  0.90611  0.42550  1.0000
  Fe  Fe268     1.0  0.75685  0.88126  0.33101  1.0000
  S   S529      1.0  0.75399  0.89787  0.29511  1.0000
  S   S530      1.0  0.75041  0.85489  0.39727  1.0000
  S   S531      1.0  0.74819  0.84992  0.33280  1.0000
  Fe  Fe269     1.0  0.75919  0.90706  0.13949  1.0000
  S   S532      1.0  0.74045  0.92277  0.14456  1.0000
  S   S533      1.0  0.77459  0.90008  0.17410  1.0000
  Fe  Fe270     1.0  0.74992  0.90124  0.07973  1.0000
  S   S534      1.0  0.73054  0.91679  0.08169  1.0000
  S   S535      1.0  0.75047  0.88303  0.04429  1.0000
  Fe  Fe271     1.0  0.75337  0.93781  0.10762  1.0000
  S   S536      1.0  0.76047  0.96964  0.10614  1.0000
  Fe  Fe272     1.0  0.71979  0.90041  0.11836  1.0000
  S   S537      1.0  0.68899  0.88680  0.12952  1.0000
  S   S538      1.0  0.77334  0.92298  0.10370  1.0000
  S   S539      1.0  0.73791  0.88394  0.11532  1.0000
  H   H3146     1.0  0.92139  0.79006  0.43977  1.0000
  H   H3147     1.0  0.80108  0.97867  0.09984  1.0000
  H   H3148     1.0  0.71756  0.89281  0.45145  1.0000
  C   C1829     1.0  0.67358  0.83008  0.13159  1.0000
  C   C1830     1.0  0.68385  0.84922  0.12712  1.0000
  C   C1831     1.0  0.67636  0.86247  0.13366  1.0000
  C   C1832     1.0  0.65842  0.85632  0.14443  1.0000
  H   H3149     1.0  0.79140  0.86373  0.99560  1.0000
  H   H3150     1.0  0.67952  0.81995  0.12648  1.0000
  H   H3151     1.0  0.69753  0.85369  0.11852  1.0000
  C   C1833     1.0  0.80072  0.75218  0.30111  1.0000
  C   C1834     1.0  0.76121  0.90153  0.45947  1.0000
  S   S540      1.0  0.84764  0.76808  0.35553  1.0000
  H   H3152     1.0  0.86219  0.81220  0.35945  1.0000
  C   C1835     1.0  0.75779  0.88825  0.01150  1.0000
  C   C1836     1.0  0.78341  0.77237  0.30559  1.0000
  C   C1837     1.0  0.66593  0.82444  0.39115  1.0000
  H   H3153     1.0  0.66658  0.81331  0.31290  1.0000
  H   H3154     1.0  0.96223  0.76701  0.03113  1.0000
  H   H3155     1.0  0.76985  0.91817  0.01646  1.0000
  H   H3156     1.0  0.77447  0.88179  0.45546  1.0000
  C   C1838     1.0  0.76004  0.89819  0.26165  1.0000
  C   C1839     1.0  0.77079  0.88858  0.25227  1.0000
  C   C1840     1.0  0.77516  0.88936  0.22545  1.0000
  C   C1841     1.0  0.76850  0.89934  0.20761  1.0000
  C   C1842     1.0  0.75753  0.90874  0.21693  1.0000
  C   C1843     1.0  0.75357  0.90837  0.24384  1.0000
  H   H3157     1.0  0.77594  0.88077  0.26572  1.0000
  H   H3158     1.0  0.78375  0.88212  0.21848  1.0000
  H   H3159     1.0  0.75233  0.91652  0.20351  1.0000
  H   H3160     1.0  0.74526  0.91587  0.25090  1.0000
  C   C1844     1.0  0.68232  0.83782  0.38128  1.0000
  H   H3161     1.0  0.90138  0.84266  0.40340  1.0000
  H   H3162     1.0  0.93108  0.82768  0.02279  1.0000
  C   C1845     1.0  0.65415  0.84857  0.40152  1.0000
  C   C1846     1.0  0.67059  0.86200  0.39174  1.0000
  C   C1847     1.0  0.68463  0.85664  0.38163  1.0000
  H   H3163     1.0  0.79547  0.98990  0.15337  1.0000
  C   C1848     1.0  0.65621  0.84402  0.29476  1.0000
  H   H3164     1.0  0.67244  0.87657  0.39185  1.0000
  H   H3165     1.0  0.69712  0.86708  0.37385  1.0000
  C   C1849     1.0  0.82397  0.81504  0.32867  1.0000
  C   C1850     1.0  0.81507  0.82571  0.31618  1.0000
  C   C1851     1.0  0.80409  0.83328  0.33039  1.0000
  C   C1852     1.0  0.80195  0.83028  0.35733  1.0000
  C   C1853     1.0  0.81076  0.81951  0.36980  1.0000
  C   C1854     1.0  0.82171  0.81192  0.35559  1.0000
  H   H3166     1.0  0.81668  0.82817  0.29535  1.0000
  H   H3167     1.0  0.79741  0.84154  0.32055  1.0000
  H   H3168     1.0  0.80904  0.81702  0.39061  1.0000
  H   H3169     1.0  0.82824  0.80357  0.36543  1.0000
  C   C1855     1.0  0.89603  0.76985  0.23114  1.0000
  C   C1856     1.0  0.88016  0.77235  0.22109  1.0000
  C   C1857     1.0  0.87668  0.77169  0.19378  1.0000
  C   C1858     1.0  0.88885  0.76826  0.17627  1.0000
  C   C1859     1.0  0.90444  0.76520  0.18635  1.0000
  C   C1860     1.0  0.90813  0.76623  0.21366  1.0000
  H   H3170     1.0  0.87077  0.77518  0.23431  1.0000
  H   H3171     1.0  0.86457  0.77403  0.18615  1.0000
  H   H3172     1.0  0.68544  0.86129  0.30470  1.0000
  C   C1861     1.0  0.65234  0.80661  0.32088  1.0000
  C   C1862     1.0  0.89253  0.77876  0.42590  1.0000
  C   C1863     1.0  0.87383  0.77036  0.43334  1.0000
  H   H3173     1.0  0.81778  0.97340  0.20457  1.0000
  H   H3174     1.0  0.95358  0.82942  0.98845  1.0000
  N   N132      1.0  0.70714  0.85326  0.46352  1.0000
  C   C1864     1.0  0.90689  0.78354  0.44535  1.0000
  H   H3175     1.0  0.86263  0.76664  0.41858  1.0000
  C   C1865     1.0  0.71281  0.83661  0.46365  1.0000
  H   H3176     1.0  0.75060  0.96059  0.16527  1.0000
  H   H3177     1.0  0.80578  0.95208  0.24101  1.0000
  H   H3178     1.0  0.94251  0.78268  0.01243  1.0000
  H   H3179     1.0  0.87972  0.80606  0.45063  1.0000
  H   H3180     1.0  0.78197  0.94769  0.23236  1.0000
  S   S541      1.0  0.88149  0.74946  0.07163  1.0000
  C   C1866     1.0  0.79407  0.76102  0.34489  1.0000
  H   H3181     1.0  0.80757  0.77340  0.34461  1.0000
  H   H3182     1.0  0.72840  0.84126  0.46560  1.0000
  C   C1867     1.0  0.71533  0.86444  0.43954  1.0000
  Fe  Fe273     1.0  0.84772  0.74588  0.32668  1.0000
  C   C1868     1.0  0.80301  0.97019  0.21011  1.0000
  H   H3183     1.0  0.90181  0.82182  0.41720  1.0000
  H   H3184     1.0  0.70898  0.81041  0.44360  1.0000
  H   H3185     1.0  0.81450  0.95177  0.17297  1.0000
  H   H3186     1.0  0.96181  0.75528  0.16622  1.0000
  H   H3187     1.0  0.77888  0.78853  0.33872  1.0000
  S   S542      1.0  0.92030  0.75027  0.04486  1.0000
  H   H3188     1.0  0.77944  0.95729  0.15003  1.0000
  C   C1869     1.0  0.96896  0.77957  0.01901  1.0000
  H   H3189     1.0  0.93452  0.81583  0.16351  1.0000
  H   H3190     1.0  0.93658  0.80667  0.99198  1.0000
  H   H3191     1.0  0.69123  0.81895  0.43460  1.0000
  C   C1870     1.0  0.64814  0.83718  0.14886  1.0000
  C   C1871     1.0  0.75417  0.87333  0.99349  1.0000
  H   H3192     1.0  0.94424  0.79115  0.19550  1.0000
  S   S543      1.0  0.87863  0.75280  0.33087  1.0000
  H   H3193     1.0  0.77672  0.76890  0.28563  1.0000
  H   H3194     1.0  0.87868  0.85387  0.41180  1.0000
  N   N133      1.0  0.79120  0.97159  0.18680  1.0000
  H   H3195     1.0  0.68047  0.84218  0.44222  1.0000
  H   H3196     1.0  0.65251  0.86646  0.14963  1.0000
  H   H3197     1.0  0.64906  0.79132  0.32052  1.0000
  H   H3198     1.0  0.73082  0.86844  0.43965  1.0000
  H   H3199     1.0  0.66968  0.86250  0.32888  1.0000
  H   H3200     1.0  0.71267  0.87386  0.98664  1.0000
  H   H3201     1.0  0.92031  0.76405  0.22137  1.0000
  H   H3202     1.0  0.76627  0.98440  0.16106  1.0000
  H   H3203     1.0  0.64893  0.86940  0.05367  1.0000
  H   H3204     1.0  0.77852  0.94209  0.17605  1.0000
  C   C1872     1.0  0.87043  0.84301  0.42582  1.0000
  C   C1873     1.0  0.88400  0.77265  0.47961  1.0000
  H   H3205     1.0  0.74955  0.97931  0.18563  1.0000
  H   H3206     1.0  0.74882  0.96556  0.47601  1.0000
  C   C1874     1.0  0.94211  0.81540  0.14545  1.0000
  H   H3207     1.0  0.81423  0.76456  0.30246  1.0000
  H   H3208     1.0  0.68631  0.87479  0.47363  1.0000
  H   H3209     1.0  0.84433  0.79383  0.44082  1.0000
  C   C1875     1.0  0.71159  0.88239  0.43538  1.0000
  H   H3210     1.0  0.93724  0.81129  0.04107  1.0000
  C   C1876     1.0  0.84955  0.83918  0.41919  1.0000
  H   H3211     1.0  0.87385  0.84990  0.44557  1.0000
  C   C1877     1.0  0.67707  0.85983  0.47302  1.0000
  H   H3212     1.0  0.85331  0.75810  0.99468  1.0000
  H   H3213     1.0  0.79712  0.78410  0.30275  1.0000
  C   C1878     1.0  0.65569  0.82394  0.14247  1.0000
  C   C1879     1.0  0.75912  0.97382  0.17578  1.0000
  H   H3214     1.0  0.65037  0.83640  0.05573  1.0000
  H   H3215     1.0  0.72070  0.90739  0.00517  1.0000
  H   H3216     1.0  0.97786  0.82425  0.04087  1.0000
  H   H3217     1.0  0.67991  0.83338  0.47433  1.0000
  C   C1880     1.0  0.77259  0.97076  0.19648  1.0000
  H   H3218     1.0  0.86466  0.74710  0.01658  1.0000
  H   H3219     1.0  0.65205  0.83922  0.09033  1.0000
  H   H3220     1.0  0.91158  0.75941  0.98896  1.0000
  H   H3221     1.0  0.94478  0.76196  0.15012  1.0000
  C   C1881     1.0  0.68597  0.84634  0.46265  1.0000
  C   C1882     1.0  0.94943  0.79940  0.14613  1.0000
  H   H3222     1.0  0.91361  0.76208  0.17312  1.0000
  H   H3223     1.0  0.85511  0.76196  0.46585  1.0000
  C   C1883     1.0  0.97086  0.78537  0.16269  1.0000
  C   C1884     1.0  0.78758  0.95566  0.16754  1.0000
  H   H3224     1.0  0.92450  0.85163  0.43768  1.0000
  C   C1885     1.0  0.94933  0.81725  0.00177  1.0000
  C   C1886     1.0  0.65457  0.86394  0.07034  1.0000
  N   N134      1.0  0.78625  0.75570  0.31728  1.0000
  H   H3225     1.0  0.95381  0.79754  0.12598  1.0000
  C   C1887     1.0  0.90269  0.78030  0.47205  1.0000
  H   H3226     1.0  0.79605  0.93963  0.21128  1.0000
  H   H3227     1.0  0.97349  0.78949  0.21681  1.0000
  H   H3228     1.0  0.69643  0.89163  0.00198  1.0000
  H   H3229     1.0  0.81330  0.96532  0.14449  1.0000
  H   H3230     1.0  0.71469  0.82955  0.42206  1.0000
  H   H3231     1.0  0.95407  0.83506  0.03753  1.0000
  C   C1888     1.0  0.95535  0.76587  0.16651  1.0000
  C   C1889     1.0  0.78046  0.99100  0.10200  1.0000
  C   C1890     1.0  0.77118  0.78042  0.32112  1.0000
  H   H3232     1.0  0.66405  0.80985  0.39108  1.0000
  C   C1891     1.0  0.79606  0.95124  0.22416  1.0000
  H   H3233     1.0  0.80089  0.94057  0.14479  1.0000
  C   C1892     1.0  0.76896  0.88910  0.46902  1.0000
  H   H3234     1.0  0.97268  0.81034  0.08519  1.0000
  H   H3235     1.0  0.96986  0.77438  0.99898  1.0000
  H   H3236     1.0  0.93690  0.78656  0.14987  1.0000
  S   S544      1.0  0.85025  0.76359  0.29125  1.0000
  C   C1893     1.0  0.95800  0.80284  0.19283  1.0000
  C   C1894     1.0  0.97094  0.80263  0.21613  1.0000
  C   C1895     1.0  0.65194  0.82979  0.40129  1.0000
  N   N135      1.0  0.71027  0.85433  0.20219  1.0000
  C   C1896     1.0  0.72388  0.86206  0.18036  1.0000
  C   C1897     1.0  0.69722  0.86471  0.20189  1.0000
  C   C1898     1.0  0.69940  0.83374  0.19639  1.0000
  C   C1899     1.0  0.72148  0.85716  0.22760  1.0000
  C   C1900     1.0  0.73755  0.85220  0.17535  1.0000
  C   C1901     1.0  0.70647  0.88599  0.20704  1.0000
  C   C1902     1.0  0.67987  0.82459  0.20840  1.0000
  C   C1903     1.0  0.71055  0.85253  0.25325  1.0000
  H   H3237     1.0  0.71617  0.86171  0.16148  1.0000
  H   H3238     1.0  0.73290  0.87700  0.18408  1.0000
  H   H3239     1.0  0.68600  0.85923  0.21631  1.0000
  H   H3240     1.0  0.68958  0.86252  0.18264  1.0000
  H   H3241     1.0  0.69686  0.83110  0.17485  1.0000
  H   H3242     1.0  0.70771  0.82539  0.20265  1.0000
  H   H3243     1.0  0.73014  0.84851  0.22773  1.0000
  H   H3244     1.0  0.73216  0.87160  0.22951  1.0000
  H   H3245     1.0  0.74750  0.85400  0.19218  1.0000
  H   H3246     1.0  0.73018  0.83717  0.17019  1.0000
  H   H3247     1.0  0.74627  0.85885  0.15838  1.0000
  H   H3248     1.0  0.71443  0.88946  0.22602  1.0000
  H   H3249     1.0  0.71557  0.89336  0.19081  1.0000
  H   H3250     1.0  0.69529  0.89169  0.20797  1.0000
  H   H3251     1.0  0.67443  0.80925  0.20449  1.0000
  H   H3252     1.0  0.66961  0.82961  0.19884  1.0000
  H   H3253     1.0  0.68015  0.82676  0.22986  1.0000
  H   H3254     1.0  0.70646  0.83754  0.25808  1.0000
  H   H3255     1.0  0.69810  0.85624  0.25325  1.0000
  H   H3256     1.0  0.71976  0.86113  0.26953  1.0000
  C   C1904     1.0  0.86961  0.76764  0.46012  1.0000
  C   C1905     1.0  0.90971  0.84536  0.44397  1.0000
  C   C1906     1.0  0.86713  0.81341  0.40177  1.0000
  C   C1907     1.0  0.80526  0.95348  0.15711  1.0000
  C   C1908     1.0  0.70640  0.82331  0.43948  1.0000
  C   C1909     1.0  0.87167  0.82204  0.37435  1.0000
  H   H3257     1.0  0.95534  0.79428  0.04064  1.0000
  H   H3258     1.0  0.90962  0.83646  0.46102  1.0000
  H   H3259     1.0  0.85166  0.80726  0.40278  1.0000
  H   H3260     1.0  0.87125  0.80113  0.40224  1.0000
  H   H3261     1.0  0.69648  0.87935  0.43209  1.0000
  H   H3262     1.0  0.71858  0.88912  0.41721  1.0000
  C   C1910     1.0  0.79759  0.74584  0.36093  1.0000
  H   H3263     1.0  0.88619  0.82418  0.36894  1.0000
  H   H3264     1.0  0.83957  0.82466  0.42168  1.0000
  H   H3265     1.0  0.86955  0.83536  0.37270  1.0000
  H   H3266     1.0  0.66156  0.83756  0.27892  1.0000
  H   H3267     1.0  0.84791  0.84362  0.39891  1.0000
  C   C1911     1.0  0.76690  0.90655  0.00283  1.0000
  N   N136      1.0  0.96457  0.80967  0.00476  1.0000
  H   H3268     1.0  0.95336  0.82927  0.14228  1.0000
  H   H3269     1.0  0.94841  0.76468  0.18556  1.0000
  C   C1912     1.0  0.94281  0.82313  0.02748  1.0000
  C   C1913     1.0  0.89728  0.83367  0.42095  1.0000
  H   H3270     1.0  0.93170  0.81276  0.12894  1.0000
  H   H3271     1.0  0.76458  0.95679  0.20481  1.0000
  H   H3272     1.0  0.76785  0.79052  0.30864  1.0000
  H   H3273     1.0  0.66484  0.85860  0.46003  1.0000
  H   H3274     1.0  0.66988  0.86811  0.06747  1.0000
  H   H3275     1.0  0.74719  0.85912  0.00001  1.0000
  N   N137      1.0  0.96518  0.80187  0.16583  1.0000
  H   H3276     1.0  0.84401  0.81376  0.46005  1.0000
  H   H3277     1.0  0.80567  0.74274  0.26279  1.0000
  N   N138      1.0  0.87630  0.82651  0.42458  1.0000
  H   H3278     1.0  0.84486  0.84805  0.43216  1.0000
  C   C1914     1.0  0.80169  0.98971  0.17318  1.0000
  H   H3279     1.0  0.81523  0.87235  0.98568  1.0000
  H   H3280     1.0  0.96393  0.80343  0.23465  1.0000
  H   H3281     1.0  0.77435  0.98057  0.21333  1.0000
  H   H3282     1.0  0.87812  0.82556  0.46710  1.0000
  H   H3283     1.0  0.74790  0.92034  0.47005  1.0000
  H   H3284     1.0  0.65331  0.87097  0.08885  1.0000
  H   H3285     1.0  0.95514  0.81578  0.19541  1.0000
  C   C1915     1.0  0.76441  0.97188  0.47706  1.0000
  C   C1916     1.0  0.87235  0.81592  0.44995  1.0000
  C   C1917     1.0  0.85169  0.80456  0.45609  1.0000
  H   H3286     1.0  0.97642  0.78529  0.14280  1.0000
  H   H3287     1.0  0.76890  0.96979  0.45712  1.0000
  C   C1918     1.0  0.79563  0.74809  0.27166  1.0000
  C   C1919     1.0  0.70916  0.89961  0.99088  1.0000
  H   H3288     1.0  0.85131  0.79679  0.47448  1.0000
  H   H3289     1.0  0.90560  0.85698  0.45011  1.0000
  H   H3290     1.0  0.84356  0.74947  0.02555  1.0000
  H   H3291     1.0  0.80450  0.75209  0.38000  1.0000
  H   H3292     1.0  0.80399  0.98092  0.22532  1.0000
  H   H3293     1.0  0.79709  0.76107  0.26114  1.0000
  C   C1920     1.0  0.85097  0.74657  0.00870  1.0000
  C   C1921     1.0  0.75419  0.91095  0.47740  1.0000
  H   H3294     1.0  0.98026  0.83204  0.17040  1.0000
  S   S545      1.0  0.91403  0.74211  0.10763  1.0000
  H   H3295     1.0  0.98008  0.85013  0.00859  1.0000
  H   H3296     1.0  0.70706  0.82769  0.48087  1.0000
  C   C1922     1.0  0.79875  0.99158  0.09985  1.0000
  H   H3297     1.0  0.81634  0.99120  0.16931  1.0000
  H   H3298     1.0  0.76913  0.98712  0.48030  1.0000
  Fe  Fe274     1.0  0.85791  0.78726  0.83336  1.0000
  S   S546      1.0  0.88858  0.79154  0.83333  1.0000
  S   S547      1.0  0.85351  0.81480  0.83267  1.0000
  H   H3299     1.0  0.77070  0.98649  0.55324  1.0000
  H   H3300     1.0  0.82463  0.96929  0.66478  1.0000
  Fe  Fe275     1.0  0.88071  0.76783  0.86170  1.0000
  H   H3301     1.0  0.67086  0.88556  0.93195  1.0000
  Fe  Fe276     1.0  0.88008  0.77000  0.80059  1.0000
  S   S548      1.0  0.89886  0.77124  0.76613  1.0000
  S   S549      1.0  0.85061  0.76484  0.86409  1.0000
  S   S550      1.0  0.84996  0.76691  0.79901  1.0000
  Fe  Fe277     1.0  0.93217  0.77037  0.57791  1.0000
  S   S551      1.0  0.91538  0.78884  0.57768  1.0000
  S   S552      1.0  0.96402  0.77784  0.57354  1.0000
  H   H3302     1.0  0.78932  0.93848  0.74245  1.0000
  H   H3303     1.0  0.73866  0.95625  0.52107  1.0000
  Fe  Fe278     1.0  0.89590  0.76806  0.54798  1.0000
  S   S553      1.0  0.87794  0.77079  0.51306  1.0000
  Fe  Fe279     1.0  0.89839  0.76937  0.60893  1.0000
  S   S554      1.0  0.88457  0.77752  0.64352  1.0000
  H   H3304     1.0  0.68159  0.84359  0.80934  1.0000
  C   C1923     1.0  0.71182  0.84972  0.94583  1.0000
  Fe  Fe280     1.0  0.72819  0.84932  0.86795  1.0000
  S   S555      1.0  0.73918  0.88051  0.86695  1.0000
  S   S556      1.0  0.69890  0.83012  0.87793  1.0000
  Fe  Fe281     1.0  0.76627  0.84790  0.85636  1.0000
  S   S557      1.0  0.78038  0.87940  0.85432  1.0000
  S   S558      1.0  0.77632  0.82382  0.85425  1.0000
  Fe  Fe282     1.0  0.76386  0.87971  0.89039  1.0000
  S   S559      1.0  0.77565  0.89966  0.92546  1.0000
  Fe  Fe283     1.0  0.75439  0.87762  0.83090  1.0000
  S   S560      1.0  0.75017  0.89468  0.79664  1.0000
  S   S561      1.0  0.75173  0.84863  0.89390  1.0000
  S   S562      1.0  0.74146  0.84618  0.83060  1.0000
  Fe  Fe284     1.0  0.76236  0.90927  0.64370  1.0000
  S   S563      1.0  0.74260  0.92406  0.64720  1.0000
  S   S564      1.0  0.77747  0.90246  0.67859  1.0000
  Fe  Fe285     1.0  0.75636  0.90497  0.58360  1.0000
  S   S565      1.0  0.73593  0.91929  0.58344  1.0000
  S   S566      1.0  0.76466  0.89190  0.54825  1.0000
  Fe  Fe286     1.0  0.75679  0.94021  0.61164  1.0000
  S   S567      1.0  0.76362  0.97189  0.60964  1.0000
  Fe  Fe287     1.0  0.72393  0.90176  0.61892  1.0000
  S   S568      1.0  0.69263  0.88699  0.62636  1.0000
  S   S569      1.0  0.77784  0.92669  0.60990  1.0000
  S   S570      1.0  0.74306  0.88622  0.61732  1.0000
  H   H3305     1.0  0.75954  0.98981  0.68512  1.0000
  H   H3306     1.0  0.80328  0.97948  0.59836  1.0000
  C   C1924     1.0  0.66064  0.82415  0.64167  1.0000
  C   C1925     1.0  0.67932  0.83076  0.63354  1.0000
  C   C1926     1.0  0.68935  0.84993  0.62890  1.0000
  C   C1927     1.0  0.68077  0.86274  0.63233  1.0000
  C   C1928     1.0  0.66206  0.85611  0.64038  1.0000
  H   H3307     1.0  0.80623  0.99033  0.72108  1.0000
  H   H3308     1.0  0.68611  0.82099  0.63083  1.0000
  H   H3309     1.0  0.70368  0.85477  0.62256  1.0000
  H   H3310     1.0  0.83550  0.85546  0.90188  1.0000
  C   C1929     1.0  0.76848  0.89490  0.95842  1.0000
  C   C1930     1.0  0.65204  0.83695  0.64504  1.0000
  H   H3311     1.0  0.65333  0.81663  0.81313  1.0000
  C   C1931     1.0  0.76312  0.89597  0.51423  1.0000
  S   S571      1.0  0.91595  0.75191  0.61051  1.0000
  H   H3312     1.0  0.86580  0.77003  0.73541  1.0000
  C   C1932     1.0  0.87412  0.77297  0.69496  1.0000
  H   H3313     1.0  0.73321  0.83914  0.74296  1.0000
  H   H3314     1.0  0.74898  0.91492  0.51816  1.0000
  H   H3315     1.0  0.73791  0.90418  0.91608  1.0000
  C   C1933     1.0  0.75788  0.89632  0.76392  1.0000
  C   C1934     1.0  0.77087  0.88894  0.75585  1.0000
  C   C1935     1.0  0.77665  0.89081  0.72961  1.0000
  C   C1936     1.0  0.76914  0.89960  0.71105  1.0000
  C   C1937     1.0  0.75584  0.90661  0.71902  1.0000
  C   C1938     1.0  0.75051  0.90527  0.74541  1.0000
  H   H3316     1.0  0.77666  0.88204  0.76990  1.0000
  H   H3317     1.0  0.78698  0.88538  0.72367  1.0000
  H   H3318     1.0  0.74991  0.91338  0.70501  1.0000
  H   H3319     1.0  0.74043  0.91099  0.75147  1.0000
  C   C1939     1.0  0.68174  0.83949  0.88202  1.0000
  C   C1940     1.0  0.66500  0.82859  0.89396  1.0000
  H   H3320     1.0  0.97291  0.81219  0.60591  1.0000
  H   H3321     1.0  0.76068  0.94744  0.49895  1.0000
  C   C1941     1.0  0.67007  0.86430  0.87661  1.0000
  C   C1942     1.0  0.68430  0.85740  0.87338  1.0000
  C   C1943     1.0  0.81128  0.96047  0.65464  1.0000
  H   H3322     1.0  0.75631  0.86498  0.95351  1.0000
  H   H3323     1.0  0.67199  0.87808  0.86971  1.0000
  H   H3324     1.0  0.69711  0.86581  0.86389  1.0000
  C   C1944     1.0  0.83195  0.81712  0.83856  1.0000
  C   C1945     1.0  0.83098  0.83487  0.83685  1.0000
  C   C1946     1.0  0.81403  0.83724  0.84128  1.0000
  C   C1947     1.0  0.79794  0.82185  0.84761  1.0000
  C   C1948     1.0  0.79897  0.80415  0.84939  1.0000
  C   C1949     1.0  0.81586  0.80177  0.84484  1.0000
  H   H3325     1.0  0.84337  0.84683  0.83198  1.0000
  H   H3326     1.0  0.81339  0.85090  0.83964  1.0000
  H   H3327     1.0  0.78659  0.79216  0.85427  1.0000
  H   H3328     1.0  0.81641  0.78804  0.84621  1.0000
  C   C1950     1.0  0.89408  0.77173  0.73198  1.0000
  C   C1951     1.0  0.87690  0.77142  0.72213  1.0000
  H   H3329     1.0  0.65797  0.85052  0.58476  1.0000
  C   C1952     1.0  0.88821  0.77411  0.67725  1.0000
  C   C1953     1.0  0.90508  0.77353  0.68700  1.0000
  C   C1954     1.0  0.90804  0.77252  0.71426  1.0000
  H   H3330     1.0  0.67122  0.85561  0.49271  1.0000
  C   C1955     1.0  0.83895  0.85403  0.92270  1.0000
  H   H3331     1.0  0.91606  0.77446  0.67361  1.0000
  H   H3332     1.0  0.92133  0.77259  0.72165  1.0000
  C   C1956     1.0  0.89801  0.76943  0.92846  1.0000
  C   C1957     1.0  0.89022  0.78218  0.93625  1.0000
  S   S572      1.0  0.87765  0.75049  0.57924  1.0000
  H   H3333     1.0  0.71124  0.86677  0.91307  1.0000
  C   C1958     1.0  0.81905  0.88010  0.89617  1.0000
  C   C1959     1.0  0.90578  0.76134  0.94765  1.0000
  H   H3334     1.0  0.88426  0.78853  0.92162  1.0000
  H   H3335     1.0  0.71506  0.86577  0.53030  1.0000
  N   N139      1.0  0.70230  0.84659  0.71647  1.0000
  C   C1960     1.0  0.68152  0.83993  0.70986  1.0000
  C   C1961     1.0  0.70963  0.86761  0.71884  1.0000
  C   C1962     1.0  0.70441  0.83855  0.74269  1.0000
  C   C1963     1.0  0.71163  0.83985  0.69521  1.0000
  C   C1964     1.0  0.67044  0.81857  0.70953  1.0000
  C   C1965     1.0  0.70696  0.87784  0.69410  1.0000
  C   C1966     1.0  0.72440  0.84456  0.75464  1.0000
  C   C1967     1.0  0.73299  0.85079  0.69194  1.0000
  H   H3336     1.0  0.67447  0.84612  0.72379  1.0000
  H   H3337     1.0  0.67907  0.84467  0.69007  1.0000
  H   H3338     1.0  0.72472  0.87364  0.72406  1.0000
  H   H3339     1.0  0.70291  0.87198  0.73535  1.0000
  H   H3340     1.0  0.69581  0.84202  0.75755  1.0000
  H   H3341     1.0  0.69911  0.82303  0.74143  1.0000
  H   H3342     1.0  0.70922  0.82485  0.69794  1.0000
  H   H3343     1.0  0.70502  0.84044  0.67579  1.0000
  C   C1968     1.0  0.71605  0.86487  0.48773  1.0000
  H   H3344     1.0  0.66898  0.81265  0.72947  1.0000
  H   H3345     1.0  0.65593  0.81555  0.70191  1.0000
  H   H3346     1.0  0.71515  0.89309  0.69673  1.0000
  H   H3347     1.0  0.71199  0.87329  0.67619  1.0000
  H   H3348     1.0  0.69209  0.87608  0.69089  1.0000
  H   H3349     1.0  0.86095  0.77320  0.68754  1.0000
  H   H3350     1.0  0.66086  0.82042  0.54905  1.0000
  H   H3351     1.0  0.72355  0.83829  0.77434  1.0000
  H   H3352     1.0  0.73955  0.84078  0.68668  1.0000
  H   H3353     1.0  0.74087  0.85869  0.70940  1.0000
  H   H3354     1.0  0.73559  0.86044  0.67512  1.0000
  N   N140      1.0  0.80700  0.85634  0.93375  1.0000
  H   H3355     1.0  0.80297  0.98932  0.54462  1.0000
  C   C1969     1.0  0.79784  0.84005  0.91497  1.0000
  H   H3356     1.0  0.97542  0.82009  0.96682  1.0000
  C   C1970     1.0  0.71016  0.85509  0.51419  1.0000
  C   C1971     1.0  0.65245  0.82381  0.56421  1.0000
  C   C1972     1.0  0.65085  0.83551  0.89727  1.0000
  H   H3357     1.0  0.77986  0.85064  0.95073  1.0000
  H   H3358     1.0  0.86555  0.74760  0.95910  1.0000
  H   H3359     1.0  0.71970  0.84292  0.93454  1.0000
  H   H3360     1.0  0.67060  0.85968  0.81469  1.0000
  H   H3361     1.0  0.80567  0.84155  0.89672  1.0000
  H   H3362     1.0  0.78381  0.83948  0.90819  1.0000
  C   C1973     1.0  0.75489  0.90801  0.50462  1.0000
  C   C1974     1.0  0.80991  0.98527  0.70233  1.0000
  C   C1975     1.0  0.90566  0.76582  0.97442  1.0000
  S   S573      1.0  0.91353  0.75090  0.54615  1.0000
  H   H3363     1.0  0.76362  0.94382  0.54296  1.0000
  C   C1976     1.0  0.89051  0.78702  0.96300  1.0000
  C   C1977     1.0  0.70918  0.89742  0.93033  1.0000
  H   H3364     1.0  0.81345  0.96197  0.63319  1.0000
  H   H3365     1.0  0.77287  0.97389  0.71593  1.0000
  C   C1978     1.0  0.76517  0.97920  0.53413  1.0000
  H   H3366     1.0  0.71707  0.84510  0.51800  1.0000
  H   H3367     1.0  0.83425  0.88427  0.90066  1.0000
  C   C1979     1.0  0.79115  0.95152  0.70440  1.0000
  H   H3368     1.0  0.70282  0.89265  0.91037  1.0000
  H   H3369     1.0  0.82532  0.84857  0.95957  1.0000
  H   H3370     1.0  0.85373  0.86387  0.92620  1.0000
  H   H3371     1.0  0.78171  0.95501  0.65383  1.0000
  H   H3372     1.0  0.78036  0.96096  0.56349  1.0000
  C   C1980     1.0  0.95532  0.79255  0.95968  1.0000
  S   S574      1.0  0.87518  0.74674  0.82887  1.0000
  C   C1981     1.0  0.75935  0.87661  0.96710  1.0000
  Fe  Fe288     1.0  0.84559  0.74490  0.82964  1.0000
  H   H3373     1.0  0.69681  0.84027  0.94392  1.0000
  C   C1982     1.0  0.80057  0.86868  0.97847  1.0000
  H   H3374     1.0  0.73133  0.85985  0.75783  1.0000
  H   H3375     1.0  0.73107  0.87664  0.93426  1.0000
  C   C1983     1.0  0.79483  0.96615  0.66182  1.0000
  H   H3376     1.0  0.65524  0.86586  0.64303  1.0000
  H   H3377     1.0  0.68060  0.85941  0.93175  1.0000
  H   H3378     1.0  0.71366  0.87805  0.48867  1.0000
  H   H3379     1.0  0.69475  0.84781  0.51550  1.0000
  C   C1984     1.0  0.79454  0.85304  0.95716  1.0000
  H   H3380     1.0  0.97159  0.75065  0.51891  1.0000
  H   H3381     1.0  0.77963  0.93940  0.69490  1.0000
  C   C1985     1.0  0.67192  0.87897  0.95089  1.0000
  H   H3382     1.0  0.73156  0.86952  0.48715  1.0000
  H   H3383     1.0  0.81732  0.89276  0.88847  1.0000
  H   H3384     1.0  0.79285  0.87270  0.91566  1.0000
  H   H3385     1.0  0.74367  0.95727  0.55610  1.0000
  C   C1986     1.0  0.80740  0.87400  0.92096  1.0000
  H   H3386     1.0  0.67558  0.88950  0.96696  1.0000
  H   H3387     1.0  0.78832  0.93351  0.55100  1.0000
  H   H3388     1.0  0.64895  0.84996  0.55165  1.0000
  H   H3389     1.0  0.83905  0.83986  0.92562  1.0000
  H   H3390     1.0  0.66633  0.84632  0.78419  1.0000
  H   H3391     1.0  0.81424  0.86942  0.88019  1.0000
  H   H3392     1.0  0.77273  0.94906  0.73785  1.0000
  H   H3393     1.0  0.80634  0.95523  0.54331  1.0000
  C   C1987     1.0  0.65787  0.84517  0.56450  1.0000
  H   H3394     1.0  0.79733  0.96335  0.74495  1.0000
  H   H3395     1.0  0.91188  0.75150  0.94173  1.0000
  H   H3396     1.0  0.76284  0.96024  0.68713  1.0000
  H   H3397     1.0  0.78383  0.95884  0.48775  1.0000
  C   C1988     1.0  0.79170  0.94581  0.53809  1.0000
  H   H3398     1.0  0.91388  0.78436  0.48685  1.0000
  H   H3399     1.0  0.83140  0.78744  0.75536  1.0000
  N   N141      1.0  0.87445  0.82446  0.75032  1.0000
  C   C1989     1.0  0.88930  0.83235  0.77191  1.0000
  C   C1990     1.0  0.86508  0.83818  0.74648  1.0000
  C   C1991     1.0  0.88421  0.82269  0.72569  1.0000
  C   C1992     1.0  0.86097  0.80562  0.75894  1.0000
  C   C1993     1.0  0.90307  0.82235  0.77591  1.0000
  C   C1994     1.0  0.85421  0.84093  0.77015  1.0000
  C   C1995     1.0  0.87343  0.82083  0.69926  1.0000
  C   C1996     1.0  0.84278  0.79587  0.74227  1.0000
  H   H3400     1.0  0.89805  0.84734  0.76842  1.0000
  H   H3401     1.0  0.88280  0.83204  0.79126  1.0000
  H   H3402     1.0  0.85498  0.83428  0.72955  1.0000
  H   H3403     1.0  0.87568  0.85216  0.74141  1.0000
  H   H3404     1.0  0.89753  0.83515  0.72371  1.0000
  H   H3405     1.0  0.88843  0.81047  0.72682  1.0000
  H   H3406     1.0  0.86809  0.79563  0.75985  1.0000
  H   H3407     1.0  0.85680  0.80619  0.77955  1.0000
  H   H3408     1.0  0.91227  0.82851  0.79344  1.0000
  H   H3409     1.0  0.89573  0.80726  0.77965  1.0000
  H   H3410     1.0  0.91241  0.82417  0.75906  1.0000
  H   H3411     1.0  0.84737  0.85074  0.76474  1.0000
  H   H3412     1.0  0.84288  0.82767  0.77585  1.0000
  H   H3413     1.0  0.86358  0.84721  0.78743  1.0000
  H   H3414     1.0  0.88161  0.81771  0.68354  1.0000
  H   H3415     1.0  0.87202  0.83412  0.69395  1.0000
  H   H3416     1.0  0.85953  0.80926  0.69863  1.0000
  H   H3417     1.0  0.73701  0.91672  0.94585  1.0000
  H   H3418     1.0  0.83730  0.80548  0.73249  1.0000
  H   H3419     1.0  0.84465  0.78623  0.72741  1.0000
  H   H3420     1.0  0.82124  0.98017  0.70753  1.0000
  C   C1997     1.0  0.74472  0.96568  0.53823  1.0000
  H   H3421     1.0  0.94596  0.78016  0.97014  1.0000
  S   S575      1.0  0.64878  0.79991  0.64771  1.0000
  C   C1998     1.0  0.71559  0.86916  0.93416  1.0000
  C   C1999     1.0  0.77211  0.96144  0.49706  1.0000
  H   H3422     1.0  0.88474  0.79713  0.96884  1.0000
  C   C2000     1.0  0.72976  0.91085  0.92686  1.0000
  H   H3423     1.0  0.67666  0.81117  0.69635  1.0000
  H   H3424     1.0  0.77953  0.92403  0.97006  1.0000
  H   H3425     1.0  0.96209  0.78690  0.94473  1.0000
  S   S576      1.0  0.89855  0.76324  0.89515  1.0000
  H   H3426     1.0  0.65346  0.79035  0.58190  1.0000
  C   C2001     1.0  0.82641  0.85826  0.94305  1.0000
  C   C2002     1.0  0.79489  0.82058  0.92573  1.0000
  C   C2003     1.0  0.65324  0.85328  0.88835  1.0000
  C   C2004     1.0  0.77008  0.88650  0.49627  1.0000
  C   C2005     1.0  0.68562  0.86882  0.94926  1.0000
  C   C2006     1.0  0.78744  0.95091  0.73409  1.0000
  H   H3427     1.0  0.80771  0.97857  0.51623  1.0000
  C   C2007     1.0  0.79797  0.98470  0.52411  1.0000
  H   H3428     1.0  0.80760  0.82024  0.93588  1.0000
  H   H3429     1.0  0.66302  0.81478  0.90080  1.0000
  H   H3430     1.0  0.72995  0.92286  0.91489  1.0000
  H   H3431     1.0  0.65838  0.82082  0.58295  1.0000
  H   H3432     1.0  0.77637  0.87706  0.50348  1.0000
  C   C2008     1.0  0.66836  0.84587  0.80564  1.0000
  H   H3433     1.0  0.94656  0.79916  0.94956  1.0000
  H   H3434     1.0  0.81323  0.88621  0.93467  1.0000
  N   N142      1.0  0.79308  0.96938  0.69067  1.0000
  C   C2009     1.0  0.77773  0.95532  0.54299  1.0000
  H   H3435     1.0  0.80800  0.94552  0.65903  1.0000
  C   C2010     1.0  0.77519  0.97254  0.69471  1.0000
  N   N143      1.0  0.70630  0.88075  0.94741  1.0000
  N   N144      1.0  0.77810  0.97035  0.52394  1.0000
  H   H3436     1.0  0.78285  0.81561  0.93904  1.0000
  H   H3437     1.0  0.67225  0.85208  0.55696  1.0000
  H   H3438     1.0  0.65563  0.83197  0.84001  1.0000
  H   H3439     1.0  0.80405  0.94848  0.70254  1.0000
  H   H3440     1.0  0.79621  0.97852  0.65013  1.0000
  H   H3441     1.0  0.70181  0.90618  0.93773  1.0000
  H   H3442     1.0  0.79128  0.81036  0.90904  1.0000
  H   H3443     1.0  0.79076  0.94050  0.51764  1.0000
  H   H3444     1.0  0.73590  0.97392  0.54152  1.0000
  C   C2011     1.0  0.77236  0.90983  0.97649  1.0000
  C   C2012     1.0  0.65214  0.83007  0.81866  1.0000
  H   H3445     1.0  0.79861  0.88142  0.97170  1.0000
  H   H3446     1.0  0.83434  0.87260  0.95123  1.0000
  H   H3447     1.0  0.65760  0.86850  0.95447  1.0000
  C   C2013     1.0  0.97061  0.80677  0.97775  1.0000
  H   H3448     1.0  0.76442  0.99034  0.52126  1.0000
  H   H3449     1.0  0.68306  0.85937  0.96637  1.0000
  H   H3450     1.0  0.71677  0.85058  0.96654  1.0000
  C   C2014     1.0  0.77389  0.99009  0.68232  1.0000
  H   H3451     1.0  0.79368  0.84017  0.96755  1.0000
  C   C2015     1.0  0.71534  0.88637  0.97433  1.0000
  H   H3452     1.0  0.73088  0.89258  0.97348  1.0000
  H   H3453     1.0  0.70680  0.91058  0.97937  1.0000
  C   C2016     1.0  0.89818  0.77883  0.98217  1.0000
  H   H3454     1.0  0.77595  0.99069  0.66092  1.0000
  H   H3455     1.0  0.84142  0.74244  0.95239  1.0000
  H   H3456     1.0  0.85903  0.74328  0.91283  1.0000
