data_image0
_chemical_formula_structural       FeS2FeS2FeSFeHS2FeS2FeSHFe2S3H2C2H4C2HC2H3C6H4NHCSHC2HCH2CHC2HNC4H17CHCH3CHC4HCNC3H2CH9CHCH5C2HC3H6CH2CH3CHC2H3SCHCH2CHCFeSHFeS2FeSFeS3H5CH3CHC3HCH2CHC2H2C3H3CNH3CHCSH2NHCH2C2HCHCH6CH7C3FeS2FeSHFeHFeHS2H6C3H4NC2HCH8C2H2CHC3HC2H3C2H2SCHSHSHNH3FeSCFeS2FeHFeS3HCHCH2C2HCSHC6H4C2H4SH2CHNHCH5C3HCH5NH4CHCH2CHCHCHCH4CHC3HCH4NHCHCH8C2HC2HCHCH2C2HCH2NCHCH5CHC2H2CH4FeS2FeSCFeSFeS3HC2H2C3H2C6H4C3H2NHC3H3CHCHCH8SH3CH2C2H7CH2C4H2CH4CHC2FeS2FeSFeSFeHS2HCHC6H6C3H6NH3CH3CNC8H5CH4CH3CH3C2HCH8SH2SHFeSFeS2FeSFeS3H2C2HC7HC2H2CHCH4CH3C2H4CHCHC2H5CHCH4SHCH4CH3C2H3CHC3HNH6NCHSHC3H2CH4CHC7H2CH6CH3CHNH2C2H6CHCH3CH4CH3CH5CH4CFeS2FeS2FeSFeHS2FeS2FeSFe2NS2HC2SC5H3C2HCH3C6H5CH2C2H2NH3CHCH5SHSHC3H8CH3CHCH8C2H7C2HCHC2HCH6CNHC2HCHCNH3C3H7CFeSCFeS2FeHFeHS2FeS2FeS2FeSFeS2CH3NC2SHC6H6CH2C3H5C2SC2H2CH3C2H4CH4CSHCHCH2SH2CHNH3NHC3SHCH3CHCHCHC2H4CH3CH2CH3
_chemical_formula_sum              "Fe48 S96 H576 C336 N24"
_cell_length_a       30.5533
_cell_length_b       30.3207
_cell_length_c       56.983
_cell_angle_alpha    90.2208
_cell_angle_beta     89.8651
_cell_angle_gamma    120.103

_space_group_name_H-M_alt    "P 1"
_space_group_IT_number       1

loop_
  _space_group_symop_operation_xyz
  'x, y, z'

loop_
  _atom_site_type_symbol
  _atom_site_label
  _atom_site_symmetry_multiplicity
  _atom_site_fract_x
  _atom_site_fract_y
  _atom_site_fract_z
  _atom_site_occupancy
  Fe  Fe1       1.0  0.07628  0.31457  0.15883  1.0000
  S   S1        1.0  0.14377  0.39205  0.16604  1.0000
  S   S2        1.0  0.00633  0.29770  0.18060  1.0000
  Fe  Fe2       1.0  0.13412  0.29278  0.11977  1.0000
  S   S3        1.0  0.20471  0.36858  0.12501  1.0000
  S   S4        1.0  0.12981  0.23053  0.09511  1.0000
  Fe  Fe3       1.0  0.18892  0.35202  0.16350  1.0000
  S   S5        1.0  0.24406  0.36355  0.19271  1.0000
  Fe  Fe4       1.0  0.15250  0.40164  0.12690  1.0000
  H   H1        1.0  0.16890  0.21710  0.18173  1.0000
  S   S6        1.0  0.12119  0.27434  0.15852  1.0000
  S   S7        1.0  0.08237  0.32612  0.11942  1.0000
  Fe  Fe5       1.0  0.36000  0.19592  0.22229  1.0000
  S   S8        1.0  0.28211  0.12951  0.22760  1.0000
  S   S9        1.0  0.37527  0.25409  0.19403  1.0000
  Fe  Fe6       1.0  0.40792  0.15991  0.25939  1.0000
  S   S10       1.0  0.33223  0.09103  0.26770  1.0000
  H   H2        1.0  0.12481  0.34923  0.29934  1.0000
  Fe  Fe7       1.0  0.32017  0.08269  0.22843  1.0000
  Fe  Fe8       1.0  0.30052  0.14415  0.26622  1.0000
  S   S11       1.0  0.23665  0.14102  0.28844  1.0000
  S   S12       1.0  0.39772  0.14843  0.22034  1.0000
  S   S13       1.0  0.37645  0.21370  0.26061  1.0000
  H   H3        1.0  0.16623  0.98341  0.15119  1.0000
  H   H4        1.0  0.19650  0.00055  0.07423  1.0000
  C   C1        1.0  0.24458  0.18011  0.31335  1.0000
  C   C2        1.0  0.20278  0.18286  0.32201  1.0000
  H   H5        1.0  0.13269  0.35758  0.25552  1.0000
  H   H6        1.0  0.16681  0.16231  0.31306  1.0000
  H   H7        1.0  0.43300  0.04163  0.02758  1.0000
  H   H8        1.0  0.41320  0.06587  0.10507  1.0000
  C   C3        1.0  0.17530  0.23935  0.07326  1.0000
  C   C4        1.0  0.21330  0.28788  0.06642  1.0000
  H   H9        1.0  0.09693  0.39795  0.27589  1.0000
  C   C5        1.0  0.20955  0.20192  0.04557  1.0000
  C   C6        1.0  0.17349  0.19639  0.06263  1.0000
  H   H10       1.0  0.21519  0.32130  0.07432  1.0000
  H   H11       1.0  0.20824  0.16868  0.03787  1.0000
  H   H12       1.0  0.14416  0.15865  0.06770  1.0000
  C   C7        1.0  0.27842  0.33091  0.19231  1.0000
  C   C8        1.0  0.31393  0.34022  0.17465  1.0000
  C   C9        1.0  0.34373  0.31686  0.17550  1.0000
  C   C10       1.0  0.33828  0.28398  0.19398  1.0000
  C   C11       1.0  0.30291  0.27474  0.21168  1.0000
  C   C12       1.0  0.27350  0.29859  0.21096  1.0000
  H   H13       1.0  0.31892  0.36607  0.16052  1.0000
  H   H14       1.0  0.37114  0.32435  0.16179  1.0000
  H   H15       1.0  0.29853  0.24967  0.22609  1.0000
  H   H16       1.0  0.24696  0.29211  0.22497  1.0000
  N   N1        1.0  0.05610  0.28644  0.28433  1.0000
  H   H17       1.0  0.13935  0.01931  0.21195  1.0000
  C   C13       1.0  0.00359  0.25099  0.29362  1.0000
  S   S14       1.0  0.29426  0.00605  0.21045  1.0000
  H   H18       1.0  0.03261  0.31976  0.25673  1.0000
  C   C14       1.0  0.22290  0.99502  0.17699  1.0000
  C   C15       1.0  0.17281  0.98750  0.23519  1.0000
  H   H19       1.0  0.00176  0.20244  0.19530  1.0000
  C   C16       1.0  0.39214  0.01904  0.02732  1.0000
  H   H20       1.0  0.10287  0.26988  0.32348  1.0000
  H   H21       1.0  0.40259  0.03001  0.07808  1.0000
  C   C17       1.0  0.18754  0.01196  0.27630  1.0000
  H   H22       1.0  0.45290  0.30958  0.23468  1.0000
  C   C18       1.0  0.33660  0.09005  0.13333  1.0000
  C   C19       1.0  0.23201  0.99890  0.07449  1.0000
  H   H23       1.0  0.09657  0.34151  0.22880  1.0000
  N   N2        1.0  0.20835  0.17956  0.14226  1.0000
  C   C20       1.0  0.19149  0.15447  0.11852  1.0000
  C   C21       1.0  0.25340  0.17664  0.15115  1.0000
  C   C22       1.0  0.17440  0.09738  0.11694  1.0000
  C   C23       1.0  0.24255  0.12923  0.16565  1.0000
  H   H24       1.0  0.15126  0.11533  0.16229  1.0000
  H   H25       1.0  0.15967  0.15899  0.11190  1.0000
  H   H26       1.0  0.22222  0.17302  0.10532  1.0000
  H   H27       1.0  0.27853  0.17961  0.13631  1.0000
  H   H28       1.0  0.27746  0.20980  0.16264  1.0000
  H   H29       1.0  0.25805  0.45370  0.16660  1.0000
  H   H30       1.0  0.20713  0.09122  0.11829  1.0000
  H   H31       1.0  0.15768  0.08314  0.09930  1.0000
  H   H32       1.0  0.14475  0.07382  0.12987  1.0000
  H   H33       1.0  0.22576  0.12879  0.18295  1.0000
  H   H34       1.0  0.27901  0.13078  0.16934  1.0000
  H   H35       1.0  0.21784  0.09277  0.15662  1.0000
  H   H36       1.0  0.36669  0.11863  0.12181  1.0000
  H   H37       1.0  0.12463  0.28277  0.27902  1.0000
  H   H38       1.0  0.30279  0.09455  0.13289  1.0000
  H   H39       1.0  0.25504  0.02154  0.05935  1.0000
  H   H40       1.0  0.19049  0.23850  0.13374  1.0000
  C   C24       1.0  0.09021  0.23959  0.30990  1.0000
  H   H41       1.0  0.30176  0.26451  0.12648  1.0000
  C   C25       1.0  0.26739  0.26646  0.12223  1.0000
  H   H42       1.0  0.13045  0.15564  0.15077  1.0000
  H   H43       1.0  0.00491  0.23922  0.31190  1.0000
  H   H44       1.0  0.42653  0.09765  0.07801  1.0000
  C   C26       1.0  0.24852  0.29337  0.04898  1.0000
  H   H45       1.0  0.02430  0.44410  0.06982  1.0000
  C   C27       1.0  0.34577  0.05281  0.08449  1.0000
  C   C28       1.0  0.08514  0.25821  0.28537  1.0000
  C   C29       1.0  0.20696  0.21155  0.34235  1.0000
  C   C30       1.0  0.07664  0.37976  0.29236  1.0000
  H   H46       1.0  0.30926  0.45337  0.15203  1.0000
  C   C31       1.0  0.36377  0.04129  0.02033  1.0000
  N   N3        1.0  0.30695  0.01843  0.10217  1.0000
  C   C32       1.0  0.32346  0.03521  0.12712  1.0000
  C   C33       1.0  0.25933  0.02082  0.09806  1.0000
  C   C34       1.0  0.10251  0.32571  0.24530  1.0000
  H   H47       1.0  0.33342  0.03729  0.06657  1.0000
  H   H48       1.0  0.34851  0.09079  0.08350  1.0000
  C   C35       1.0  0.08319  0.33414  0.29918  1.0000
  H   H49       1.0  0.27768  0.30711  0.12356  1.0000
  H   H50       1.0  0.25652  0.25540  0.10369  1.0000
  H   H51       1.0  0.15924  0.05192  0.23938  1.0000
  H   H52       1.0  0.09356  0.40917  0.30641  1.0000
  H   H53       1.0  0.35112  0.09859  0.15163  1.0000
  H   H54       1.0  0.16020  0.02609  0.27662  1.0000
  H   H55       1.0  0.07152  0.32526  0.31785  1.0000
  H   H56       1.0  0.03675  0.36985  0.29063  1.0000
  H   H57       1.0  0.11576  0.29904  0.24003  1.0000
  C   C36       1.0  0.39966  0.06125  0.08679  1.0000
  H   H58       1.0  0.98494  0.21501  0.28313  1.0000
  C   C37       1.0  0.16386  0.15594  0.15885  1.0000
  H   H59       1.0  0.06775  0.22433  0.27347  1.0000
  H   H60       1.0  0.22441  0.02839  0.18466  1.0000
  H   H61       1.0  0.02792  0.26124  0.24920  1.0000
  H   H62       1.0  0.14300  0.15639  0.19553  1.0000
  H   H63       1.0  0.27724  0.33120  0.04360  1.0000
  C   C38       1.0  0.22340  0.23490  0.13937  1.0000
  C   C39       1.0  0.29077  0.20666  0.32521  1.0000
  H   H64       1.0  0.32315  0.20466  0.31890  1.0000
  C   C40       1.0  0.24697  0.25058  0.03841  1.0000
  C   C41       1.0  0.05204  0.29744  0.25887  1.0000
  C   C42       1.0  0.17247  0.18249  0.18299  1.0000
  H   H65       1.0  0.23542  0.25533  0.15638  1.0000
  H   H66       1.0  0.20994  0.19352  0.19058  1.0000
  H   H67       1.0  0.26722  0.06080  0.09868  1.0000
  H   H68       1.0  0.21265  0.01594  0.23067  1.0000
  H   H69       1.0  0.11910  0.22756  0.30910  1.0000
  H   H70       1.0  0.20003  0.03521  0.31294  1.0000
  C   C43       1.0  0.97815  0.20989  0.20693  1.0000
  H   H71       1.0  0.35684  0.03209  0.13206  1.0000
  H   H72       1.0  0.05438  0.20562  0.31551  1.0000
  C   C44       1.0  0.97476  0.25385  0.20380  1.0000
  H   H73       1.0  0.22390  0.04487  0.27026  1.0000
  H   H74       1.0  0.45813  0.37418  0.20866  1.0000
  H   H75       1.0  0.22981  0.00011  0.30454  1.0000
  C   C45       1.0  0.29469  0.23451  0.34577  1.0000
  H   H76       1.0  0.17439  0.21282  0.34895  1.0000
  C   C46       1.0  0.31067  0.01140  0.02012  1.0000
  C   C47       1.0  0.14117  0.01354  0.23109  1.0000
  H   H77       1.0  0.29339  0.00915  0.13943  1.0000
  H   H78       1.0  0.23119  0.00021  0.11217  1.0000
  H   H79       1.0  0.99574  0.45880  0.04590  1.0000
  S   S15       1.0  0.17308  0.47370  0.10524  1.0000
  C   C48       1.0  0.19487  0.00224  0.30217  1.0000
  H   H80       1.0  0.97776  0.30083  0.30869  1.0000
  C   C49       1.0  0.03011  0.47403  0.05694  1.0000
  H   H81       1.0  0.10189  0.99035  0.23762  1.0000
  H   H82       1.0  0.24660  0.98013  0.25801  1.0000
  C   C50       1.0  0.96700  0.27193  0.29458  1.0000
  H   H83       1.0  0.96337  0.28746  0.27765  1.0000
  C   C51       1.0  0.41238  0.35208  0.39182  1.0000
  Fe  Fe9       1.0  0.23074  0.39087  0.42981  1.0000
  S   S16       1.0  0.21524  0.31129  0.43763  1.0000
  H   H84       1.0  0.37489  0.33972  0.38406  1.0000
  Fe  Fe10      1.0  0.14507  0.34757  0.39324  1.0000
  S   S17       1.0  0.12577  0.26662  0.39844  1.0000
  S   S18       1.0  0.10381  0.36610  0.36551  1.0000
  Fe  Fe11      1.0  0.13241  0.28690  0.43703  1.0000
  S   S19       1.0  0.07218  0.22796  0.46170  1.0000
  Fe  Fe12      1.0  0.21003  0.29855  0.39842  1.0000
  S   S20       1.0  0.25973  0.27047  0.38132  1.0000
  S   S21       1.0  0.14748  0.36674  0.43167  1.0000
  S   S22       1.0  0.22939  0.37912  0.39076  1.0000
  H   H85       1.0  0.36419  0.35709  0.46261  1.0000
  H   H86       1.0  0.09117  0.27323  0.58096  1.0000
  H   H87       1.0  0.96472  0.20971  0.63677  1.0000
  H   H88       1.0  0.06126  0.31028  0.57736  1.0000
  H   H89       1.0  0.43564  0.43007  0.45151  1.0000
  C   C52       1.0  0.05505  0.27097  0.57595  1.0000
  H   H90       1.0  0.32427  0.38241  0.43323  1.0000
  H   H91       1.0  0.38657  0.32877  0.44106  1.0000
  H   H92       1.0  0.02874  0.28552  0.43566  1.0000
  C   C53       1.0  0.42319  0.44921  0.43872  1.0000
  H   H93       1.0  0.07557  0.19899  0.56307  1.0000
  C   C54       1.0  0.02294  0.29412  0.50975  1.0000
  C   C55       1.0  0.05107  0.28754  0.49182  1.0000
  C   C56       1.0  0.03731  0.23862  0.48384  1.0000
  H   H94       1.0  0.98342  0.15850  0.48761  1.0000
  C   C57       1.0  0.99442  0.19652  0.49369  1.0000
  H   H95       1.0  0.03471  0.33213  0.51613  1.0000
  H   H96       1.0  0.08396  0.32027  0.48446  1.0000
  C   C58       1.0  0.43520  0.40145  0.40684  1.0000
  H   H97       1.0  0.99930  0.17773  0.55325  1.0000
  C   C59       1.0  0.98021  0.25212  0.51968  1.0000
  C   C60       1.0  0.00519  0.30382  0.43609  1.0000
  H   H98       1.0  0.41053  0.32007  0.40204  1.0000
  H   H99       1.0  0.05851  0.19408  0.61221  1.0000
  C   C61       1.0  0.01190  0.23618  0.59271  1.0000
  C   C62       1.0  0.35654  0.33780  0.44527  1.0000
  C   C63       1.0  0.03505  0.16880  0.59760  1.0000
  H   H100      1.0  0.04620  0.25995  0.55728  1.0000
  H   H101      1.0  0.02804  0.34183  0.42777  1.0000
  H   H102      1.0  0.99854  0.31079  0.45451  1.0000
  C   C64       1.0  0.36124  0.41843  0.37709  1.0000
  N   N4        1.0  0.99342  0.17979  0.59140  1.0000
  H   H103      1.0  0.02651  0.25154  0.61051  1.0000
  H   H104      1.0  0.39548  0.45605  0.44843  1.0000
  H   H105      1.0  0.10991  0.18787  0.58500  1.0000
  C   C65       1.0  0.03700  0.33297  0.36509  1.0000
  H   H106      1.0  0.33028  0.25377  0.35510  1.0000
  C   C66       1.0  0.07142  0.17315  0.57758  1.0000
  S   S23       1.0  0.29441  0.45363  0.45244  1.0000
  H   H107      1.0  0.97996  0.24330  0.58956  1.0000
  H   H108      1.0  0.06042  0.13489  0.57035  1.0000
  N   N5        1.0  0.39856  0.41551  0.41757  1.0000
  H   H109      1.0  0.01835  0.12911  0.60435  1.0000
  C   C67       1.0  0.35034  0.36999  0.42608  1.0000
  H   H110      1.0  0.02798  0.26019  0.35523  1.0000
  H   H111      1.0  0.43817  0.35798  0.37688  1.0000
  C   C68       1.0  0.97104  0.16014  0.56744  1.0000
  C   C69       1.0  0.96315  0.17255  0.63458  1.0000
  H   H112      1.0  0.32039  0.30106  0.44702  1.0000
  C   C70       1.0  0.00882  0.28151  0.35832  1.0000
  H   H113      1.0  0.32867  0.34371  0.41170  1.0000
  C   C71       1.0  0.38534  0.44495  0.40049  1.0000
  H   H114      1.0  0.32621  0.38134  0.37948  1.0000
  H   H115      1.0  0.00718  0.23035  0.40203  1.0000
  H   H116      1.0  0.99860  0.17518  0.64098  1.0000
  H   H117      1.0  0.38852  0.41387  0.36595  1.0000
  H   H118      1.0  0.96909  0.08630  0.57028  1.0000
  H   H119      1.0  0.35899  0.45563  0.40888  1.0000
  C   C72       1.0  0.01203  0.36047  0.36866  1.0000
  H   H120      1.0  0.03352  0.40038  0.37345  1.0000
  H   H121      1.0  0.35029  0.44285  0.36714  1.0000
  H   H122      1.0  0.96553  0.27547  0.40353  1.0000
  H   H123      1.0  0.45734  0.39610  0.42093  1.0000
  H   H124      1.0  0.97727  0.20180  0.44326  1.0000
  H   H125      1.0  0.96461  0.42806  0.65484  1.0000
  H   H126      1.0  0.99291  0.16678  0.40733  1.0000
  C   C73       1.0  0.25287  0.23706  0.35454  1.0000
  C   C74       1.0  0.97569  0.19138  0.40580  1.0000
  C   C75       1.0  0.96560  0.20321  0.51128  1.0000
  Fe  Fe13      1.0  0.29315  0.13519  0.95385  1.0000
  S   S24       1.0  0.37275  0.14985  0.95346  1.0000
  S   S25       1.0  0.22750  0.07405  0.93220  1.0000
  Fe  Fe14      1.0  0.31575  0.21282  0.99391  1.0000
  S   S26       1.0  0.39721  0.23210  0.99627  1.0000
  H   H127      1.0  0.12248  0.03069  0.80959  1.0000
  Fe  Fe15      1.0  0.39812  0.23377  0.95686  1.0000
  H   H128      1.0  0.11117  0.06297  0.93289  1.0000
  Fe  Fe16      1.0  0.36539  0.14725  0.99274  1.0000
  H   H129      1.0  0.18669  0.08607  0.78120  1.0000
  S   S27       1.0  0.31818  0.21905  0.95435  1.0000
  S   S28       1.0  0.28448  0.12799  0.99330  1.0000
  H   H130      1.0  0.14638  0.21374  0.00174  1.0000
  H   H131      1.0  0.23487  0.04180  0.83376  1.0000
  H   H132      1.0  0.12517  0.06769  0.77052  1.0000
  H   H133      1.0  0.44994  0.46616  0.93079  1.0000
  H   H134      1.0  0.10228  0.15296  0.95210  1.0000
  H   H135      1.0  0.14920  0.06235  0.96700  1.0000
  C   C76       1.0  0.23695  0.04037  0.90883  1.0000
  C   C77       1.0  0.28433  0.05881  0.89829  1.0000
  C   C78       1.0  0.29007  0.03308  0.87891  1.0000
  H   H136      1.0  0.23246  0.24367  0.97277  1.0000
  H   H137      1.0  0.06679  0.09899  0.00006  1.0000
  H   H138      1.0  0.31641  0.09363  0.90471  1.0000
  H   H139      1.0  0.22145  0.02979  0.78051  1.0000
  N   N6        1.0  0.13174  0.12083  0.97762  1.0000
  C   C79       1.0  0.12762  0.06936  0.98088  1.0000
  C   C80       1.0  0.10260  0.11729  0.95567  1.0000
  H   H140      1.0  0.08931  0.18709  0.98366  1.0000
  C   C81       1.0  0.18702  0.16098  0.97596  1.0000
  H   H141      1.0  0.15274  0.02750  0.00280  1.0000
  H   H142      1.0  0.18325  0.09391  0.00990  1.0000
  H   H143      1.0  0.16979  0.22117  0.96308  1.0000
  H   H144      1.0  0.16250  0.12786  0.93038  1.0000
  H   H145      1.0  0.10219  0.10905  0.91762  1.0000
  H   H146      1.0  0.11840  0.05141  0.01860  1.0000
  H   H147      1.0  0.21433  0.07891  0.81753  1.0000
  H   H148      1.0  0.06187  0.08805  0.95787  1.0000
  C   C82       1.0  0.10741  0.18119  0.99921  1.0000
  C   C83       1.0  0.14682  0.06069  0.00449  1.0000
  H   H149      1.0  0.21385  0.21219  0.94540  1.0000
  H   H150      1.0  0.20800  0.14557  0.96612  1.0000
  C   C84       1.0  0.23367  0.05638  0.81612  1.0000
  H   H151      1.0  0.32671  0.04852  0.87059  1.0000
  C   C85       1.0  0.20846  0.01246  0.79808  1.0000
  C   C86       1.0  0.12584  0.01112  0.79367  1.0000
  C   C87       1.0  0.15102  0.05303  0.77479  1.0000
  H   H152      1.0  0.27360  0.08248  0.81091  1.0000
  C   C88       1.0  0.20011  0.21157  0.96353  1.0000
  C   C89       1.0  0.24895  0.98790  0.87008  1.0000
  H   H153      1.0  0.20445  0.17079  0.99372  1.0000
  H   H154      1.0  0.08763  0.03797  0.97894  1.0000
  H   H155      1.0  0.12570  0.12987  0.01512  1.0000
  C   C90       1.0  0.12115  0.10359  0.93302  1.0000
  C   C91       1.0  0.10693  0.13020  0.99850  1.0000
  H   H156      1.0  0.08551  0.18137  0.01478  1.0000
  H   H157      1.0  0.22552  0.98773  0.80048  1.0000
  S   S29       1.0  0.29183  0.26063  0.01602  1.0000
  C   C92       1.0  0.19560  0.99520  0.89999  1.0000
  H   H158      1.0  0.15884  0.03930  0.75823  1.0000
  S   S30       1.0  0.39701  0.10765  0.01464  1.0000
  H   H159      1.0  0.08611  0.98514  0.78792  1.0000
  S   S31       1.0  0.45997  0.29220  0.93226  1.0000
  H   H160      1.0  0.28837  0.02824  0.01476  1.0000
  N   N7        1.0  0.15155  0.98097  0.79942  1.0000
  H   H161      1.0  0.14887  0.99293  0.83697  1.0000
  H   H162      1.0  0.15871  0.98077  0.90789  1.0000
  H   H163      1.0  0.11359  0.58947  0.04282  1.0000
  Fe  Fe17      1.0  0.09855  0.75968  0.05825  1.0000
  S   S32       1.0  0.16272  0.74293  0.05718  1.0000
  C   C93       1.0  0.19819  0.90353  0.24552  1.0000
  Fe  Fe18      1.0  0.14815  0.83434  0.10034  1.0000
  S   S33       1.0  0.21294  0.81959  0.10197  1.0000
  S   S34       1.0  0.14711  0.89606  0.12340  1.0000
  Fe  Fe19      1.0  0.21332  0.82745  0.06270  1.0000
  H   H164      1.0  0.24691  0.59243  0.18984  1.0000
  Fe  Fe20      1.0  0.15579  0.73620  0.09638  1.0000
  S   S35       1.0  0.14824  0.67026  0.11947  1.0000
  S   S36       1.0  0.15046  0.84497  0.06094  1.0000
  S   S37       1.0  0.08997  0.75050  0.09759  1.0000
  H   H165      1.0  0.31949  0.90908  0.10415  1.0000
  C   C94       1.0  0.11769  0.92648  0.26661  1.0000
  H   H166      1.0  0.05755  0.89819  0.23992  1.0000
  C   C95       1.0  0.05440  0.60987  0.07082  1.0000
  H   H167      1.0  0.27194  0.49662  0.12853  1.0000
  H   H168      1.0  0.05300  0.64031  0.06071  1.0000
  C   C96       1.0  0.18763  0.92586  0.14784  1.0000
  C   C97       1.0  0.21829  0.90797  0.15694  1.0000
  H   H169      1.0  0.33616  0.58170  0.10290  1.0000
  C   C98       1.0  0.31549  0.93814  0.03477  1.0000
  S   S38       1.0  0.28891  0.87438  0.04460  1.0000
  H   H170      1.0  0.21681  0.87446  0.14938  1.0000
  C   C99       1.0  0.16186  0.52589  0.10867  1.0000
  C   C100      1.0  0.13739  0.53125  0.12833  1.0000
  C   C101      1.0  0.13327  0.57538  0.13116  1.0000
  C   C102      1.0  0.15294  0.61459  0.11430  1.0000
  C   C103      1.0  0.17659  0.60881  0.09440  1.0000
  C   C104      1.0  0.18105  0.56484  0.09166  1.0000
  H   H171      1.0  0.16147  0.95765  0.22157  1.0000
  H   H172      1.0  0.11491  0.57933  0.14664  1.0000
  H   H173      1.0  0.19228  0.63865  0.08134  1.0000
  H   H174      1.0  0.20033  0.56138  0.07642  1.0000
  C   C105      1.0  0.28648  0.95997  0.02771  1.0000
  C   C106      1.0  0.35148  0.64810  0.17283  1.0000
  H   H175      1.0  0.98084  0.52293  0.02932  1.0000
  H   H176      1.0  0.21274  0.51007  0.15150  1.0000
  H   H177      1.0  0.37095  0.59130  0.16467  1.0000
  H   H178      1.0  0.32539  0.57330  0.18720  1.0000
  S   S39       1.0  0.03360  0.70638  0.03361  1.0000
  H   H179      1.0  0.32106  0.94261  0.13027  1.0000
  H   H180      1.0  0.10571  0.88223  0.23295  1.0000
  C   C107      1.0  0.25052  0.93302  0.17610  1.0000
  H   H181      1.0  0.22657  0.60021  0.16076  1.0000
  N   N8        1.0  0.03759  0.56281  0.05597  1.0000
  H   H182      1.0  0.29102  0.62559  0.13727  1.0000
  C   C108      1.0  0.29412  0.96370  0.09885  1.0000
  H   H183      1.0  0.16392  0.86775  0.25092  1.0000
  H   H184      1.0  0.06108  0.84985  0.25557  1.0000
  H   H185      1.0  0.20798  0.93510  0.27961  1.0000
  H   H186      1.0  0.09827  0.65731  0.02805  1.0000
  H   H187      1.0  0.12234  0.50180  0.14158  1.0000
  C   C109      1.0  0.33563  0.59137  0.16954  1.0000
  C   C110      1.0  0.20740  0.94843  0.26153  1.0000
  C   C111      1.0  0.36827  0.96783  0.03413  1.0000
  H   H188      1.0  0.37803  0.66390  0.18789  1.0000
  C   C112      1.0  0.34036  0.61219  0.11516  1.0000
  H   H189      1.0  0.18522  0.54947  0.17935  1.0000
  H   H190      1.0  0.09467  0.62613  0.07608  1.0000
  H   H191      1.0  0.22070  0.95826  0.07207  1.0000
  H   H192      1.0  0.25523  0.93695  0.10543  1.0000
  H   H193      1.0  0.06476  0.54386  0.02438  1.0000
  N   N9        1.0  0.29382  0.56082  0.15213  1.0000
  H   H194      1.0  0.26024  0.56948  0.12045  1.0000
  H   H195      1.0  0.33813  0.53328  0.13389  1.0000
  H   H196      1.0  0.98516  0.59615  0.08910  1.0000
  H   H197      1.0  0.23062  0.89687  0.24741  1.0000
  C   C113      1.0  0.22541  0.57269  0.17382  1.0000
  H   H198      1.0  0.34264  0.64351  0.10419  1.0000
  C   C114      1.0  0.24263  0.53656  0.16388  1.0000
  H   H199      1.0  0.02292  0.57510  0.10552  1.0000
  H   H200      1.0  0.37201  0.67118  0.15729  1.0000
  C   C115      1.0  0.07491  0.57720  0.03598  1.0000
  H   H201      1.0  0.11941  0.90437  0.28179  1.0000
  C   C116      1.0  0.30056  0.51809  0.14247  1.0000
  H   H202      1.0  0.29336  0.95450  0.07990  1.0000
  C   C117      1.0  0.29407  0.59220  0.13159  1.0000
  H   H203      1.0  0.98124  0.57772  0.04086  1.0000
  C   C118      1.0  0.08477  0.88783  0.24736  1.0000
  H   H204      1.0  0.27362  0.91840  0.18313  1.0000
  H   H205      1.0  0.31943  0.65415  0.17669  1.0000
  H   H206      1.0  0.09554  0.94435  0.27286  1.0000
  H   H207      1.0  0.07943  0.53906  0.07810  1.0000
  C   C119      1.0  0.04102  0.52286  0.07030  1.0000
  H   H208      1.0  0.04238  0.64037  0.10305  1.0000
  C   C120      1.0  0.02375  0.60375  0.09327  1.0000
  C   C121      1.0  0.29741  0.47878  0.16053  1.0000
  C   C122      1.0  0.32847  0.94702  0.11108  1.0000
  H   H209      1.0  0.24564  0.93714  0.02786  1.0000
  C   C123      1.0  0.98555  0.54454  0.04589  1.0000
  H   H210      1.0  0.37643  0.62706  0.12489  1.0000
  H   H211      1.0  0.39098  0.95131  0.03935  1.0000
  H   H212      1.0  0.19651  0.91118  0.22667  1.0000
  H   H213      1.0  0.16171  0.96768  0.30933  1.0000
  N   N10       1.0  0.17031  0.96736  0.25963  1.0000
  H   H214      1.0  0.01547  0.51042  0.08566  1.0000
  C   C124      1.0  0.25329  0.97678  0.18616  1.0000
  H   H215      1.0  0.24091  0.51267  0.17901  1.0000
  C   C125      1.0  0.18992  0.96937  0.15807  1.0000
  H   H216      1.0  0.32249  0.49680  0.17586  1.0000
  H   H217      1.0  0.36914  0.97307  0.10790  1.0000
  H   H218      1.0  0.06296  0.48072  0.04597  1.0000
  H   H219      1.0  0.28259  0.61181  0.45890  1.0000
  H   H220      1.0  0.43441  0.72052  0.45003  1.0000
  H   H221      1.0  0.29748  0.67414  0.46849  1.0000
  H   H222      1.0  0.33743  0.62793  0.49059  1.0000
  H   H223      1.0  0.44297  0.79839  0.51163  1.0000
  C   C126      1.0  0.42935  0.58460  0.46351  1.0000
  C   C127      1.0  0.38451  0.53712  0.46635  1.0000
  H   H224      1.0  0.33219  0.52503  0.41246  1.0000
  C   C128      1.0  0.35899  0.54129  0.42674  1.0000
  C   C129      1.0  0.40348  0.58911  0.42402  1.0000
  H   H225      1.0  0.01481  0.54207  0.65798  1.0000
  C   C130      1.0  0.35651  0.65374  0.47547  1.0000
  H   H226      1.0  0.40146  0.62022  0.50818  1.0000
  C   C131      1.0  0.34916  0.51485  0.44796  1.0000
  H   H227      1.0  0.37346  0.63508  0.46495  1.0000
  H   H228      1.0  0.35664  0.74678  0.48948  1.0000
  C   C132      1.0  0.37326  0.72774  0.49989  1.0000
  C   C133      1.0  0.43901  0.61114  0.44233  1.0000
  H   H229      1.0  0.32666  0.66544  0.44234  1.0000
  C   C134      1.0  0.41893  0.65942  0.51553  1.0000
  H   H230      1.0  0.34076  0.69693  0.50971  1.0000
  H   H231      1.0  0.99109  0.49443  0.67924  1.0000
  N   N11       1.0  0.39701  0.70583  0.48378  1.0000
  C   C135      1.0  0.40773  0.76631  0.51877  1.0000
  H   H232      1.0  0.99827  0.60184  0.64266  1.0000
  C   C136      1.0  0.31367  0.65207  0.46050  1.0000
  H   H233      1.0  0.38685  0.78306  0.52750  1.0000
  H   H234      1.0  0.41038  0.60928  0.40756  1.0000
  H   H235      1.0  0.39147  0.66197  0.52738  1.0000
  H   H236      1.0  0.39028  0.74217  0.45225  1.0000
  H   H237      1.0  0.37748  0.51706  0.48284  1.0000
  C   C137      1.0  0.46207  0.79390  0.46648  1.0000
  H   H238      1.0  0.45970  0.52858  0.42601  1.0000
  C   C138      1.0  0.41949  0.73863  0.46230  1.0000
  C   C139      1.0  0.43747  0.69941  0.49572  1.0000
  H   H239      1.0  0.45631  0.60071  0.47773  1.0000
  H   H240      1.0  0.41787  0.74762  0.53271  1.0000
  C   C140      1.0  0.98530  0.52505  0.67190  1.0000
  H   H241      1.0  0.44680  0.81755  0.47362  1.0000
  H   H242      1.0  0.41939  0.48123  0.39530  1.0000
  H   H243      1.0  0.45185  0.66534  0.52621  1.0000
  H   H244      1.0  0.45734  0.68817  0.48269  1.0000
  Fe  Fe21      1.0  0.13141  0.81167  0.79100  1.0000
  S   S40       1.0  0.14683  0.74742  0.79651  1.0000
  S   S41       1.0  0.06467  0.80714  0.77055  1.0000
  Fe  Fe22      1.0  0.21283  0.88091  0.82767  1.0000
  S   S42       1.0  0.23341  0.82086  0.83552  1.0000
  C   C141      1.0  0.14432  0.82775  0.90061  1.0000
  Fe  Fe23      1.0  0.23034  0.80756  0.79642  1.0000
  S   S43       1.0  0.28832  0.80272  0.77208  1.0000
  Fe  Fe24      1.0  0.14902  0.76667  0.83481  1.0000
  S   S44       1.0  0.10603  0.71105  0.86390  1.0000
  S   S45       1.0  0.21430  0.87111  0.78840  1.0000
  S   S46       1.0  0.12916  0.82763  0.82953  1.0000
  H   H245      1.0  0.06932  0.88537  0.82069  1.0000
  C   C142      1.0  0.03383  0.71518  0.71289  1.0000
  C   C143      1.0  0.99529  0.75983  0.00938  1.0000
  H   H246      1.0  0.04671  0.81165  0.96025  1.0000
  H   H247      1.0  0.15937  0.94204  0.82958  1.0000
  C   C144      1.0  0.03965  0.68237  0.86173  1.0000
  C   C145      1.0  0.00920  0.65530  0.88089  1.0000
  C   C146      1.0  0.01686  0.68687  0.84132  1.0000
  H   H248      1.0  0.02659  0.65055  0.89644  1.0000
  H   H249      1.0  0.03995  0.70713  0.82633  1.0000
  C   C147      1.0  0.43708  0.79852  0.78173  1.0000
  C   C148      1.0  0.41807  0.79827  0.75936  1.0000
  C   C149      1.0  0.37258  0.79937  0.75684  1.0000
  C   C150      1.0  0.34518  0.80056  0.77655  1.0000
  C   C151      1.0  0.36392  0.80027  0.79891  1.0000
  C   C152      1.0  0.40930  0.79896  0.80143  1.0000
  H   H250      1.0  0.18889  0.96950  0.75437  1.0000
  H   H251      1.0  0.35836  0.79920  0.73945  1.0000
  H   H252      1.0  0.34333  0.80087  0.81427  1.0000
  H   H253      1.0  0.11223  0.73449  0.97421  1.0000
  C   C153      1.0  0.98946  0.76275  0.73716  1.0000
  C   C154      1.0  0.03517  0.76796  0.74554  1.0000
  C   C155      1.0  0.05692  0.74350  0.73342  1.0000
  H   H254      1.0  0.12579  0.95968  0.74816  1.0000
  H   H255      1.0  0.09206  0.74718  0.73962  1.0000
  N   N12       1.0  0.06849  0.78307  0.92984  1.0000
  H   H256      1.0  0.04245  0.61150  0.01227  1.0000
  C   C156      1.0  0.09995  0.76390  0.94161  1.0000
  C   C157      1.0  0.08665  0.79945  0.90497  1.0000
  C   C158      1.0  0.06788  0.82552  0.94343  1.0000
  H   H257      1.0  0.16950  0.93431  0.87423  1.0000
  H   H258      1.0  0.02179  0.79323  0.01921  1.0000
  H   H259      1.0  0.16568  0.86138  0.91203  1.0000
  C   C159      1.0  0.11938  0.87325  0.94878  1.0000
  H   H260      1.0  0.13156  0.90091  0.93409  1.0000
  C   C160      1.0  0.13311  0.93516  0.78349  1.0000
  H   H261      1.0  0.15962  0.80153  0.90236  1.0000
  C   C161      1.0  0.98844  0.71038  0.70434  1.0000
  H   H262      1.0  0.07118  0.76566  0.89314  1.0000
  H   H263      1.0  0.07210  0.82389  0.89795  1.0000
  H   H264      1.0  0.04578  0.83969  0.93380  1.0000
  H   H265      1.0  0.09848  0.73197  0.93115  1.0000
  H   H266      1.0  0.14064  0.79315  0.94212  1.0000
  H   H267      1.0  0.13697  0.90789  0.74883  1.0000
  H   H268      1.0  0.05161  0.69731  0.70344  1.0000
  H   H269      1.0  0.05662  0.93771  0.82280  1.0000
  S   S47       1.0  0.25809  0.96045  0.84413  1.0000
  H   H270      1.0  0.99759  0.72936  0.94663  1.0000
  H   H271      1.0  0.01383  0.70378  0.92250  1.0000
  H   H272      1.0  0.08634  0.77502  0.97879  1.0000
  C   C162      1.0  0.01475  0.73893  0.92884  1.0000
  H   H273      1.0  0.42326  0.79881  0.81885  1.0000
  H   H274      1.0  0.14974  0.86486  0.95291  1.0000
  C   C163      1.0  0.97744  0.74627  0.91337  1.0000
  C   C164      1.0  0.20162  0.96874  0.88090  1.0000
  H   H275      1.0  0.15189  0.84155  0.88220  1.0000
  H   H276      1.0  0.98794  0.75072  0.89452  1.0000
  H   H277      1.0  0.10368  0.62261  0.00421  1.0000
  H   H278      1.0  0.98392  0.59002  0.68998  1.0000
  H   H279      1.0  0.43850  0.79744  0.74400  1.0000
  H   H280      1.0  0.09109  0.91186  0.78364  1.0000
  H   H281      1.0  0.04706  0.71030  0.96804  1.0000
  C   C165      1.0  0.08492  0.74505  0.96708  1.0000
  H   H282      1.0  0.11579  0.89198  0.96489  1.0000
  H   H283      1.0  0.97281  0.77845  0.91944  1.0000
  C   C166      1.0  0.00024  0.56490  0.69173  1.0000
  C   C167      1.0  0.08139  0.92308  0.82886  1.0000
  C   C168      1.0  0.14775  0.94502  0.75737  1.0000
  C   C169      1.0  0.96601  0.73387  0.71677  1.0000
  H   H284      1.0  0.97235  0.78157  0.74635  1.0000
  H   H285      1.0  0.99033  0.54628  0.70921  1.0000
  C   C170      1.0  0.13791  0.96116  0.82423  1.0000
  H   H286      1.0  0.14655  0.90950  0.79005  1.0000
  H   H287      1.0  0.07548  0.91636  0.84806  1.0000
  H   H288      1.0  0.45901  0.89803  0.73121  1.0000
  H   H289      1.0  0.04179  0.59144  0.69121  1.0000
  C   C171      1.0  0.99339  0.71334  0.01318  1.0000
  H   H290      1.0  0.96377  0.79898  0.99033  1.0000
  C   C172      1.0  0.96390  0.66369  0.84000  1.0000
  C   C173      1.0  0.07946  0.61952  0.01941  1.0000
  Fe  Fe25      1.0  0.82656  0.13878  0.28836  1.0000
  S   S48       1.0  0.81457  0.20548  0.29239  1.0000
  S   S49       1.0  0.88141  0.13682  0.26134  1.0000
  Fe  Fe26      1.0  0.75092  0.07859  0.32871  1.0000
  S   S50       1.0  0.73479  0.14253  0.33502  1.0000
  Fe  Fe27      1.0  0.73095  0.14821  0.29572  1.0000
  S   S51       1.0  0.67158  0.14873  0.27088  1.0000
  Fe  Fe28      1.0  0.81932  0.19318  0.33104  1.0000
  H   H291      1.0  0.48336  0.26489  0.25716  1.0000
  S   S52       1.0  0.74297  0.08151  0.28947  1.0000
  S   S53       1.0  0.83569  0.12932  0.32708  1.0000
  H   H292      1.0  0.92870  0.24021  0.29917  1.0000
  C   C174      1.0  0.52266  0.29738  0.25568  1.0000
  H   H293      1.0  0.66062  0.39634  0.23848  1.0000
  C   C175      1.0  0.61712  0.15566  0.27460  1.0000
  C   C176      1.0  0.58310  0.14328  0.25571  1.0000
  C   C177      1.0  0.54018  0.14932  0.25747  1.0000
  C   C178      1.0  0.53109  0.16881  0.27807  1.0000
  C   C179      1.0  0.56527  0.18148  0.29688  1.0000
  C   C180      1.0  0.60769  0.17460  0.29527  1.0000
  H   H294      1.0  0.58980  0.12854  0.23963  1.0000
  H   H295      1.0  0.51430  0.13903  0.24287  1.0000
  H   H296      1.0  0.55882  0.19659  0.31292  1.0000
  H   H297      1.0  0.63341  0.18453  0.30994  1.0000
  H   H298      1.0  0.80817  0.12980  0.16903  1.0000
  H   H299      1.0  0.57185  0.36466  0.27761  1.0000
  C   C181      1.0  0.91602  0.22804  0.23711  1.0000
  C   C182      1.0  0.91814  0.18333  0.23982  1.0000
  C   C183      1.0  0.62711  0.36011  0.23268  1.0000
  H   H300      1.0  0.68350  0.12338  0.22189  1.0000
  H   H301      1.0  0.71475  0.02118  0.23857  1.0000
  H   H302      1.0  0.89249  0.23557  0.24871  1.0000
  H   H303      1.0  0.52488  0.40325  0.20475  1.0000
  H   H304      1.0  0.79165  0.17333  0.15662  1.0000
  H   H305      1.0  0.79334  0.22409  0.21041  1.0000
  N   N13       1.0  0.52965  0.32329  0.23230  1.0000
  H   H306      1.0  0.53026  0.30805  0.29337  1.0000
  H   H307      1.0  0.93448  0.21865  0.34944  1.0000
  H   H308      1.0  0.74622  0.19780  0.23340  1.0000
  C   C184      1.0  0.48991  0.36625  0.20780  1.0000
  H   H309      1.0  0.81171  0.22951  0.24032  1.0000
  H   H310      1.0  0.94061  0.29647  0.21677  1.0000
  H   H311      1.0  0.82672  0.19005  0.18329  1.0000
  C   C185      1.0  0.94966  0.17467  0.22473  1.0000
  N   N14       1.0  0.74509  0.11211  0.21073  1.0000
  C   C186      1.0  0.75745  0.06998  0.20830  1.0000
  C   C187      1.0  0.74486  0.13235  0.18664  1.0000
  C   C188      1.0  0.69388  0.09308  0.22184  1.0000
  C   C189      1.0  0.78439  0.15331  0.22619  1.0000
  C   C190      1.0  0.75328  0.04034  0.23092  1.0000
  C   C191      1.0  0.79604  0.15770  0.17348  1.0000
  C   C192      1.0  0.64921  0.04629  0.21008  1.0000
  C   C193      1.0  0.78322  0.20363  0.22738  1.0000
  H   H312      1.0  0.73337  0.04188  0.19468  1.0000
  H   H313      1.0  0.79706  0.08547  0.20208  1.0000
  H   H314      1.0  0.73119  0.16016  0.18739  1.0000
  H   H315      1.0  0.71765  0.10116  0.17498  1.0000
  H   H316      1.0  0.69434  0.08380  0.24070  1.0000
  C   C194      1.0  0.58191  0.36885  0.22949  1.0000
  H   H317      1.0  0.78082  0.13976  0.24458  1.0000
  H   H318      1.0  0.82297  0.16278  0.22065  1.0000
  H   H319      1.0  0.63657  0.34801  0.21590  1.0000
  H   H320      1.0  0.64231  0.05472  0.19200  1.0000
  C   C195      1.0  0.94354  0.26262  0.21902  1.0000
  H   H321      1.0  0.52774  0.22407  0.19878  1.0000
  H   H322      1.0  0.61433  0.03575  0.22034  1.0000
  H   H323      1.0  0.58771  0.40092  0.24115  1.0000
  C   C196      1.0  0.49194  0.34165  0.23118  1.0000
  H   H324      1.0  0.54658  0.27966  0.25749  1.0000
  H   H325      1.0  0.58654  0.38513  0.21158  1.0000
  H   H326      1.0  0.50453  0.34293  0.28003  1.0000
  C   C197      1.0  0.51759  0.28547  0.21251  1.0000
  C   C198      1.0  0.53470  0.24575  0.21544  1.0000
  H   H327      1.0  0.51203  0.21741  0.22913  1.0000
  C   C199      1.0  0.53317  0.33104  0.27765  1.0000
  H   H328      1.0  0.53378  0.30554  0.19564  1.0000
  H   H329      1.0  0.65404  0.01244  0.21001  1.0000
  H   H330      1.0  0.62168  0.33253  0.24658  1.0000
  H   H331      1.0  0.78101  0.06528  0.24426  1.0000
  H   H332      1.0  0.76251  0.01009  0.22678  1.0000
  H   H333      1.0  0.57530  0.26290  0.21960  1.0000
  H   H334      1.0  0.95174  0.14029  0.22668  1.0000
  H   H335      1.0  0.49963  0.37072  0.24495  1.0000
  S   S54       1.0  0.47917  0.18014  0.28105  1.0000
  H   H336      1.0  0.47589  0.26257  0.20957  1.0000
  H   H337      1.0  0.48220  0.34071  0.19250  1.0000
  S   S55       1.0  0.70043  0.00395  0.34840  1.0000
  H   H338      1.0  0.92364  0.46865  0.05596  1.0000
  Fe  Fe29      1.0  0.87490  0.21308  0.56333  1.0000
  S   S56       1.0  0.80987  0.22706  0.55766  1.0000
  Fe  Fe30      1.0  0.81870  0.13675  0.60357  1.0000
  S   S57       1.0  0.75104  0.14662  0.60053  1.0000
  S   S58       1.0  0.82291  0.07787  0.62705  1.0000
  Fe  Fe31      1.0  0.76120  0.14168  0.56169  1.0000
  S   S59       1.0  0.69438  0.09481  0.53772  1.0000
  Fe  Fe32      1.0  0.80613  0.23138  0.59702  1.0000
  S   S60       1.0  0.79739  0.28848  0.62066  1.0000
  S   S61       1.0  0.82626  0.12765  0.56464  1.0000
  S   S62       1.0  0.87379  0.22148  0.60273  1.0000
  H   H339      1.0  0.72772  0.01880  0.53439  1.0000
  H   H340      1.0  0.90793  0.08201  0.57297  1.0000
  C   C200      1.0  0.95530  0.27338  0.42231  1.0000
  C   C201      1.0  0.78179  0.04578  0.65104  1.0000
  H   H341      1.0  0.46350  0.43332  0.39580  1.0000
  C   C202      1.0  0.86738  0.16544  0.46488  1.0000
  C   C203      1.0  0.79859  0.34740  0.61595  1.0000
  C   C204      1.0  0.78832  0.37071  0.63498  1.0000
  C   C205      1.0  0.78959  0.41773  0.63235  1.0000
  C   C206      1.0  0.80128  0.44227  0.61058  1.0000
  C   C207      1.0  0.81131  0.41888  0.59152  1.0000
  C   C208      1.0  0.81016  0.37193  0.59417  1.0000
  H   H342      1.0  0.77895  0.35201  0.65187  1.0000
  C   C209      1.0  0.90392  0.21848  0.45448  1.0000
  C   C210      1.0  0.68700  0.99963  0.53265  1.0000
  H   H343      1.0  0.81814  0.35467  0.57934  1.0000
  H   H344      1.0  0.89585  0.39304  0.65525  1.0000
  C   C211      1.0  0.66198  0.02770  0.53482  1.0000
  H   H345      1.0  0.94911  0.17698  0.39077  1.0000
  C   C212      1.0  0.93123  0.28600  0.35861  1.0000
  H   H346      1.0  0.74788  0.11703  0.45968  1.0000
  H   H347      1.0  0.67680  0.01538  0.58365  1.0000
  H   H348      1.0  0.76166  0.06106  0.44388  1.0000
  H   H349      1.0  0.80901  0.19264  0.40097  1.0000
  C   C213      1.0  0.60946  0.00269  0.53199  1.0000
  H   H350      1.0  0.69249  0.12245  0.45449  1.0000
  H   H351      1.0  0.93796  0.09282  0.54503  1.0000
  H   H352      1.0  0.62932  0.01906  0.42828  1.0000
  C   C214      1.0  0.89340  0.46791  0.67936  1.0000
  C   C215      1.0  0.70241  0.06099  0.41204  1.0000
  H   H353      1.0  0.93269  0.17051  0.51859  1.0000
  H   H354      1.0  0.67615  0.03802  0.48744  1.0000
  H   H355      1.0  0.88878  0.14915  0.47340  1.0000
  H   H356      1.0  0.85824  0.43954  0.67017  1.0000
  C   C216      1.0  0.94877  0.18918  0.42906  1.0000
  H   H357      1.0  0.79059  0.02053  0.37458  1.0000
  C   C217      1.0  0.75771  0.98756  0.38176  1.0000
  H   H358      1.0  0.73467  0.99233  0.58319  1.0000
  C   C218      1.0  0.66457  0.01677  0.42772  1.0000
  C   C219      1.0  0.92948  0.47097  0.64059  1.0000
  H   H359      1.0  0.73477  0.05614  0.40684  1.0000
  H   H360      1.0  0.94066  0.35862  0.36894  1.0000
  H   H361      1.0  0.71590  0.12439  0.48367  1.0000
  H   H362      1.0  0.93736  0.11179  0.60970  1.0000
  H   H363      1.0  0.82022  0.43726  0.57456  1.0000
  C   C220      1.0  0.95945  0.33690  0.36588  1.0000
  H   H364      1.0  0.71631  0.09889  0.42006  1.0000
  C   C221      1.0  0.87740  0.19434  0.41276  1.0000
  H   H365      1.0  0.63524  0.04178  0.46739  1.0000
  H   H366      1.0  0.64085  0.06802  0.59409  1.0000
  H   H367      1.0  0.79838  0.03465  0.47356  1.0000
  H   H368      1.0  0.58992  0.02412  0.53330  1.0000
  S   S63       1.0  0.94883  0.26298  0.54343  1.0000
  H   H369      1.0  0.81670  0.19847  0.43209  1.0000
  C   C222      1.0  0.67421  0.04797  0.46888  1.0000
  H   H370      1.0  0.84258  0.16898  0.47814  1.0000
  H   H371      1.0  0.81172  0.99548  0.65621  1.0000
  H   H372      1.0  0.93683  0.23580  0.46664  1.0000
  H   H373      1.0  0.84184  0.13787  0.45167  1.0000
  C   C223      1.0  0.74587  0.05824  0.65882  1.0000
  H   H374      1.0  0.85730  0.15201  0.41380  1.0000
  H   H375      1.0  0.92906  0.40269  0.62844  1.0000
  H   H376      1.0  0.73817  0.99559  0.44061  1.0000
  C   C224      1.0  0.95095  0.15339  0.60898  1.0000
  C   C225      1.0  0.78400  0.00538  0.66202  1.0000
  H   H377      1.0  0.74381  0.08934  0.65068  1.0000
  H   H378      1.0  0.85421  0.25265  0.41310  1.0000
  H   H379      1.0  0.92233  0.14812  0.43278  1.0000
  C   C226      1.0  0.70970  0.10596  0.46613  1.0000
  H   H380      1.0  0.78112  0.43472  0.64713  1.0000
  C   C227      1.0  0.73527  0.02391  0.45194  1.0000
  C   C228      1.0  0.83743  0.21092  0.41521  1.0000
  C   C229      1.0  0.95600  0.25814  0.35483  1.0000
  H   H381      1.0  0.75696  0.05089  0.48856  1.0000
  N   N15       1.0  0.68150  0.01340  0.45223  1.0000
  H   H382      1.0  0.89109  0.20262  0.39430  1.0000
  H   H383      1.0  0.68314  0.06034  0.39539  1.0000
  H   H384      1.0  0.94212  0.17111  0.56338  1.0000
  H   H385      1.0  0.88726  0.24358  0.45660  1.0000
  H   H386      1.0  0.60303  0.02625  0.61696  1.0000
  H   H387      1.0  0.91743  0.15615  0.60356  1.0000
  N   N16       1.0  0.92129  0.21880  0.42968  1.0000
  C   C230      1.0  0.92998  0.42113  0.64548  1.0000
  H   H388      1.0  0.65457  0.98145  0.41761  1.0000
  S   S64       1.0  0.86495  0.25843  0.35609  1.0000
  H   H389      1.0  0.93528  0.29542  0.42372  1.0000
  C   C231      1.0  0.71284  0.03084  0.67740  1.0000
  C   C232      1.0  0.62071  0.02753  0.59978  1.0000
  C   C233      1.0  0.75800  0.02337  0.47603  1.0000
  H   H390      1.0  0.93196  0.14517  0.64612  1.0000
  H   H391      1.0  0.68557  0.04121  0.68338  1.0000
  C   C234      1.0  0.65922  0.00878  0.60133  1.0000
  H   H392      1.0  0.69005  0.03526  0.61338  1.0000
  H   H393      1.0  0.89445  0.45999  0.63038  1.0000
  H   H394      1.0  0.59122  0.00639  0.58635  1.0000
  H   H395      1.0  0.63327  0.98308  0.64324  1.0000
  C   C235      1.0  0.94528  0.10189  0.56404  1.0000
  H   H396      1.0  0.73935  0.98466  0.48380  1.0000
  C   C236      1.0  0.55306  0.01070  0.77680  1.0000
  C   C237      1.0  0.61778  0.43643  0.94215  1.0000
  C   C238      1.0  0.59955  0.41602  0.91985  1.0000
  C   C239      1.0  0.55081  0.37286  0.91721  1.0000
  C   C240      1.0  0.51957  0.34897  0.93677  1.0000
  C   C241      1.0  0.53757  0.36954  0.95908  1.0000
  C   C242      1.0  0.58638  0.41275  0.96171  1.0000
  H   H397      1.0  0.62354  0.43278  0.90468  1.0000
  H   H398      1.0  0.53757  0.35722  0.89986  1.0000
  C   C243      1.0  0.64972  0.31251  0.94203  1.0000
  H   H399      1.0  0.51421  0.35178  0.97434  1.0000
  H   H400      1.0  0.66397  0.28583  0.93893  1.0000
  H   H401      1.0  0.57836  0.24610  0.91385  1.0000
  H   H402      1.0  0.57927  0.03317  0.79133  1.0000
  H   H403      1.0  0.68228  0.03000  0.74969  1.0000
  H   H404      1.0  0.59783  0.19739  0.93666  1.0000
  C   C244      1.0  0.61244  0.20233  0.97349  1.0000
  H   H405      1.0  0.60006  0.42787  0.97908  1.0000
  H   H406      1.0  0.55153  0.25507  0.00039  1.0000
  H   H407      1.0  0.48548  0.21168  0.00154  1.0000
  C   C245      1.0  0.57709  0.19687  0.95288  1.0000
  H   H408      1.0  0.54014  0.27125  0.92337  1.0000
  N   N17       1.0  0.56095  0.23639  0.95116  1.0000
  H   H409      1.0  0.54330  0.15785  0.95376  1.0000
  H   H410      1.0  0.60351  0.08234  0.75838  1.0000
  C   C246      1.0  0.51496  0.22197  0.96617  1.0000
  C   C247      1.0  0.52106  0.21903  0.99282  1.0000
  H   H411      1.0  0.65245  0.22128  0.96755  1.0000
  H   H412      1.0  0.60939  0.22187  0.98926  1.0000
  H   H413      1.0  0.55922  0.03332  0.73871  1.0000
  H   H414      1.0  0.65575  0.04947  0.77279  1.0000
  H   H415      1.0  0.58760  0.31623  0.95751  1.0000
  H   H416      1.0  0.60328  0.16363  0.97923  1.0000
  C   C248      1.0  0.49982  0.19068  0.91635  1.0000
  H   H417      1.0  0.61550  0.29150  0.97606  1.0000
  C   C249      1.0  0.54679  0.23873  0.92596  1.0000
  H   H418      1.0  0.50108  0.24919  0.96332  1.0000
  H   H419      1.0  0.52597  0.18627  0.99742  1.0000
  H   H420      1.0  0.48320  0.18370  0.96124  1.0000
  C   C250      1.0  0.56462  0.04916  0.75663  1.0000
  H   H421      1.0  0.50044  0.15519  0.92015  1.0000
  H   H422      1.0  0.64221  0.32508  0.92497  1.0000
  H   H423      1.0  0.68036  0.34729  0.95063  1.0000
  H   H424      1.0  0.53899  0.06511  0.75831  1.0000
  C   C251      1.0  0.60231  0.28932  0.95782  1.0000
  H   H425      1.0  0.59797  0.99017  0.73782  1.0000
  H   H426      1.0  0.49840  0.19387  0.89698  1.0000
  H   H427      1.0  0.66897  0.99809  0.77716  1.0000
  C   C252      1.0  0.65495  0.01598  0.76452  1.0000
  H   H428      1.0  0.50514  0.47225  0.89876  1.0000
  H   H429      1.0  0.90680  0.44514  0.68912  1.0000
  H   H430      1.0  0.51419  0.99833  0.78337  1.0000
  H   H431      1.0  0.46446  0.18778  0.92323  1.0000
  H   H432      1.0  0.85266  0.46419  0.71135  1.0000
  C   C253      1.0  0.71478  0.99028  0.68831  1.0000
  H   H433      1.0  0.56194  0.45888  0.88027  1.0000
  H   H434      1.0  0.53372  0.47652  0.92624  1.0000
  H   H435      1.0  0.90901  0.51800  0.05844  1.0000
  H   H436      1.0  0.94671  0.51246  0.08053  1.0000
  C   C254      1.0  0.93965  0.50904  0.06145  1.0000
  Fe  Fe33      1.0  0.64421  0.74474  0.49700  1.0000
  S   S65       1.0  0.56399  0.72881  0.50059  1.0000
  S   S66       1.0  0.65964  0.69221  0.52014  1.0000
  Fe  Fe34      1.0  0.66702  0.82323  0.45745  1.0000
  S   S67       1.0  0.58845  0.81080  0.45847  1.0000
  S   S68       1.0  0.72877  0.88740  0.43536  1.0000
  Fe  Fe35      1.0  0.59809  0.81371  0.49754  1.0000
  S   S69       1.0  0.56863  0.85604  0.51916  1.0000
  Fe  Fe36      1.0  0.56104  0.72656  0.46124  1.0000
  H   H437      1.0  0.61712  0.93144  0.57273  1.0000
  S   S70       1.0  0.67811  0.83019  0.49688  1.0000
  S   S71       1.0  0.63990  0.73859  0.45731  1.0000
  Fe  Fe37      1.0  0.82003  0.67033  0.62490  1.0000
  S   S72       1.0  0.75234  0.59313  0.63116  1.0000
  S   S73       1.0  0.82312  0.72887  0.59877  1.0000
  Fe  Fe38      1.0  0.88530  0.65315  0.66175  1.0000
  S   S74       1.0  0.82144  0.57468  0.67005  1.0000
  Fe  Fe39      1.0  0.80736  0.56339  0.63116  1.0000
  Fe  Fe40      1.0  0.77332  0.61181  0.66930  1.0000
  N   N18       1.0  0.73513  0.79978  0.65160  1.0000
  S   S75       1.0  0.87398  0.64040  0.62272  1.0000
  S   S76       1.0  0.83810  0.69087  0.66313  1.0000
  H   H438      1.0  0.82066  0.77839  0.68346  1.0000
  C   C255      1.0  0.68884  0.76399  0.63750  1.0000
  C   C256      1.0  0.68505  0.84344  0.66517  1.0000
  S   S77       1.0  0.96241  0.67609  0.67774  1.0000
  C   C257      1.0  0.69579  0.73342  0.61770  1.0000
  C   C258      1.0  0.47022  0.50180  0.43394  1.0000
  C   C259      1.0  0.66778  0.92801  0.38146  1.0000
  C   C260      1.0  0.67284  0.90163  0.40066  1.0000
  C   C261      1.0  0.72049  0.91777  0.41042  1.0000
  H   H439      1.0  0.56914  0.84438  0.57530  1.0000
  H   H440      1.0  0.63991  0.86863  0.40779  1.0000
  H   H441      1.0  0.57379  0.94220  0.62999  1.0000
  C   C262      1.0  0.60640  0.92219  0.52457  1.0000
  C   C263      1.0  0.86932  0.65175  0.55570  1.0000
  H   H442      1.0  0.88618  0.63454  0.54427  1.0000
  C   C264      1.0  0.65924  0.94692  0.52723  1.0000
  H   H443      1.0  0.54114  0.93159  0.52552  1.0000
  H   H444      1.0  0.70934  0.97218  0.62492  1.0000
  H   H445      1.0  0.67854  0.92540  0.52529  1.0000
  C   C265      1.0  0.70333  0.70562  0.54339  1.0000
  C   C266      1.0  0.74890  0.75191  0.54507  1.0000
  C   C267      1.0  0.78482  0.75863  0.56234  1.0000
  C   C268      1.0  0.77547  0.71944  0.57824  1.0000
  C   C269      1.0  0.72914  0.67384  0.57711  1.0000
  C   C270      1.0  0.69353  0.66689  0.55966  1.0000
  H   H446      1.0  0.75715  0.78190  0.53258  1.0000
  H   H447      1.0  0.82047  0.79414  0.56310  1.0000
  H   H448      1.0  0.72104  0.64363  0.58943  1.0000
  H   H449      1.0  0.65827  0.63104  0.55859  1.0000
  H   H450      1.0  0.70830  0.57934  0.55553  1.0000
  C   C271      1.0  0.68267  0.94563  0.61156  1.0000
  H   H451      1.0  0.67988  0.86212  0.68089  1.0000
  H   H452      1.0  0.64411  0.91310  0.65572  1.0000
  C   C272      1.0  0.80346  0.52027  0.53505  1.0000
  C   C273      1.0  0.71001  0.97135  0.37200  1.0000
  H   H453      1.0  0.94882  0.61091  0.63215  1.0000
  H   H454      1.0  0.70338  0.87295  0.65145  1.0000
  N   N19       1.0  0.77864  0.59048  0.54100  1.0000
  H   H455      1.0  0.63075  0.91494  0.37396  1.0000
  H   H456      1.0  0.48879  0.51930  0.45091  1.0000
  H   H457      1.0  0.81393  0.58436  0.57323  1.0000
  C   C274      1.0  0.78004  0.63399  0.52742  1.0000
  H   H458      1.0  0.65884  0.73589  0.64933  1.0000
  C   C275      1.0  0.77199  0.84480  0.63699  1.0000
  H   H459      1.0  0.64641  0.81395  0.65964  1.0000
  H   H460      1.0  0.54542  0.84461  0.60428  1.0000
  H   H461      1.0  0.69494  0.78802  0.68446  1.0000
  H   H462      1.0  0.81647  0.52669  0.55345  1.0000
  H   H463      1.0  0.47981  0.81095  0.44934  1.0000
  S   S78       1.0  0.80399  0.50192  0.60613  1.0000
  H   H464      1.0  0.67200  0.78489  0.62891  1.0000
  S   S79       1.0  0.49342  0.67250  0.43800  1.0000
  H   H465      1.0  0.79406  0.87931  0.64815  1.0000
  C   C276      1.0  0.64868  0.95911  0.46052  1.0000
  C   C277      1.0  0.75839  0.77040  0.66181  1.0000
  C   C278      1.0  0.60694  0.90434  0.64845  1.0000
  H   H466      1.0  0.83288  0.87247  0.61127  1.0000
  H   H467      1.0  0.83399  0.51862  0.52516  1.0000
  H   H468      1.0  0.73825  0.59239  0.49542  1.0000
  H   H469      1.0  0.57160  0.89862  0.46706  1.0000
  H   H470      1.0  0.73166  0.49361  0.56626  1.0000
  H   H471      1.0  0.46764  0.73580  0.50327  1.0000
  H   H472      1.0  0.74576  0.65440  0.49919  1.0000
  H   H473      1.0  0.95780  0.56311  0.61859  1.0000
  C   C279      1.0  0.73850  0.61935  0.50866  1.0000
  H   H474      1.0  0.91918  0.56587  0.66816  1.0000
  H   H475      1.0  0.67127  0.90729  0.61846  1.0000
  H   H476      1.0  0.71435  0.71198  0.62351  1.0000
  C   C280      1.0  0.57975  0.86210  0.59304  1.0000
  H   H477      1.0  0.82715  0.83852  0.67518  1.0000
  C   C281      1.0  0.81184  0.83881  0.62283  1.0000
  H   H478      1.0  0.66035  0.60876  0.66358  1.0000
  H   H479      1.0  0.70039  0.60363  0.51665  1.0000
  H   H480      1.0  0.79998  0.97336  0.40808  1.0000
  H   H481      1.0  0.58885  0.86679  0.63964  1.0000
  H   H482      1.0  0.72875  0.73472  0.67018  1.0000
  H   H483      1.0  0.81683  0.65668  0.51816  1.0000
  H   H484      1.0  0.65785  0.70440  0.61111  1.0000
  H   H485      1.0  0.75140  0.85571  0.62431  1.0000
  C   C282      1.0  0.72503  0.55609  0.54936  1.0000
  C   C283      1.0  0.81363  0.61353  0.56173  1.0000
  H   H486      1.0  0.49857  0.49911  0.42281  1.0000
  H   H487      1.0  0.83033  0.58932  0.51493  1.0000
  H   H488      1.0  0.73338  0.54061  0.58636  1.0000
  H   H489      1.0  0.84020  0.83727  0.63439  1.0000
  H   H490      1.0  0.87369  0.68704  0.54769  1.0000
  H   H491      1.0  0.79503  0.80490  0.61139  1.0000
  H   H492      1.0  0.89177  0.66380  0.57215  1.0000
  C   C284      1.0  0.79522  0.56247  0.52458  1.0000
  C   C285      1.0  0.71739  0.81929  0.67181  1.0000
  H   H493      1.0  0.60608  0.64830  0.66262  1.0000
  C   C286      1.0  0.65993  0.63105  0.67836  1.0000
  H   H494      1.0  0.79983  0.63361  0.57338  1.0000
  C   C287      1.0  0.60123  0.92001  0.59066  1.0000
  C   C288      1.0  0.62920  0.65342  0.67787  1.0000
  H   H495      1.0  0.58300  0.90112  0.66381  1.0000
  C   C289      1.0  0.61241  0.94776  0.63244  1.0000
  H   H496      1.0  0.56758  0.92497  0.59025  1.0000
  H   H497      1.0  0.65797  0.95455  0.47883  1.0000
  H   H498      1.0  0.70056  0.53223  0.53465  1.0000
  H   H499      1.0  0.65584  0.93246  0.44980  1.0000
  H   H500      1.0  0.77744  0.66149  0.53946  1.0000
  H   H501      1.0  0.60715  0.85148  0.59960  1.0000
  C   C290      1.0  0.76290  0.96066  0.40074  1.0000
  N   N20       1.0  0.63834  0.95417  0.60901  1.0000
  H   H502      1.0  0.71567  0.75802  0.60248  1.0000
  C   C291      1.0  0.58183  0.95028  0.52736  1.0000
  C   C292      1.0  0.92127  0.54294  0.65349  1.0000
  H   H503      1.0  0.77523  0.75741  0.64806  1.0000
  C   C293      1.0  0.95915  0.58135  0.63568  1.0000
  H   H504      1.0  0.88292  0.52480  0.64536  1.0000
  C   C294      1.0  0.71693  0.51957  0.56980  1.0000
  N   N21       1.0  0.93273  0.50262  0.66181  1.0000
  H   H505      1.0  0.76699  0.54374  0.51030  1.0000
  H   H506      1.0  0.68953  0.92709  0.57461  1.0000
  H   H507      1.0  0.67569  0.49514  0.57303  1.0000
  C   C295      1.0  0.71348  0.95206  0.58906  1.0000
  C   C296      1.0  0.79961  0.79898  0.68054  1.0000
  C   C297      1.0  0.59101  0.93821  0.46024  1.0000
  H   H508      1.0  0.74237  0.94108  0.59290  1.0000
  H   H509      1.0  0.57647  0.93645  0.44225  1.0000
  H   H510      1.0  0.49268  0.79682  0.47785  1.0000
  H   H511      1.0  0.57982  0.96005  0.47201  1.0000
  H   H512      1.0  0.75000  0.84881  0.68208  1.0000
  H   H513      1.0  0.96121  0.49329  0.62820  1.0000
  H   H514      1.0  0.76854  0.48241  0.53359  1.0000
  C   C298      1.0  0.75066  0.97771  0.68051  1.0000
  Fe  Fe41      1.0  0.64986  0.88273  0.73103  1.0000
  S   S80       1.0  0.57075  0.81916  0.72359  1.0000
  C   C299      1.0  0.60739  0.56467  0.94832  1.0000
  Fe  Fe42      1.0  0.66620  0.81782  0.76873  1.0000
  S   S81       1.0  0.58826  0.75058  0.76331  1.0000
  S   S82       1.0  0.72775  0.81823  0.79192  1.0000
  Fe  Fe43      1.0  0.60502  0.76845  0.72489  1.0000
  H   H515      1.0  0.52002  0.96118  0.81803  1.0000
  Fe  Fe44      1.0  0.56099  0.80780  0.76266  1.0000
  H   H516      1.0  0.47771  0.91000  0.77278  1.0000
  S   S83       1.0  0.68441  0.83257  0.73012  1.0000
  S   S84       1.0  0.63883  0.87455  0.77035  1.0000
  Fe  Fe45      1.0  0.74985  0.64951  0.89603  1.0000
  S   S85       1.0  0.73854  0.57250  0.88630  1.0000
  S   S86       1.0  0.69550  0.67061  0.87845  1.0000
  Fe  Fe46      1.0  0.83045  0.66594  0.93382  1.0000
  S   S87       1.0  0.82350  0.58983  0.92621  1.0000
  S   S88       1.0  0.88754  0.72638  0.95923  1.0000
  Fe  Fe47      1.0  0.82345  0.61114  0.88834  1.0000
  S   S89       1.0  0.86707  0.60793  0.85692  1.0000
  Fe  Fe48      1.0  0.73841  0.55829  0.92503  1.0000
  S   S90       1.0  0.83458  0.68871  0.89579  1.0000
  S   S91       1.0  0.74586  0.63394  0.93491  1.0000
  C   C300      1.0  0.92727  0.71987  0.98010  1.0000
  H   H517      1.0  0.86850  0.68168  0.82249  1.0000
  H   H518      1.0  0.86549  0.73816  0.82519  1.0000
  H   H519      1.0  0.59030  0.58986  0.87357  1.0000
  N   N22       1.0  0.55830  0.96478  0.77136  1.0000
  C   C301      1.0  0.93352  0.63792  0.85940  1.0000
  C   C302      1.0  0.60830  0.53325  0.89796  1.0000
  S   S92       1.0  0.49645  0.80132  0.78621  1.0000
  H   H520      1.0  0.57911  0.64847  0.89756  1.0000
  C   C303      1.0  0.71805  0.77585  0.81552  1.0000
  C   C304      1.0  0.66963  0.73867  0.82276  1.0000
  C   C305      1.0  0.66359  0.70664  0.84189  1.0000
  C   C306      1.0  0.70576  0.71075  0.85384  1.0000
  C   C307      1.0  0.75427  0.74753  0.84645  1.0000
  C   C308      1.0  0.76028  0.78002  0.82748  1.0000
  H   H521      1.0  0.63678  0.73505  0.81382  1.0000
  H   H522      1.0  0.62589  0.67867  0.84751  1.0000
  H   H523      1.0  0.78705  0.75168  0.85566  1.0000
  H   H524      1.0  0.79786  0.80903  0.82223  1.0000
  H   H525      1.0  0.62808  0.61901  0.92020  1.0000
  H   H526      1.0  0.46513  0.52071  0.91339  1.0000
  C   C309      1.0  0.65758  0.68789  0.71682  1.0000
  H   H527      1.0  0.78665  0.61215  0.82719  1.0000
  H   H528      1.0  0.60351  0.97365  0.80234  1.0000
  C   C310      1.0  0.87097  0.71380  0.81216  1.0000
  C   C311      1.0  0.54478  0.61310  0.89158  1.0000
  C   C312      1.0  0.68652  0.66365  0.71770  1.0000
  H   H529      1.0  0.48082  0.96216  0.73963  1.0000
  H   H530      1.0  0.60290  0.94107  0.75113  1.0000
  H   H531      1.0  0.57466  0.53049  0.95601  1.0000
  H   H532      1.0  0.90689  0.52559  0.70700  1.0000
  H   H533      1.0  0.94654  0.66565  0.82385  1.0000
  C   C313      1.0  0.79442  0.73171  0.76286  1.0000
  C   C314      1.0  0.77234  0.63913  0.82802  1.0000
  S   S93       1.0  0.72419  0.60493  0.70031  1.0000
  C   C315      1.0  0.83632  0.66218  0.77553  1.0000
  C   C316      1.0  0.83758  0.61539  0.78502  1.0000
  H   H534      1.0  0.63845  0.55680  0.94484  1.0000
  H   H535      1.0  0.52606  0.54153  0.87508  1.0000
  C   C317      1.0  0.62852  0.68255  0.69695  1.0000
  H   H536      1.0  0.87218  0.76218  0.77154  1.0000
  H   H537      1.0  0.49090  0.89530  0.80856  1.0000
  H   H538      1.0  0.93558  0.72260  0.79067  1.0000
  C   C318      1.0  0.77812  0.66731  0.80466  1.0000
  C   C319      1.0  0.83565  0.74174  0.78119  1.0000
  H   H539      1.0  0.79634  0.71024  0.74746  1.0000
  H   H540      1.0  0.83592  0.76947  0.79419  1.0000
  H   H541      1.0  0.78237  0.79959  0.69765  1.0000
  H   H542      1.0  0.74975  0.63926  0.79215  1.0000
  C   C320      1.0  0.51043  0.92230  0.76072  1.0000
  H   H543      1.0  0.49437  0.52757  0.94196  1.0000
  H   H544      1.0  0.86942  0.62592  0.79731  1.0000
  H   H545      1.0  0.56769  0.59801  0.93267  1.0000
  H   H546      1.0  0.65693  0.70979  0.73172  1.0000
  C   C321      1.0  0.52694  0.92971  0.81332  1.0000
  S   S94       1.0  0.67132  0.95695  0.71140  1.0000
  H   H547      1.0  0.80134  0.58798  0.79343  1.0000
  C   C322      1.0  0.52326  0.49826  0.91395  1.0000
  H   H548      1.0  0.58335  0.51325  0.86087  1.0000
  C   C323      1.0  0.92580  0.67354  0.98373  1.0000
  H   H549      1.0  0.89926  0.64011  0.97392  1.0000
  H   H550      1.0  0.80484  0.64710  0.76257  1.0000
  S   S95       1.0  0.68020  0.48913  0.94675  1.0000
  H   H551      1.0  0.84315  0.59506  0.77007  1.0000
  H   H552      1.0  0.70734  0.66631  0.73342  1.0000
  C   C324      1.0  0.48127  0.50445  0.92567  1.0000
  H   H553      1.0  0.73160  0.61695  0.83277  1.0000
  N   N23       1.0  0.83031  0.69531  0.79357  1.0000
  H   H554      1.0  0.61783  0.51413  0.91193  1.0000
  H   H555      1.0  0.53189  0.62318  0.87528  1.0000
  H   H556      1.0  0.93316  0.61352  0.89485  1.0000
  N   N24       1.0  0.56962  0.54679  0.90629  1.0000
  H   H557      1.0  0.52165  0.94483  0.72326  1.0000
  C   C325      1.0  0.96229  0.76295  0.99300  1.0000
  C   C326      1.0  0.59329  0.49780  0.87627  1.0000
  C   C327      1.0  0.55759  0.57100  0.88589  1.0000
  S   S96       1.0  0.59267  0.71346  0.69523  1.0000
  H   H558      1.0  0.93958  0.71138  0.91467  1.0000
  C   C328      1.0  0.49297  0.93355  0.73734  1.0000
  H   H559      1.0  0.93118  0.73061  0.71040  1.0000
  H   H560      1.0  0.79154  0.66652  0.84261  1.0000
  H   H561      1.0  0.87139  0.68487  0.76503  1.0000
  C   C329      1.0  0.87561  0.49290  0.69781  1.0000
  H   H562      1.0  0.80078  0.76887  0.75619  1.0000
  C   C330      1.0  0.95637  0.63423  0.87998  1.0000
  H   H563      1.0  0.76416  0.69402  0.80883  1.0000
  C   C331      1.0  0.68842  0.63583  0.69839  1.0000
  H   H564      1.0  0.93549  0.78173  0.79582  1.0000
  C   C332      1.0  0.92623  0.74442  0.80339  1.0000
  C   C333      1.0  0.59309  0.58426  0.92631  1.0000
  H   H565      1.0  0.64434  0.56845  0.89368  1.0000
  H   H566      1.0  0.75336  0.94736  0.68903  1.0000
  H   H567      1.0  0.75569  0.71183  0.77036  1.0000
  H   H568      1.0  0.62176  0.59494  0.96200  1.0000
  C   C334      1.0  0.95854  0.67034  0.00021  1.0000
  H   H569      1.0  0.51455  0.88823  0.75774  1.0000
  H   H570      1.0  0.54029  0.91955  0.82944  1.0000
  H   H571      1.0  0.57173  0.91092  0.79055  1.0000
  C   C335      1.0  0.56750  0.94481  0.79400  1.0000
  H   H572      1.0  0.95674  0.63419  0.00292  1.0000
  H   H573      1.0  0.51443  0.60149  0.90478  1.0000
  C   C336      1.0  0.60204  0.97659  0.75522  1.0000
  H   H574      1.0  0.62617  0.49380  0.87100  1.0000
  H   H575      1.0  0.95203  0.75296  0.81860  1.0000
  H   H576      1.0  0.85047  0.50511  0.68970  1.0000
