data_image0
_chemical_formula_structural       FeS2FeS2FeSFeS3H2CSCH3C2H2CHNH3NC5HC2HFeHC4HC3HCH2C2HC2HFeC3H3SCHC2H2CHSCH6C3H8CH4CH3SCH2C2H4CH2CH4C2HC2HSH2CNH2SH2C2HC2H3CSCHC2HCH5C2H3CHCHCH4CHCH3FeHCH3FeHCHCH3FeS2FeS2FeSFeS3C6H5C3HCHSC4H6CHC2H2CHC2H2C3H2SHC7HCH3CH7CHNH2C4NH3C2H3CH2C2HC2H3CHSHNH8NHCHSC2HCH3CH2CH2CH5CSCH4CH6CHFe2HSHCFeHS2H3FeSH3CH3CH2CH3FeS2FeS2FeSHS4CHSH2CHC4HCH3C7H2CHC2HNHC3H2CHC4H6C2SCH3SFeSHCH2NCH7NCHCNCHCFeCHCH3CH4SH7CSHCH3FeH5FeHCHCHCFeHCH3CHSH3CH3CH4CH8FeSHFeS2FeS2FeHFeSH2C6H3FeH2SHS2FeS2FeS2FeSHS2C6H2C6H2FeH3CHC3H6NSH2C5H3CH2CH5NC4H8CHCNHCHC2H6C3SCHCH7NHCH2C2HCH3CHCHCHSHCH2NH6CH3C2HC2H6C2HCH6NH2CH2CH4SFeHSHFeCFeHS2H3FeS3CH2C3HSNH3FeSC2H2C6H4C2HCHC3H2FeCH2CH8C2HSHNH2CSH2CH4CH4CSCH2CH3CNCH2FeCH2CHFeSH7CHC2HC5HCH4C2H2C3FeH2CH4CHNH2C2H3SH3NH3FeS2HCHFeSHFeS2FeSFeSNC6H6C7H3C2H6SHC2H2CH2SC2HCHC4H2SHNH3CHCH6C2NC8H21SCH2C2H3CH2SH4CH3SCH4CHC4H3C2HFeS2FeS2FeHFeS3HNHSHC2HCHCHCHCH4CH2C5H5C2HNH2C2HFe2HC2FeCH2CH4CHCNC2HC3H2SH10CHCNC2H2C2NCH2CHCSHC2HS2H2CH4CS2FeCHC2H6C3HC2H2CH2CH3CSHCH2CH6CHCH10CH5FeS2CH2NHFeS2FeS2FeHFeS3C6H6C2H3C7H5NC3H2FeHCHC2H7CH3CH4CSH3CHSHSH5CHCH3CH3C2H4CH4SHCH4CHCH4C2HCH2C4H3CNC6H6CHCHCH2C2H4NCH2SCH3CH2CH3C4H2FeH3FeSFeS3C3FeSC5H4SH4FeS2FeS2FeSCS4H2CHCH2C6H4C6H6SH6C2H4C2HNSCHFeHCH2C2H2CHSCH2CH5CH4C2FeSH2CH6SCNHNH3CH2CH4C2HNC8H9CH4CH5C2HCH2CH3CH2CH2CSH5C2SCHSCFeS2FeS2FeHFeSH2C6H4CH3S2FeS2FeS2FeSHS2C6H2C2H4CHCH3CH2C3H4C2HCH5NHCH3CH2C2HCH2FeCH2CHC4HSH3C2H4C3H6CH2NH2CH6CH4CH2C2H4FeH3NC3H8CH3CHC3HNCH2CH6C2HCHSHFeHSH2FeNS2HCSFeS3HSC4H5C5H5C3H2C5H2C2H4CH3CHFeH3FeSNC8H16CSHCNCHC2H3CH4FeCH2CHFeCH2SHCH2SCH4C2HC2HC3H2SCH14C3SH2C2SHCH4CHFeS4HFeSHFeS2FeSHS2C6H5C7H5CFeH5CH2NC5HCH10CH6CHNH3CH3CHSH3C2H6CHFeHCHCH2FeH2CH2SCH2SCFeNSHC2HCHCFeCHSH3CH4
_chemical_formula_sum              "Fe96 S192 H1152 C672 N48"
_cell_length_a       42.6722
_cell_length_b       42.6401
_cell_length_c       35.8926
_cell_angle_alpha    90.1054
_cell_angle_beta     89.6884
_cell_angle_gamma    120.033

_space_group_name_H-M_alt    "P 1"
_space_group_IT_number       1

loop_
  _space_group_symop_operation_xyz
  'x, y, z'

loop_
  _atom_site_type_symbol
  _atom_site_label
  _atom_site_symmetry_multiplicity
  _atom_site_fract_x
  _atom_site_fract_y
  _atom_site_fract_z
  _atom_site_occupancy
  Fe  Fe1       1.0  0.39993  0.09038  0.28133  1.0000
  S   S1        1.0  0.38482  0.13365  0.28454  1.0000
  S   S2        1.0  0.43618  0.08718  0.23562  1.0000
  Fe  Fe2       1.0  0.37149  0.06412  0.36269  1.0000
  S   S3        1.0  0.35631  0.10704  0.37103  1.0000
  S   S4        1.0  0.35793  0.01873  0.40471  1.0000
  Fe  Fe3       1.0  0.33364  0.09161  0.31311  1.0000
  S   S5        1.0  0.27959  0.08617  0.29842  1.0000
  Fe  Fe4       1.0  0.40889  0.14467  0.34172  1.0000
  S   S6        1.0  0.45556  0.19959  0.35801  1.0000
  S   S7        1.0  0.34665  0.04701  0.30547  1.0000
  S   S8        1.0  0.42591  0.10266  0.33794  1.0000
  H   H1        1.0  0.23334  0.15438  0.01176  1.0000
  H   H2        1.0  0.04136  0.17265  0.29167  1.0000
  C   C1        1.0  0.15992  0.04220  0.46365  1.0000
  S   S9        1.0  0.06258  0.20181  0.04786  1.0000
  C   C2        1.0  0.04642  0.14971  0.29561  1.0000
  H   H3        1.0  0.07594  0.16176  0.29997  1.0000
  H   H4        1.0  0.13199  0.02358  0.47401  1.0000
  H   H5        1.0  0.41261  0.23363  0.02304  1.0000
  C   C3        1.0  0.48365  0.11838  0.13311  1.0000
  C   C4        1.0  0.20982  0.28518  0.06062  1.0000
  H   H6        1.0  0.18648  0.10081  0.44883  1.0000
  H   H7        1.0  0.00206  0.05120  0.38009  1.0000
  C   C5        1.0  0.20191  0.05590  0.40890  1.0000
  H   H8        1.0  0.20973  0.29969  0.08534  1.0000
  N   N1        1.0  0.16552  0.03002  0.42593  1.0000
  H   H9        1.0  0.00148  0.24843  0.08081  1.0000
  H   H10       1.0  0.17723  0.03985  0.48529  1.0000
  H   H11       1.0  0.08710  0.07770  0.30744  1.0000
  N   N2        1.0  0.02527  0.09329  0.33793  1.0000
  C   C6        1.0  0.05036  0.01620  0.45051  1.0000
  C   C7        1.0  0.25853  0.22486  0.07292  1.0000
  C   C8        1.0  0.06339  0.10117  0.34518  1.0000
  C   C9        1.0  0.44515  0.10377  0.18892  1.0000
  C   C10       1.0  0.00329  0.02907  0.31200  1.0000
  H   H12       1.0  0.33663  0.19155  0.07703  1.0000
  C   C11       1.0  0.45750  0.12042  0.11153  1.0000
  C   C12       1.0  0.47726  0.10965  0.17138  1.0000
  H   H13       1.0  0.46590  0.03837  0.04042  1.0000
  Fe  Fe5       1.0  0.08923  0.18160  0.00786  1.0000
  H   H14       1.0  0.40499  0.11618  0.11283  1.0000
  C   C13       1.0  0.24018  0.28117  0.00524  1.0000
  C   C14       1.0  0.41459  0.01897  0.14690  1.0000
  C   C15       1.0  0.45332  0.23971  0.35423  1.0000
  C   C16       1.0  0.42791  0.24868  0.99882  1.0000
  H   H15       1.0  0.29588  0.28161  0.05717  1.0000
  C   C17       1.0  0.45164  0.30497  0.34991  1.0000
  C   C18       1.0  0.42030  0.27150  0.34318  1.0000
  C   C19       1.0  0.42119  0.23897  0.34493  1.0000
  H   H16       1.0  0.20467  0.08250  0.40211  1.0000
  C   C20       1.0  0.46985  0.01964  0.36776  1.0000
  H   H17       1.0  0.39518  0.27075  0.33680  1.0000
  H   H18       1.0  0.39688  0.21334  0.33985  1.0000
  C   C21       1.0  0.23904  0.04566  0.30886  1.0000
  C   C22       1.0  0.20581  0.04259  0.29906  1.0000
  H   H19       1.0  0.43697  0.01278  0.41846  1.0000
  C   C23       1.0  0.42571  0.11527  0.12927  1.0000
  C   C24       1.0  0.17965  0.25118  0.05266  1.0000
  H   H20       1.0  0.10910  0.01186  0.41427  1.0000
  Fe  Fe6       1.0  0.01140  0.14949  0.03618  1.0000
  C   C25       1.0  0.20024  0.15078  0.05839  1.0000
  C   C26       1.0  0.35720  0.02146  0.45409  1.0000
  C   C27       1.0  0.48467  0.27318  0.36087  1.0000
  H   H21       1.0  0.48236  0.18178  0.17950  1.0000
  H   H22       1.0  0.39383  0.07892  0.45759  1.0000
  H   H23       1.0  0.11406  0.05060  0.36458  1.0000
  S   S10       1.0  0.05655  0.27869  0.00084  1.0000
  C   C28       1.0  0.17994  0.23184  0.02128  1.0000
  H   H24       1.0  0.07880  0.12695  0.36098  1.0000
  C   C29       1.0  0.37793  0.05410  0.47315  1.0000
  C   C30       1.0  0.28332  0.18353  0.06394  1.0000
  H   H25       1.0  0.20550  0.06480  0.28486  1.0000
  H   H26       1.0  0.02093  0.13779  0.13242  1.0000
  C   C31       1.0  0.46408  0.03305  0.28877  1.0000
  H   H27       1.0  0.46834  0.99581  0.42283  1.0000
  S   S11       1.0  0.46003  0.12205  0.06189  1.0000
  C   C32       1.0  0.02464  0.12765  0.32977  1.0000
  H   H28       1.0  0.07873  0.11045  0.28427  1.0000
  H   H29       1.0  0.26719  0.16816  0.08868  1.0000
  H   H30       1.0  0.41744  0.03066  0.17507  1.0000
  H   H31       1.0  0.20492  0.04527  0.38154  1.0000
  H   H32       1.0  0.25994  0.08514  0.41800  1.0000
  H   H33       1.0  0.24919  0.21039  0.10007  1.0000
  C   C33       1.0  0.41984  0.10769  0.16782  1.0000
  C   C34       1.0  0.01333  0.30921  0.00701  1.0000
  C   C35       1.0  0.46503  0.19764  0.24353  1.0000
  H   H34       1.0  0.20837  0.13555  0.07718  1.0000
  H   H35       1.0  0.41096  0.03072  0.01534  1.0000
  H   H36       1.0  0.11513  0.12450  0.31591  1.0000
  H   H37       1.0  0.39488  0.10304  0.18071  1.0000
  H   H38       1.0  0.06276  0.07978  0.36345  1.0000
  H   H39       1.0  0.17576  0.13049  0.04322  1.0000
  H   H40       1.0  0.00665  0.03827  0.11859  1.0000
  H   H41       1.0  0.23433  0.07477  0.46032  1.0000
  C   C36       1.0  0.23523  0.06402  0.43246  1.0000
  H   H42       1.0  0.05726  0.06959  0.45699  1.0000
  H   H43       1.0  0.01693  0.26832  0.32593  1.0000
  H   H44       1.0  0.46206  0.24513  0.22300  1.0000
  H   H45       1.0  0.23867  0.04000  0.43505  1.0000
  C   C37       1.0  0.44497  0.21529  0.22519  1.0000
  H   H46       1.0  0.42075  0.20927  0.24224  1.0000
  H   H47       1.0  0.13228  0.00435  0.37740  1.0000
  H   H48       1.0  0.15655  0.23947  0.07134  1.0000
  S   S12       1.0  0.03833  0.01324  0.40287  1.0000
  C   C38       1.0  0.13561  0.02419  0.39949  1.0000
  H   H49       1.0  0.14769  0.00877  0.29910  1.0000
  H   H50       1.0  0.45065  0.04549  0.49403  1.0000
  C   C39       1.0  0.24023  0.30016  0.03706  1.0000
  C   C40       1.0  0.99118  0.31857  0.23895  1.0000
  H   H51       1.0  0.46315  0.20031  0.27411  1.0000
  H   H52       1.0  0.02837  0.03067  0.32254  1.0000
  H   H53       1.0  0.28282  0.16207  0.04576  1.0000
  H   H54       1.0  0.32472  0.02015  0.17521  1.0000
  C   C41       1.0  0.28812  0.22579  0.01287  1.0000
  H   H55       1.0  0.44879  0.16798  0.23793  1.0000
  H   H56       1.0  0.99705  0.01460  0.28489  1.0000
  C   C42       1.0  0.34410  0.01033  0.17984  1.0000
  H   H57       1.0  0.48449  0.04319  0.42325  1.0000
  H   H58       1.0  0.16071  0.06587  0.35590  1.0000
  H   H59       1.0  0.02065  0.07720  0.27947  1.0000
  H   H60       1.0  0.41152  0.01902  0.35601  1.0000
  C   C43       1.0  0.22998  0.17388  0.02958  1.0000
  C   C44       1.0  0.48398  0.30574  0.35827  1.0000
  H   H61       1.0  0.13863  0.07953  0.45997  1.0000
  C   C45       1.0  0.21016  0.24702  0.99746  1.0000
  C   C46       1.0  0.00259  0.07670  0.37254  1.0000
  H   H62       1.0  0.31363  0.24961  0.02206  1.0000
  S   S13       1.0  0.03913  0.12692  0.00011  1.0000
  H   H63       1.0  0.47246  0.03886  0.15193  1.0000
  H   H64       1.0  0.19166  0.16724  0.07493  1.0000
  C   C47       1.0  0.99400  0.12752  0.18606  1.0000
  N   N3        1.0  0.26590  0.20255  0.04518  1.0000
  H   H65       1.0  0.45333  0.01412  0.10999  1.0000
  H   H66       1.0  0.18401  0.99625  0.45224  1.0000
  S   S14       1.0  0.38785  0.28238  0.00331  1.0000
  H   H67       1.0  0.14673  0.08101  0.39657  1.0000
  H   H68       1.0  0.00757  0.12182  0.40710  1.0000
  C   C48       1.0  0.99590  0.13065  0.14688  1.0000
  C   C49       1.0  0.16446  0.08032  0.46644  1.0000
  H   H69       1.0  0.26465  0.01885  0.33484  1.0000
  C   C50       1.0  0.46404  0.01721  0.41045  1.0000
  C   C51       1.0  0.00695  0.06670  0.30658  1.0000
  H   H70       1.0  0.33915  0.23149  0.06091  1.0000
  H   H71       1.0  0.31468  0.26412  0.09079  1.0000
  H   H72       1.0  0.23596  0.22868  0.06312  1.0000
  C   C52       1.0  0.17297  0.01087  0.30724  1.0000
  S   S15       1.0  0.14458  0.18739  0.01357  1.0000
  C   C53       1.0  0.23920  0.01675  0.32707  1.0000
  H   H73       1.0  0.04415  0.11211  0.41366  1.0000
  C   C54       1.0  0.08655  0.10334  0.31083  1.0000
  C   C55       1.0  0.28971  0.26341  0.08151  1.0000
  H   H74       1.0  0.03796  0.13392  0.26943  1.0000
  C   C56       1.0  0.05741  0.04721  0.47094  1.0000
  H   H75       1.0  0.21825  0.18629  0.01108  1.0000
  H   H76       1.0  0.03560  0.14688  0.35351  1.0000
  H   H77       1.0  0.28106  0.27517  0.10426  1.0000
  H   H78       1.0  0.36938  0.03380  0.19005  1.0000
  H   H79       1.0  0.43518  0.20377  0.19705  1.0000
  C   C57       1.0  0.14001  0.05767  0.37832  1.0000
  C   C58       1.0  0.32235  0.20732  0.07818  1.0000
  H   H80       1.0  0.44575  0.04323  0.29719  1.0000
  H   H81       1.0  0.01778  0.13245  0.20141  1.0000
  H   H82       1.0  0.32239  0.21583  0.10745  1.0000
  C   C59       1.0  0.99465  0.29913  0.35049  1.0000
  H   H83       1.0  0.48954  0.17406  0.30100  1.0000
  C   C60       1.0  0.44816  0.01501  0.14023  1.0000
  H   H84       1.0  0.47362  0.04651  0.35963  1.0000
  C   C61       1.0  0.01488  0.10024  0.40809  1.0000
  H   H85       1.0  0.41693  0.04040  0.12742  1.0000
  H   H86       1.0  0.99622  0.12155  0.32615  1.0000
  H   H87       1.0  0.00022  0.08295  0.43246  1.0000
  H   H88       1.0  0.35373  0.01450  0.12053  1.0000
  C   C62       1.0  0.34910  0.99462  0.14308  1.0000
  H   H89       1.0  0.12977  0.29810  0.04525  1.0000
  C   C63       1.0  0.99302  0.26718  0.33780  1.0000
  H   H90       1.0  0.00334  0.31533  0.26510  1.0000
  H   H91       1.0  0.46421  0.03182  0.25784  1.0000
  H   H92       1.0  0.27344  0.23763  0.99840  1.0000
  Fe  Fe7       1.0  0.04923  0.22252  0.99632  1.0000
  H   H93       1.0  0.17221  0.09047  0.49540  1.0000
  C   C64       1.0  0.45221  0.99519  0.30498  1.0000
  H   H94       1.0  0.38698  0.99516  0.29496  1.0000
  H   H95       1.0  0.03282  0.32731  0.02712  1.0000
  H   H96       1.0  0.48349  0.99453  0.00204  1.0000
  Fe  Fe8       1.0  0.02913  0.15371  0.95124  1.0000
  H   H97       1.0  0.30921  0.31750  0.63633  1.0000
  C   C65       1.0  0.01679  0.03983  0.91170  1.0000
  H   H98       1.0  0.07516  0.06372  0.91534  1.0000
  C   C66       1.0  0.41214  0.02733  0.98476  1.0000
  H   H99       1.0  0.27493  0.03762  0.51399  1.0000
  H   H100      1.0  0.48082  0.30038  0.91051  1.0000
  H   H101      1.0  0.32956  0.28684  0.77187  1.0000
  Fe  Fe9       1.0  0.08769  0.09592  0.69487  1.0000
  S   S16       1.0  0.14766  0.13462  0.69796  1.0000
  S   S17       1.0  0.04251  0.08704  0.73572  1.0000
  Fe  Fe10      1.0  0.09361  0.06536  0.61835  1.0000
  S   S18       1.0  0.15379  0.10202  0.61615  1.0000
  S   S19       1.0  0.06364  0.01813  0.57780  1.0000
  Fe  Fe11      1.0  0.15364  0.08821  0.67622  1.0000
  S   S20       1.0  0.19896  0.08019  0.69762  1.0000
  Fe  Fe12      1.0  0.14338  0.14570  0.63760  1.0000
  S   S21       1.0  0.17951  0.20062  0.61099  1.0000
  S   S22       1.0  0.09406  0.04848  0.67782  1.0000
  S   S23       1.0  0.08267  0.10998  0.63512  1.0000
  C   C67       1.0  0.33059  0.07702  0.63170  1.0000
  C   C68       1.0  0.16042  0.27540  0.66121  1.0000
  C   C69       1.0  0.15741  0.24209  0.65087  1.0000
  C   C70       1.0  0.18129  0.24132  0.62450  1.0000
  C   C71       1.0  0.20801  0.27395  0.60858  1.0000
  C   C72       1.0  0.26640  0.09612  0.57410  1.0000
  H   H102      1.0  0.14194  0.27586  0.68165  1.0000
  H   H103      1.0  0.13659  0.21705  0.66314  1.0000
  H   H104      1.0  0.22639  0.27352  0.58796  1.0000
  H   H105      1.0  0.32560  0.06474  0.56184  1.0000
  H   H106      1.0  0.27981  0.07359  0.64474  1.0000
  C   C73       1.0  0.99361  0.25976  0.96316  1.0000
  C   C74       1.0  0.37925  0.05441  0.51244  1.0000
  C   C75       1.0  0.19943  0.03990  0.68751  1.0000
  H   H107      1.0  0.27652  0.28851  0.77945  1.0000
  C   C76       1.0  0.23973  0.09713  0.60277  1.0000
  H   H108      1.0  0.28570  0.08366  0.50300  1.0000
  S   S24       1.0  0.08044  0.20698  0.95720  1.0000
  C   C77       1.0  0.03610  0.10119  0.78057  1.0000
  C   C78       1.0  0.06331  0.11818  0.80765  1.0000
  C   C79       1.0  0.05484  0.12659  0.84342  1.0000
  C   C80       1.0  0.01919  0.11816  0.85200  1.0000
  H   H109      1.0  0.01005  0.00610  0.84408  1.0000
  H   H110      1.0  0.05934  0.05800  0.86866  1.0000
  H   H111      1.0  0.09062  0.12438  0.80122  1.0000
  H   H112      1.0  0.07567  0.13919  0.86433  1.0000
  H   H113      1.0  0.31582  0.22690  0.96157  1.0000
  H   H114      1.0  0.28821  0.12472  0.56939  1.0000
  C   C81       1.0  0.35932  0.02230  0.53311  1.0000
  H   H115      1.0  0.45811  0.22049  0.99503  1.0000
  C   C82       1.0  0.31889  0.28969  0.74469  1.0000
  C   C83       1.0  0.47414  0.03378  0.92297  1.0000
  H   H116      1.0  0.26609  0.00036  0.62034  1.0000
  H   H117      1.0  0.25039  0.05823  0.71512  1.0000
  C   C84       1.0  0.99260  0.10162  0.82463  1.0000
  H   H118      1.0  0.27529  0.18475  0.96874  1.0000
  C   C85       1.0  0.44150  0.29458  0.95202  1.0000
  C   C86       1.0  0.29449  0.29675  0.65822  1.0000
  H   H119      1.0  0.42997  0.04451  0.91026  1.0000
  H   H120      1.0  0.15474  0.26312  0.93499  1.0000
  C   C87       1.0  0.06208  0.01967  0.52846  1.0000
  C   C88       1.0  0.46541  0.04350  0.55283  1.0000
  C   C89       1.0  0.23064  0.00520  0.69125  1.0000
  H   H121      1.0  0.45931  0.00829  0.90668  1.0000
  H   H122      1.0  0.30888  0.26323  0.73087  1.0000
  S   S25       1.0  0.00443  0.12468  0.89648  1.0000
  H   H123      1.0  0.39633  0.07961  0.52682  1.0000
  C   C90       1.0  0.47274  0.25969  0.95102  1.0000
  C   C91       1.0  0.46621  0.01363  0.62906  1.0000
  C   C92       1.0  0.24143  0.25019  0.71262  1.0000
  C   C93       1.0  0.23380  0.29959  0.73583  1.0000
  C   C94       1.0  0.45479  0.02276  0.75380  1.0000
  C   C95       1.0  0.29901  0.20673  0.98321  1.0000
  C   C96       1.0  0.22204  0.22437  0.74557  1.0000
  H   H124      1.0  0.13347  0.28736  0.98595  1.0000
  C   C97       1.0  0.46650  0.28631  0.93552  1.0000
  H   H125      1.0  0.33714  0.08242  0.66179  1.0000
  H   H126      1.0  0.25936  0.24114  0.70009  1.0000
  H   H127      1.0  0.22070  0.24436  0.69080  1.0000
  C   C98       1.0  0.26248  0.00446  0.59055  1.0000
  H   H128      1.0  0.14334  0.29569  0.91892  1.0000
  H   H129      1.0  0.21499  0.07030  0.60635  1.0000
  H   H130      1.0  0.32276  0.04855  0.62659  1.0000
  H   H131      1.0  0.24064  0.22858  0.76890  1.0000
  H   H132      1.0  0.19843  0.22633  0.75555  1.0000
  H   H133      1.0  0.21125  0.19605  0.73595  1.0000
  H   H134      1.0  0.44563  0.05149  0.56300  1.0000
  C   C99       1.0  0.29595  0.06668  0.51516  1.0000
  H   H135      1.0  0.47891  0.04354  0.62836  1.0000
  N   N4        1.0  0.26148  0.29012  0.72173  1.0000
  H   H136      1.0  0.23070  0.11589  0.59256  1.0000
  H   H137      1.0  0.47289  0.08500  0.92157  1.0000
  C   C100      1.0  0.30030  0.08526  0.62198  1.0000
  C   C101      1.0  0.05299  0.04497  0.89659  1.0000
  C   C102      1.0  0.22886  0.03652  0.69942  1.0000
  C   C103      1.0  0.18786  0.30810  0.64597  1.0000
  N   N5        1.0  0.47024  0.02595  0.96425  1.0000
  H   H138      1.0  0.26327  0.29272  0.98666  1.0000
  H   H139      1.0  0.25334  0.00285  0.70087  1.0000
  H   H140      1.0  0.47743  0.02399  0.82977  1.0000
  C   C104      1.0  0.25208  0.03401  0.58604  1.0000
  C   C105      1.0  0.16235  0.30303  0.97707  1.0000
  H   H141      1.0  0.48727  0.00572  0.62740  1.0000
  H   H142      1.0  0.28676  0.00950  0.57459  1.0000
  H   H143      1.0  0.01573  0.03421  0.94213  1.0000
  C   C106      1.0  0.45988  0.05807  0.90816  1.0000
  H   H144      1.0  0.33164  0.10800  0.55374  1.0000
  H   H145      1.0  0.01129  0.03089  0.67955  1.0000
  C   C107      1.0  0.45362  0.24114  0.98296  1.0000
  C   C108      1.0  0.21135  0.30719  0.61929  1.0000
  H   H146      1.0  0.23379  0.02678  0.56160  1.0000
  C   C109      1.0  0.28926  0.29958  0.75184  1.0000
  C   C110      1.0  0.16303  0.29230  0.93603  1.0000
  H   H147      1.0  0.35581  0.09484  0.61589  1.0000
  H   H148      1.0  0.40505  0.99742  0.52742  1.0000
  H   H149      1.0  0.23381  0.03010  0.60998  1.0000
  C   C111      1.0  0.47486  0.05709  0.51218  1.0000
  H   H150      1.0  0.25118  0.08699  0.54751  1.0000
  S   S26       1.0  0.49041  0.15244  0.96063  1.0000
  H   H151      1.0  0.25914  0.31666  0.67125  1.0000
  N   N6        1.0  0.45081  0.00343  0.55890  1.0000
  H   H152      1.0  0.06811  0.07279  0.52522  1.0000
  H   H153      1.0  0.99836  0.05948  0.63381  1.0000
  H   H154      1.0  0.31292  0.11522  0.62485  1.0000
  H   H155      1.0  0.22197  0.28603  0.76289  1.0000
  H   H156      1.0  0.25233  0.10755  0.63034  1.0000
  H   H157      1.0  0.17673  0.29220  0.99360  1.0000
  H   H158      1.0  0.48127  0.07977  0.98101  1.0000
  H   H159      1.0  0.21039  0.23222  0.97303  1.0000
  N   N7        1.0  0.28250  0.07280  0.58434  1.0000
  H   H160      1.0  0.14869  0.01389  0.65828  1.0000
  C   C112      1.0  0.31045  0.07879  0.55499  1.0000
  H   H161      1.0  0.99823  0.03986  0.84009  1.0000
  S   S27       1.0  0.36500  0.02347  0.58217  1.0000
  C   C113      1.0  0.06365  0.04914  0.50966  1.0000
  C   C114      1.0  0.00088  0.09315  0.78956  1.0000
  H   H162      1.0  0.01963  0.06720  0.90950  1.0000
  C   C115      1.0  0.48111  0.99578  0.55149  1.0000
  H   H163      1.0  0.38345  0.01171  0.97567  1.0000
  H   H164      1.0  0.31387  0.28969  0.67043  1.0000
  H   H165      1.0  0.42391  0.05407  0.97111  1.0000
  C   C116      1.0  0.01881  0.28295  0.98921  1.0000
  H   H166      1.0  0.00641  0.00406  0.74681  1.0000
  H   H167      1.0  0.27249  0.27276  0.64385  1.0000
  C   C117      1.0  0.27894  0.31230  0.68704  1.0000
  H   H168      1.0  0.46659  0.06312  0.87802  1.0000
  H   H169      1.0  0.43281  0.02696  0.76494  1.0000
  C   C118      1.0  0.42185  0.27546  0.98352  1.0000
  H   H170      1.0  0.45561  0.02529  0.72300  1.0000
  H   H171      1.0  0.21069  0.28960  0.71615  1.0000
  H   H172      1.0  0.45291  0.00472  0.65675  1.0000
  H   H173      1.0  0.48640  0.08694  0.51192  1.0000
  H   H174      1.0  0.05378  0.01950  0.89535  1.0000
  C   C119      1.0  0.48737  0.00306  0.97227  1.0000
  S   S28       1.0  0.99678  0.17153  0.98637  1.0000
  C   C120      1.0  0.17153  0.01155  0.66754  1.0000
  H   H175      1.0  0.34158  0.31124  0.72825  1.0000
  H   H176      1.0  0.99695  0.02567  0.60355  1.0000
  H   H177      1.0  0.49065  0.06001  0.56906  1.0000
  H   H178      1.0  0.41612  0.00259  0.60345  1.0000
  C   C121      1.0  0.43084  0.00503  0.97566  1.0000
  H   H179      1.0  0.19028  0.30710  0.92310  1.0000
  H   H180      1.0  0.99786  0.23980  0.94893  1.0000
  H   H181      1.0  0.48941  0.00097  0.52172  1.0000
  H   H182      1.0  0.47989  0.04521  0.76543  1.0000
  H   H183      1.0  0.43663  0.31489  0.93976  1.0000
  H   H184      1.0  0.31603  0.19638  0.99513  1.0000
  C   C122      1.0  0.43729  0.99503  0.59860  1.0000
  H   H185      1.0  0.31858  0.07010  0.49690  1.0000
  Fe  Fe13      1.0  0.08540  0.47589  0.34277  1.0000
  Fe  Fe14      1.0  0.03778  0.39454  0.35399  1.0000
  H   H186      1.0  0.42275  0.53784  0.06579  1.0000
  S   S29       1.0  0.44916  0.34510  0.34896  1.0000
  H   H187      1.0  0.03733  0.52445  0.27994  1.0000
  C   C123      1.0  0.18723  0.50981  0.42665  1.0000
  Fe  Fe15      1.0  0.02995  0.44811  0.40548  1.0000
  H   H188      1.0  0.36082  0.51442  0.16486  1.0000
  S   S30       1.0  0.05144  0.43042  0.30354  1.0000
  S   S31       1.0  0.07666  0.43956  0.39165  1.0000
  H   H189      1.0  0.07479  0.54896  0.20383  1.0000
  H   H190      1.0  0.30119  0.51565  0.41692  1.0000
  H   H191      1.0  0.44449  0.54983  0.14355  1.0000
  Fe  Fe16      1.0  0.41304  0.40596  0.03709  1.0000
  S   S32       1.0  0.45373  0.45099  0.07488  1.0000
  H   H192      1.0  0.47939  0.57995  0.40299  1.0000
  H   H193      1.0  0.43361  0.45930  0.18790  1.0000
  H   H194      1.0  0.42326  0.49879  0.04832  1.0000
  C   C124      1.0  0.46763  0.42930  0.14460  1.0000
  H   H195      1.0  0.14609  0.33525  0.07654  1.0000
  H   H196      1.0  0.41942  0.53355  0.18651  1.0000
  H   H197      1.0  0.22868  0.50207  0.48588  1.0000
  C   C125      1.0  0.21558  0.50251  0.40781  1.0000
  H   H198      1.0  0.44968  0.40143  0.13664  1.0000
  H   H199      1.0  0.01735  0.49500  0.24275  1.0000
  C   C126      1.0  0.25975  0.46780  0.39067  1.0000
  H   H200      1.0  0.30068  0.56058  0.48725  1.0000
  H   H201      1.0  0.20267  0.45791  0.30297  1.0000
  H   H202      1.0  0.14791  0.46264  0.31623  1.0000
  Fe  Fe17      1.0  0.41238  0.59546  0.28842  1.0000
  S   S33       1.0  0.36750  0.60448  0.27004  1.0000
  S   S34       1.0  0.45699  0.60067  0.24937  1.0000
  Fe  Fe18      1.0  0.38885  0.58695  0.37152  1.0000
  S   S35       1.0  0.34321  0.59711  0.35858  1.0000
  S   S36       1.0  0.40168  0.58143  0.43218  1.0000
  Fe  Fe19      1.0  0.33282  0.55984  0.31016  1.0000
  S   S37       1.0  0.27819  0.51122  0.29784  1.0000
  H   H203      1.0  0.44502  0.54719  0.30832  1.0000
  S   S38       1.0  0.37668  0.54735  0.32487  1.0000
  S   S39       1.0  0.42921  0.63426  0.33663  1.0000
  S   S40       1.0  0.04025  0.48662  0.35801  1.0000
  S   S41       1.0  0.13924  0.52536  0.32934  1.0000
  C   C127      1.0  0.44796  0.51375  0.37074  1.0000
  H   H204      1.0  0.36535  0.47936  0.21592  1.0000
  S   S42       1.0  0.05179  0.63489  0.04460  1.0000
  H   H205      1.0  0.23859  0.46034  0.36916  1.0000
  H   H206      1.0  0.16212  0.49693  0.40968  1.0000
  C   C128      1.0  0.44024  0.52839  0.05274  1.0000
  H   H207      1.0  0.03642  0.56358  0.18369  1.0000
  C   C129      1.0  0.45811  0.61057  0.20126  1.0000
  C   C130      1.0  0.42682  0.60372  0.18211  1.0000
  C   C131      1.0  0.42831  0.61007  0.14344  1.0000
  C   C132      1.0  0.46115  0.62410  0.12361  1.0000
  H   H208      1.0  0.07745  0.51591  0.23049  1.0000
  C   C133      1.0  0.47537  0.57936  0.37237  1.0000
  H   H209      1.0  0.40128  0.59255  0.19686  1.0000
  H   H210      1.0  0.40377  0.60372  0.12870  1.0000
  H   H211      1.0  0.31701  0.48283  0.18224  1.0000
  C   C134      1.0  0.05836  0.52620  0.48656  1.0000
  C   C135      1.0  0.23964  0.51550  0.30545  1.0000
  C   C136      1.0  0.20528  0.48425  0.30716  1.0000
  C   C137      1.0  0.17426  0.48686  0.31472  1.0000
  C   C138      1.0  0.17741  0.52085  0.31991  1.0000
  C   C139      1.0  0.21174  0.55210  0.31781  1.0000
  C   C140      1.0  0.24282  0.54946  0.31090  1.0000
  H   H212      1.0  0.21432  0.57846  0.32175  1.0000
  H   H213      1.0  0.26915  0.57371  0.30956  1.0000
  C   C141      1.0  0.37772  0.54429  0.46320  1.0000
  H   H214      1.0  0.29775  0.50702  0.47582  1.0000
  C   C142      1.0  0.36688  0.50874  0.45250  1.0000
  C   C143      1.0  0.06357  0.61232  0.23415  1.0000
  H   H215      1.0  0.37033  0.50303  0.42388  1.0000
  N   N8        1.0  0.38559  0.46022  0.17048  1.0000
  H   H216      1.0  0.06209  0.53222  0.45707  1.0000
  C   C144      1.0  0.40942  0.49133  0.14500  1.0000
  C   C145      1.0  0.37001  0.42539  0.14855  1.0000
  C   C146      1.0  0.35600  0.46455  0.18896  1.0000
  H   H217      1.0  0.26594  0.45924  0.47896  1.0000
  H   H218      1.0  0.01917  0.56629  0.41771  1.0000
  C   C147      1.0  0.34720  0.42237  0.11421  1.0000
  H   H219      1.0  0.01239  0.59086  0.26080  1.0000
  C   C148      1.0  0.43406  0.52770  0.16448  1.0000
  C   C149      1.0  0.23970  0.49091  0.46477  1.0000
  C   C150      1.0  0.03224  0.58151  0.25632  1.0000
  C   C151      1.0  0.39143  0.42512  0.22642  1.0000
  H   H220      1.0  0.31360  0.60045  0.46086  1.0000
  H   H221      1.0  0.35201  0.40167  0.16628  1.0000
  H   H222      1.0  0.33262  0.43762  0.19663  1.0000
  H   H223      1.0  0.44598  0.48145  0.00158  1.0000
  H   H224      1.0  0.33154  0.47409  0.13870  1.0000
  H   H225      1.0  0.34710  0.45379  0.47112  1.0000
  C   C152      1.0  0.44830  0.50952  0.41346  1.0000
  C   C153      1.0  0.40937  0.45844  0.20047  1.0000
  S   S43       1.0  0.37111  0.41519  0.00956  1.0000
  C   C154      1.0  0.48383  0.43758  0.18055  1.0000
  H   H226      1.0  0.36189  0.44463  0.09391  1.0000
  H   H227      1.0  0.32098  0.41989  0.12237  1.0000
  H   H228      1.0  0.34040  0.39693  0.09919  1.0000
  S   S44       1.0  0.46075  0.62865  0.07453  1.0000
  Fe  Fe20      1.0  0.33158  0.35697  0.02162  1.0000
  S   S45       1.0  0.37239  0.34936  0.05335  1.0000
  H   H229      1.0  0.24892  0.55860  0.45596  1.0000
  C   C155      1.0  0.47115  0.54804  0.31329  1.0000
  H   H230      1.0  0.19627  0.53915  0.42723  1.0000
  H   H231      1.0  0.44382  0.49080  0.29594  1.0000
  N   N9        1.0  0.01390  0.54406  0.23927  1.0000
  C   C156      1.0  0.14195  0.32796  0.04653  1.0000
  H   H232      1.0  0.42741  0.48480  0.12831  1.0000
  H   H233      1.0  0.01490  0.43508  0.22905  1.0000
  H   H234      1.0  0.00872  0.36044  0.19497  1.0000
  H   H235      1.0  0.01297  0.50983  0.05417  1.0000
  H   H236      1.0  0.39217  0.42067  0.13867  1.0000
  H   H237      1.0  0.04279  0.58113  0.28454  1.0000
  H   H238      1.0  0.42003  0.48251  0.21906  1.0000
  N   N10       1.0  0.24975  0.51320  0.42949  1.0000
  C   C157      1.0  0.45542  0.54905  0.01581  1.0000
  H   H239      1.0  0.24907  0.44791  0.41376  1.0000
  C   C158      1.0  0.03370  0.52428  0.24929  1.0000
  N   N11       1.0  0.47804  0.54869  0.35454  1.0000
  C   C159      1.0  0.17880  0.34809  0.02623  1.0000
  H   H240      1.0  0.47474  0.51405  0.42368  1.0000
  C   C160      1.0  0.27456  0.50708  0.40418  1.0000
  Fe  Fe21      1.0  0.00547  0.43775  0.32224  1.0000
  C   C161      1.0  0.35373  0.48084  0.47939  1.0000
  H   H241      1.0  0.36525  0.42044  0.23790  1.0000
  C   C162      1.0  0.07182  0.53865  0.23258  1.0000
  H   H242      1.0  0.01021  0.63999  0.16562  1.0000
  H   H243      1.0  0.44774  0.57541  0.36848  1.0000
  H   H244      1.0  0.17979  0.49811  0.45503  1.0000
  C   C163      1.0  0.47445  0.45735  0.11940  1.0000
  H   H245      1.0  0.01190  0.42460  0.16079  1.0000
  H   H246      1.0  0.19681  0.33946  0.03941  1.0000
  H   H247      1.0  0.28206  0.46567  0.37703  1.0000
  H   H248      1.0  0.05341  0.61940  0.20893  1.0000
  S   S46       1.0  0.01659  0.45327  0.46662  1.0000
  H   H249      1.0  0.32476  0.56853  0.44299  1.0000
  H   H250      1.0  0.08489  0.60609  0.22615  1.0000
  H   H251      1.0  0.39347  0.49627  0.12394  1.0000
  H   H252      1.0  0.04009  0.54229  0.01846  1.0000
  H   H253      1.0  0.44866  0.48996  0.35890  1.0000
  H   H254      1.0  0.28120  0.52433  0.37882  1.0000
  H   H255      1.0  0.04428  0.35653  0.21644  1.0000
  C   C164      1.0  0.34078  0.48506  0.16695  1.0000
  S   S47       1.0  0.03551  0.34078  0.34517  1.0000
  H   H256      1.0  0.03526  0.55738  0.06340  1.0000
  C   C165      1.0  0.26695  0.55312  0.43801  1.0000
  H   H257      1.0  0.21738  0.46282  0.45904  1.0000
  H   H258      1.0  0.09276  0.55989  0.25069  1.0000
  H   H259      1.0  0.45804  0.52811  0.17694  1.0000
  Fe  Fe22      1.0  0.38256  0.64108  0.32001  1.0000
  H   H260      1.0  0.22232  0.51685  0.38063  1.0000
  H   H261      1.0  0.47214  0.52236  0.26116  1.0000
  H   H262      1.0  0.20107  0.47310  0.40105  1.0000
  H   H263      1.0  0.07653  0.63705  0.25174  1.0000
  H   H264      1.0  0.44059  0.52751  0.42831  1.0000
  Fe  Fe23      1.0  0.38514  0.33385  0.99763  1.0000
  H   H265      1.0  0.27102  0.56874  0.41175  1.0000
  C   C166      1.0  0.30352  0.57093  0.45840  1.0000
  H   H266      1.0  0.46190  0.53399  0.07304  1.0000
  C   C167      1.0  0.99230  0.54781  0.43045  1.0000
  H   H267      1.0  0.42096  0.51007  0.36329  1.0000
  C   C168      1.0  0.99235  0.50987  0.17657  1.0000
  Fe  Fe24      1.0  0.00050  0.62653  0.07135  1.0000
  H   H268      1.0  0.42765  0.48136  0.42124  1.0000
  C   C169      1.0  0.01823  0.35571  0.22195  1.0000
  H   H269      1.0  0.40972  0.42963  0.25029  1.0000
  H   H270      1.0  0.38764  0.40040  0.21200  1.0000
  H   H271      1.0  0.02442  0.37828  0.24130  1.0000
  C   C170      1.0  0.02066  0.53649  0.04172  1.0000
  H   H272      1.0  0.47819  0.41604  0.20006  1.0000
  S   S48       1.0  0.27773  0.34264  0.04797  1.0000
  H   H273      1.0  0.16206  0.39984  0.00191  1.0000
  H   H274      1.0  0.46958  0.57855  0.02231  1.0000
  H   H275      1.0  0.00406  0.64495  0.23391  1.0000
  C   C171      1.0  0.01008  0.54623  0.19770  1.0000
  H   H276      1.0  0.12263  0.33600  0.03597  1.0000
  H   H277      1.0  0.19058  0.37705  0.03377  1.0000
  H   H278      1.0  0.99813  0.56394  0.01111  1.0000
  C   C172      1.0  0.46991  0.51623  0.29146  1.0000
  H   H279      1.0  0.48050  0.55934  0.48352  1.0000
  H   H280      1.0  0.00808  0.49579  0.17952  1.0000
  H   H281      1.0  0.99184  0.51535  0.14639  1.0000
  H   H282      1.0  0.99655  0.54906  0.46101  1.0000
  C   C173      1.0  0.26990  0.48674  0.48383  1.0000
  H   H283      1.0  0.99911  0.50171  0.42122  1.0000
  H   H284      1.0  0.99393  0.55952  0.19169  1.0000
  H   H285      1.0  0.43148  0.54415  0.99914  1.0000
  H   H286      1.0  0.25198  0.39159  0.01640  1.0000
  H   H287      1.0  0.40997  0.65966  0.20576  1.0000
  H   H288      1.0  0.26806  0.48904  0.51452  1.0000
  H   H289      1.0  0.47200  0.56120  0.76365  1.0000
  H   H290      1.0  0.99280  0.52847  0.95744  1.0000
  Fe  Fe25      1.0  0.38304  0.39534  0.95605  1.0000
  S   S49       1.0  0.38684  0.43197  0.90720  1.0000
  H   H291      1.0  0.01159  0.58217  0.68134  1.0000
  Fe  Fe26      1.0  0.31660  0.44821  0.61012  1.0000
  S   S50       1.0  0.26428  0.44732  0.62007  1.0000
  S   S51       1.0  0.33775  0.45264  0.55044  1.0000
  Fe  Fe27      1.0  0.32271  0.43220  0.69416  1.0000
  S   S52       1.0  0.27156  0.43240  0.70907  1.0000
  S   S53       1.0  0.34993  0.41040  0.73335  1.0000
  Fe  Fe28      1.0  0.24883  0.39925  0.65705  1.0000
  H   H292      1.0  0.38170  0.57853  0.50934  1.0000
  Fe  Fe29      1.0  0.29190  0.48041  0.67069  1.0000
  S   S54       1.0  0.29880  0.39701  0.64333  1.0000
  H   H293      1.0  0.19147  0.55964  0.66560  1.0000
  H   H294      1.0  0.24842  0.56185  0.64577  1.0000
  C   C174      1.0  0.37185  0.42254  0.86008  1.0000
  C   C175      1.0  0.37011  0.39339  0.84035  1.0000
  C   C176      1.0  0.36257  0.38965  0.80180  1.0000
  C   C177      1.0  0.35525  0.41410  0.78270  1.0000
  C   C178      1.0  0.35595  0.44265  0.80268  1.0000
  C   C179      1.0  0.36480  0.44714  0.84092  1.0000
  H   H295      1.0  0.37612  0.37461  0.85443  1.0000
  H   H296      1.0  0.36312  0.36803  0.78658  1.0000
  H   H297      1.0  0.36646  0.47006  0.85572  1.0000
  Fe  Fe30      1.0  0.03014  0.63959  0.98903  1.0000
  H   H298      1.0  0.42733  0.46140  0.77316  1.0000
  H   H299      1.0  0.44983  0.57061  0.94371  1.0000
  S   S55       1.0  0.04104  0.60836  0.94324  1.0000
  H   H300      1.0  0.43026  0.45135  0.70571  1.0000
  S   S56       1.0  0.28933  0.53182  0.67759  1.0000
  S   S57       1.0  0.34555  0.48349  0.65944  1.0000
  Fe  Fe31      1.0  0.07998  0.59724  0.72697  1.0000
  S   S58       1.0  0.13404  0.60883  0.74722  1.0000
  S   S59       1.0  0.04001  0.60314  0.76516  1.0000
  Fe  Fe32      1.0  0.09951  0.58993  0.64498  1.0000
  S   S60       1.0  0.15595  0.60302  0.66042  1.0000
  S   S61       1.0  0.08432  0.58488  0.58310  1.0000
  Fe  Fe33      1.0  0.12844  0.56515  0.70821  1.0000
  S   S62       1.0  0.14309  0.52396  0.72868  1.0000
  H   H301      1.0  0.26785  0.35188  0.76472  1.0000
  S   S63       1.0  0.07160  0.54968  0.69144  1.0000
  S   S64       1.0  0.10291  0.63645  0.67892  1.0000
  C   C180      1.0  0.24742  0.52748  0.69025  1.0000
  C   C181      1.0  0.22882  0.50785  0.72195  1.0000
  C   C182      1.0  0.19696  0.50718  0.73352  1.0000
  C   C183      1.0  0.18342  0.52600  0.71345  1.0000
  C   C184      1.0  0.20186  0.54539  0.68153  1.0000
  C   C185      1.0  0.23391  0.54632  0.67012  1.0000
  H   H302      1.0  0.23939  0.49373  0.73795  1.0000
  H   H303      1.0  0.18280  0.49209  0.75821  1.0000
  C   C186      1.0  0.04537  0.60901  0.81438  1.0000
  C   C187      1.0  0.05925  0.59118  0.83543  1.0000
  C   C188      1.0  0.05825  0.59194  0.87473  1.0000
  C   C189      1.0  0.04407  0.61108  0.89365  1.0000
  C   C190      1.0  0.03144  0.63009  0.87265  1.0000
  C   C191      1.0  0.03169  0.62866  0.83326  1.0000
  H   H304      1.0  0.06941  0.57553  0.82146  1.0000
  H   H305      1.0  0.06803  0.57704  0.89058  1.0000
  Fe  Fe34      1.0  0.15693  0.64589  0.69785  1.0000
  H   H306      1.0  0.32232  0.60833  0.71955  1.0000
  H   H307      1.0  0.35102  0.46208  0.78838  1.0000
  H   H308      1.0  0.23219  0.33212  0.60689  1.0000
  C   C192      1.0  0.06810  0.54766  0.55143  1.0000
  H   H309      1.0  0.43979  0.51757  0.78010  1.0000
  C   C193      1.0  0.37329  0.55111  0.50070  1.0000
  C   C194      1.0  0.35860  0.52287  0.52728  1.0000
  C   C195      1.0  0.34992  0.48775  0.51702  1.0000
  H   H310      1.0  0.02042  0.64494  0.88672  1.0000
  H   H311      1.0  0.35538  0.52857  0.55597  1.0000
  H   H312      1.0  0.13428  0.65375  0.85088  1.0000
  H   H313      1.0  0.45035  0.48409  0.83128  1.0000
  H   H314      1.0  0.08712  0.38437  0.69108  1.0000
  H   H315      1.0  0.45664  0.46123  0.94123  1.0000
  N   N12       1.0  0.26913  0.64685  0.74632  1.0000
  S   S65       1.0  0.42865  0.39065  0.98274  1.0000
  H   H316      1.0  0.42347  0.52336  0.62748  1.0000
  H   H317      1.0  0.47863  0.47638  0.70574  1.0000
  C   C196      1.0  0.45427  0.48316  0.61514  1.0000
  C   C197      1.0  0.45521  0.54727  0.53834  1.0000
  C   C198      1.0  0.28099  0.61906  0.74140  1.0000
  C   C199      1.0  0.42566  0.53386  0.59892  1.0000
  C   C200      1.0  0.24457  0.39770  0.98882  1.0000
  H   H318      1.0  0.21459  0.60994  0.72682  1.0000
  H   H319      1.0  0.45757  0.44214  0.86933  1.0000
  H   H320      1.0  0.08694  0.58246  0.50317  1.0000
  C   C201      1.0  0.47123  0.56583  0.93221  1.0000
  H   H321      1.0  0.04511  0.50560  0.59289  1.0000
  H   H322      1.0  0.01853  0.45538  0.54673  1.0000
  C   C202      1.0  0.42351  0.56880  0.60277  1.0000
  H   H323      1.0  0.47994  0.52144  0.50496  1.0000
  H   H324      1.0  0.18350  0.58528  0.78314  1.0000
  H   H325      1.0  0.22379  0.58285  0.78726  1.0000
  H   H326      1.0  0.27844  0.65178  0.80602  1.0000
  H   H327      1.0  0.44815  0.43585  0.76277  1.0000
  N   N13       1.0  0.13990  0.41805  0.63548  1.0000
  C   C203      1.0  0.17102  0.42135  0.61220  1.0000
  C   C204      1.0  0.15531  0.43517  0.67269  1.0000
  C   C205      1.0  0.12446  0.43868  0.61588  1.0000
  C   C206      1.0  0.11210  0.37836  0.63871  1.0000
  H   H328      1.0  0.40035  0.51302  0.58531  1.0000
  H   H329      1.0  0.28557  0.61007  0.76894  1.0000
  H   H330      1.0  0.09970  0.36735  0.61111  1.0000
  H   H331      1.0  0.19384  0.44993  0.61195  1.0000
  H   H332      1.0  0.13501  0.43646  0.69101  1.0000
  H   H333      1.0  0.17654  0.46399  0.66849  1.0000
  H   H334      1.0  0.14650  0.46349  0.60220  1.0000
  H   H335      1.0  0.10597  0.42212  0.59302  1.0000
  C   C207      1.0  0.45264  0.46390  0.76160  1.0000
  H   H336      1.0  0.03163  0.59761  0.61881  1.0000
  C   C208      1.0  0.16239  0.40912  0.57118  1.0000
  N   N14       1.0  0.45826  0.53771  0.57823  1.0000
  H   H337      1.0  0.02741  0.64459  0.66680  1.0000
  C   C209      1.0  0.21339  0.60199  0.78554  1.0000
  H   H338      1.0  0.25874  0.35645  0.71641  1.0000
  C   C210      1.0  0.31506  0.62993  0.71735  1.0000
  C   C211      1.0  0.47647  0.48849  0.95179  1.0000
  H   H339      1.0  0.43356  0.48180  0.56054  1.0000
  H   H340      1.0  0.00845  0.63242  0.71245  1.0000
  H   H341      1.0  0.30994  0.63180  0.68742  1.0000
  H   H342      1.0  0.22430  0.34363  0.75070  1.0000
  H   H343      1.0  0.45864  0.54017  0.91619  1.0000
  H   H344      1.0  0.19790  0.42146  0.68328  1.0000
  C   C212      1.0  0.45703  0.50171  0.57748  1.0000
  C   C213      1.0  0.25834  0.65431  0.67700  1.0000
  C   C214      1.0  0.07245  0.55470  0.51284  1.0000
  S   S66       1.0  0.19281  0.34974  0.66126  1.0000
  C   C215      1.0  0.47516  0.48245  0.82528  1.0000
  H   H345      1.0  0.12243  0.47530  0.65799  1.0000
  C   C216      1.0  0.48376  0.54875  0.51058  1.0000
  H   H346      1.0  0.41971  0.57863  0.57555  1.0000
  H   H347      1.0  0.23118  0.65176  0.67737  1.0000
  H   H348      1.0  0.42821  0.52757  0.52668  1.0000
  H   H349      1.0  0.21865  0.64707  0.75321  1.0000
  H   H350      1.0  0.39947  0.56285  0.62007  1.0000
  H   H351      1.0  0.12478  0.36178  0.64597  1.0000
  H   H352      1.0  0.21875  0.61747  0.81186  1.0000
  N   N15       1.0  0.17827  0.34300  0.98456  1.0000
  H   H353      1.0  0.47078  0.55064  0.81252  1.0000
  C   C217      1.0  0.15472  0.35498  0.96524  1.0000
  H   H354      1.0  0.02328  0.59900  0.55098  1.0000
  H   H355      1.0  0.18212  0.40495  0.62428  1.0000
  C   C218      1.0  0.04903  0.51158  0.56341  1.0000
  C   C219      1.0  0.00588  0.59501  0.60865  1.0000
  H   H356      1.0  0.43242  0.49841  0.96389  1.0000
  C   C220      1.0  0.17218  0.41695  0.69581  1.0000
  H   H357      1.0  0.42877  0.47555  0.63034  1.0000
  H   H358      1.0  0.44754  0.59066  0.61700  1.0000
  H   H359      1.0  0.19073  0.41388  0.96042  1.0000
  C   C221      1.0  0.99976  0.58019  0.56850  1.0000
  H   H360      1.0  0.44656  0.42261  0.82394  1.0000
  C   C222      1.0  0.00204  0.62689  0.68238  1.0000
  H   H361      1.0  0.45272  0.49854  0.71589  1.0000
  C   C223      1.0  0.45421  0.47353  0.71992  1.0000
  H   H362      1.0  0.17896  0.42938  0.72395  1.0000
  S   S67       1.0  0.34065  0.33705  0.96697  1.0000
  H   H363      1.0  0.48714  0.58803  0.91204  1.0000
  C   C224      1.0  0.07995  0.36788  0.66545  1.0000
  H   H364      1.0  0.15338  0.38758  0.69993  1.0000
  H   H365      1.0  0.45399  0.45738  0.60955  1.0000
  N   N16       1.0  0.48507  0.48943  0.78455  1.0000
  H   H366      1.0  0.26988  0.41090  0.97194  1.0000
  H   H367      1.0  0.09043  0.46310  0.62139  1.0000
  H   H368      1.0  0.22883  0.34477  0.97034  1.0000
  H   H369      1.0  0.25920  0.59390  0.72854  1.0000
  H   H370      1.0  0.48162  0.50441  0.56369  1.0000
  H   H371      1.0  0.47817  0.49928  0.63286  1.0000
  C   C225      1.0  0.16388  0.39426  0.97205  1.0000
  H   H372      1.0  0.14281  0.37970  0.56886  1.0000
  H   H373      1.0  0.06978  0.33975  0.67552  1.0000
  H   H374      1.0  0.99954  0.49602  0.98170  1.0000
  C   C226      1.0  0.46771  0.44544  0.84020  1.0000
  C   C227      1.0  0.03399  0.48310  0.53710  1.0000
  H   H375      1.0  0.01186  0.62353  0.60645  1.0000
  C   C228      1.0  0.10367  0.45238  0.63995  1.0000
  C   C229      1.0  0.46800  0.53974  0.78382  1.0000
  H   H376      1.0  0.18771  0.41379  0.55724  1.0000
  H   H377      1.0  0.08222  0.43097  0.65732  1.0000
  H   H378      1.0  0.45719  0.57424  0.53661  1.0000
  H   H379      1.0  0.30416  0.32932  0.75669  1.0000
  H   H380      1.0  0.15254  0.42481  0.55544  1.0000
  H   H381      1.0  0.01757  0.54209  0.63206  1.0000
  C   C230      1.0  0.21655  0.36254  0.96909  1.0000
  C   C231      1.0  0.45680  0.50152  0.97849  1.0000
  H   H382      1.0  0.99835  0.55352  0.56711  1.0000
  C   C232      1.0  0.22849  0.62733  0.75135  1.0000
  H   H383      1.0  0.21666  0.36909  0.93904  1.0000
  H   H384      1.0  0.25533  0.62726  0.67221  1.0000
  H   H385      1.0  0.02066  0.64240  0.81736  1.0000
  H   H386      1.0  0.05752  0.36893  0.65104  1.0000
  H   H387      1.0  0.47479  0.55008  0.65303  1.0000
  H   H388      1.0  0.30116  0.33994  0.69443  1.0000
  N   N17       1.0  0.47950  0.53931  0.99368  1.0000
  H   H389      1.0  0.48810  0.50615  0.92704  1.0000
  H   H390      1.0  0.14370  0.39886  0.95726  1.0000
  C   C233      1.0  0.24753  0.34029  0.74216  1.0000
  H   H391      1.0  0.33889  0.65555  0.72625  1.0000
  H   H392      1.0  0.12582  0.33715  0.97319  1.0000
  C   C234      1.0  0.03871  0.49014  0.49851  1.0000
  H   H393      1.0  0.15564  0.35202  0.93452  1.0000
  H   H394      1.0  0.11919  0.65581  0.97472  1.0000
  H   H395      1.0  0.12471  0.66003  0.91412  1.0000
  H   H396      1.0  0.23546  0.41760  0.99257  1.0000
  S   S68       1.0  0.38584  0.69547  0.31336  1.0000
  Fe  Fe35      1.0  0.07818  0.93915  0.32949  1.0000
  H   H397      1.0  0.39122  0.97558  0.37667  1.0000
  S   S69       1.0  0.13227  0.94215  0.33748  1.0000
  H   H398      1.0  0.36074  0.66824  0.22739  1.0000
  Fe  Fe36      1.0  0.02658  0.94980  0.27900  1.0000
  C   C235      1.0  0.01637  0.73318  0.31857  1.0000
  Fe  Fe37      1.0  0.03362  0.96938  0.36305  1.0000
  H   H399      1.0  0.99173  0.69678  0.19613  1.0000
  S   S70       1.0  0.03484  0.90249  0.28922  1.0000
  S   S71       1.0  0.04042  0.92238  0.37900  1.0000
  H   H400      1.0  0.38701  0.71618  0.22496  1.0000
  H   H401      1.0  0.44133  0.76014  0.20599  1.0000
  H   H402      1.0  0.42636  0.72992  0.14983  1.0000
  Fe  Fe38      1.0  0.40199  0.89744  0.02663  1.0000
  S   S72       1.0  0.44719  0.93925  0.06347  1.0000
  S   S73       1.0  0.35392  0.84491  0.04474  1.0000
  S   S74       1.0  0.02225  0.68557  0.08117  1.0000
  C   C236      1.0  0.43609  0.95438  0.35888  1.0000
  H   H403      1.0  0.02224  0.70792  0.25681  1.0000
  H   H404      1.0  0.46949  0.68104  0.25530  1.0000
  C   C237      1.0  0.23232  0.79038  0.04449  1.0000
  C   C238      1.0  0.20090  0.76270  0.06162  1.0000
  C   C239      1.0  0.16651  0.75653  0.05152  1.0000
  H   H405      1.0  0.25870  0.79518  0.05276  1.0000
  S   S75       1.0  0.26827  0.84978  0.99812  1.0000
  N   N18       1.0  0.48968  0.84938  0.07048  1.0000
  H   H406      1.0  0.02349  0.89339  0.07342  1.0000
  H   H407      1.0  0.01968  0.78353  0.24280  1.0000
  H   H408      1.0  0.45048  0.86778  0.07417  1.0000
  Fe  Fe39      1.0  0.32354  0.85463  0.99920  1.0000
  S   S76       1.0  0.49035  0.90541  0.32731  1.0000
  C   C240      1.0  0.38823  0.96986  0.21048  1.0000
  C   C241      1.0  0.45163  0.93397  0.11196  1.0000
  H   H409      1.0  0.48726  0.82992  0.12666  1.0000
  H   H410      1.0  0.42764  0.98885  0.00124  1.0000
  C   C242      1.0  0.42255  0.90869  0.13357  1.0000
  C   C243      1.0  0.47944  0.70506  0.19885  1.0000
  C   C244      1.0  0.40555  0.99076  0.35099  1.0000
  C   C245      1.0  0.12731  0.96202  0.44354  1.0000
  C   C246      1.0  0.16412  0.99416  0.43108  1.0000
  C   C247      1.0  0.42770  0.73655  0.31367  1.0000
  H   H411      1.0  0.39654  0.81086  0.08899  1.0000
  H   H412      1.0  0.46152  0.73035  0.09770  1.0000
  H   H413      1.0  0.32111  0.96399  0.46037  1.0000
  H   H414      1.0  0.41099  0.89666  0.34911  1.0000
  C   C248      1.0  0.46056  0.73724  0.31850  1.0000
  C   C249      1.0  0.46178  0.75196  0.21205  1.0000
  H   H415      1.0  0.44120  0.83524  0.03916  1.0000
  C   C250      1.0  0.49029  0.81667  0.05550  1.0000
  H   H416      1.0  0.46067  0.71232  0.32342  1.0000
  C   C251      1.0  0.20632  0.98497  0.33517  1.0000
  C   C252      1.0  0.03180  0.80811  0.29654  1.0000
  C   C253      1.0  0.42808  0.76922  0.30734  1.0000
  H   H417      1.0  0.42167  0.68624  0.14540  1.0000
  H   H418      1.0  0.40080  0.72249  0.03045  1.0000
  Fe  Fe40      1.0  0.37108  0.82047  0.99883  1.0000
  C   C254      1.0  0.02731  0.77747  0.27016  1.0000
  H   H419      1.0  0.34739  0.92391  0.06709  1.0000
  H   H420      1.0  0.02385  0.74333  0.20348  1.0000
  C   C255      1.0  0.38325  0.69095  0.21185  1.0000
  H   H421      1.0  0.12985  0.93738  0.44554  1.0000
  H   H422      1.0  0.46136  0.75056  0.24292  1.0000
  H   H423      1.0  0.38196  0.93841  0.16195  1.0000
  H   H424      1.0  0.01433  0.74913  0.34211  1.0000
  H   H425      1.0  0.20326  0.74623  0.08309  1.0000
  H   H426      1.0  0.46990  0.67817  0.18598  1.0000
  H   H427      1.0  0.00760  0.86457  0.03307  1.0000
  H   H428      1.0  0.38148  0.98951  0.22284  1.0000
  C   C256      1.0  0.19510  0.80623  0.00739  1.0000
  C   C257      1.0  0.99729  0.72084  0.21312  1.0000
  H   H429      1.0  0.99448  0.89767  0.04064  1.0000
  S   S77       1.0  0.37345  0.76998  0.01260  1.0000
  H   H430      1.0  0.13725  0.77350  0.01603  1.0000
  N   N19       1.0  0.45075  0.71561  0.19488  1.0000
  H   H431      1.0  0.04484  0.96326  0.45373  1.0000
  H   H432      1.0  0.33124  0.91472  0.11403  1.0000
  C   C258      1.0  0.48460  0.95732  0.12967  1.0000
  S   S78       1.0  0.45957  0.93471  0.24002  1.0000
  H   H433      1.0  0.10580  0.95581  0.42293  1.0000
  H   H434      1.0  0.37766  0.94626  0.22967  1.0000
  C   C259      1.0  0.45150  0.84268  0.06807  1.0000
  H   H435      1.0  0.03676  0.86719  0.13937  1.0000
  H   H436      1.0  0.34202  0.93792  0.17549  1.0000
  H   H437      1.0  0.39697  0.89055  0.12042  1.0000
  H   H438      1.0  0.46082  0.82724  0.30073  1.0000
  C   C260      1.0  0.48824  0.95611  0.16865  1.0000
  H   H439      1.0  0.14144  0.67788  0.01656  1.0000
  H   H440      1.0  0.47533  0.99035  0.30118  1.0000
  H   H441      1.0  0.00102  0.82754  0.38378  1.0000
  H   H442      1.0  0.38575  0.99077  0.08227  1.0000
  C   C261      1.0  0.42591  0.90815  0.17265  1.0000
  S   S79       1.0  0.02231  0.96775  0.22034  1.0000
  C   C262      1.0  0.34240  0.93605  0.09226  1.0000
  H   H443      1.0  0.47281  0.88028  0.13433  1.0000
  H   H444      1.0  0.35224  0.97499  0.32928  1.0000
  C   C263      1.0  0.22952  0.81271  0.01787  1.0000
  H   H445      1.0  0.00446  0.79075  0.13785  1.0000
  H   H446      1.0  0.41246  0.92073  0.30825  1.0000
  H   H447      1.0  0.32182  0.94342  0.08424  1.0000
  C   C264      1.0  0.44090  0.71464  0.15428  1.0000
  N   N20       1.0  0.00118  0.73942  0.28312  1.0000
  C   C265      1.0  0.17307  0.98191  0.32535  1.0000
  H   H448      1.0  0.40273  0.88959  0.18926  1.0000
  H   H449      1.0  0.37417  0.68901  0.18264  1.0000
  Fe  Fe41      1.0  0.99659  0.89051  0.33738  1.0000
  C   C266      1.0  0.37828  0.96962  0.10417  1.0000
  H   H450      1.0  0.04247  0.80670  0.32419  1.0000
  H   H451      1.0  0.00371  0.67613  0.31384  1.0000
  C   C267      1.0  0.99138  0.94899  0.15091  1.0000
  H   H452      1.0  0.44538  0.99048  0.15378  1.0000
  Fe  Fe42      1.0  0.07208  0.69433  0.05024  1.0000
  S   S80       1.0  0.12809  0.72306  0.07542  1.0000
  H   H453      1.0  0.32217  0.97054  0.13750  1.0000
  H   H454      1.0  0.05176  0.83465  0.28420  1.0000
  H   H455      1.0  0.01733  0.87866  0.17742  1.0000
  H   H456      1.0  0.48249  0.70974  0.12240  1.0000
  H   H457      1.0  0.42929  0.81817  0.12344  1.0000
  H   H458      1.0  0.20666  0.96271  0.34920  1.0000
  H   H459      1.0  0.37039  0.94900  0.30959  1.0000
  C   C268      1.0  0.99835  0.69363  0.33261  1.0000
  H   H460      1.0  0.39899  0.96111  0.10230  1.0000
  C   C269      1.0  0.16362  0.77790  0.02378  1.0000
  C   C270      1.0  0.05045  0.98740  0.46900  1.0000
  H   H461      1.0  0.40278  0.76892  0.30353  1.0000
  C   C271      1.0  0.99557  0.81416  0.08658  1.0000
  C   C272      1.0  0.46095  0.80232  0.30582  1.0000
  C   C273      1.0  0.45861  0.93205  0.19051  1.0000
  C   C274      1.0  0.37165  0.95641  0.17145  1.0000
  C   C275      1.0  0.42309  0.81252  0.09344  1.0000
  H   H462      1.0  0.41909  0.78548  0.08619  1.0000
  C   C276      1.0  0.99939  0.78479  0.10774  1.0000
  H   H463      1.0  0.42249  0.68798  0.24573  1.0000
  H   H464      1.0  0.02308  0.83831  0.08516  1.0000
  H   H465      1.0  0.05465  0.78076  0.26546  1.0000
  H   H466      1.0  0.38018  0.91300  0.34566  1.0000
  C   C277      1.0  0.40821  0.91970  0.33877  1.0000
  C   C278      1.0  0.47207  0.72886  0.12550  1.0000
  H   H467      1.0  0.01678  0.89583  0.13268  1.0000
  H   H468      1.0  0.04577  0.74263  0.31530  1.0000
  C   C279      1.0  0.01427  0.87183  0.14725  1.0000
  C   C280      1.0  0.33708  0.98942  0.47482  1.0000
  C   C281      1.0  0.41760  0.74049  0.00847  1.0000
  Fe  Fe43      1.0  0.00056  0.68541  0.02415  1.0000
  H   H469      1.0  0.00977  0.69321  0.36023  1.0000
  H   H470      1.0  0.01642  0.97183  0.14104  1.0000
  C   C282      1.0  0.41743  0.68743  0.21530  1.0000
  H   H471      1.0  0.46267  0.95531  0.35745  1.0000
  H   H472      1.0  0.42781  0.94971  0.38870  1.0000
  H   H473      1.0  0.02294  0.78356  0.09608  1.0000
  H   H474      1.0  0.17182  0.98576  0.40477  1.0000
  C   C283      1.0  0.99848  0.71202  0.25461  1.0000
  H   H475      1.0  0.99972  0.77306  0.41044  1.0000
  N   N21       1.0  0.44009  0.98967  0.34518  1.0000
  H   H476      1.0  0.43089  0.97513  0.28642  1.0000
  H   H477      1.0  0.45358  0.71847  0.00665  1.0000
  C   C284      1.0  0.37759  0.97642  0.31911  1.0000
  C   C285      1.0  0.00000  0.87792  0.05508  1.0000
  H   H478      1.0  0.41806  0.98199  0.21011  1.0000
  H   H479      1.0  0.00613  0.80850  0.30008  1.0000
  H   H480      1.0  0.11876  0.96635  0.47137  1.0000
  S   S81       1.0  0.07326  0.98759  0.31544  1.0000
  H   H481      1.0  0.47223  0.79214  0.07210  1.0000
  H   H482      1.0  0.47857  0.80964  0.02719  1.0000
  H   H483      1.0  0.33190  0.98915  0.20171  1.0000
  N   N22       1.0  0.37853  0.98481  0.14234  1.0000
  H   H484      1.0  0.19282  0.82355  0.98689  1.0000
  H   H485      1.0  0.47945  0.98512  0.84708  1.0000
  H   H486      1.0  0.46105  0.93944  0.53428  1.0000
  Fe  Fe44      1.0  0.38459  0.88022  0.94268  1.0000
  S   S82       1.0  0.40382  0.89796  0.88294  1.0000
  S   S83       1.0  0.33653  0.82553  0.95494  1.0000
  H   H487      1.0  0.05412  0.96588  0.52218  1.0000
  C   C286      1.0  0.43129  0.78920  0.96518  1.0000
  H   H488      1.0  0.35402  0.90133  0.76081  1.0000
  Fe  Fe45      1.0  0.33194  0.97639  0.62215  1.0000
  S   S84       1.0  0.27759  0.92965  0.60805  1.0000
  H   H489      1.0  0.43275  0.97798  0.79284  1.0000
  Fe  Fe46      1.0  0.32594  0.95081  0.70403  1.0000
  S   S85       1.0  0.27047  0.90268  0.69537  1.0000
  S   S86       1.0  0.35201  0.96919  0.76115  1.0000
  Fe  Fe47      1.0  0.29390  0.89587  0.64183  1.0000
  S   S87       1.0  0.27963  0.84179  0.61629  1.0000
  Fe  Fe48      1.0  0.25886  0.94051  0.66250  1.0000
  S   S88       1.0  0.35058  0.94201  0.65203  1.0000
  N   N23       1.0  0.48043  0.98029  0.76786  1.0000
  C   C287      1.0  0.25787  0.80246  0.64417  1.0000
  C   C288      1.0  0.23634  0.76856  0.62729  1.0000
  C   C289      1.0  0.21884  0.73679  0.64898  1.0000
  C   C290      1.0  0.22352  0.73878  0.68762  1.0000
  C   C291      1.0  0.24504  0.77267  0.70444  1.0000
  C   C292      1.0  0.26185  0.80445  0.68286  1.0000
  H   H490      1.0  0.23328  0.76686  0.59732  1.0000
  H   H491      1.0  0.20252  0.71076  0.63574  1.0000
  H   H492      1.0  0.24888  0.77438  0.73430  1.0000
  H   H493      1.0  0.27859  0.83041  0.69609  1.0000
  H   H494      1.0  0.43609  0.88514  0.77069  1.0000
  H   H495      1.0  0.09711  0.68862  0.93228  1.0000
  C   C293      1.0  0.38131  0.91247  0.85196  1.0000
  C   C294      1.0  0.37204  0.89734  0.81606  1.0000
  C   C295      1.0  0.36023  0.91270  0.78856  1.0000
  C   C296      1.0  0.35869  0.94406  0.79646  1.0000
  C   C297      1.0  0.36727  0.95871  0.83258  1.0000
  C   C298      1.0  0.37820  0.94286  0.86027  1.0000
  C   C299      1.0  0.27853  0.67205  0.71341  1.0000
  H   H496      1.0  0.10330  0.70897  0.88660  1.0000
  H   H497      1.0  0.38585  0.95520  0.88750  1.0000
  H   H498      1.0  0.21087  0.74175  0.88281  1.0000
  C   C300      1.0  0.99261  0.95722  0.90439  1.0000
  C   C301      1.0  0.46918  0.76135  0.96656  1.0000
  H   H499      1.0  0.24227  0.76650  0.96105  1.0000
  H   H500      1.0  0.10062  0.73161  0.92651  1.0000
  H   H501      1.0  0.44323  0.95178  0.94904  1.0000
  H   H502      1.0  0.41454  0.98503  0.95372  1.0000
  H   H503      1.0  0.18640  0.73158  0.98348  1.0000
  H   H504      1.0  0.45219  0.93743  0.80849  1.0000
  S   S89       1.0  0.37028  0.90991  0.98491  1.0000
  H   H505      1.0  0.40205  0.92639  0.54980  1.0000
  C   C302      1.0  0.17263  0.70585  0.96747  1.0000
  C   C303      1.0  0.33769  0.98986  0.51411  1.0000
  H   H506      1.0  0.42508  0.80872  0.95330  1.0000
  H   H507      1.0  0.27445  0.68770  0.78574  1.0000
  C   C304      1.0  0.44505  0.91110  0.75576  1.0000
  H   H508      1.0  0.37483  0.87414  0.80922  1.0000
  H   H509      1.0  0.01565  0.82353  0.96509  1.0000
  S   S90       1.0  0.20433  0.69965  0.71583  1.0000
  C   C305      1.0  0.15379  0.68058  0.86284  1.0000
  C   C306      1.0  0.05570  0.98894  0.50785  1.0000
  H   H510      1.0  0.27324  0.67198  0.65295  1.0000
  C   C307      1.0  0.15299  0.73524  0.92036  1.0000
  H   H511      1.0  0.33833  0.71155  0.75764  1.0000
  C   C308      1.0  0.44746  0.73820  0.99508  1.0000
  C   C309      1.0  0.47315  0.96787  0.94940  1.0000
  C   C310      1.0  0.15336  0.67758  0.90574  1.0000
  C   C311      1.0  0.17300  0.97988  0.65993  1.0000
  H   H512      1.0  0.42767  0.96574  0.74588  1.0000
  H   H513      1.0  0.00064  0.99336  0.65099  1.0000
  S   S91       1.0  0.42049  0.87248  0.98292  1.0000
  H   H514      1.0  0.47751  0.80451  0.92939  1.0000
  N   N24       1.0  0.17127  0.71312  0.92655  1.0000
  H   H515      1.0  0.00537  0.96186  0.87658  1.0000
  H   H516      1.0  0.30787  0.68604  0.70685  1.0000
  H   H517      1.0  0.00085  0.95983  0.75022  1.0000
  C   C312      1.0  0.39083  0.94398  0.54259  1.0000
  H   H518      1.0  0.15118  0.95791  0.64479  1.0000
  C   C313      1.0  0.11132  0.71415  0.91633  1.0000
  H   H519      1.0  0.16342  0.75136  0.89422  1.0000
  H   H520      1.0  0.32244  0.96487  0.52957  1.0000
  H   H521      1.0  0.27279  0.69430  0.71995  1.0000
  H   H522      1.0  0.42354  0.96566  0.60478  1.0000
  H   H523      1.0  0.24035  0.97849  0.57938  1.0000
  H   H524      1.0  0.15985  0.75535  0.94321  1.0000
  C   C314      1.0  0.40963  0.76619  0.99375  1.0000
  C   C315      1.0  0.13615  0.68280  0.98747  1.0000
  N   N25       1.0  0.15965  0.81224  0.66422  1.0000
  C   C316      1.0  0.19275  0.83770  0.64186  1.0000
  C   C317      1.0  0.16465  0.82681  0.70348  1.0000
  C   C318      1.0  0.12600  0.80983  0.64811  1.0000
  C   C319      1.0  0.15562  0.77507  0.66332  1.0000
  C   C320      1.0  0.19172  0.82950  0.59983  1.0000
  C   C321      1.0  0.19021  0.82023  0.72835  1.0000
  C   C322      1.0  0.12709  0.84632  0.64320  1.0000
  C   C323      1.0  0.12364  0.74544  0.68606  1.0000
  H   H525      1.0  0.19881  0.86620  0.64457  1.0000
  H   H526      1.0  0.21703  0.83794  0.65307  1.0000
  H   H527      1.0  0.13835  0.81569  0.71855  1.0000
  H   H528      1.0  0.17554  0.85668  0.70320  1.0000
  H   H529      1.0  0.11932  0.79581  0.62067  1.0000
  H   H530      1.0  0.10210  0.79270  0.66611  1.0000
  H   H531      1.0  0.15161  0.76461  0.63431  1.0000
  H   H532      1.0  0.18099  0.77582  0.67197  1.0000
  H   H533      1.0  0.19156  0.80380  0.59455  1.0000
  H   H534      1.0  0.16886  0.82949  0.58538  1.0000
  H   H535      1.0  0.21690  0.85117  0.58664  1.0000
  H   H536      1.0  0.17784  0.79137  0.73663  1.0000
  H   H537      1.0  0.21652  0.82876  0.71463  1.0000
  H   H538      1.0  0.19579  0.83632  0.75435  1.0000
  H   H539      1.0  0.10042  0.84116  0.63291  1.0000
  H   H540      1.0  0.14761  0.86394  0.62229  1.0000
  H   H541      1.0  0.13225  0.86125  0.66988  1.0000
  H   H542      1.0  0.09970  0.72979  0.66796  1.0000
  H   H543      1.0  0.11536  0.75621  0.70986  1.0000
  H   H544      1.0  0.13174  0.72656  0.69817  1.0000
  H   H545      1.0  0.33519  0.70969  0.80705  1.0000
  S   S92       1.0  0.20412  0.93692  0.66123  1.0000
  C   C324      1.0  0.32714  0.69265  0.78154  1.0000
  H   H546      1.0  0.37370  0.94424  0.56588  1.0000
  H   H547      1.0  0.02332  0.98717  0.71058  1.0000
  C   C325      1.0  0.46089  0.78668  0.95156  1.0000
  C   C326      1.0  0.44782  0.98510  0.76598  1.0000
  H   H548      1.0  0.18082  0.68813  0.85119  1.0000
  H   H549      1.0  0.14581  0.70022  0.85314  1.0000
  H   H550      1.0  0.22358  0.71816  0.91460  1.0000
  C   C327      1.0  0.46835  0.94270  0.78241  1.0000
  H   H551      1.0  0.37243  0.93133  0.51853  1.0000
  H   H552      1.0  0.42023  0.91103  0.74682  1.0000
  S   S93       1.0  0.05272  0.69994  0.99361  1.0000
  H   H553      1.0  0.46058  0.91099  0.73095  1.0000
  H   H554      1.0  0.12111  0.69765  0.98973  1.0000
  H   H555      1.0  0.48299  0.95065  0.96210  1.0000
  H   H556      1.0  0.45622  0.94419  0.58383  1.0000
  C   C328      1.0  0.20994  0.73460  0.91276  1.0000
  H   H557      1.0  0.36647  0.98313  0.83886  1.0000
  H   H558      1.0  0.48364  0.97349  0.92037  1.0000
  H   H559      1.0  0.16648  0.66140  0.91287  1.0000
  S   S94       1.0  0.31232  0.98939  0.67511  1.0000
  C   C329      1.0  0.20262  0.97666  0.67165  1.0000
  H   H560      1.0  0.01559  0.76812  0.98743  1.0000
  H   H561      1.0  0.33992  0.67559  0.78359  1.0000
  H   H562      1.0  0.01360  0.96630  0.92636  1.0000
  H   H563      1.0  0.47611  0.96800  0.70877  1.0000
  C   C330      1.0  0.28558  0.66926  0.78086  1.0000
  H   H564      1.0  0.43073  0.98145  0.50380  1.0000
  C   C331      1.0  0.42013  0.98284  0.53184  1.0000
  C   C332      1.0  0.47336  0.95697  0.55906  1.0000
  C   C333      1.0  0.23441  0.77082  0.93291  1.0000
  C   C334      1.0  0.00068  0.97977  0.73047  1.0000
  H   H565      1.0  0.26000  0.78649  0.91687  1.0000
  H   H566      1.0  0.18897  0.69239  0.97195  1.0000
  H   H567      1.0  0.22187  0.78811  0.93505  1.0000
  C   C335      1.0  0.99123  0.76992  0.98926  1.0000
  C   C336      1.0  0.99118  0.80120  0.97664  1.0000
  H   H568      1.0  0.48356  0.86451  0.99511  1.0000
  Fe  Fe49      1.0  0.91466  0.09915  0.29559  1.0000
  S   S95       1.0  0.86766  0.10883  0.28908  1.0000
  S   S96       1.0  0.95904  0.10766  0.25384  1.0000
  Fe  Fe50      1.0  0.89809  0.07977  0.37965  1.0000
  S   S97       1.0  0.85114  0.08944  0.37944  1.0000
  S   S98       1.0  0.92197  0.06550  0.42902  1.0000
  Fe  Fe51      1.0  0.83667  0.05917  0.32517  1.0000
  H   H569      1.0  0.95782  0.29410  0.17275  1.0000
  Fe  Fe52      1.0  0.88626  0.13833  0.34390  1.0000
  S   S99       1.0  0.88738  0.19118  0.35525  1.0000
  S   S100      1.0  0.88223  0.04681  0.32714  1.0000
  S   S101      1.0  0.93472  0.13142  0.34858  1.0000
  H   H570      1.0  0.61367  0.02137  0.41126  1.0000
  N   N26       1.0  0.50357  0.21207  0.23083  1.0000
  H   H571      1.0  0.98064  0.01206  0.33125  1.0000
  S   S102      1.0  0.53206  0.21854  0.02149  1.0000
  H   H572      1.0  0.86810  0.18888  0.08225  1.0000
  C   C337      1.0  0.93105  0.26395  0.36795  1.0000
  C   C338      1.0  0.70888  0.29799  0.03543  1.0000
  H   H573      1.0  0.51742  0.24634  0.30306  1.0000
  C   C339      1.0  0.74090  0.29762  0.04351  1.0000
  H   H574      1.0  0.85945  0.02146  0.11698  1.0000
  C   C340      1.0  0.96359  0.29735  0.36586  1.0000
  H   H575      1.0  0.69497  0.05949  0.35509  1.0000
  C   C341      1.0  0.51706  0.18791  0.24580  1.0000
  H   H576      1.0  0.62333  0.04311  0.46624  1.0000
  C   C342      1.0  0.86882  0.01366  0.14230  1.0000
  H   H577      1.0  0.91153  0.21723  0.25582  1.0000
  H   H578      1.0  0.54227  0.29146  0.28573  1.0000
  H   H579      1.0  0.60178  0.05740  0.36902  1.0000
  H   H580      1.0  0.92264  0.01097  0.26125  1.0000
  C   C343      1.0  0.93339  0.24344  0.24452  1.0000
  H   H581      1.0  0.53745  0.20838  0.30205  1.0000
  H   H582      1.0  0.90898  0.27166  0.17668  1.0000
  C   C344      1.0  0.96139  0.11692  0.20532  1.0000
  C   C345      1.0  0.93080  0.11033  0.18501  1.0000
  C   C346      1.0  0.93250  0.11272  0.14580  1.0000
  C   C347      1.0  0.96494  0.12249  0.12645  1.0000
  C   C348      1.0  0.65112  0.06114  0.47596  1.0000
  H   H583      1.0  0.49208  0.05294  0.29744  1.0000
  H   H584      1.0  0.90543  0.10175  0.19941  1.0000
  H   H585      1.0  0.90817  0.10561  0.13036  1.0000
  H   H586      1.0  0.95945  0.20949  0.32947  1.0000
  H   H587      1.0  0.63370  0.02273  0.36793  1.0000
  C   C349      1.0  0.92934  0.23207  0.35486  1.0000
  C   C350      1.0  0.68051  0.02055  0.29293  1.0000
  H   H588      1.0  0.96587  0.99827  0.10599  1.0000
  N   N27       1.0  0.92227  0.00479  0.16360  1.0000
  H   H589      1.0  0.90705  0.26283  0.37952  1.0000
  H   H590      1.0  0.63060  0.08707  0.40447  1.0000
  C   C351      1.0  0.70648  0.23226  0.04766  1.0000
  C   C352      1.0  0.92949  0.27448  0.26175  1.0000
  H   H591      1.0  0.96115  0.01957  0.23410  1.0000
  Fe  Fe53      1.0  0.50632  0.15785  0.02154  1.0000
  Fe  Fe54      1.0  0.58332  0.21936  0.00433  1.0000
  H   H592      1.0  0.98667  0.20065  0.07916  1.0000
  C   C353      1.0  0.67458  0.23256  0.03848  1.0000
  C   C354      1.0  0.91477  0.01411  0.20194  1.0000
  Fe  Fe55      1.0  0.89974  0.32187  0.99963  1.0000
  C   C355      1.0  0.74582  0.04510  0.28876  1.0000
  H   H593      1.0  0.52859  0.27005  0.22051  1.0000
  H   H594      1.0  0.77191  0.06468  0.27730  1.0000
  C   C356      1.0  0.90566  0.04434  0.47306  1.0000
  H   H595      1.0  0.90499  0.19731  0.11067  1.0000
  H   H596      1.0  0.90392  0.00363  0.10700  1.0000
  H   H597      1.0  0.89396  0.24960  0.10385  1.0000
  H   H598      1.0  0.53712  0.22041  0.13952  1.0000
  C   C357      1.0  0.86883  0.02199  0.48227  1.0000
  H   H599      1.0  0.64909  0.20741  0.03672  1.0000
  C   C358      1.0  0.95340  0.21686  0.04695  1.0000
  N   N28       1.0  0.67290  0.05172  0.41110  1.0000
  C   C359      1.0  0.70182  0.07355  0.38240  1.0000
  C   C360      1.0  0.63672  0.03950  0.39302  1.0000
  H   H600      1.0  0.51174  0.04689  0.03562  1.0000
  C   C361      1.0  0.67946  0.07593  0.44433  1.0000
  C   C362      1.0  0.74071  0.08218  0.39157  1.0000
  C   C363      1.0  0.62954  0.06992  0.38069  1.0000
  H   H601      1.0  0.92429  0.04684  0.12821  1.0000
  H   H602      1.0  0.96418  0.20791  0.02367  1.0000
  S   S103      1.0  0.55882  0.15884  0.00884  1.0000
  H   H603      1.0  0.70353  0.10008  0.37708  1.0000
  H   H604      1.0  0.56234  0.24379  0.18012  1.0000
  H   H605      1.0  0.49490  0.26549  0.27759  1.0000
  H   H606      1.0  0.90565  0.25357  0.05550  1.0000
  H   H607      1.0  0.54504  0.19549  0.17422  1.0000
  H   H608      1.0  0.97577  0.01286  0.17583  1.0000
  H   H609      1.0  0.68331  0.10277  0.43586  1.0000
  H   H610      1.0  0.86485  0.17830  0.02007  1.0000
  H   H611      1.0  0.75080  0.09733  0.41800  1.0000
  H   H612      1.0  0.97915  0.06223  0.30216  1.0000
  C   C364      1.0  0.86727  0.12451  0.06495  1.0000
  H   H613      1.0  0.93099  0.24215  0.21387  1.0000
  C   C365      1.0  0.56230  0.05972  0.47187  1.0000
  N   N29       1.0  0.91335  0.19159  0.05168  1.0000
  C   C366      1.0  0.90718  0.15447  0.06061  1.0000
  C   C367      1.0  0.89467  0.19146  0.01600  1.0000
  H   H614      1.0  0.64827  0.08680  0.35816  1.0000
  H   H615      1.0  0.75927  0.09958  0.36908  1.0000
  C   C368      1.0  0.90611  0.01753  0.13400  1.0000
  C   C369      1.0  0.97736  0.22075  0.08075  1.0000
  N   N30       1.0  0.95366  0.31230  0.24673  1.0000
  C   C370      1.0  0.67627  0.01920  0.42154  1.0000
  H   H616      1.0  0.93904  0.26155  0.09067  1.0000
  H   H617      1.0  0.65009  0.08398  0.48977  1.0000
  C   C371      1.0  0.71464  0.04659  0.27925  1.0000
  H   H618      1.0  0.69915  0.02712  0.44121  1.0000
  C   C372      1.0  0.74288  0.01737  0.31183  1.0000
  S   S104      1.0  0.96406  0.11926  0.07705  1.0000
  H   H619      1.0  0.68295  0.00821  0.39643  1.0000
  C   C373      1.0  0.55106  0.03285  0.44399  1.0000
  C   C374      1.0  0.93117  0.00391  0.23471  1.0000
  H   H620      1.0  0.93486  0.31440  0.15277  1.0000
  S   S105      1.0  0.88506  0.31115  0.06006  1.0000
  S   S106      1.0  0.77946  0.26340  0.06022  1.0000
  H   H621      1.0  0.71692  0.06772  0.26083  1.0000
  H   H622      1.0  0.92512  0.04366  0.20382  1.0000
  C   C375      1.0  0.97671  0.02566  0.11805  1.0000
  H   H623      1.0  0.97065  0.04258  0.09924  1.0000
  H   H624      1.0  0.74310  0.05743  0.39218  1.0000
  H   H625      1.0  0.97499  0.05355  0.16721  1.0000
  H   H626      1.0  0.86629  0.09828  0.06976  1.0000
  C   C376      1.0  0.51994  0.26374  0.27918  1.0000
  S   S107      1.0  0.77998  0.01100  0.31987  1.0000
  S   S108      1.0  0.64188  0.02287  0.28028  1.0000
  Fe  Fe56      1.0  0.83401  0.31096  0.04418  1.0000
  C   C377      1.0  0.67569  0.26551  0.03265  1.0000
  H   H627      1.0  0.84835  0.01784  0.46210  1.0000
  C   C378      1.0  0.52836  0.25110  0.24198  1.0000
  C   C379      1.0  0.96051  0.23377  0.33994  1.0000
  H   H628      1.0  0.95942  0.24423  0.03808  1.0000
  H   H629      1.0  0.96456  0.32165  0.37606  1.0000
  H   H630      1.0  0.85116  0.12126  0.03966  1.0000
  H   H631      1.0  0.54620  0.03866  0.41601  1.0000
  H   H632      1.0  0.52337  0.16203  0.29480  1.0000
  H   H633      1.0  0.96022  0.06606  0.49265  1.0000
  C   C380      1.0  0.73978  0.26475  0.04981  1.0000
  C   C381      1.0  0.96293  0.02477  0.15819  1.0000
  C   C382      1.0  0.93689  0.31916  0.21312  1.0000
  H   H634      1.0  0.96370  0.21755  0.10788  1.0000
  C   C383      1.0  0.98199  0.31129  0.99983  1.0000
  C   C384      1.0  0.54373  0.99788  0.45303  1.0000
  H   H635      1.0  0.54560  0.19789  0.23722  1.0000
  H   H636      1.0  0.55693  0.25718  0.24342  1.0000
  C   C385      1.0  0.93450  0.29819  0.17721  1.0000
  H   H637      1.0  0.90484  0.30731  0.30649  1.0000
  H   H638      1.0  0.93444  0.27350  0.29194  1.0000
  C   C386      1.0  0.91015  0.24453  0.08288  1.0000
  H   H639      1.0  0.90043  0.26663  0.25961  1.0000
  H   H640      1.0  0.85438  0.12944  0.08946  1.0000
  H   H641      1.0  0.70542  0.20675  0.05278  1.0000
  C   C387      1.0  0.53929  0.21793  0.17011  1.0000
  S   S109      1.0  0.63636  0.26763  0.02261  1.0000
  H   H642      1.0  0.92021  0.14558  0.03933  1.0000
  C   C388      1.0  0.89825  0.20389  0.08293  1.0000
  H   H643      1.0  0.70561  0.08301  0.45772  1.0000
  H   H644      1.0  0.92064  0.15499  0.08722  1.0000
  C   C389      1.0  0.51650  0.18336  0.28838  1.0000
  H   H645      1.0  0.95331  0.01216  0.42808  1.0000
  H   H646      1.0  0.56613  0.08610  0.46491  1.0000
  H   H647      1.0  0.76636  0.32279  0.04552  1.0000
  H   H648      1.0  0.50784  0.12140  0.11986  1.0000
  H   H649      1.0  0.50958  0.27392  0.36826  1.0000
  H   H650      1.0  0.90865  0.31247  0.21939  1.0000
  C   C390      1.0  0.57059  0.32338  0.02991  1.0000
  H   H651      1.0  0.56300  0.30032  0.04927  1.0000
  C   C391      1.0  0.50320  0.20939  0.18880  1.0000
  H   H652      1.0  0.97379  0.06895  0.36755  1.0000
  H   H653      1.0  0.70986  0.32359  0.03132  1.0000
  H   H654      1.0  0.49690  0.10629  0.18722  1.0000
  H   H655      1.0  0.50104  0.16022  0.23387  1.0000
  H   H656      1.0  0.90314  0.21960  0.00720  1.0000
  H   H657      1.0  0.60878  0.31305  0.00218  1.0000
  H   H658      1.0  0.49538  0.22821  0.17594  1.0000
  H   H659      1.0  0.95932  0.24533  0.25289  1.0000
  H   H660      1.0  0.87067  0.03248  0.16474  1.0000
  H   H661      1.0  0.50337  0.08357  0.04164  1.0000
  C   C392      1.0  0.49290  0.05670  0.02818  1.0000
  H   H662      1.0  0.49630  0.02107  0.36221  1.0000
  H   H663      1.0  0.54573  0.32496  0.02537  1.0000
  H   H664      1.0  0.95705  0.99989  0.48705  1.0000
  H   H665      1.0  0.88545  0.00163  0.20791  1.0000
  H   H666      1.0  0.99088  0.29812  0.21968  1.0000
  Fe  Fe57      1.0  0.54467  0.15780  0.94782  1.0000
  S   S110      1.0  0.57269  0.21826  0.94316  1.0000
  S   S111      1.0  0.55897  0.12452  0.90796  1.0000
  C   C393      1.0  0.58553  0.31616  0.99356  1.0000
  H   H667      1.0  0.56590  0.01197  0.54578  1.0000
  H   H668      1.0  0.77691  0.29330  0.83684  1.0000
  N   N31       1.0  0.98246  0.01180  0.89284  1.0000
  H   H669      1.0  0.71360  0.27845  0.57067  1.0000
  Fe  Fe58      1.0  0.58267  0.09625  0.68899  1.0000
  S   S112      1.0  0.63574  0.10161  0.70506  1.0000
  S   S113      1.0  0.54491  0.10162  0.73095  1.0000
  Fe  Fe59      1.0  0.59578  0.08915  0.60408  1.0000
  S   S114      1.0  0.65054  0.09582  0.61527  1.0000
  S   S115      1.0  0.57579  0.08544  0.54397  1.0000
  Fe  Fe60      1.0  0.62296  0.05765  0.66304  1.0000
  H   H670      1.0  0.75007  0.27198  0.55668  1.0000
  Fe  Fe61      1.0  0.65794  0.13942  0.65584  1.0000
  S   S116      1.0  0.71032  0.19246  0.66389  1.0000
  S   S117      1.0  0.56746  0.04896  0.65023  1.0000
  S   S118      1.0  0.60540  0.13606  0.64141  1.0000
  C   C394      1.0  0.71261  0.30111  0.66510  1.0000
  C   C395      1.0  0.68378  0.27082  0.64806  1.0000
  C   C396      1.0  0.68290  0.23741  0.64715  1.0000
  C   C397      1.0  0.71097  0.23416  0.66312  1.0000
  C   C398      1.0  0.74022  0.26471  0.67930  1.0000
  C   C399      1.0  0.74099  0.29805  0.68046  1.0000
  H   H671      1.0  0.66182  0.27306  0.63595  1.0000
  H   H672      1.0  0.66056  0.21421  0.63405  1.0000
  H   H673      1.0  0.76212  0.26242  0.69154  1.0000
  H   H674      1.0  0.94355  0.24457  0.93494  1.0000
  H   H675      1.0  0.74946  0.21665  0.93772  1.0000
  H   H676      1.0  0.62998  0.29902  0.95237  1.0000
  C   C400      1.0  0.95662  0.28777  0.97401  1.0000
  C   C401      1.0  0.73125  0.00773  0.69702  1.0000
  H   H677      1.0  0.88773  0.17675  0.95739  1.0000
  H   H678      1.0  0.67944  0.17490  0.74632  1.0000
  H   H679      1.0  0.77636  0.01921  0.57990  1.0000
  C   C402      1.0  0.78461  0.27806  0.89369  1.0000
  C   C403      1.0  0.55083  0.10987  0.77989  1.0000
  C   C404      1.0  0.57584  0.10487  0.80034  1.0000
  C   C405      1.0  0.57812  0.10975  0.83938  1.0000
  C   C406      1.0  0.55627  0.12074  0.85844  1.0000
  C   C407      1.0  0.53179  0.12644  0.83789  1.0000
  C   C408      1.0  0.52881  0.12059  0.79898  1.0000
  H   H680      1.0  0.59284  0.09639  0.78623  1.0000
  H   H681      1.0  0.59695  0.10493  0.85496  1.0000
  H   H682      1.0  0.52360  0.03455  0.78091  1.0000
  H   H683      1.0  0.93338  0.05107  0.71702  1.0000
  H   H684      1.0  0.68176  0.26261  0.76742  1.0000
  N   N32       1.0  0.62769  0.21770  0.75784  1.0000
  C   C409      1.0  0.94468  0.04060  0.69559  1.0000
  C   C410      1.0  0.92181  0.03182  0.53400  1.0000
  C   C411      1.0  0.62128  0.21007  0.79913  1.0000
  H   H685      1.0  0.92624  0.03227  0.67144  1.0000
  H   H686      1.0  0.49572  0.05192  0.49998  1.0000
  Fe  Fe62      1.0  0.51978  0.21332  0.96049  1.0000
  H   H687      1.0  0.57239  0.17952  0.74268  1.0000
  C   C412      1.0  0.77565  0.03745  0.60160  1.0000
  H   H688      1.0  0.51447  0.13447  0.85207  1.0000
  C   C413      1.0  0.98911  0.00986  0.66229  1.0000
  C   C414      1.0  0.56722  0.05237  0.50896  1.0000
  H   H689      1.0  0.93863  0.00574  0.95815  1.0000
  H   H690      1.0  0.59619  0.21624  0.84939  1.0000
  H   H691      1.0  0.71269  0.24243  0.83870  1.0000
  H   H692      1.0  0.66906  0.18710  0.79022  1.0000
  H   H693      1.0  0.50913  0.12426  0.78359  1.0000
  H   H694      1.0  0.84653  0.06054  0.68972  1.0000
  H   H695      1.0  0.60963  0.18065  0.80473  1.0000
  C   C415      1.0  0.59280  0.20867  0.73857  1.0000
  H   H696      1.0  0.73896  0.31342  0.51420  1.0000
  H   H697      1.0  0.64699  0.19835  0.71188  1.0000
  H   H698      1.0  0.82742  0.06885  0.55432  1.0000
  C   C416      1.0  0.72369  0.27395  0.89035  1.0000
  H   H699      1.0  0.61794  0.16406  0.74335  1.0000
  H   H700      1.0  0.87119  0.04821  0.62954  1.0000
  H   H701      1.0  0.94273  0.03598  0.55361  1.0000
  H   H702      1.0  0.64731  0.22374  0.81449  1.0000
  C   C417      1.0  0.59572  0.21642  0.69637  1.0000
  S   S119      1.0  0.91596  0.28769  0.96545  1.0000
  H   H703      1.0  0.84734  0.12138  0.64615  1.0000
  H   H704      1.0  0.65608  0.29590  0.78927  1.0000
  H   H705      1.0  0.56705  0.20246  0.81020  1.0000
  C   C418      1.0  0.94827  0.00950  0.71283  1.0000
  H   H706      1.0  0.90736  0.09128  0.56413  1.0000
  S   S120      1.0  0.84691  0.31709  0.98333  1.0000
  H   H707      1.0  0.80257  0.11933  0.60807  1.0000
  S   S121      1.0  0.62534  0.00622  0.67053  1.0000
  H   H708      1.0  0.97165  0.06362  0.68795  1.0000
  H   H709      1.0  0.50601  0.01395  0.71948  1.0000
  H   H710      1.0  0.72914  0.21646  0.98073  1.0000
  H   H711      1.0  0.72724  0.27136  0.96525  1.0000
  H   H712      1.0  0.96946  0.02250  0.73436  1.0000
  C   C419      1.0  0.85868  0.00435  0.51753  1.0000
  H   H713      1.0  0.61467  0.24536  0.69002  1.0000
  C   C420      1.0  0.64010  0.19283  0.74191  1.0000
  H   H714      1.0  0.77420  0.24897  0.88841  1.0000
  H   H715      1.0  0.95995  0.04676  0.88283  1.0000
  H   H716      1.0  0.81491  0.28670  0.84202  1.0000
  C   C421      1.0  0.72903  0.03932  0.70135  1.0000
  H   H717      1.0  0.88915  0.14341  0.98608  1.0000
  H   H718      1.0  0.82291  0.11577  0.56501  1.0000
  H   H719      1.0  0.52004  0.07599  0.97522  1.0000
  C   C422      1.0  0.59554  0.22043  0.81890  1.0000
  C   C423      1.0  0.79896  0.29751  0.85596  1.0000
  H   H720      1.0  0.66725  0.25997  0.72184  1.0000
  H   H721      1.0  0.60316  0.24901  0.81459  1.0000
  H   H722      1.0  0.88285  0.08737  0.52290  1.0000
  H   H723      1.0  0.96506  0.09494  0.83071  1.0000
  C   C424      1.0  0.95376  0.02216  0.89923  1.0000
  H   H724      1.0  0.62061  0.27942  0.75470  1.0000
  H   H725      1.0  0.70403  0.21100  0.93966  1.0000
  H   H726      1.0  0.97961  0.08021  0.76919  1.0000
  H   H727      1.0  0.89229  0.12347  0.55413  1.0000
  S   S122      1.0  0.77141  0.00829  0.71002  1.0000
  H   H728      1.0  0.75196  0.06362  0.71219  1.0000
  C   C425      1.0  0.74347  0.29251  0.56728  1.0000
  H   H729      1.0  0.65812  0.04683  0.49730  1.0000
  H   H730      1.0  0.67793  0.22217  0.87303  1.0000
  H   H731      1.0  0.80202  0.06237  0.65298  1.0000
  H   H732      1.0  0.71755  0.21914  0.87799  1.0000
  C   C426      1.0  0.73177  0.22541  0.95128  1.0000
  H   H733      1.0  0.56870  0.21002  0.68589  1.0000
  C   C427      1.0  0.64889  0.28662  0.76003  1.0000
  H   H734      1.0  0.51811  0.02976  0.84980  1.0000
  H   H735      1.0  0.69822  0.22158  0.75660  1.0000
  H   H736      1.0  0.75048  0.02095  0.61804  1.0000
  H   H737      1.0  0.80855  0.28620  0.91191  1.0000
  C   C428      1.0  0.67361  0.19470  0.76035  1.0000
  C   C429      1.0  0.74768  0.26675  0.95071  1.0000
  H   H738      1.0  0.77321  0.05950  0.58844  1.0000
  C   C430      1.0  0.65727  0.25619  0.75097  1.0000
  H   H739      1.0  0.60346  0.19904  0.68047  1.0000
  H   H740      1.0  0.69553  0.06391  0.69602  1.0000
  C   C431      1.0  0.70780  0.23750  0.86912  1.0000
  C   C432      1.0  0.69711  0.03957  0.69219  1.0000
  C   C433      1.0  0.94773  0.02977  0.93999  1.0000
  C   C434      1.0  0.98422  0.02984  0.62873  1.0000
  H   H741      1.0  0.58124  0.30414  0.91981  1.0000
  H   H742      1.0  0.57994  0.22336  0.75073  1.0000
  H   H743      1.0  0.72904  0.29498  0.86892  1.0000
  C   C435      1.0  0.66690  0.00793  0.67936  1.0000
  N   N33       1.0  0.84523  0.07842  0.61225  1.0000
  C   C436      1.0  0.87356  0.07519  0.63433  1.0000
  C   C437      1.0  0.84863  0.06934  0.57235  1.0000
  C   C438      1.0  0.49462  0.01139  0.83226  1.0000
  C   C439      1.0  0.85204  0.11649  0.61671  1.0000
  C   C440      1.0  0.87285  0.08015  0.67693  1.0000
  C   C441      1.0  0.88507  0.09466  0.55289  1.0000
  H   H744      1.0  0.97202  0.05339  0.95192  1.0000
  H   H745      1.0  0.77177  0.27862  0.96917  1.0000
  H   H746      1.0  0.80835  0.02634  0.63741  1.0000
  H   H747      1.0  0.90134  0.09560  0.62509  1.0000
  H   H748      1.0  0.50315  0.04647  0.91446  1.0000
  H   H749      1.0  0.84399  0.04125  0.57084  1.0000
  C   C442      1.0  0.77575  0.32558  0.91974  1.0000
  H   H750      1.0  0.51726  0.01904  0.96775  1.0000
  C   C443      1.0  0.98837  0.01215  0.85131  1.0000
  H   H751      1.0  0.88103  0.13705  0.61197  1.0000
  C   C444      1.0  0.82849  0.12710  0.59347  1.0000
  H   H752      1.0  0.89356  0.07523  0.68993  1.0000
  H   H753      1.0  0.87988  0.10812  0.68451  1.0000
  C   C445      1.0  0.56211  0.01809  0.51747  1.0000
  C   C446      1.0  0.80848  0.05126  0.62784  1.0000
  H   H754      1.0  0.92584  0.03667  0.94051  1.0000
  H   H755      1.0  0.84339  0.15694  0.58930  1.0000
  H   H756      1.0  0.70167  0.27267  0.90828  1.0000
  H   H757      1.0  0.56455  0.28913  0.98308  1.0000
  N   N34       1.0  0.75731  0.28518  0.91313  1.0000
  C   C447      1.0  0.88539  0.00933  0.54354  1.0000
  H   H758      1.0  0.93013  0.18510  0.97483  1.0000
  H   H759      1.0  0.92693  0.00058  0.88927  1.0000
  S   S123      1.0  0.50495  0.25062  0.93020  1.0000
  C   C448      1.0  0.96288  0.26251  0.95527  1.0000
  H   H760      1.0  0.50624  0.01507  0.56656  1.0000
  H   H761      1.0  0.76321  0.32111  0.69388  1.0000
  H   H762      1.0  0.95593  0.02088  0.62131  1.0000
  C   C449      1.0  0.90112  0.17300  0.98208  1.0000
  H   H763      1.0  0.55375  0.00226  0.74041  1.0000
  H   H764      1.0  0.52996  0.00012  0.79944  1.0000
  C   C450      1.0  0.50866  0.00730  0.79392  1.0000
  H   H765      1.0  0.64167  0.31278  0.90532  1.0000
  H   H766      1.0  0.75628  0.30140  0.59497  1.0000
  H   H767      1.0  0.66530  0.31004  0.74127  1.0000
  C   C451      1.0  0.49152  0.06088  0.98556  1.0000
  C   C452      1.0  0.63681  0.32163  0.93281  1.0000
  C   C453      1.0  0.75684  0.32402  0.53907  1.0000
  C   C454      1.0  0.93178  0.04902  0.49928  1.0000
  H   H768      1.0  0.53869  0.32481  0.96204  1.0000
  H   H769      1.0  0.81772  0.32695  0.85979  1.0000
  Fe  Fe63      1.0  0.58142  0.44409  0.33291  1.0000
  H   H770      1.0  0.96226  0.49430  0.24622  1.0000
  H   H771      1.0  0.72503  0.56242  0.19065  1.0000
  H   H772      1.0  0.81067  0.37781  0.49341  1.0000
  Fe  Fe64      1.0  0.53008  0.46151  0.28977  1.0000
  S   S124      1.0  0.52595  0.48812  0.23634  1.0000
  Fe  Fe65      1.0  0.54284  0.47674  0.37548  1.0000
  S   S125      1.0  0.56035  0.52410  0.41598  1.0000
  S   S126      1.0  0.53532  0.41194  0.29351  1.0000
  S   S127      1.0  0.54703  0.42686  0.38477  1.0000
  C   C455      1.0  0.94280  0.48080  0.47095  1.0000
  C   C456      1.0  0.53875  0.49267  0.48620  1.0000
  C   C457      1.0  0.54631  0.57532  0.33724  1.0000
  Fe  Fe66      1.0  0.91000  0.37159  0.06523  1.0000
  S   S128      1.0  0.95557  0.40300  0.10705  1.0000
  C   C458      1.0  0.98781  0.41971  0.17582  1.0000
  C   C459      1.0  0.95900  0.42074  0.23421  1.0000
  C   C460      1.0  0.92642  0.40867  0.21472  1.0000
  C   C461      1.0  0.92442  0.40184  0.17602  1.0000
  C   C462      1.0  0.95529  0.40782  0.15625  1.0000
  H   H773      1.0  0.91698  0.51437  0.42928  1.0000
  H   H774      1.0  0.93265  0.49795  0.07977  1.0000
  H   H775      1.0  0.90261  0.40485  0.22953  1.0000
  H   H776      1.0  0.89928  0.39297  0.16134  1.0000
  S   S129      1.0  0.92777  0.38240  0.00471  1.0000
  H   H777      1.0  0.50066  0.62177  0.32878  1.0000
  H   H778      1.0  0.92295  0.42470  0.48878  1.0000
  H   H779      1.0  0.71204  0.57538  0.32775  1.0000
  H   H780      1.0  0.65280  0.51867  0.33166  1.0000
  Fe  Fe67      1.0  0.90573  0.59151  0.32745  1.0000
  S   S130      1.0  0.89053  0.63479  0.32636  1.0000
  S   S131      1.0  0.95064  0.59827  0.28726  1.0000
  Fe  Fe68      1.0  0.86481  0.56057  0.40299  1.0000
  S   S132      1.0  0.84900  0.60347  0.40659  1.0000
  S   S133      1.0  0.83744  0.51422  0.44529  1.0000
  Fe  Fe69      1.0  0.83554  0.59147  0.34599  1.0000
  S   S134      1.0  0.78463  0.58919  0.32457  1.0000
  C   C463      1.0  0.94302  0.47207  0.02966  1.0000
  S   S135      1.0  0.84913  0.54697  0.34238  1.0000
  S   S136      1.0  0.92269  0.60045  0.38786  1.0000
  S   S137      1.0  0.57922  0.49485  0.32512  1.0000
  S   S138      1.0  0.63386  0.44297  0.33088  1.0000
  H   H781      1.0  0.62112  0.38984  0.00129  1.0000
  H   H782      1.0  0.94404  0.50541  0.30620  1.0000
  C   C464      1.0  0.63070  0.45719  0.44136  1.0000
  H   H783      1.0  0.53064  0.52942  0.17356  1.0000
  C   C465      1.0  0.55891  0.52432  0.46541  1.0000
  H   H784      1.0  0.69585  0.50592  0.48579  1.0000
  H   H785      1.0  0.59402  0.58226  0.46846  1.0000
  C   C466      1.0  0.95034  0.59856  0.23772  1.0000
  C   C467      1.0  0.92238  0.57047  0.21755  1.0000
  C   C468      1.0  0.92660  0.56680  0.17904  1.0000
  C   C469      1.0  0.95823  0.59180  0.15996  1.0000
  C   C470      1.0  0.92157  0.33407  0.29297  1.0000
  C   C471      1.0  0.98544  0.62094  0.17976  1.0000
  H   H786      1.0  0.89842  0.55027  0.23200  1.0000
  H   H787      1.0  0.90559  0.54389  0.16413  1.0000
  H   H788      1.0  0.59119  0.34803  0.04443  1.0000
  H   H789      1.0  0.52336  0.46694  0.47212  1.0000
  C   C472      1.0  0.74323  0.54844  0.32983  1.0000
  C   C473      1.0  0.71096  0.54952  0.32958  1.0000
  C   C474      1.0  0.67735  0.51740  0.33167  1.0000
  C   C475      1.0  0.67569  0.48384  0.33270  1.0000
  C   C476      1.0  0.70800  0.48275  0.33348  1.0000
  C   C477      1.0  0.74172  0.51499  0.33245  1.0000
  H   H790      1.0  0.70699  0.45690  0.33442  1.0000
  H   H791      1.0  0.76648  0.51388  0.33258  1.0000
  H   H792      1.0  0.61859  0.44932  0.19274  1.0000
  H   H793      1.0  0.92463  0.41215  0.36383  1.0000
  H   H794      1.0  0.92814  0.35473  0.31501  1.0000
  H   H795      1.0  0.86745  0.43274  0.41552  1.0000
  S   S139      1.0  0.96516  0.58249  0.11328  1.0000
  H   H796      1.0  0.80938  0.41763  0.48142  1.0000
  H   H797      1.0  0.70713  0.52129  0.43933  1.0000
  H   H798      1.0  0.75320  0.56033  0.48535  1.0000
  H   H799      1.0  0.54495  0.59739  0.32272  1.0000
  H   H800      1.0  0.98731  0.50919  0.31119  1.0000
  H   H801      1.0  0.97269  0.36718  0.26637  1.0000
  C   C478      1.0  0.87355  0.46079  0.42035  1.0000
  C   C479      1.0  0.57855  0.55755  0.48428  1.0000
  H   H802      1.0  0.51798  0.64221  0.12793  1.0000
  H   H803      1.0  0.73226  0.57281  0.24018  1.0000
  H   H804      1.0  0.97835  0.51191  0.38399  1.0000
  H   H805      1.0  0.91689  0.45142  0.01714  1.0000
  C   C480      1.0  0.97606  0.52306  0.25535  1.0000
  C   C481      1.0  0.91533  0.44600  0.49156  1.0000
  H   H806      1.0  0.90577  0.53866  0.48478  1.0000
  N   N35       1.0  0.66122  0.52435  0.46192  1.0000
  S   S140      1.0  0.97665  0.62538  0.01533  1.0000
  C   C482      1.0  0.72487  0.55148  0.21868  1.0000
  H   H807      1.0  0.55063  0.55835  0.31662  1.0000
  Fe  Fe70      1.0  0.50043  0.39951  0.34462  1.0000
  H   H808      1.0  0.91026  0.42138  0.42565  1.0000
  C   C483      1.0  0.91371  0.48972  0.41510  1.0000
  H   H809      1.0  0.85722  0.46530  0.39924  1.0000
  H   H810      1.0  0.50821  0.33134  0.36370  1.0000
  C   C484      1.0  0.93186  0.44029  0.37123  1.0000
  C   C485      1.0  0.93613  0.47488  0.07167  1.0000
  H   H811      1.0  0.96103  0.46014  0.02857  1.0000
  H   H812      1.0  0.63825  0.44401  0.23532  1.0000
  C   C486      1.0  0.98764  0.53902  0.02847  1.0000
  H   H813      1.0  0.74665  0.54440  0.21916  1.0000
  S   S141      1.0  0.85742  0.37069  0.05434  1.0000
  C   C487      1.0  0.97305  0.52207  0.29830  1.0000
  H   H814      1.0  0.96382  0.49170  0.18507  1.0000
  H   H815      1.0  0.68836  0.60179  0.40742  1.0000
  C   C488      1.0  0.97818  0.50926  0.41481  1.0000
  H   H816      1.0  0.49732  0.51834  0.03889  1.0000
  H   H817      1.0  0.51526  0.62977  0.19593  1.0000
  H   H818      1.0  0.98282  0.54936  0.31040  1.0000
  H   H819      1.0  0.55152  0.57238  0.05696  1.0000
  H   H820      1.0  0.70342  0.56938  0.40449  1.0000
  C   C489      1.0  0.84803  0.51039  0.49229  1.0000
  H   H821      1.0  0.55155  0.59721  0.01710  1.0000
  H   H822      1.0  0.95899  0.53417  0.24497  1.0000
  H   H823      1.0  0.91803  0.49793  0.38520  1.0000
  H   H824      1.0  0.63692  0.55722  0.45039  1.0000
  C   C490      1.0  0.64003  0.49635  0.43247  1.0000
  C   C491      1.0  0.49261  0.63180  0.14290  1.0000
  Fe  Fe71      1.0  0.90543  0.64238  0.38671  1.0000
  S   S142      1.0  0.49310  0.44829  0.33932  1.0000
  H   H825      1.0  0.95783  0.47505  0.08876  1.0000
  H   H826      1.0  0.65458  0.45567  0.45081  1.0000
  C   C492      1.0  0.50262  0.61792  0.35903  1.0000
  H   H827      1.0  0.96985  0.48628  0.48073  1.0000
  H   H828      1.0  0.88724  0.43535  0.48215  1.0000
  H   H829      1.0  0.62340  0.56772  0.21241  1.0000
  H   H830      1.0  0.97742  0.33095  0.01429  1.0000
  H   H831      1.0  0.51844  0.58618  0.05421  1.0000
  H   H832      1.0  0.91036  0.44475  0.35972  1.0000
  S   S143      1.0  0.96074  0.43091  0.28255  1.0000
  C   C493      1.0  0.53361  0.57626  0.03747  1.0000
  N   N36       1.0  0.94147  0.48046  0.42882  1.0000
  H   H833      1.0  0.97436  0.55876  0.42331  1.0000
  N   N37       1.0  0.95952  0.50670  0.00719  1.0000
  H   H834      1.0  0.63405  0.58388  0.25888  1.0000
  H   H835      1.0  0.92546  0.54361  0.04234  1.0000
  H   H836      1.0  0.51092  0.52392  0.36198  1.0000
  C   C494      1.0  0.50886  0.54016  0.01758  1.0000
  H   H837      1.0  0.65524  0.50327  0.40570  1.0000
  H   H838      1.0  0.97331  0.33780  0.30056  1.0000
  C   C495      1.0  0.50647  0.47391  0.19134  1.0000
  H   H839      1.0  0.93956  0.50331  0.48234  1.0000
  H   H840      1.0  0.97622  0.54495  0.05337  1.0000
  H   H841      1.0  0.60851  0.44442  0.46223  1.0000
  H   H842      1.0  0.89093  0.49585  0.03919  1.0000
  C   C496      1.0  0.67967  0.57262  0.41037  1.0000
  C   C497      1.0  0.51387  0.55136  0.36317  1.0000
  H   H843      1.0  0.57138  0.58828  0.35423  1.0000
  N   N38       1.0  0.65468  0.51990  0.22150  1.0000
  C   C498      1.0  0.68837  0.51736  0.22799  1.0000
  C   C499      1.0  0.62336  0.48644  0.23847  1.0000
  C   C500      1.0  0.65944  0.55306  0.24175  1.0000
  C   C501      1.0  0.65051  0.52300  0.18011  1.0000
  C   C502      1.0  0.69775  0.52706  0.46622  1.0000
  C   C503      1.0  0.61782  0.45006  0.22355  1.0000
  C   C504      1.0  0.62754  0.56025  0.24077  1.0000
  C   C505      1.0  0.61190  0.51109  0.16582  1.0000
  H   H844      1.0  0.68994  0.51041  0.25753  1.0000
  H   H845      1.0  0.68768  0.49495  0.21137  1.0000
  H   H846      1.0  0.59724  0.48573  0.23527  1.0000
  H   H847      1.0  0.62688  0.48625  0.26914  1.0000
  H   H848      1.0  0.66575  0.55194  0.27156  1.0000
  H   H849      1.0  0.68283  0.57811  0.23027  1.0000
  H   H850      1.0  0.66880  0.55132  0.17049  1.0000
  H   H851      1.0  0.65930  0.50607  0.16454  1.0000
  H   H852      1.0  0.65861  0.55781  0.38898  1.0000
  C   C506      1.0  0.51336  0.50135  0.16574  1.0000
  H   H853      1.0  0.53066  0.62575  0.36695  1.0000
  H   H854      1.0  0.59094  0.42783  0.23280  1.0000
  H   H855      1.0  0.68073  0.58194  0.46929  1.0000
  H   H856      1.0  0.91094  0.44998  0.08030  1.0000
  C   C507      1.0  0.66406  0.55953  0.44981  1.0000
  H   H857      1.0  0.60218  0.53742  0.25195  1.0000
  H   H858      1.0  0.95794  0.45837  0.35719  1.0000
  H   H859      1.0  0.59330  0.51258  0.18629  1.0000
  H   H860      1.0  0.59904  0.48328  0.15408  1.0000
  H   H861      1.0  0.61411  0.49573  0.42634  1.0000
  C   C508      1.0  0.93506  0.44461  0.41392  1.0000
  C   C509      1.0  0.90855  0.52097  0.02328  1.0000
  H   H862      1.0  0.62074  0.44060  0.41562  1.0000
  C   C510      1.0  0.98178  0.62383  0.21852  1.0000
  H   H863      1.0  0.73824  0.58488  0.45782  1.0000
  H   H864      1.0  0.95716  0.43968  0.42280  1.0000
  C   C511      1.0  0.72945  0.56367  0.47961  1.0000
  H   H865      1.0  0.61394  0.52886  0.14222  1.0000
  H   H866      1.0  0.52217  0.56107  0.39225  1.0000
  H   H867      1.0  0.86380  0.46292  0.44837  1.0000
  C   C512      1.0  0.95731  0.33887  0.27670  1.0000
  H   H868      1.0  0.95050  0.34846  0.20611  1.0000
  H   H869      1.0  0.52735  0.53451  0.00062  1.0000
  C   C513      1.0  0.98958  0.42568  0.21460  1.0000
  H   H870      1.0  0.50332  0.51515  0.11138  1.0000
  H   H871      1.0  0.90557  0.33874  0.27174  1.0000
  C   C514      1.0  0.49777  0.49320  0.13028  1.0000
  S   S144      1.0  0.99021  0.39987  0.37126  1.0000
  H   H872      1.0  0.89017  0.52852  0.00915  1.0000
  H   H873      1.0  0.49642  0.63726  0.37352  1.0000
  H   H874      1.0  0.49251  0.51169  0.29863  1.0000
  H   H875      1.0  0.61124  0.50570  0.49268  1.0000
  H   H876      1.0  0.49156  0.57310  0.29919  1.0000
  C   C515      1.0  0.49096  0.62458  0.18145  1.0000
  C   C516      1.0  0.81957  0.48980  0.51738  1.0000
  S   S145      1.0  0.71141  0.34174  0.66826  1.0000
  C   C517      1.0  0.57860  0.55913  0.52352  1.0000
  H   H877      1.0  0.71309  0.39435  0.55332  1.0000
  S   S146      1.0  0.85822  0.41103  0.95703  1.0000
  C   C518      1.0  0.96178  0.53385  0.63344  1.0000
  Fe  Fe72      1.0  0.83285  0.45407  0.65640  1.0000
  S   S147      1.0  0.77668  0.44548  0.65856  1.0000
  S   S148      1.0  0.87175  0.47848  0.60699  1.0000
  Fe  Fe73      1.0  0.82732  0.42574  0.73772  1.0000
  S   S149      1.0  0.77059  0.41540  0.74531  1.0000
  S   S150      1.0  0.85959  0.41270  0.77928  1.0000
  Fe  Fe74      1.0  0.76180  0.39268  0.68705  1.0000
  H   H878      1.0  0.72664  0.32813  0.93534  1.0000
  Fe  Fe75      1.0  0.79080  0.46896  0.71611  1.0000
  S   S151      1.0  0.81719  0.39958  0.68101  1.0000
  H   H879      1.0  0.70958  0.57288  0.72417  1.0000
  H   H880      1.0  0.76804  0.57345  0.72692  1.0000
  C   C519      1.0  0.85688  0.40885  0.90764  1.0000
  C   C520      1.0  0.87833  0.39857  0.88734  1.0000
  C   C521      1.0  0.87846  0.39954  0.84808  1.0000
  C   C522      1.0  0.85638  0.40968  0.82864  1.0000
  C   C523      1.0  0.83372  0.41844  0.84895  1.0000
  C   C524      1.0  0.83465  0.41886  0.88824  1.0000
  H   H881      1.0  0.89562  0.39086  0.90185  1.0000
  H   H882      1.0  0.89598  0.39256  0.83266  1.0000
  H   H883      1.0  0.81799  0.42693  0.90370  1.0000
  H   H884      1.0  0.51071  0.59455  0.97424  1.0000
  C   C525      1.0  0.60554  0.32973  0.92897  1.0000
  H   H885      1.0  0.84014  0.39899  0.59855  1.0000
  H   H886      1.0  0.65696  0.40261  0.92373  1.0000
  H   H887      1.0  0.91226  0.57484  0.85061  1.0000
  S   S152      1.0  0.78555  0.51689  0.73427  1.0000
  S   S153      1.0  0.84844  0.48098  0.71252  1.0000
  Fe  Fe76      1.0  0.58925  0.60145  0.71427  1.0000
  S   S154      1.0  0.64515  0.61361  0.72869  1.0000
  S   S155      1.0  0.55539  0.61717  0.75081  1.0000
  Fe  Fe77      1.0  0.59148  0.56870  0.63704  1.0000
  S   S156      1.0  0.64848  0.58057  0.64614  1.0000
  S   S157      1.0  0.55376  0.52837  0.59346  1.0000
  Fe  Fe78      1.0  0.63002  0.55941  0.70404  1.0000
  S   S158      1.0  0.63502  0.51366  0.72981  1.0000
  H   H888      1.0  0.78355  0.32936  0.52879  1.0000
  S   S159      1.0  0.57253  0.54542  0.69441  1.0000
  S   S160      1.0  0.60272  0.62406  0.65592  1.0000
  C   C526      1.0  0.74352  0.51536  0.72984  1.0000
  C   C527      1.0  0.71080  0.48246  0.73059  1.0000
  C   C528      1.0  0.67769  0.48226  0.73014  1.0000
  C   C529      1.0  0.67703  0.51482  0.72778  1.0000
  C   C530      1.0  0.70976  0.54764  0.72581  1.0000
  C   C531      1.0  0.74286  0.54790  0.72742  1.0000
  H   H889      1.0  0.71100  0.45726  0.73262  1.0000
  H   H890      1.0  0.65249  0.45680  0.73172  1.0000
  C   C532      1.0  0.56062  0.62418  0.79971  1.0000
  C   C533      1.0  0.58267  0.61514  0.82039  1.0000
  H   H891      1.0  0.59748  0.60401  0.80647  1.0000
  H   H892      1.0  0.92688  0.56261  0.91085  1.0000
  H   H893      1.0  0.74846  0.37325  0.49894  1.0000
  H   H894      1.0  0.76824  0.36004  0.61245  1.0000
  C   C534      1.0  0.71323  0.37811  0.57736  1.0000
  H   H895      1.0  0.66253  0.34581  0.94118  1.0000
  C   C535      1.0  0.71965  0.34706  0.56500  1.0000
  H   H896      1.0  0.97329  0.49691  0.78960  1.0000
  H   H897      1.0  0.81641  0.42605  0.83436  1.0000
  H   H898      1.0  0.52458  0.64585  0.80259  1.0000
  C   C536      1.0  0.55806  0.52755  0.54431  1.0000
  H   H899      1.0  0.82865  0.37138  0.55842  1.0000
  H   H900      1.0  0.99046  0.51650  0.67141  1.0000
  C   C537      1.0  0.82650  0.48151  0.55336  1.0000
  C   C538      1.0  0.86194  0.49227  0.56400  1.0000
  C   C539      1.0  0.76841  0.38489  0.52208  1.0000
  H   H901      1.0  0.80434  0.46596  0.57241  1.0000
  H   H902      1.0  0.92215  0.54528  0.75639  1.0000
  H   H903      1.0  0.63307  0.52636  0.55387  1.0000
  H   H904      1.0  0.92872  0.48373  0.77442  1.0000
  C   C540      1.0  0.93078  0.51453  0.99346  1.0000
  C   C541      1.0  0.91346  0.56728  0.65476  1.0000
  H   H905      1.0  0.91601  0.45201  0.52180  1.0000
  C   C542      1.0  0.78260  0.37431  0.58643  1.0000
  H   H906      1.0  0.51672  0.56626  0.58095  1.0000
  H   H907      1.0  0.52179  0.46984  0.54126  1.0000
  H   H908      1.0  0.93953  0.51870  0.65386  1.0000
  H   H909      1.0  0.70020  0.33230  0.54209  1.0000
  H   H910      1.0  0.90132  0.53819  0.66143  1.0000
  N   N39       1.0  0.75786  0.35783  0.55338  1.0000
  H   H911      1.0  0.73318  0.39598  0.59826  1.0000
  C   C543      1.0  0.81849  0.37347  0.58609  1.0000
  H   H912      1.0  0.60215  0.61277  0.87512  1.0000
  H   H913      1.0  0.50740  0.53624  0.74748  1.0000
  H   H914      1.0  0.94885  0.52231  0.60618  1.0000
  C   C544      1.0  0.56653  0.63494  0.87796  1.0000
  H   H915      1.0  0.94206  0.50493  0.84146  1.0000
  H   H916      1.0  0.89256  0.58035  0.78508  1.0000
  C   C545      1.0  0.95462  0.50729  0.78341  1.0000
  C   C546      1.0  0.55133  0.50561  0.79650  1.0000
  H   H917      1.0  0.88172  0.48816  0.83704  1.0000
  C   C547      1.0  0.51577  0.48287  0.77486  1.0000
  H   H918      1.0  0.94592  0.53667  0.89352  1.0000
  H   H919      1.0  0.94311  0.53874  0.97482  1.0000
  Fe  Fe79      1.0  0.87323  0.37664  0.99341  1.0000
  C   C548      1.0  0.58527  0.62015  0.85933  1.0000
  H   H920      1.0  0.89143  0.57085  0.64293  1.0000
  H   H921      1.0  0.49267  0.44352  0.84085  1.0000
  C   C549      1.0  0.85484  0.51538  0.81436  1.0000
  H   H922      1.0  0.56485  0.53465  0.78857  1.0000
  C   C550      1.0  0.65373  0.53763  0.53123  1.0000
  C   C551      1.0  0.98854  0.58650  0.67468  1.0000
  C   C552      1.0  0.49899  0.56837  0.63653  1.0000
  C   C553      1.0  0.94438  0.58011  0.62581  1.0000
  H   H923      1.0  0.96737  0.56999  0.69570  1.0000
  S   S161      1.0  0.57037  0.63995  0.92714  1.0000
  H   H924      1.0  0.76787  0.40945  0.53153  1.0000
  H   H925      1.0  0.83034  0.49139  0.82580  1.0000
  H   H926      1.0  0.85880  0.53796  0.83253  1.0000
  C   C554      1.0  0.56473  0.34995  0.95588  1.0000
  C   C555      1.0  0.89042  0.51298  0.53899  1.0000
  H   H927      1.0  0.84863  0.52016  0.78561  1.0000
  H   H928      1.0  0.92229  0.58335  0.68079  1.0000
  H   H929      1.0  0.97525  0.57839  0.55593  1.0000
  H   H930      1.0  0.55080  0.33627  0.89692  1.0000
  C   C556      1.0  0.54487  0.64443  0.85720  1.0000
  C   C557      1.0  0.53802  0.49440  0.52542  1.0000
  C   C558      1.0  0.93005  0.56285  0.85040  1.0000
  H   H931      1.0  0.61283  0.34853  0.90500  1.0000
  H   H932      1.0  0.88319  0.49187  0.78879  1.0000
  H   H933      1.0  0.91027  0.49162  0.97655  1.0000
  H   H934      1.0  0.93754  0.61397  0.79999  1.0000
  H   H935      1.0  0.96349  0.57835  0.77708  1.0000
  H   H936      1.0  0.56508  0.37074  0.97498  1.0000
  C   C559      1.0  0.64672  0.41002  0.94872  1.0000
  H   H937      1.0  0.49649  0.50388  0.84301  1.0000
  H   H938      1.0  0.82783  0.41639  0.52519  1.0000
  N   N40       1.0  0.97520  0.57389  0.63571  1.0000
  H   H939      1.0  0.78960  0.40301  0.59037  1.0000
  H   H940      1.0  0.78137  0.34061  0.89295  1.0000
  C   C560      1.0  0.49666  0.52835  0.77638  1.0000
  H   H941      1.0  0.52011  0.54666  0.79400  1.0000
  H   H942      1.0  0.58462  0.38319  0.90405  1.0000
  H   H943      1.0  0.54747  0.50271  0.82709  1.0000
  H   H944      1.0  0.95797  0.58661  0.85025  1.0000
  H   H945      1.0  0.95421  0.60927  0.62028  1.0000
  H   H946      1.0  0.97797  0.54760  0.82636  1.0000
  C   C561      1.0  0.54172  0.63878  0.81832  1.0000
  H   H947      1.0  0.96702  0.52670  0.76000  1.0000
  H   H948      1.0  0.65793  0.56494  0.52520  1.0000
  H   H949      1.0  0.92772  0.60395  0.75185  1.0000
  H   H950      1.0  0.72339  0.57369  0.50549  1.0000
  C   C562      1.0  0.92455  0.54367  0.88829  1.0000
  H   H951      1.0  0.52034  0.56164  0.64322  1.0000
  H   H952      1.0  0.52304  0.48847  0.74491  1.0000
  C   C563      1.0  0.49355  0.56734  0.59380  1.0000
  C   C564      1.0  0.88663  0.50785  0.81445  1.0000
  H   H953      1.0  0.65005  0.37333  0.98749  1.0000
  H   H954      1.0  0.57057  0.49619  0.78885  1.0000
  H   H955      1.0  0.62827  0.41998  0.94057  1.0000
  H   H956      1.0  0.93153  0.56611  0.59929  1.0000
  Fe  Fe80      1.0  0.65837  0.63407  0.66963  1.0000
  H   H957      1.0  0.91787  0.52110  0.54671  1.0000
  H   H958      1.0  0.89736  0.51924  0.89091  1.0000
  H   H959      1.0  0.67848  0.53922  0.54284  1.0000
  N   N41       1.0  0.92444  0.53991  0.81630  1.0000
  C   C565      1.0  0.93360  0.56278  0.78145  1.0000
  C   C566      1.0  0.92181  0.59158  0.78008  1.0000
  C   C567      1.0  0.95035  0.52550  0.81886  1.0000
  H   H960      1.0  0.59378  0.58487  0.53764  1.0000
  H   H961      1.0  0.76883  0.36910  0.94227  1.0000
  H   H962      1.0  0.51188  0.56726  0.51977  1.0000
  H   H963      1.0  0.53023  0.65575  0.87113  1.0000
  H   H964      1.0  0.81631  0.35152  0.60449  1.0000
  H   H965      1.0  0.67055  0.43317  0.96203  1.0000
  H   H966      1.0  0.93785  0.44601  0.95901  1.0000
  H   H967      1.0  0.80268  0.33558  0.93299  1.0000
  C   C568      1.0  0.75507  0.33908  0.94418  1.0000
  H   H968      1.0  0.98151  0.63469  0.67591  1.0000
  H   H969      1.0  0.68613  0.36630  0.59081  1.0000
  H   H970      1.0  0.50856  0.59621  0.64714  1.0000
  C   C569      1.0  0.55995  0.35995  0.91578  1.0000
  H   H971      1.0  0.49766  0.48542  0.96625  1.0000
  C   C570      1.0  0.49695  0.56657  0.96274  1.0000
  C   C571      1.0  0.95418  0.47268  0.94534  1.0000
  C   C572      1.0  0.62872  0.37878  0.97700  1.0000
  H   H972      1.0  0.53828  0.36718  0.91575  1.0000
  N   N42       1.0  0.59652  0.34432  0.96326  1.0000
  C   C573      1.0  0.80634  0.39944  0.50499  1.0000
  H   H973      1.0  0.75606  0.33276  0.97390  1.0000
  H   H974      1.0  0.51878  0.56372  0.94883  1.0000
  C   C574      1.0  0.97835  0.50251  0.97332  1.0000
  H   H975      1.0  0.50752  0.45381  0.77840  1.0000
  H   H976      1.0  0.79193  0.47999  0.50879  1.0000
  H   H977      1.0  0.93623  0.47974  0.92967  1.0000
  H   H978      1.0  0.49813  0.59449  0.58546  1.0000
  H   H979      1.0  0.97167  0.46962  0.92433  1.0000
  H   H980      1.0  0.98278  0.49706  0.62519  1.0000
  C   C575      1.0  0.98991  0.52204  0.64126  1.0000
  C   C576      1.0  0.88363  0.52276  0.50370  1.0000
  H   H981      1.0  0.63713  0.48599  0.50758  1.0000
  C   C577      1.0  0.63949  0.51178  0.49763  1.0000
  H   H982      1.0  0.71063  0.32785  0.58884  1.0000
  S   S162      1.0  0.94599  0.69752  0.40959  1.0000
  H   H983      1.0  0.90066  0.79668  0.14758  1.0000
  Fe  Fe81      1.0  0.53620  0.89721  0.30995  1.0000
  H   H984      1.0  0.70678  0.97126  0.34522  1.0000
  S   S163      1.0  0.94625  0.83553  0.34328  1.0000
  H   H985      1.0  0.54286  0.89464  0.05586  1.0000
  H   H986      1.0  0.91273  0.92997  0.41039  1.0000
  Fe  Fe82      1.0  0.53171  0.95380  0.36002  1.0000
  N   N43       1.0  0.92560  0.94413  0.46873  1.0000
  S   S164      1.0  0.55022  0.93190  0.25866  1.0000
  S   S165      1.0  0.57642  0.94226  0.34646  1.0000
  H   H987      1.0  0.96555  0.75030  0.31704  1.0000
  C   C578      1.0  0.97631  0.77029  0.39594  1.0000
  S   S166      1.0  0.54343  0.99188  0.31190  1.0000
  Fe  Fe83      1.0  0.88593  0.87409  0.04731  1.0000
  S   S167      1.0  0.89050  0.88154  0.11037  1.0000
  S   S168      1.0  0.87492  0.81914  0.02910  1.0000
  S   S169      1.0  0.53265  0.72646  0.03987  1.0000
  H   H988      1.0  0.63190  0.99322  0.46360  1.0000
  S   S170      1.0  0.63741  0.76899  0.05288  1.0000
  C   C579      1.0  0.90885  0.96492  0.15959  1.0000
  C   C580      1.0  0.74117  0.79567  0.03073  1.0000
  C   C581      1.0  0.71041  0.79568  0.04495  1.0000
  C   C582      1.0  0.67558  0.76776  0.03579  1.0000
  H   H989      1.0  0.76779  0.81718  0.03812  1.0000
  H   H990      1.0  0.71360  0.81744  0.06296  1.0000
  H   H991      1.0  0.92476  0.77677  0.07440  1.0000
  H   H992      1.0  0.51767  0.91245  0.11728  1.0000
  H   H993      1.0  0.64308  0.92865  0.20843  1.0000
  C   C583      1.0  0.86835  0.93848  0.16706  1.0000
  C   C584      1.0  0.98743  0.93981  0.18896  1.0000
  C   C585      1.0  0.95498  0.91024  0.20142  1.0000
  C   C586      1.0  0.92614  0.89133  0.17644  1.0000
  C   C587      1.0  0.92968  0.90122  0.13864  1.0000
  H   H994      1.0  0.65205  0.97446  0.32903  1.0000
  H   H995      1.0  0.95701  0.84613  0.15082  1.0000
  H   H996      1.0  0.95154  0.90293  0.23064  1.0000
  H   H997      1.0  0.90051  0.86967  0.18676  1.0000
  H   H998      1.0  0.90258  0.88706  0.45623  1.0000
  C   C588      1.0  0.52758  0.81889  0.05469  1.0000
  C   C589      1.0  0.49850  0.78438  0.20018  1.0000
  C   C590      1.0  0.94550  0.73583  0.39197  1.0000
  H   H999      1.0  0.50116  0.72954  0.25382  1.0000
  H   H1000     1.0  0.64494  0.71776  0.00567  1.0000
  C   C591      1.0  0.94677  0.79772  0.36240  1.0000
  C   C592      1.0  0.91582  0.76333  0.35892  1.0000
  C   C593      1.0  0.91527  0.73242  0.37334  1.0000
  C   C594      1.0  0.93150  0.98723  0.41505  1.0000
  C   C595      1.0  0.51395  0.88291  0.04797  1.0000
  H   H1001     1.0  0.89222  0.76054  0.34479  1.0000
  H   H1002     1.0  0.89138  0.70600  0.37026  1.0000
  C   C596      1.0  0.64273  0.98633  0.43888  1.0000
  C   C597      1.0  0.93186  0.78919  0.10267  1.0000
  H   H1003     1.0  0.62086  0.97232  0.41810  1.0000
  H   H1004     1.0  0.97557  0.75741  0.10336  1.0000
  H   H1005     1.0  0.76724  0.89793  0.99739  1.0000
  H   H1006     1.0  0.73317  0.95429  0.25596  1.0000
  C   C598      1.0  0.67792  0.99382  0.31729  1.0000
  H   H1007     1.0  0.94569  0.83531  0.05315  1.0000
  H   H1008     1.0  0.51876  0.77061  0.32037  1.0000
  H   H1009     1.0  0.50846  0.80478  0.22299  1.0000
  C   C599      1.0  0.97712  0.80114  0.38083  1.0000
  H   H1010     1.0  0.91378  0.95876  0.13079  1.0000
  Fe  Fe84      1.0  0.50625  0.94263  0.27747  1.0000
  H   H1011     1.0  0.97951  0.92385  0.48912  1.0000
  H   H1012     1.0  0.87401  0.76802  0.11039  1.0000
  H   H1013     1.0  0.90346  0.72124  0.01764  1.0000
  Fe  Fe85      1.0  0.58625  0.97777  0.29683  1.0000
  S   S171      1.0  0.53568  0.84381  0.30674  1.0000
  N   N44       1.0  0.64683  0.88370  0.26761  1.0000
  C   C600      1.0  0.62728  0.85543  0.29751  1.0000
  C   C601      1.0  0.64009  0.86377  0.23111  1.0000
  C   C602      1.0  0.62992  0.90742  0.26630  1.0000
  C   C603      1.0  0.68645  0.90528  0.27761  1.0000
  C   C604      1.0  0.62757  0.86973  0.33720  1.0000
  C   C605      1.0  0.65424  0.83686  0.22851  1.0000
  C   C606      1.0  0.64533  0.93832  0.23746  1.0000
  C   C607      1.0  0.71372  0.92652  0.24592  1.0000
  H   H1014     1.0  0.59838  0.83719  0.28985  1.0000
  H   H1015     1.0  0.63914  0.83754  0.30041  1.0000
  H   H1016     1.0  0.65178  0.88240  0.20712  1.0000
  H   H1017     1.0  0.61047  0.84824  0.22520  1.0000
  H   H1018     1.0  0.60025  0.89065  0.26124  1.0000
  H   H1019     1.0  0.63266  0.92096  0.29345  1.0000
  H   H1020     1.0  0.69064  0.92501  0.29995  1.0000
  H   H1021     1.0  0.69552  0.88717  0.28991  1.0000
  H   H1022     1.0  0.61002  0.88199  0.33945  1.0000
  H   H1023     1.0  0.61597  0.84650  0.35692  1.0000
  H   H1024     1.0  0.65524  0.88918  0.34696  1.0000
  H   H1025     1.0  0.68287  0.84912  0.23719  1.0000
  H   H1026     1.0  0.63724  0.81204  0.24514  1.0000
  H   H1027     1.0  0.65265  0.82797  0.19910  1.0000
  H   H1028     1.0  0.94553  0.70601  0.30091  1.0000
  H   H1029     1.0  0.62944  0.95246  0.23898  1.0000
  C   C608      1.0  0.50096  0.88586  0.13110  1.0000
  S   S172      1.0  0.83859  0.87009  0.01548  1.0000
  H   H1030     1.0  0.70200  0.92990  0.21999  1.0000
  C   C609      1.0  0.96533  0.85002  0.07587  1.0000
  N   N45       1.0  0.96825  0.82358  0.10178  1.0000
  C   C610      1.0  0.85668  0.91610  0.45922  1.0000
  H   H1031     1.0  0.85232  0.93369  0.14125  1.0000
  C   C611      1.0  0.93235  0.95311  0.42778  1.0000
  C   C612      1.0  0.96441  0.73432  0.29219  1.0000
  H   H1032     1.0  0.83302  0.91648  0.47186  1.0000
  H   H1033     1.0  0.92154  0.97447  0.23558  1.0000
  H   H1034     1.0  0.95945  0.95764  0.41937  1.0000
  C   C613      1.0  0.92293  0.90792  0.47517  1.0000
  H   H1035     1.0  0.97417  0.68499  0.26019  1.0000
  H   H1036     1.0  0.52020  0.77775  0.19630  1.0000
  H   H1037     1.0  0.90503  0.98541  0.42031  1.0000
  H   H1038     1.0  0.92473  0.95645  0.17708  1.0000
  Fe  Fe86      1.0  0.58510  0.72868  0.02545  1.0000
  C   C614      1.0  0.92811  0.74361  0.00639  1.0000
  H   H1039     1.0  0.67360  0.95917  0.24400  1.0000
  H   H1040     1.0  0.92667  0.75142  0.27454  1.0000
  C   C615      1.0  0.67167  0.73948  0.01284  1.0000
  H   H1041     1.0  0.55062  0.84683  0.05196  1.0000
  Fe  Fe87      1.0  0.50798  0.66601  0.03651  1.0000
  C   C616      1.0  0.51176  0.87798  0.00526  1.0000
  H   H1042     1.0  0.96584  0.93752  0.09676  1.0000
  H   H1043     1.0  0.95232  0.87845  0.47335  1.0000
  S   S173      1.0  0.52134  0.96108  0.42130  1.0000
  H   H1044     1.0  0.89339  0.96913  0.48108  1.0000
  C   C617      1.0  0.97689  0.83825  0.14097  1.0000
  H   H1045     1.0  0.96874  0.91425  0.44015  1.0000
  H   H1046     1.0  0.93617  0.99045  0.38450  1.0000
  S   S174      1.0  0.56131  0.66842  0.02705  1.0000
  C   C618      1.0  0.95815  0.90667  0.46897  1.0000
  H   H1047     1.0  0.95439  0.86535  0.09079  1.0000
  H   H1048     1.0  0.73035  0.91387  0.23914  1.0000
  H   H1049     1.0  0.89848  0.81588  0.10366  1.0000
  H   H1050     1.0  0.49567  0.79724  0.17463  1.0000
  C   C619      1.0  0.70897  0.99218  0.32658  1.0000
  C   C620      1.0  0.89977  0.79317  0.11689  1.0000
  H   H1051     1.0  0.51342  0.97507  0.18197  1.0000
  C   C621      1.0  0.94466  0.74264  0.26133  1.0000
  C   C622      1.0  0.73730  0.76760  0.00744  1.0000
  H   H1052     1.0  0.93226  0.76844  0.12103  1.0000
  C   C623      1.0  0.96283  0.92948  0.12573  1.0000
  C   C624      1.0  0.50268  0.85519  0.11013  1.0000
  C   C625      1.0  0.89084  0.94191  0.48151  1.0000
  H   H1053     1.0  0.53153  0.80653  0.08015  1.0000
  H   H1054     1.0  0.85841  0.92474  0.42982  1.0000
  S   S175      1.0  0.98621  0.93641  0.32527  1.0000
  C   C626      1.0  0.70245  0.73925  0.99903  1.0000
  H   H1055     1.0  0.50725  0.97713  0.11331  1.0000
  H   H1056     1.0  0.50442  0.72320  0.18306  1.0000
  H   H1057     1.0  0.84790  0.98570  0.14949  1.0000
  H   H1058     1.0  0.51404  0.69781  0.23788  1.0000
  H   H1059     1.0  0.53136  0.86161  0.11133  1.0000
  H   H1060     1.0  0.96886  0.68147  0.33676  1.0000
  H   H1061     1.0  0.65041  0.96623  0.44810  1.0000
  H   H1062     1.0  0.85086  0.88771  0.46020  1.0000
  H   H1063     1.0  0.50772  0.90488  0.05409  1.0000
  H   H1064     1.0  0.98274  0.97871  0.47926  1.0000
  H   H1065     1.0  0.52917  0.80400  0.02992  1.0000
  H   H1066     1.0  0.92768  0.71809  0.24437  1.0000
  H   H1067     1.0  0.86495  0.91208  0.17634  1.0000
  H   H1068     1.0  0.85666  0.94678  0.18989  1.0000
  C   C627      1.0  0.95639  0.97368  0.49040  1.0000
  C   C628      1.0  0.49349  0.77033  0.31670  1.0000
  C   C629      1.0  0.49379  0.80299  0.31046  1.0000
  S   S176      1.0  0.92514  0.90439  0.00087  1.0000
  H   H1069     1.0  0.49462  0.75614  0.13225  1.0000
  H   H1070     1.0  0.96280  0.76542  0.24304  1.0000
  C   C630      1.0  0.95958  0.74107  0.00423  1.0000
  C   C631      1.0  0.49132  0.70349  0.23898  1.0000
  S   S177      1.0  0.95750  0.70146  0.02153  1.0000
  H   H1071     1.0  0.97570  0.72703  0.20673  1.0000
  C   C632      1.0  0.54964  0.99083  0.48987  1.0000
  H   H1072     1.0  0.51184  0.88820  0.15967  1.0000
  H   H1073     1.0  0.98866  0.80459  0.05729  1.0000
  H   H1074     1.0  0.97423  0.81690  0.16060  1.0000
  H   H1075     1.0  0.69242  0.81620  0.72775  1.0000
  C   C633      1.0  0.67588  0.74219  0.80963  1.0000
  H   H1076     1.0  0.66966  0.76345  0.81878  1.0000
  Fe  Fe88      1.0  0.87660  0.89428  0.96662  1.0000
  S   S178      1.0  0.87025  0.93393  0.92920  1.0000
  S   S179      1.0  0.86653  0.84114  0.94393  1.0000
  S   S180      1.0  0.57910  0.73129  0.96384  1.0000
  S   S181      1.0  0.50745  0.76021  0.94976  1.0000
  H   H1077     1.0  0.71197  0.68450  0.75373  1.0000
  Fe  Fe89      1.0  0.83129  0.95719  0.63071  1.0000
  S   S182      1.0  0.77301  0.94299  0.63115  1.0000
  H   H1078     1.0  0.85023  0.96825  0.87234  1.0000
  Fe  Fe90      1.0  0.82655  0.92830  0.71132  1.0000
  S   S183      1.0  0.76798  0.91220  0.71772  1.0000
  S   S184      1.0  0.86006  0.91660  0.75240  1.0000
  Fe  Fe91      1.0  0.76216  0.89089  0.65917  1.0000
  S   S185      1.0  0.71289  0.83727  0.64382  1.0000
  H   H1079     1.0  0.78914  0.86809  0.84331  1.0000
  S   S186      1.0  0.81976  0.90345  0.65427  1.0000
  S   S187      1.0  0.71044  0.68767  0.66235  1.0000
  C   C634      1.0  0.71306  0.79604  0.64782  1.0000
  C   C635      1.0  0.74385  0.79515  0.65942  1.0000
  C   C636      1.0  0.74274  0.76175  0.66332  1.0000
  C   C637      1.0  0.71075  0.72897  0.65625  1.0000
  C   C638      1.0  0.67990  0.72983  0.64481  1.0000
  C   C639      1.0  0.68116  0.76326  0.64034  1.0000
  H   H1080     1.0  0.76853  0.82016  0.66534  1.0000
  H   H1081     1.0  0.76674  0.76129  0.67207  1.0000
  H   H1082     1.0  0.65523  0.70482  0.63897  1.0000
  H   H1083     1.0  0.65725  0.76375  0.63134  1.0000
  H   H1084     1.0  0.62789  0.74622  0.70918  1.0000
  C   C640      1.0  0.96387  0.96202  0.71006  1.0000
  C   C641      1.0  0.86521  0.92732  0.88023  1.0000
  C   C642      1.0  0.87208  0.90228  0.86219  1.0000
  C   C643      1.0  0.86971  0.89894  0.82314  1.0000
  C   C644      1.0  0.85976  0.92003  0.80162  1.0000
  C   C645      1.0  0.85229  0.94472  0.81964  1.0000
  C   C646      1.0  0.85533  0.94855  0.85874  1.0000
  H   H1085     1.0  0.88027  0.88615  0.87812  1.0000
  H   H1086     1.0  0.87592  0.88003  0.80946  1.0000
  H   H1087     1.0  0.98095  0.99042  0.54486  1.0000
  H   H1088     1.0  0.90162  0.92830  0.61578  1.0000
  H   H1089     1.0  0.62102  0.70074  0.70560  1.0000
  C   C647      1.0  0.68703  0.80046  0.75403  1.0000
  Fe  Fe92      1.0  0.91196  0.84891  0.98134  1.0000
  H   H1090     1.0  0.73270  0.73208  0.74863  1.0000
  H   H1091     1.0  0.54370  0.96381  0.49737  1.0000
  H   H1092     1.0  0.61910  0.73857  0.77886  1.0000
  H   H1093     1.0  0.94961  0.95667  0.61418  1.0000
  H   H1094     1.0  0.71752  0.71097  0.79420  1.0000
  C   C648      1.0  0.67322  0.70336  0.75645  1.0000
  H   H1095     1.0  0.70545  0.75417  0.81441  1.0000
  H   H1096     1.0  0.70288  0.95196  0.67959  1.0000
  N   N46       1.0  0.74755  0.84866  0.91373  1.0000
  C   C649      1.0  0.74116  0.86072  0.95129  1.0000
  C   C650      1.0  0.71139  0.81843  0.90060  1.0000
  C   C651      1.0  0.77560  0.83724  0.91830  1.0000
  C   C652      1.0  0.69328  0.78475  0.92593  1.0000
  C   C653      1.0  0.77707  0.81185  0.88829  1.0000
  H   H1097     1.0  0.71779  0.86554  0.95020  1.0000
  C   C654      1.0  0.95962  0.80371  0.97918  1.0000
  H   H1098     1.0  0.71291  0.80856  0.87257  1.0000
  H   H1099     1.0  0.69188  0.82843  0.89755  1.0000
  H   H1100     1.0  0.80319  0.86142  0.92010  1.0000
  H   H1101     1.0  0.77155  0.82301  0.94540  1.0000
  H   H1102     1.0  0.96360  0.94013  0.69303  1.0000
  H   H1103     1.0  0.71142  0.77366  0.93121  1.0000
  H   H1104     1.0  0.68406  0.79045  0.95274  1.0000
  H   H1105     1.0  0.66860  0.76318  0.91219  1.0000
  H   H1106     1.0  0.80579  0.82191  0.88040  1.0000
  H   H1107     1.0  0.76711  0.78434  0.90010  1.0000
  C   C655      1.0  0.96892  0.97479  0.90963  1.0000
  H   H1108     1.0  0.77781  0.91997  0.95312  1.0000
  H   H1109     1.0  0.94443  0.95728  0.83688  1.0000
  H   H1110     1.0  0.96313  0.98773  0.79857  1.0000
  H   H1111     1.0  0.53735  0.98159  0.69618  1.0000
  H   H1112     1.0  0.97513  0.92729  0.90645  1.0000
  H   H1113     1.0  0.83040  0.98674  0.52436  1.0000
  C   C656      1.0  0.65557  0.71008  0.83675  1.0000
  H   H1114     1.0  0.78746  0.90306  0.89655  1.0000
  N   N47       1.0  0.66689  0.73351  0.76905  1.0000
  H   H1115     1.0  0.73378  0.83917  0.97262  1.0000
  H   H1116     1.0  0.61004  0.69379  0.77529  1.0000
  H   H1117     1.0  0.68788  0.76103  0.71635  1.0000
  C   C657      1.0  0.92262  0.96295  0.66442  1.0000
  H   H1118     1.0  0.66501  0.71927  0.86559  1.0000
  H   H1119     1.0  0.91100  0.97847  0.65185  1.0000
  H   H1120     1.0  0.70666  0.81819  0.77539  1.0000
  C   C658      1.0  0.77332  0.89517  0.96782  1.0000
  H   H1121     1.0  0.74183  0.89122  0.88762  1.0000
  S   S188      1.0  0.87646  0.98820  0.58804  1.0000
  H   H1122     1.0  0.88481  0.93287  0.51106  1.0000
  H   H1123     1.0  0.94202  0.94782  0.73134  1.0000
  H   H1124     1.0  0.58555  0.70778  0.72194  1.0000
  C   C659      1.0  0.95608  0.96753  0.53276  1.0000
  C   C660      1.0  0.61533  0.71911  0.72251  1.0000
  H   H1125     1.0  0.66906  0.69905  0.72589  1.0000
  H   H1126     1.0  0.77462  0.89885  0.83029  1.0000
  H   H1127     1.0  0.94118  0.95511  0.90002  1.0000
  H   H1128     1.0  0.64602  0.95189  0.66477  1.0000
  H   H1129     1.0  0.66080  0.68756  0.83093  1.0000
  H   H1130     1.0  0.84504  0.96148  0.80338  1.0000
  C   C661      1.0  0.71115  0.70866  0.76410  1.0000
  H   H1131     1.0  0.62600  0.69974  0.83658  1.0000
  Fe  Fe93      1.0  0.52435  0.72381  0.97813  1.0000
  H   H1132     1.0  0.95655  0.94249  0.53978  1.0000
  C   C662      1.0  0.76081  0.88039  0.88740  1.0000
  H   H1133     1.0  0.92880  0.91731  0.64424  1.0000
  C   C663      1.0  0.62738  0.72127  0.76334  1.0000
  H   H1134     1.0  0.72001  0.77600  0.75153  1.0000
  H   H1135     1.0  0.93275  0.96740  0.54668  1.0000
  Fe  Fe94      1.0  0.83062  0.81729  0.99421  1.0000
  H   H1136     1.0  0.65295  0.67706  0.76909  1.0000
  H   H1137     1.0  0.96539  0.97557  0.94025  1.0000
  C   C664      1.0  0.92651  0.94028  0.63304  1.0000
  H   H1138     1.0  0.90062  0.94358  0.68330  1.0000
  H   H1139     1.0  0.65955  0.79380  0.76290  1.0000
  S   S189      1.0  0.96025  0.84353  0.96476  1.0000
  C   C665      1.0  0.69100  0.76690  0.74658  1.0000
  H   H1140     1.0  0.76258  0.80946  0.86218  1.0000
  H   H1141     1.0  0.74169  0.85227  0.83302  1.0000
  S   S190      1.0  0.84279  0.98292  0.68751  1.0000
  C   C666      1.0  0.76654  0.87367  0.84639  1.0000
  Fe  Fe95      1.0  0.78348  0.96516  0.68943  1.0000
  N   N48       1.0  0.95639  0.98685  0.68641  1.0000
  S   S191      1.0  0.77521  0.76781  0.98720  1.0000
  H   H1142     1.0  0.69922  0.71734  0.98119  1.0000
  C   C667      1.0  0.52978  0.98037  0.72602  1.0000
  C   C668      1.0  0.70147  0.97644  0.68304  1.0000
  H   H1143     1.0  0.52431  0.95371  0.73658  1.0000
  C   C669      1.0  0.49674  0.98587  0.72943  1.0000
  H   H1144     1.0  0.92277  0.99192  0.72865  1.0000
  C   C670      1.0  0.95508  0.98578  0.82826  1.0000
  Fe  Fe96      1.0  0.55180  0.67066  0.96537  1.0000
  C   C671      1.0  0.66928  0.97646  0.67466  1.0000
  H   H1145     1.0  0.93333  0.99278  0.82931  1.0000
  S   S192      1.0  0.49610  0.66299  0.97479  1.0000
  H   H1146     1.0  0.49928  0.95787  0.56530  1.0000
  H   H1147     1.0  0.79861  0.89396  0.96752  1.0000
  H   H1148     1.0  0.91289  0.89773  0.50382  1.0000
  C   C672      1.0  0.92810  0.77476  0.99396  1.0000
  H   H1149     1.0  0.90349  0.77607  0.99536  1.0000
  H   H1150     1.0  0.52664  0.90495  0.99161  1.0000
  H   H1151     1.0  0.49189  0.93980  0.79067  1.0000
  H   H1152     1.0  0.52460  0.86222  0.99579  1.0000
