data_image0
_chemical_formula_structural       Fe2S2FeS3HCH2CH2FeC3H2CHCHCHCHCNSHC2H3SH2SNC5H2C2H5C2HCHCH4CHC2H7C2HCSCH3CH3CH5CHC3H3CHSH4FeS2FeS2FeSHS2HSH2SFeCFeSFeH2C6H7S2H2S2C3H2CHCNC4H9CH3CH2C2H5FeNC8H10C2HCH3C2H8CHCHC2FeSHFeS2FeSFeS3HNSC6H5CH2CH3C2H3NC4H2CH4CH2CH3CHCH4CH4C2H2C2H2SHCH4CHCHCH3NH5C3H4CH2CH4C2H3CH2C2HCH2CH2CHC2HFe2S2FeSHFeSFeS4C6H4C2H5C4H8CH3CH5CH3CH2CH2FeHCH4C3SHCH2CNCHCHCH4CH2C2H4C2NHCH2CHNH6C2H6FeCSHCHSHSFeS2FeSFeSFeS3C6H5SNCH3C3H3CH6CHCH2CH2CHSCH3CHNC2H2C2SHFeH2CHFeH2CH6CH2CH3NC2SCFe2S2FeSHSH4SHNCH2CH3CH3C7H4CHFeSH5S2CH2C4HC2H4CH2C2H2C2HC2H6CSH3C2H2CHC2NHCHC2HCH4CHC2H5CHNCH2SFeS2FeSFeHS2CHSFeSCHC6H4C5H9CH9CFeCH5NH4CFeCHC3FeH4CHSCH6C2H2C3HSHCH3C2H3C2H2CHSHCNH5CH5CSFeS2FeSCFeSFeCS2HCSH2C3H3CHCHCH4C2SHC3HCHNCH2CHCH2C2NC8H21CH7C4H2CHC5H8C3NCH3CH3SHCHCH3CHCHCH3FeS2FeSHFeHFeS4CHCHC9H7NC2HC3H3SH2CH2SHCH3C2H4CH6CHCH3CH4C2H3SCFeCH2CFeS2FeSHFeSFeS4HSH4C6H4NHCFeHCH3C5HNCH3NHC2H5CH4CH2CH2CH2SH4C2HCH4CSH3CHCH2C2H5CFeSHFeS2FeSFeS3HNHCH3C6H2C4H7CH3CHCH6CH2C4H4CH6CHCHC2HC2H2NH2CHSC4H3CH2CH2SC2H4C2H3CHCNHCHNH7CH2C2H5CH3C2H3SCHFeS2FeSFeSFeS3FeHSHCFeC2HC6H5C4H3CH4CH3C2HCH3CH3CHCHC2H2CH3SHC2H2FeSHNH3NHCHCH5CH3CHSHCH2C2H2C2H6N
_chemical_formula_sum              "Fe64 S128 H768 C448 N32"
_cell_length_a       39.03
_cell_length_b       39.024
_cell_length_c       35.1843
_cell_angle_alpha    90.5209
_cell_angle_beta     89.3342
_cell_angle_gamma    90.098

_space_group_name_H-M_alt    "P 1"
_space_group_IT_number       1

loop_
  _space_group_symop_operation_xyz
  'x, y, z'

loop_
  _atom_site_type_symbol
  _atom_site_label
  _atom_site_symmetry_multiplicity
  _atom_site_fract_x
  _atom_site_fract_y
  _atom_site_fract_z
  _atom_site_occupancy
  Fe  Fe1       1.0  0.44027  0.20899  0.39467  1.0000
  Fe  Fe2       1.0  0.41785  0.15133  0.34027  1.0000
  S   S1        1.0  0.40882  0.18734  0.29219  1.0000
  S   S2        1.0  0.41879  0.09343  0.33667  1.0000
  Fe  Fe3       1.0  0.38447  0.22278  0.33614  1.0000
  S   S3        1.0  0.33056  0.24567  0.33294  1.0000
  S   S4        1.0  0.46903  0.17299  0.35627  1.0000
  S   S5        1.0  0.38959  0.18407  0.38301  1.0000
  H   H1        1.0  0.47324  0.11093  0.21787  1.0000
  C   C1        1.0  0.44362  0.15259  0.19777  1.0000
  H   H2        1.0  0.49273  0.07517  0.44216  1.0000
  H   H3        1.0  0.45713  0.12482  0.12489  1.0000
  C   C2        1.0  0.33982  0.31430  0.31360  1.0000
  H   H4        1.0  0.48308  0.13426  0.47762  1.0000
  H   H5        1.0  0.42687  0.02590  0.30519  1.0000
  Fe  Fe4       1.0  0.45870  0.21082  0.31045  1.0000
  C   C3        1.0  0.39790  0.07245  0.29885  1.0000
  C   C4        1.0  0.37212  0.08866  0.27845  1.0000
  C   C5        1.0  0.35522  0.07088  0.24918  1.0000
  H   H6        1.0  0.46137  0.16182  0.17527  1.0000
  H   H7        1.0  0.42552  0.04253  0.19533  1.0000
  C   C6        1.0  0.40696  0.03859  0.28949  1.0000
  H   H8        1.0  0.36478  0.11466  0.28566  1.0000
  C   C7        1.0  0.46687  0.12467  0.45424  1.0000
  H   H9        1.0  0.45030  0.16698  0.22404  1.0000
  C   C8        1.0  0.41737  0.01385  0.03957  1.0000
  H   H10       1.0  0.39642  0.04185  0.13596  1.0000
  C   C9        1.0  0.40607  0.09400  0.15922  1.0000
  H   H11       1.0  0.47909  0.09798  0.40035  1.0000
  C   C10       1.0  0.48955  0.10081  0.42946  1.0000
  N   N1        1.0  0.43365  0.10936  0.46847  1.0000
  S   S6        1.0  0.43395  0.24959  0.35028  1.0000
  H   H12       1.0  0.08141  0.30024  0.26001  1.0000
  C   C11       1.0  0.28154  0.29545  0.32439  1.0000
  C   C12       1.0  0.31682  0.28799  0.32265  1.0000
  H   H13       1.0  0.40075  0.12021  0.14863  1.0000
  H   H14       1.0  0.36699  0.30896  0.31206  1.0000
  H   H15       1.0  0.26353  0.27523  0.33112  1.0000
  S   S7        1.0  0.34430  0.01634  0.20110  1.0000
  H   H16       1.0  0.44311  0.05536  0.47628  1.0000
  H   H17       1.0  0.33503  0.08341  0.23374  1.0000
  S   S8        1.0  0.45276  0.22121  0.45617  1.0000
  N   N2        1.0  0.44295  0.09057  0.17119  1.0000
  C   C13       1.0  0.24278  0.33255  0.42415  1.0000
  C   C14       1.0  0.37710  0.08483  0.44093  1.0000
  C   C15       1.0  0.44897  0.05365  0.18199  1.0000
  C   C16       1.0  0.46549  0.10035  0.13790  1.0000
  C   C17       1.0  0.41395  0.09788  0.43389  1.0000
  H   H18       1.0  0.40754  0.07359  0.10043  1.0000
  H   H19       1.0  0.36631  0.07348  0.12270  1.0000
  C   C18       1.0  0.01321  0.32521  0.02033  1.0000
  C   C19       1.0  0.06192  0.30986  0.13065  1.0000
  H   H20       1.0  0.33585  0.29143  0.41624  1.0000
  H   H21       1.0  0.42746  0.07661  0.41869  1.0000
  H   H22       1.0  0.49152  0.06602  0.51013  1.0000
  H   H23       1.0  0.46156  0.14779  0.43698  1.0000
  H   H24       1.0  0.42185  0.01414  0.06984  1.0000
  C   C20       1.0  0.50434  0.10255  0.14497  1.0000
  C   C21       1.0  0.07205  0.32569  0.25402  1.0000
  H   H25       1.0  0.50282  0.05761  0.20168  1.0000
  C   C22       1.0  0.39400  0.06909  0.12775  1.0000
  H   H26       1.0  0.49490  0.14860  0.28224  1.0000
  C   C23       1.0  0.36457  0.03716  0.23949  1.0000
  H   H27       1.0  0.30616  0.29315  0.45515  1.0000
  H   H28       1.0  0.45408  0.03762  0.15621  1.0000
  H   H29       1.0  0.41228  0.11906  0.41304  1.0000
  H   H30       1.0  0.38847  0.09030  0.18397  1.0000
  C   C24       1.0  0.02783  0.29426  0.03156  1.0000
  H   H31       1.0  0.07444  0.33180  0.07619  1.0000
  C   C25       1.0  0.44771  0.11391  0.20516  1.0000
  C   C26       1.0  0.39056  0.02107  0.25970  1.0000
  H   H32       1.0  0.46263  0.08146  0.11425  1.0000
  H   H33       1.0  0.17698  0.22285  0.03933  1.0000
  H   H34       1.0  0.05531  0.28531  0.11627  1.0000
  H   H35       1.0  0.24543  0.30770  0.43876  1.0000
  H   H36       1.0  0.41683  0.15946  0.19109  1.0000
  H   H37       1.0  0.42369  0.06861  0.03316  1.0000
  H   H38       1.0  0.35926  0.10627  0.44745  1.0000
  C   C27       1.0  0.49333  0.21233  0.47544  1.0000
  C   C28       1.0  0.43879  0.07888  0.49392  1.0000
  H   H39       1.0  0.40772  0.15835  0.46829  1.0000
  C   C29       1.0  0.47796  0.04628  0.21025  1.0000
  S   S9        1.0  0.01912  0.29319  0.21699  1.0000
  C   C30       1.0  0.26934  0.32880  0.31744  1.0000
  H   H40       1.0  0.36771  0.07265  0.41429  1.0000
  H   H41       1.0  0.42946  0.10683  0.22843  1.0000
  H   H42       1.0  0.01531  0.27902  0.05318  1.0000
  C   C31       1.0  0.41287  0.13694  0.48826  1.0000
  H   H43       1.0  0.41511  0.07384  0.51097  1.0000
  H   H44       1.0  0.38738  0.12704  0.49733  1.0000
  H   H45       1.0  0.06922  0.25837  0.02248  1.0000
  C   C32       1.0  0.08634  0.33041  0.10470  1.0000
  H   H46       1.0  0.29179  0.28418  0.40729  1.0000
  H   H47       1.0  0.24097  0.32553  0.39345  1.0000
  H   H48       1.0  0.37569  0.06526  0.46351  1.0000
  H   H49       1.0  0.24215  0.33406  0.31871  1.0000
  H   H50       1.0  0.10940  0.31407  0.10045  1.0000
  C   C33       1.0  0.27814  0.33944  0.50171  1.0000
  H   H51       1.0  0.07415  0.30305  0.15784  1.0000
  C   C34       1.0  0.04160  0.32956  0.23353  1.0000
  C   C35       1.0  0.49996  0.22135  0.51341  1.0000
  C   C36       1.0  0.30960  0.29966  0.42490  1.0000
  H   H52       1.0  0.18771  0.32732  0.43210  1.0000
  H   H53       1.0  0.30865  0.34043  0.38561  1.0000
  H   H54       1.0  0.03742  0.32327  0.13641  1.0000
  C   C37       1.0  0.30580  0.33830  0.41698  1.0000
  H   H55       1.0  0.26207  0.31676  0.49573  1.0000
  S   S10       1.0  0.50227  0.22168  0.26926  1.0000
  H   H56       1.0  0.30510  0.33133  0.50591  1.0000
  H   H57       1.0  0.48163  0.01809  0.21202  1.0000
  H   H58       1.0  0.47088  0.05526  0.23936  1.0000
  H   H59       1.0  0.15350  0.34093  0.07377  1.0000
  Fe  Fe5       1.0  0.39741  0.08078  0.89297  1.0000
  S   S11       1.0  0.34927  0.05164  0.88122  1.0000
  S   S12       1.0  0.41568  0.08318  0.95375  1.0000
  Fe  Fe6       1.0  0.41045  0.09649  0.80888  1.0000
  S   S13       1.0  0.36311  0.06742  0.79173  1.0000
  S   S14       1.0  0.43953  0.11322  0.75580  1.0000
  Fe  Fe7       1.0  0.33735  0.09466  0.84105  1.0000
  S   S15       1.0  0.28261  0.11480  0.83586  1.0000
  H   H60       1.0  0.32497  0.20469  0.68163  1.0000
  S   S16       1.0  0.38374  0.12597  0.85612  1.0000
  S   S17       1.0  0.42859  0.05483  0.84726  1.0000
  H   H61       1.0  0.41680  0.20416  0.65623  1.0000
  S   S18       1.0  0.12954  0.26162  0.85790  1.0000
  H   H62       1.0  0.13616  0.21823  0.92860  1.0000
  H   H63       1.0  0.19561  0.17748  0.99758  1.0000
  S   S19       1.0  0.09132  0.33654  0.86609  1.0000
  Fe  Fe8       1.0  0.10042  0.29752  0.82022  1.0000
  C   C38       1.0  0.07427  0.30173  0.98526  1.0000
  Fe  Fe9       1.0  0.17661  0.29039  0.83904  1.0000
  S   S20       1.0  0.23078  0.26961  0.82962  1.0000
  Fe  Fe10      1.0  0.12370  0.30309  0.90231  1.0000
  H   H64       1.0  0.32044  0.11959  0.74894  1.0000
  H   H65       1.0  0.23654  0.13795  0.92021  1.0000
  C   C39       1.0  0.26872  0.15803  0.83438  1.0000
  C   C40       1.0  0.29124  0.18548  0.83996  1.0000
  C   C41       1.0  0.27933  0.21947  0.83761  1.0000
  C   C42       1.0  0.24452  0.22640  0.83117  1.0000
  C   C43       1.0  0.22180  0.19897  0.82652  1.0000
  C   C44       1.0  0.23393  0.16498  0.82788  1.0000
  H   H66       1.0  0.31771  0.18044  0.84644  1.0000
  H   H67       1.0  0.29701  0.24054  0.84170  1.0000
  H   H68       1.0  0.19500  0.20394  0.82133  1.0000
  H   H69       1.0  0.21627  0.14390  0.82369  1.0000
  H   H70       1.0  0.25444  0.26247  0.92261  1.0000
  H   H71       1.0  0.31817  0.15031  0.71203  1.0000
  H   H72       1.0  0.39192  0.23654  0.67978  1.0000
  S   S21       1.0  0.11128  0.28548  0.96223  1.0000
  S   S22       1.0  0.05446  0.28172  0.78542  1.0000
  H   H73       1.0  0.43164  0.22098  0.70008  1.0000
  H   H74       1.0  0.23947  0.26447  0.97155  1.0000
  S   S23       1.0  0.17242  0.33004  0.88592  1.0000
  S   S24       1.0  0.14795  0.32257  0.79674  1.0000
  C   C45       1.0  0.47269  0.14324  0.74771  1.0000
  C   C46       1.0  0.48609  0.14579  0.71067  1.0000
  C   C47       1.0  0.05834  0.28261  0.01411  1.0000
  H   H75       1.0  0.36865  0.23847  0.81048  1.0000
  H   H76       1.0  0.47546  0.16287  0.80501  1.0000
  C   C48       1.0  0.03558  0.24207  0.91279  1.0000
  H   H77       1.0  0.30732  0.24334  0.69840  1.0000
  C   C49       1.0  0.14258  0.19121  0.93439  1.0000
  N   N3        1.0  0.20663  0.20554  0.94591  1.0000
  C   C50       1.0  0.24176  0.19295  0.93393  1.0000
  C   C51       1.0  0.20268  0.24149  0.93108  1.0000
  C   C52       1.0  0.18057  0.18267  0.92694  1.0000
  C   C53       1.0  0.20360  0.20367  0.98874  1.0000
  H   H78       1.0  0.26226  0.20771  0.94855  1.0000
  H   H79       1.0  0.12667  0.17536  0.91500  1.0000
  H   H80       1.0  0.15282  0.22881  0.99729  1.0000
  H   H81       1.0  0.24609  0.19727  0.90316  1.0000
  H   H82       1.0  0.29434  0.20397  0.72079  1.0000
  H   H83       1.0  0.17830  0.25341  0.94072  1.0000
  H   H84       1.0  0.20104  0.24112  0.89949  1.0000
  H   H85       1.0  0.47322  0.02790  0.91709  1.0000
  H   H86       1.0  0.18343  0.15561  0.93600  1.0000
  C   C54       1.0  0.40671  0.01322  0.96083  1.0000
  H   H87       1.0  0.06376  0.23845  0.91456  1.0000
  H   H88       1.0  0.18478  0.18252  0.89552  1.0000
  H   H89       1.0  0.47764  0.10655  0.53018  1.0000
  C   C55       1.0  0.41311  0.04440  0.97938  1.0000
  H   H90       1.0  0.35520  0.12264  0.71570  1.0000
  H   H91       1.0  0.13471  0.18428  0.96371  1.0000
  C   C56       1.0  0.24949  0.15481  0.94124  1.0000
  C   C57       1.0  0.02859  0.27721  0.89461  1.0000
  H   H92       1.0  0.03998  0.29644  0.91398  1.0000
  H   H93       1.0  0.04420  0.27822  0.86794  1.0000
  H   H94       1.0  0.47596  0.12967  0.68826  1.0000
  H   H95       1.0  0.37329  0.19396  0.82373  1.0000
  H   H96       1.0  0.40263  0.01270  0.93047  1.0000
  Fe  Fe11      1.0  0.37963  0.02777  0.83329  1.0000
  N   N4        1.0  0.37052  0.19461  0.74178  1.0000
  C   C58       1.0  0.39787  0.20697  0.76870  1.0000
  C   C59       1.0  0.38824  0.18481  0.70490  1.0000
  C   C60       1.0  0.35356  0.16348  0.75913  1.0000
  C   C61       1.0  0.34501  0.22323  0.73724  1.0000
  C   C62       1.0  0.38584  0.21588  0.80956  1.0000
  C   C63       1.0  0.40807  0.21369  0.68457  1.0000
  C   C64       1.0  0.33590  0.13797  0.73188  1.0000
  C   C65       1.0  0.31642  0.21789  0.70794  1.0000
  H   H97       1.0  0.41837  0.18736  0.77110  1.0000
  H   H98       1.0  0.41068  0.23050  0.75795  1.0000
  H   H99       1.0  0.37021  0.17402  0.68387  1.0000
  H   H100      1.0  0.40679  0.16369  0.70981  1.0000
  H   H101      1.0  0.37259  0.14788  0.77474  1.0000
  H   H102      1.0  0.33398  0.17122  0.78064  1.0000
  H   H103      1.0  0.33120  0.22820  0.76461  1.0000
  H   H104      1.0  0.35790  0.24815  0.73137  1.0000
  H   H105      1.0  0.40862  0.22261  0.82678  1.0000
  H   H106      1.0  0.18890  0.25598  0.00727  1.0000
  C   C66       1.0  0.23174  0.26663  0.94146  1.0000
  C   C67       1.0  0.48568  0.16452  0.77637  1.0000
  H   H107      1.0  0.49235  0.06303  0.78946  1.0000
  C   C68       1.0  0.03099  0.31625  0.76683  1.0000
  H   H108      1.0  0.41176  0.17467  0.53383  1.0000
  H   H109      1.0  0.27743  0.15027  0.93717  1.0000
  H   H110      1.0  0.24256  0.14704  0.97056  1.0000
  C   C69       1.0  0.17905  0.22934  0.00871  1.0000
  C   C70       1.0  0.06017  0.33312  0.97486  1.0000
  H   H111      1.0  0.00874  0.32077  0.84336  1.0000
  H   H112      1.0  0.22895  0.20782  0.00231  1.0000
  H   H113      1.0  0.22306  0.29333  0.93675  1.0000
  H   H114      1.0  0.48045  0.23432  0.53020  1.0000
  H   H115      1.0  0.02553  0.24092  0.94238  1.0000
  H   H116      1.0  0.42813  0.13425  0.54817  1.0000
  H   H117      1.0  0.46185  0.06731  0.54844  1.0000
  H   H118      1.0  0.02552  0.22042  0.89564  1.0000
  C   C71       1.0  0.42815  0.15283  0.52451  1.0000
  H   H119      1.0  0.49678  0.01819  0.95949  1.0000
  C   C72       1.0  0.41848  0.04459  0.01880  1.0000
  H   H120      1.0  0.45408  0.16356  0.51992  1.0000
  C   C73       1.0  0.49452  0.01239  0.92863  1.0000
  C   C74       1.0  0.46925  0.08057  0.52174  1.0000
  Fe  Fe12      1.0  0.22669  0.42193  0.31553  1.0000
  S   S25       1.0  0.18124  0.39643  0.34362  1.0000
  H   H121      1.0  0.07617  0.66773  0.03371  1.0000
  Fe  Fe13      1.0  0.19301  0.49341  0.31916  1.0000
  S   S26       1.0  0.14625  0.47289  0.34854  1.0000
  S   S27       1.0  0.19319  0.55107  0.31190  1.0000
  Fe  Fe14      1.0  0.18222  0.44215  0.38347  1.0000
  S   S28       1.0  0.17829  0.43727  0.44753  1.0000
  Fe  Fe15      1.0  0.14944  0.42997  0.30569  1.0000
  S   S29       1.0  0.09946  0.42508  0.27389  1.0000
  S   S30       1.0  0.22905  0.46578  0.35758  1.0000
  S   S31       1.0  0.19476  0.45221  0.27435  1.0000
  H   H122      1.0  0.03314  0.61458  0.19830  1.0000
  N   N5        1.0  0.27320  0.35575  0.43044  1.0000
  S   S32       1.0  0.16473  0.61743  0.15174  1.0000
  C   C75       1.0  0.18371  0.56855  0.26731  1.0000
  C   C76       1.0  0.17239  0.60262  0.26540  1.0000
  C   C77       1.0  0.16536  0.61756  0.23016  1.0000
  C   C78       1.0  0.17059  0.59880  0.19656  1.0000
  C   C79       1.0  0.18162  0.56467  0.19850  1.0000
  C   C80       1.0  0.18783  0.54945  0.23380  1.0000
  H   H123      1.0  0.16898  0.61742  0.29133  1.0000
  H   H124      1.0  0.15652  0.64371  0.22894  1.0000
  H   H125      1.0  0.18568  0.55002  0.17258  1.0000
  H   H126      1.0  0.19668  0.52324  0.23501  1.0000
  H   H127      1.0  0.01810  0.40771  0.10430  1.0000
  C   C81       1.0  0.03925  0.39043  0.09502  1.0000
  H   H128      1.0  0.11130  0.56450  0.28194  1.0000
  H   H129      1.0  0.34556  0.36772  0.29911  1.0000
  C   C82       1.0  0.06140  0.61352  0.19908  1.0000
  H   H130      1.0  0.07436  0.41936  0.35389  1.0000
  H   H131      1.0  0.11061  0.40920  0.18926  1.0000
  H   H132      1.0  0.01262  0.45035  0.40219  1.0000
  C   C83       1.0  0.17935  0.47644  0.47324  1.0000
  C   C84       1.0  0.18218  0.50772  0.45434  1.0000
  H   H133      1.0  0.26988  0.64748  0.49793  1.0000
  H   H134      1.0  0.20632  0.67203  0.25777  1.0000
  H   H135      1.0  0.18381  0.50814  0.42363  1.0000
  N   N6        1.0  0.06158  0.57069  0.25584  1.0000
  C   C85       1.0  0.08829  0.54888  0.27482  1.0000
  C   C86       1.0  0.05659  0.60228  0.28033  1.0000
  C   C87       1.0  0.07525  0.58040  0.21696  1.0000
  C   C88       1.0  0.04154  0.59621  0.32046  1.0000
  H   H136      1.0  0.07134  0.63665  0.21398  1.0000
  H   H137      1.0  0.32752  0.65622  0.51636  1.0000
  C   C89       1.0  0.11626  0.36198  0.15495  1.0000
  H   H138      1.0  0.24533  0.62932  0.27766  1.0000
  H   H139      1.0  0.08139  0.61619  0.28356  1.0000
  H   H140      1.0  0.10348  0.58414  0.21776  1.0000
  H   H141      1.0  0.07111  0.55923  0.19605  1.0000
  C   C90       1.0  0.11717  0.38273  0.08801  1.0000
  H   H142      1.0  0.05870  0.58078  0.33838  1.0000
  H   H143      1.0  0.02491  0.50199  0.33907  1.0000
  C   C91       1.0  0.20774  0.34713  0.43677  1.0000
  H   H144      1.0  0.29015  0.63831  0.26740  1.0000
  H   H145      1.0  0.03046  0.38223  0.32720  1.0000
  H   H146      1.0  0.32089  0.39899  0.38684  1.0000
  C   C92       1.0  0.33024  0.59941  0.51731  1.0000
  H   H147      1.0  0.23187  0.62911  0.51576  1.0000
  C   C93       1.0  0.26584  0.62847  0.25556  1.0000
  H   H148      1.0  0.14103  0.41336  0.15081  1.0000
  H   H149      1.0  0.05080  0.40150  0.06897  1.0000
  H   H150      1.0  0.03883  0.41658  0.23163  1.0000
  H   H151      1.0  0.08063  0.49837  0.24681  1.0000
  C   C94       1.0  0.04823  0.39125  0.23809  1.0000
  H   H152      1.0  0.10408  0.38049  0.06011  1.0000
  H   H153      1.0  0.07865  0.53879  0.30237  1.0000
  H   H154      1.0  0.24667  0.40340  0.41809  1.0000
  H   H155      1.0  0.05600  0.41512  0.40156  1.0000
  C   C95       1.0  0.02970  0.36246  0.22603  1.0000
  C   C96       1.0  0.07844  0.38753  0.25874  1.0000
  H   H156      1.0  0.07090  0.61507  0.16924  1.0000
  H   H157      1.0  0.05104  0.37761  0.15280  1.0000
  C   C97       1.0  0.10122  0.51738  0.25193  1.0000
  C   C98       1.0  0.02925  0.54973  0.25248  1.0000
  H   H158      1.0  0.29126  0.54298  0.49580  1.0000
  H   H159      1.0  0.13742  0.34300  0.15192  1.0000
  S   S33       1.0  0.27840  0.39773  0.30014  1.0000
  H   H160      1.0  0.31669  0.59308  0.49067  1.0000
  C   C99       1.0  0.29232  0.35510  0.30837  1.0000
  H   H161      1.0  0.27577  0.64121  0.19742  1.0000
  H   H162      1.0  0.26981  0.60089  0.24860  1.0000
  H   H163      1.0  0.23198  0.63444  0.20841  1.0000
  H   H164      1.0  0.25504  0.38545  0.47948  1.0000
  C   C100      1.0  0.02369  0.39443  0.35501  1.0000
  H   H165      1.0  0.05017  0.47103  0.36410  1.0000
  C   C101      1.0  0.18275  0.53865  0.47515  1.0000
  H   H166      1.0  0.29189  0.43371  0.38488  1.0000
  C   C102      1.0  0.32757  0.34759  0.30627  1.0000
  H   H167      1.0  0.12114  0.50420  0.26874  1.0000
  H   H168      1.0  0.18484  0.56271  0.46023  1.0000
  H   H169      1.0  0.35175  0.58067  0.51822  1.0000
  N   N7        1.0  0.09628  0.36561  0.11883  1.0000
  H   H170      1.0  0.20699  0.35403  0.46740  1.0000
  H   H171      1.0  0.30796  0.42174  0.43001  1.0000
  H   H172      1.0  0.17020  0.37280  0.10657  1.0000
  H   H173      1.0  0.11937  0.41083  0.09314  1.0000
  H   H174      1.0  0.20037  0.36954  0.41966  1.0000
  C   C103      1.0  0.17736  0.47636  0.51315  1.0000
  C   C104      1.0  0.01285  0.44913  0.32156  1.0000
  C   C105      1.0  0.26798  0.38730  0.40654  1.0000
  H   H175      1.0  0.26009  0.38001  0.37728  1.0000
  H   H176      1.0  0.11366  0.52451  0.22463  1.0000
  H   H177      1.0  0.35680  0.63739  0.48258  1.0000
  H   H178      1.0  0.07291  0.41387  0.13542  1.0000
  C   C106      1.0  0.27608  0.36746  0.47123  1.0000
  H   H179      1.0  0.29950  0.38332  0.47499  1.0000
  H   H180      1.0  0.03940  0.62108  0.26699  1.0000
  C   C107      1.0  0.25554  0.64731  0.21897  1.0000
  H   H181      1.0  0.03349  0.52739  0.23316  1.0000
  H   H182      1.0  0.26134  0.60205  0.49139  1.0000
  H   H183      1.0  0.07310  0.37912  0.37658  1.0000
  H   H184      1.0  0.02733  0.36542  0.08822  1.0000
  C   C108      1.0  0.05845  0.40325  0.37297  1.0000
  C   C109      1.0  0.06519  0.38729  0.12748  1.0000
  H   H185      1.0  0.05909  0.48000  0.31587  1.0000
  H   H186      1.0  0.02194  0.53756  0.27991  1.0000
  H   H187      1.0  0.03848  0.62140  0.33511  1.0000
  C   C110      1.0  0.03788  0.47673  0.33682  1.0000
  H   H188      1.0  0.09977  0.35085  0.17774  1.0000
  H   H189      1.0  0.15241  0.38947  0.19098  1.0000
  C   C111      1.0  0.25964  0.62393  0.51143  1.0000
  C   C112      1.0  0.15367  0.36852  0.08154  1.0000
  H   H190      1.0  0.11382  0.35156  0.28260  1.0000
  C   C113      1.0  0.29926  0.41142  0.40234  1.0000
  H   H191      1.0  0.02588  0.43566  0.29752  1.0000
  H   H192      1.0  0.01164  0.37397  0.37261  1.0000
  C   C114      1.0  0.18047  0.53866  0.51499  1.0000
  H   H193      1.0  0.32874  0.35135  0.42893  1.0000
  H   H194      1.0  0.26010  0.66511  0.14298  1.0000
  C   C115      1.0  0.09046  0.35467  0.26674  1.0000
  H   H195      1.0  0.01565  0.58449  0.31943  1.0000
  C   C116      1.0  0.34633  0.63528  0.51196  1.0000
  C   C117      1.0  0.13054  0.39556  0.17226  1.0000
  H   H196      1.0  0.16587  0.38229  0.05739  1.0000
  Fe  Fe16      1.0  0.14109  0.66993  0.14630  1.0000
  Fe  Fe17      1.0  0.18982  0.53892  0.67594  1.0000
  S   S34       1.0  0.14472  0.54426  0.63787  1.0000
  S   S35       1.0  0.20423  0.48480  0.69151  1.0000
  Fe  Fe18      1.0  0.20590  0.61608  0.67370  1.0000
  S   S36       1.0  0.16072  0.62685  0.63622  1.0000
  H   H197      1.0  0.09250  0.36362  0.66384  1.0000
  Fe  Fe19      1.0  0.13151  0.59025  0.67385  1.0000
  S   S37       1.0  0.07609  0.58879  0.69420  1.0000
  Fe  Fe20      1.0  0.17782  0.57949  0.60400  1.0000
  S   S38       1.0  0.18170  0.57825  0.53985  1.0000
  S   S39       1.0  0.17505  0.58289  0.71420  1.0000
  S   S40       1.0  0.22450  0.57091  0.63912  1.0000
  S   S41       1.0  0.13796  0.41740  0.83841  1.0000
  C   C118      1.0  0.15739  0.43607  0.79813  1.0000
  C   C119      1.0  0.17786  0.41675  0.77312  1.0000
  C   C120      1.0  0.19257  0.43216  0.74087  1.0000
  C   C121      1.0  0.18679  0.46691  0.73330  1.0000
  C   C122      1.0  0.16644  0.48630  0.75839  1.0000
  C   C123      1.0  0.15182  0.47090  0.79075  1.0000
  H   H198      1.0  0.18267  0.39003  0.77882  1.0000
  H   H199      1.0  0.20848  0.41710  0.72169  1.0000
  H   H200      1.0  0.16194  0.51310  0.75285  1.0000
  H   H201      1.0  0.13616  0.48600  0.81012  1.0000
  C   C124      1.0  0.05639  0.62582  0.71318  1.0000
  C   C125      1.0  0.02322  0.62300  0.72848  1.0000
  H   H202      1.0  0.08156  0.39277  0.60173  1.0000
  H   H203      1.0  0.08617  0.60243  0.84499  1.0000
  H   H204      1.0  0.03424  0.58364  0.87459  1.0000
  H   H205      1.0  0.11816  0.43880  0.59506  1.0000
  H   H206      1.0  0.28072  0.55492  0.58178  1.0000
  C   C126      1.0  0.06614  0.62242  0.84753  1.0000
  C   C127      1.0  0.04188  0.61067  0.87983  1.0000
  C   C128      1.0  0.32853  0.60557  0.58610  1.0000
  C   C129      1.0  0.12782  0.63638  0.80352  1.0000
  H   H207      1.0  0.28565  0.61038  0.62727  1.0000
  H   H208      1.0  0.01077  0.54829  0.56349  1.0000
  H   H209      1.0  0.14986  0.42692  0.67362  1.0000
  H   H210      1.0  0.07271  0.34838  0.95325  1.0000
  H   H211      1.0  0.02945  0.40337  0.76675  1.0000
  H   H212      1.0  0.13654  0.39596  0.64025  1.0000
  H   H213      1.0  0.11522  0.43620  0.72773  1.0000
  H   H214      1.0  0.25560  0.60854  0.57029  1.0000
  C   C130      1.0  0.31176  0.59956  0.62538  1.0000
  H   H215      1.0  0.31112  0.57196  0.63273  1.0000
  H   H216      1.0  0.35347  0.59164  0.58581  1.0000
  H   H217      1.0  0.01859  0.36880  0.98359  1.0000
  C   C131      1.0  0.09733  0.48072  0.70045  1.0000
  H   H218      1.0  0.02631  0.54173  0.74196  1.0000
  H   H219      1.0  0.32060  0.54245  0.56093  1.0000
  H   H220      1.0  0.07745  0.49063  0.68125  1.0000
  H   H221      1.0  0.17655  0.50708  0.56471  1.0000
  H   H222      1.0  0.15281  0.64598  0.88645  1.0000
  C   C132      1.0  0.09007  0.38237  0.68775  1.0000
  H   H223      1.0  0.28257  0.64435  0.56119  1.0000
  H   H224      1.0  0.12270  0.61072  0.88944  1.0000
  H   H225      1.0  0.05178  0.62060  0.82033  1.0000
  C   C133      1.0  0.06469  0.42688  0.64907  1.0000
  H   H226      1.0  0.04067  0.42841  0.66657  1.0000
  H   H227      1.0  0.06987  0.43808  0.72492  1.0000
  C   C134      1.0  0.11548  0.37030  0.71810  1.0000
  H   H228      1.0  0.13048  0.63577  0.93010  1.0000
  H   H229      1.0  0.15953  0.44988  0.61236  1.0000
  Fe  Fe21      1.0  0.14044  0.35986  0.84499  1.0000
  H   H230      1.0  0.32717  0.61271  0.64757  1.0000
  C   C135      1.0  0.07278  0.65770  0.71327  1.0000
  H   H231      1.0  0.05430  0.61154  0.90801  1.0000
  H   H232      1.0  0.03745  0.51087  0.82088  1.0000
  H   H233      1.0  0.04421  0.37800  0.62771  1.0000
  H   H234      1.0  0.03492  0.49761  0.74943  1.0000
  C   C136      1.0  0.12795  0.63730  0.89871  1.0000
  C   C137      1.0  0.03626  0.66588  0.99192  1.0000
  C   C138      1.0  0.09394  0.44209  0.70816  1.0000
  S   S42       1.0  0.24151  0.65745  0.69795  1.0000
  H   H235      1.0  0.06728  0.53364  0.79202  1.0000
  C   C139      1.0  0.12900  0.42103  0.65321  1.0000
  H   H236      1.0  0.01055  0.63117  0.63541  1.0000
  H   H237      1.0  0.12318  0.47312  0.62901  1.0000
  C   C140      1.0  0.29741  0.55847  0.55628  1.0000
  N   N8        1.0  0.09482  0.41860  0.67385  1.0000
  C   C141      1.0  0.02116  0.52022  0.76166  1.0000
  H   H238      1.0  0.01792  0.62576  0.88089  1.0000
  C   C142      1.0  0.10512  0.66578  0.81912  1.0000
  H   H239      1.0  0.09826  0.66019  0.70114  1.0000
  C   C143      1.0  0.09910  0.66271  0.88951  1.0000
  H   H240      1.0  0.01008  0.59875  0.72725  1.0000
  H   H241      1.0  0.14248  0.37567  0.70998  1.0000
  H   H242      1.0  0.33522  0.63333  0.58558  1.0000
  H   H243      1.0  0.02669  0.64127  0.00125  1.0000
  C   C144      1.0  0.02165  0.37737  0.76037  1.0000
  H   H244      1.0  0.01409  0.58589  0.63546  1.0000
  H   H245      1.0  0.11230  0.61714  0.78777  1.0000
  C   C145      1.0  0.05774  0.40099  0.61663  1.0000
  C   C146      1.0  0.13209  0.44730  0.62075  1.0000
  H   H246      1.0  0.12333  0.48702  0.68970  1.0000
  H   H247      1.0  0.03041  0.55582  0.80908  1.0000
  H   H248      1.0  0.06730  0.45252  0.63600  1.0000
  H   H249      1.0  0.06375  0.37865  0.69947  1.0000
  C   C147      1.0  0.17798  0.50737  0.53400  1.0000
  C   C148      1.0  0.03949  0.53056  0.79849  1.0000
  N   N9        1.0  0.30740  0.59562  0.55192  1.0000
  H   H250      1.0  0.09456  0.49495  0.72778  1.0000
  C   C149      1.0  0.27602  0.61825  0.55074  1.0000
  H   H251      1.0  0.08064  0.66324  0.91390  1.0000
  H   H252      1.0  0.04060  0.41286  0.59547  1.0000
  C   C150      1.0  0.27743  0.54192  0.52341  1.0000
  H   H253      1.0  0.10966  0.38194  0.74636  1.0000
  N   N10       1.0  0.08121  0.65786  0.85207  1.0000
  H   H254      1.0  0.00990  0.60873  0.56929  1.0000
  H   H255      1.0  0.06239  0.35519  0.79270  1.0000
  H   H256      1.0  0.17530  0.45228  0.52797  1.0000
  H   H257      1.0  0.02656  0.34988  0.90475  1.0000
  H   H258      1.0  0.14650  0.64697  0.78259  1.0000
  H   H259      1.0  0.36812  0.63934  0.53154  1.0000
  C   C151      1.0  0.04039  0.35003  0.77517  1.0000
  C   C152      1.0  0.02962  0.34467  0.99213  1.0000
  H   H260      1.0  0.14274  0.62358  0.82578  1.0000
  H   H261      1.0  0.26794  0.34987  0.52907  1.0000
  H   H262      1.0  0.11280  0.34214  0.72156  1.0000
  H   H263      1.0  0.27326  0.51437  0.52974  1.0000
  H   H264      1.0  0.25627  0.66952  0.61759  1.0000
  H   H265      1.0  0.25155  0.55321  0.52118  1.0000
  Fe  Fe22      1.0  0.14704  0.74634  0.16028  1.0000
  C   C153      1.0  0.49464  0.85010  0.22028  1.0000
  S   S43       1.0  0.17766  0.78869  0.18955  1.0000
  H   H266      1.0  0.23135  0.88707  0.07853  1.0000
  C   C154      1.0  0.33019  0.86841  0.05199  1.0000
  H   H267      1.0  0.45009  0.80761  0.39739  1.0000
  S   S44       1.0  0.11027  0.73297  0.02366  1.0000
  H   H268      1.0  0.44737  0.83730  0.45948  1.0000
  S   S45       1.0  0.09759  0.75730  0.13026  1.0000
  Fe  Fe23      1.0  0.35797  0.89057  0.15890  1.0000
  S   S46       1.0  0.41215  0.88763  0.13570  1.0000
  S   S47       1.0  0.32829  0.84099  0.14663  1.0000
  Fe  Fe24      1.0  0.36729  0.96645  0.18001  1.0000
  S   S48       1.0  0.42089  0.96852  0.15695  1.0000
  Fe  Fe25      1.0  0.40093  0.93797  0.10788  1.0000
  S   S49       1.0  0.41310  0.94307  0.04486  1.0000
  Fe  Fe26      1.0  0.42719  0.91838  0.18710  1.0000
  S   S50       1.0  0.47422  0.91831  0.22445  1.0000
  S   S51       1.0  0.34635  0.93956  0.12836  1.0000
  S   S52       1.0  0.37411  0.91776  0.21296  1.0000
  C   C155      1.0  0.28577  0.82808  0.15813  1.0000
  C   C156      1.0  0.27146  0.80016  0.13823  1.0000
  C   C157      1.0  0.23799  0.78856  0.14657  1.0000
  C   C158      1.0  0.21880  0.80413  0.17575  1.0000
  C   C159      1.0  0.23309  0.83206  0.19561  1.0000
  C   C160      1.0  0.26625  0.84425  0.18661  1.0000
  H   H269      1.0  0.28630  0.78754  0.11606  1.0000
  H   H270      1.0  0.22722  0.76734  0.13075  1.0000
  H   H271      1.0  0.21843  0.84435  0.21817  1.0000
  H   H272      1.0  0.27690  0.86572  0.20217  1.0000
  H   H273      1.0  0.01605  0.67954  0.07271  1.0000
  S   S53       1.0  0.02002  0.70604  0.17614  1.0000
  N   N11       1.0  0.47200  0.84867  0.36366  1.0000
  C   C161      1.0  0.23359  0.69713  0.18637  1.0000
  H   H274      1.0  0.41967  0.85602  0.42578  1.0000
  H   H275      1.0  0.22609  0.72447  0.18750  1.0000
  H   H276      1.0  0.33727  0.88193  0.07872  1.0000
  C   C162      1.0  0.28641  0.74155  0.22841  1.0000
  C   C163      1.0  0.44706  0.85211  0.43266  1.0000
  C   C164      1.0  0.27896  0.90369  0.05129  1.0000
  H   H277      1.0  0.44427  0.86934  0.28941  1.0000
  H   H278      1.0  0.50123  0.77993  0.36825  1.0000
  H   H279      1.0  0.47330  0.84560  0.20150  1.0000
  C   C165      1.0  0.02603  0.69670  0.25345  1.0000
  H   H280      1.0  0.04568  0.75156  0.06195  1.0000
  H   H281      1.0  0.38357  0.87469  0.03151  1.0000
  H   H282      1.0  0.46563  0.90493  0.31289  1.0000
  H   H283      1.0  0.31540  0.84540  0.06099  1.0000
  H   H284      1.0  0.18632  0.72655  0.23584  1.0000
  H   H285      1.0  0.28243  0.75239  0.25742  1.0000
  C   C166      1.0  0.46579  0.83126  0.40135  1.0000
  H   H286      1.0  0.45942  0.87700  0.43875  1.0000
  C   C167      1.0  0.47787  0.82104  0.33390  1.0000
  H   H287      1.0  0.39797  0.99509  0.25240  1.0000
  H   H288      1.0  0.01830  0.77638  0.09101  1.0000
  C   C168      1.0  0.44332  0.88733  0.31399  1.0000
  H   H289      1.0  0.22326  0.74912  0.25362  1.0000
  H   H290      1.0  0.26822  0.75359  0.20887  1.0000
  C   C169      1.0  0.25556  0.87541  0.06771  1.0000
  H   H291      1.0  0.43277  0.88773  0.37365  1.0000
  S   S54       1.0  0.12371  0.70337  0.19494  1.0000
  C   C170      1.0  0.20679  0.72636  0.25742  1.0000
  H   H292      1.0  0.02740  0.69239  0.31453  1.0000
  H   H293      1.0  0.26221  0.92146  0.03580  1.0000
  H   H294      1.0  0.41807  0.85068  0.35034  1.0000
  C   C171      1.0  0.44053  0.86829  0.35213  1.0000
  H   H295      1.0  0.49041  0.82250  0.41373  1.0000
  N   N12       1.0  0.30883  0.89133  0.02724  1.0000
  C   C172      1.0  0.01336  0.68609  0.28905  1.0000
  C   C173      1.0  0.50031  0.88294  0.23523  1.0000
  H   H296      1.0  0.37455  0.83501  0.05364  1.0000
  H   H297      1.0  0.45394  0.80603  0.32909  1.0000
  C   C174      1.0  0.28468  0.70204  0.22879  1.0000
  C   C175      1.0  0.36376  0.85444  0.03420  1.0000
  S   S55       1.0  0.16741  0.71207  0.11376  1.0000
  H   H298      1.0  0.34013  0.93498  0.04246  1.0000
  Fe  Fe27      1.0  0.11637  0.71976  0.08597  1.0000
  H   H299      1.0  0.19373  0.72921  0.28549  1.0000
  H   H300      1.0  0.42007  0.90328  0.31020  1.0000
  C   C176      1.0  0.22652  0.69215  0.25625  1.0000
  H   H301      1.0  0.26768  0.86308  0.09240  1.0000
  Fe  Fe28      1.0  0.07630  0.71124  0.16044  1.0000
  H   H302      1.0  0.48469  0.83240  0.30592  1.0000
  H   H303      1.0  0.04957  0.71132  0.25158  1.0000
  C   C177      1.0  0.50195  0.90451  0.38807  1.0000
  H   H304      1.0  0.31204  0.74978  0.21780  1.0000
  H   H305      1.0  0.28830  0.91915  0.07590  1.0000
  H   H306      1.0  0.28009  0.70669  0.15146  1.0000
  H   H307      1.0  0.24880  0.85554  0.04641  1.0000
  H   H308      1.0  0.47657  0.91689  0.38866  1.0000
  H   H309      1.0  0.29513  0.69438  0.25672  1.0000
  C   C178      1.0  0.02043  0.75099  0.07671  1.0000
  H   H310      1.0  0.02206  0.73062  0.09809  1.0000
  H   H311      1.0  0.24078  0.69038  0.28340  1.0000
  C   C179      1.0  0.50375  0.87072  0.36502  1.0000
  H   H312      1.0  0.24145  0.70323  0.12548  1.0000
  H   H313      1.0  0.20895  0.68315  0.18207  1.0000
  H   H314      1.0  0.30421  0.69218  0.20812  1.0000
  N   N13       1.0  0.25015  0.68559  0.22262  1.0000
  C   C180      1.0  0.25550  0.69251  0.14989  1.0000
  C   C181      1.0  0.50648  0.79497  0.34224  1.0000
  S   S56       1.0  0.09208  0.67451  0.11415  1.0000
  C   C182      1.0  0.41171  0.98263  0.02080  1.0000
  Fe  Fe29      1.0  0.45035  0.82654  0.59198  1.0000
  Fe  Fe30      1.0  0.40079  0.84936  0.65579  1.0000
  S   S57       1.0  0.40604  0.80019  0.68807  1.0000
  S   S58       1.0  0.36524  0.89304  0.67089  1.0000
  Fe  Fe31      1.0  0.40170  0.77438  0.63074  1.0000
  S   S59       1.0  0.36646  0.73050  0.61179  1.0000
  H   H315      1.0  0.29665  0.82815  0.60972  1.0000
  S   S60       1.0  0.39322  0.82357  0.59935  1.0000
  H   H316      1.0  0.24751  0.78944  0.63636  1.0000
  H   H317      1.0  0.26929  0.87926  0.94071  1.0000
  H   H318      1.0  0.29467  0.87003  0.65847  1.0000
  H   H319      1.0  0.22183  0.74770  0.73220  1.0000
  S   S61       1.0  0.38721  0.97046  0.82781  1.0000
  H   H320      1.0  0.25321  0.84685  0.71713  1.0000
  N   N14       1.0  0.49995  0.95820  0.88600  1.0000
  C   C183      1.0  0.40648  0.98247  0.98138  1.0000
  H   H321      1.0  0.27972  0.75991  0.64914  1.0000
  H   H322      1.0  0.22923  0.74692  0.68236  1.0000
  C   C184      1.0  0.05178  0.68293  0.85100  1.0000
  H   H323      1.0  0.07521  0.72972  0.87584  1.0000
  H   H324      1.0  0.45400  0.97734  0.85939  1.0000
  H   H325      1.0  0.29079  0.78724  0.58759  1.0000
  C   C185      1.0  0.03290  0.71446  0.94993  1.0000
  H   H326      1.0  0.30551  0.69824  0.58497  1.0000
  H   H327      1.0  0.45926  0.97097  0.92569  1.0000
  H   H328      1.0  0.31312  0.81556  0.75695  1.0000
  C   C186      1.0  0.25578  0.83705  0.68740  1.0000
  C   C187      1.0  0.37334  0.91533  0.71361  1.0000
  C   C188      1.0  0.35795  0.94735  0.72016  1.0000
  C   C189      1.0  0.36299  0.96507  0.75463  1.0000
  C   C190      1.0  0.38273  0.95039  0.78308  1.0000
  C   C191      1.0  0.39816  0.91836  0.77650  1.0000
  C   C192      1.0  0.39386  0.90107  0.74166  1.0000
  H   H329      1.0  0.34205  0.95847  0.69854  1.0000
  H   H330      1.0  0.48993  0.86935  0.71858  1.0000
  H   H331      1.0  0.41337  0.90681  0.79842  1.0000
  H   H332      1.0  0.40583  0.87640  0.73684  1.0000
  C   C193      1.0  0.29806  0.87118  0.99253  1.0000
  H   H333      1.0  0.25472  0.86526  0.63358  1.0000
  Fe  Fe32      1.0  0.46232  0.80596  0.67368  1.0000
  S   S62       1.0  0.45691  0.85700  0.64584  1.0000
  H   H334      1.0  0.49712  0.95947  0.94807  1.0000
  H   H335      1.0  0.49026  0.00347  0.85280  1.0000
  H   H336      1.0  0.35085  0.98963  0.75958  1.0000
  H   H337      1.0  0.09032  0.67451  0.79416  1.0000
  H   H338      1.0  0.44108  0.91828  0.91447  1.0000
  S   S63       1.0  0.50697  0.79678  0.71306  1.0000
  S   S64       1.0  0.45885  0.77548  0.61898  1.0000
  C   C194      1.0  0.33138  0.71179  0.63666  1.0000
  H   H339      1.0  0.35018  0.72172  0.69294  1.0000
  H   H340      1.0  0.31944  0.87014  0.97126  1.0000
  C   C195      1.0  0.32975  0.71054  0.67637  1.0000
  C   C196      1.0  0.45348  0.91073  0.88715  1.0000
  C   C197      1.0  0.26564  0.88358  0.97176  1.0000
  C   C198      1.0  0.48752  0.97367  0.92303  1.0000
  H   H341      1.0  0.32727  0.82791  0.67187  1.0000
  C   C199      1.0  0.29808  0.80027  0.61452  1.0000
  C   C200      1.0  0.31430  0.94908  0.99139  1.0000
  H   H342      1.0  0.50363  0.90775  0.91079  1.0000
  H   H343      1.0  0.34937  0.83499  0.73488  1.0000
  H   H344      1.0  0.40219  0.95843  0.96662  1.0000
  H   H345      1.0  0.47737  0.93465  0.81120  1.0000
  C   C201      1.0  0.48813  0.96085  0.81402  1.0000
  H   H346      1.0  0.07678  0.72789  0.82416  1.0000
  H   H347      1.0  0.07090  0.75396  0.95916  1.0000
  C   C202      1.0  0.07653  0.71285  0.99911  1.0000
  C   C203      1.0  0.26668  0.86726  0.66200  1.0000
  H   H348      1.0  0.03774  0.73671  0.84863  1.0000
  H   H349      1.0  0.50355  0.90731  0.86062  1.0000
  C   C204      1.0  0.30217  0.69369  0.69468  1.0000
  C   C205      1.0  0.27427  0.78777  0.64684  1.0000
  H   H350      1.0  0.45106  0.88243  0.88470  1.0000
  C   C206      1.0  0.22884  0.76414  0.70766  1.0000
  C   C207      1.0  0.06159  0.72130  0.84991  1.0000
  H   H351      1.0  0.22892  0.83113  0.67946  1.0000
  H   H352      1.0  0.47459  0.97691  0.79304  1.0000
  H   H353      1.0  0.32502  0.79292  0.61980  1.0000
  H   H354      1.0  0.32934  0.78778  0.69380  1.0000
  H   H355      1.0  0.30148  0.69227  0.72538  1.0000
  H   H356      1.0  0.35972  0.84164  0.00638  1.0000
  C   C208      1.0  0.31456  0.81221  0.69400  1.0000
  S   S65       1.0  0.47468  0.84771  0.53795  1.0000
  H   H357      1.0  0.30942  0.93909  0.96234  1.0000
  H   H358      1.0  0.06855  0.71127  0.72872  1.0000
  H   H359      1.0  0.26216  0.79341  0.74340  1.0000
  C   C209      1.0  0.32135  0.83082  0.73207  1.0000
  C   C210      1.0  0.06134  0.72924  0.96817  1.0000
  H   H360      1.0  0.25843  0.89170  0.67571  1.0000
  H   H361      1.0  0.30945  0.85662  0.73308  1.0000
  C   C211      1.0  0.26424  0.78059  0.71510  1.0000
  H   H362      1.0  0.28254  0.75904  0.71886  1.0000
  C   C212      1.0  0.30474  0.69679  0.61564  1.0000
  C   C213      1.0  0.48213  0.97617  0.85410  1.0000
  N   N15       1.0  0.27744  0.80512  0.68525  1.0000
  H   H363      1.0  0.20830  0.78347  0.70489  1.0000
  C   C214      1.0  0.02312  0.68340  0.74525  1.0000
  H   H364      1.0  0.24306  0.86776  0.97987  1.0000
  C   C215      1.0  0.49188  0.92037  0.88592  1.0000
  C   C216      1.0  0.27695  0.68039  0.63398  1.0000
  H   H365      1.0  0.43901  0.92163  0.86323  1.0000
  C   C217      1.0  0.05592  0.68657  0.72882  1.0000
  H   H366      1.0  0.02046  0.72785  0.92714  1.0000
  H   H367      1.0  0.29277  0.84405  0.00043  1.0000
  H   H368      1.0  0.35407  0.91335  0.00036  1.0000
  H   H369      1.0  0.25939  0.91098  0.97550  1.0000
  C   C218      1.0  0.27584  0.67815  0.67361  1.0000
  H   H370      1.0  0.11120  0.68850  0.89110  1.0000
  C   C219      1.0  0.33080  0.92165  0.01642  1.0000
  C   C220      1.0  0.02015  0.68283  0.96211  1.0000
  H   H371      1.0  0.12247  0.68751  0.82640  1.0000
  H   H372      1.0  0.29083  0.96031  0.00428  1.0000
  H   H373      1.0  0.33273  0.97062  0.98801  1.0000
  H   H374      1.0  0.03560  0.67786  0.82572  1.0000
  H   H375      1.0  0.03449  0.67990  0.87608  1.0000
  C   C221      1.0  0.06416  0.68092  0.01054  1.0000
  H   H376      1.0  0.61549  0.17186  0.40595  1.0000
  N   N16       1.0  0.58903  0.21964  0.35136  1.0000
  C   C222      1.0  0.53535  0.25719  0.36318  1.0000
  H   H377      1.0  0.64063  0.19948  0.34569  1.0000
  H   H378      1.0  0.71449  0.27770  0.16805  1.0000
  S   S66       1.0  0.64834  0.04667  0.14178  1.0000
  Fe  Fe33      1.0  0.71138  0.11858  0.17304  1.0000
  S   S67       1.0  0.66392  0.12960  0.13916  1.0000
  S   S68       1.0  0.74683  0.15805  0.20041  1.0000
  Fe  Fe34      1.0  0.63712  0.09280  0.17857  1.0000
  S   S69       1.0  0.58480  0.09213  0.20729  1.0000
  Fe  Fe35      1.0  0.67896  0.08222  0.10527  1.0000
  H   H379      1.0  0.79854  0.10670  0.24102  1.0000
  S   S70       1.0  0.68314  0.08517  0.21498  1.0000
  S   S71       1.0  0.72828  0.07408  0.13638  1.0000
  C   C223      1.0  0.56971  0.18614  0.34926  1.0000
  H   H380      1.0  0.73920  0.04306  0.24183  1.0000
  S   S72       1.0  0.91931  0.29353  0.19644  1.0000
  Fe  Fe36      1.0  0.91220  0.26743  0.13973  1.0000
  S   S73       1.0  0.88084  0.22055  0.12205  1.0000
  C   C224      1.0  0.85754  0.05316  0.26801  1.0000
  H   H381      1.0  0.56638  0.23597  0.29826  1.0000
  C   C225      1.0  0.84405  0.20312  0.14476  1.0000
  C   C226      1.0  0.82151  0.18277  0.12328  1.0000
  C   C227      1.0  0.79170  0.16870  0.13991  1.0000
  C   C228      1.0  0.78426  0.17470  0.17836  1.0000
  C   C229      1.0  0.80702  0.19466  0.20002  1.0000
  C   C230      1.0  0.83685  0.20874  0.18335  1.0000
  H   H382      1.0  0.82704  0.17804  0.09348  1.0000
  H   H383      1.0  0.77444  0.15333  0.12295  1.0000
  H   H384      1.0  0.80157  0.19926  0.22985  1.0000
  H   H385      1.0  0.85434  0.22377  0.20038  1.0000
  C   C231      1.0  0.52594  0.18578  0.25283  1.0000
  C   C232      1.0  0.55448  0.19043  0.22869  1.0000
  C   C233      1.0  0.57357  0.16206  0.21530  1.0000
  C   C234      1.0  0.56403  0.12888  0.22589  1.0000
  C   C235      1.0  0.53590  0.12436  0.25051  1.0000
  H   H386      1.0  0.74421  0.10341  0.26953  1.0000
  H   H387      1.0  0.56156  0.21600  0.21989  1.0000
  H   H388      1.0  0.59507  0.16577  0.19607  1.0000
  H   H389      1.0  0.52838  0.09877  0.25885  1.0000
  H   H390      1.0  0.74886  0.31527  0.49831  1.0000
  H   H391      1.0  0.74697  0.29591  0.19800  1.0000
  H   H392      1.0  0.84474  0.28270  0.17249  1.0000
  H   H393      1.0  0.60627  0.28608  0.33346  1.0000
  H   H394      1.0  0.53904  0.27463  0.33874  1.0000
  C   C236      1.0  0.81914  0.05371  0.27875  1.0000
  H   H395      1.0  0.51082  0.11356  0.17296  1.0000
  H   H396      1.0  0.71893  0.07474  0.29725  1.0000
  H   H397      1.0  0.51758  0.23628  0.35515  1.0000
  H   H398      1.0  0.81538  0.07800  0.29504  1.0000
  H   H399      1.0  0.51360  0.18803  0.42499  1.0000
  H   H400      1.0  0.59402  0.16204  0.29842  1.0000
  H   H401      1.0  0.51670  0.07708  0.14154  1.0000
  H   H402      1.0  0.61179  0.14826  0.34312  1.0000
  H   H403      1.0  0.78564  0.24900  0.15441  1.0000
  C   C237      1.0  0.80300  0.31947  0.16254  1.0000
  Fe  Fe37      1.0  0.95538  0.32092  0.09720  1.0000
  C   C238      1.0  0.56971  0.24346  0.37796  1.0000
  H   H404      1.0  0.63792  0.26571  0.30327  1.0000
  H   H405      1.0  0.58559  0.26584  0.38656  1.0000
  H   H406      1.0  0.82237  0.11133  0.17888  1.0000
  H   H407      1.0  0.82072  0.33892  0.15016  1.0000
  H   H408      1.0  0.61528  0.21396  0.42823  1.0000
  N   N17       1.0  0.78416  0.30050  0.13152  1.0000
  H   H409      1.0  0.56960  0.17431  0.45400  1.0000
  H   H410      1.0  0.76975  0.08720  0.20868  1.0000
  H   H411      1.0  0.81470  0.06767  0.16664  1.0000
  H   H412      1.0  0.78527  0.33471  0.18098  1.0000
  C   C239      1.0  0.51860  0.19541  0.45405  1.0000
  Fe  Fe38      1.0  0.97416  0.30158  0.17777  1.0000
  C   C240      1.0  0.76675  0.26871  0.14620  1.0000
  H   H413      1.0  0.74082  0.25098  0.19760  1.0000
  C   C241      1.0  0.55728  0.19742  0.50817  1.0000
  C   C242      1.0  0.82501  0.29720  0.18872  1.0000
  C   C243      1.0  0.62707  0.19779  0.40551  1.0000
  Fe  Fe39      1.0  0.69612  0.04176  0.17555  1.0000
  H   H414      1.0  0.73959  0.33282  0.13886  1.0000
  H   H415      1.0  0.60617  0.21647  0.29267  1.0000
  H   H416      1.0  0.82916  0.27230  0.11322  1.0000
  H   H417      1.0  0.75211  0.25574  0.12325  1.0000
  C   C244      1.0  0.81000  0.29015  0.10138  1.0000
  H   H418      1.0  0.59897  0.28340  0.28414  1.0000
  S   S74       1.0  0.96834  0.27069  0.12373  1.0000
  C   C245      1.0  0.74075  0.27400  0.17917  1.0000
  H   H419      1.0  0.78500  0.24646  0.07247  1.0000
  H   H420      1.0  0.52243  0.27222  0.38618  1.0000
  H   H421      1.0  0.63817  0.23979  0.36870  1.0000
  H   H422      1.0  0.74028  0.30961  0.09561  1.0000
  H   H423      1.0  0.65448  0.19473  0.41293  1.0000
  H   H424      1.0  0.76104  0.08499  0.31269  1.0000
  C   C246      1.0  0.75715  0.32372  0.11572  1.0000
  C   C247      1.0  0.59177  0.23417  0.31192  1.0000
  H   H425      1.0  0.77985  0.01937  0.19902  1.0000
  H   H426      1.0  0.77638  0.28779  0.05102  1.0000
  C   C248      1.0  0.60999  0.26920  0.30837  1.0000
  C   C249      1.0  0.82178  0.08498  0.19052  1.0000
  C   C250      1.0  0.55033  0.18782  0.47046  1.0000
  H   H427      1.0  0.56247  0.17700  0.37813  1.0000
  S   S75       1.0  0.89904  0.31615  0.10970  1.0000
  H   H428      1.0  0.86699  0.07941  0.26169  1.0000
  C   C251      1.0  0.79566  0.27211  0.06576  1.0000
  H   H429      1.0  0.57079  0.13362  0.32830  1.0000
  H   H430      1.0  0.83877  0.31415  0.20901  1.0000
  H   H431      1.0  0.81714  0.26766  0.04529  1.0000
  C   C252      1.0  0.79482  0.08343  0.22291  1.0000
  C   C253      1.0  0.58814  0.15624  0.32855  1.0000
  H   H432      1.0  0.76014  0.04805  0.04504  1.0000
  H   H433      1.0  0.75667  0.02646  0.28408  1.0000
  H   H434      1.0  0.82522  0.31260  0.09164  1.0000
  C   C254      1.0  0.74548  0.07997  0.28709  1.0000
  C   C255      1.0  0.62473  0.21470  0.36616  1.0000
  H   H435      1.0  0.84801  0.07918  0.19986  1.0000
  H   H436      1.0  0.80925  0.27938  0.20599  1.0000
  C   C256      1.0  0.75841  0.04845  0.26423  1.0000
  H   H437      1.0  0.54497  0.18961  0.33441  1.0000
  S   S76       1.0  0.67704  0.07939  0.04087  1.0000
  H   H438      1.0  0.56370  0.23052  0.40524  1.0000
  C   C257      1.0  0.51692  0.15263  0.26392  1.0000
  N   N18       1.0  0.79385  0.05139  0.24677  1.0000
  H   H439      1.0  0.57132  0.02127  0.23843  1.0000
  H   H440      1.0  0.87224  0.04306  0.29234  1.0000
  H   H441      1.0  0.51618  0.12044  0.12421  1.0000
  H   H442      1.0  0.82053  0.32931  0.50650  1.0000
  H   H443      1.0  0.82412  0.02093  0.20631  1.0000
  C   C258      1.0  0.79935  0.02013  0.22189  1.0000
  H   H444      1.0  0.51541  0.11247  0.42625  1.0000
  H   H445      1.0  0.67304  0.01740  0.25470  1.0000
  H   H446      1.0  0.81436  0.03360  0.30046  1.0000
  H   H447      1.0  0.86400  0.03576  0.24409  1.0000
  H   H448      1.0  0.67343  0.00896  0.06806  1.0000
  C   C259      1.0  0.67140  0.00859  0.03744  1.0000
  S   S77       1.0  0.97396  0.33983  0.03972  1.0000
  Fe  Fe40      1.0  0.67093  0.21445  0.64196  1.0000
  S   S78       1.0  0.66389  0.17053  0.60080  1.0000
  S   S79       1.0  0.72616  0.23525  0.63892  1.0000
  Fe  Fe41      1.0  0.59791  0.20365  0.67338  1.0000
  S   S80       1.0  0.58639  0.15979  0.63385  1.0000
  C   C260      1.0  0.54678  0.04890  0.79361  1.0000
  Fe  Fe42      1.0  0.63903  0.14205  0.64867  1.0000
  S   S81       1.0  0.64700  0.08514  0.65648  1.0000
  Fe  Fe43      1.0  0.61181  0.19201  0.58908  1.0000
  C   C261      1.0  0.58816  0.08599  0.75854  1.0000
  S   S82       1.0  0.64953  0.18380  0.69100  1.0000
  S   S83       1.0  0.61993  0.23805  0.62737  1.0000
  H   H449      1.0  0.62706  0.02850  0.78066  1.0000
  C   C262      1.0  0.68897  0.02073  0.73224  1.0000
  S   S84       1.0  0.56070  0.21796  0.72113  1.0000
  H   H450      1.0  0.56479  0.05406  0.67279  1.0000
  H   H451      1.0  0.84655  0.33547  0.58909  1.0000
  C   C263      1.0  0.57373  0.12161  0.76850  1.0000
  C   C264      1.0  0.66633  0.06931  0.69766  1.0000
  C   C265      1.0  0.67320  0.09062  0.72881  1.0000
  H   H452      1.0  0.79402  0.05733  0.01177  1.0000
  H   H453      1.0  0.93859  0.24391  0.81983  1.0000
  H   H454      1.0  0.52634  0.07818  0.66789  1.0000
  C   C266      1.0  0.67413  0.03435  0.69953  1.0000
  H   H455      1.0  0.66601  0.11731  0.72809  1.0000
  C   C267      1.0  0.97201  0.28473  0.92384  1.0000
  H   H456      1.0  0.60754  0.08070  0.78060  1.0000
  C   C268      1.0  0.66916  0.03851  0.97764  1.0000
  H   H457      1.0  0.69331  0.09355  0.78566  1.0000
  H   H458      1.0  0.76934  0.06119  0.94177  1.0000
  H   H459      1.0  0.53693  0.22142  0.55886  1.0000
  H   H460      1.0  0.82258  0.03655  0.95573  1.0000
  C   C269      1.0  0.77598  0.33824  0.67383  1.0000
  C   C270      1.0  0.53561  0.06363  0.72637  1.0000
  S   S85       1.0  0.71501  0.02547  0.80433  1.0000
  H   H461      1.0  0.66911  0.06226  0.96201  1.0000
  C   C271      1.0  0.74073  0.33273  0.68018  1.0000
  C   C272      1.0  0.72492  0.30157  0.66949  1.0000
  C   C273      1.0  0.74429  0.27542  0.65240  1.0000
  H   H462      1.0  0.97155  0.23449  0.87504  1.0000
  C   C274      1.0  0.52621  0.18979  0.73086  1.0000
  H   H463      1.0  0.69782  0.29774  0.67475  1.0000
  N   N19       1.0  0.56291  0.05685  0.75540  1.0000
  C   C275      1.0  0.76964  0.03376  0.88944  1.0000
  H   H464      1.0  0.73615  0.28936  0.53755  1.0000
  H   H465      1.0  0.59807  0.03105  0.71612  1.0000
  C   C276      1.0  0.79535  0.31210  0.65666  1.0000
  H   H466      1.0  0.82254  0.31575  0.65208  1.0000
  C   C277      1.0  0.00236  0.31004  0.74389  1.0000
  H   H467      1.0  0.66864  0.01768  0.67560  1.0000
  H   H468      1.0  0.91691  0.27497  0.91723  1.0000
  C   C278      1.0  0.67144  0.03946  0.01747  1.0000
  C   C279      1.0  0.98376  0.33754  0.72862  1.0000
  N   N20       1.0  0.76917  0.14400  0.69923  1.0000
  C   C280      1.0  0.75594  0.11228  0.67919  1.0000
  C   C281      1.0  0.79339  0.13241  0.72962  1.0000
  C   C282      1.0  0.78879  0.16464  0.67010  1.0000
  C   C283      1.0  0.73909  0.16413  0.71502  1.0000
  C   C284      1.0  0.73259  0.11846  0.64487  1.0000
  C   C285      1.0  0.77857  0.10608  0.75796  1.0000
  C   C286      1.0  0.80675  0.19738  0.68435  1.0000
  C   C287      1.0  0.74532  0.18709  0.75028  1.0000
  H   H469      1.0  0.77758  0.09577  0.66916  1.0000
  H   H470      1.0  0.74051  0.09616  0.69892  1.0000
  H   H471      1.0  0.80297  0.15433  0.74676  1.0000
  H   H472      1.0  0.81674  0.12066  0.71645  1.0000
  H   H473      1.0  0.80867  0.14840  0.65581  1.0000
  H   H474      1.0  0.77158  0.17350  0.64718  1.0000
  H   H475      1.0  0.72811  0.18074  0.69273  1.0000
  H   H476      1.0  0.71778  0.14678  0.72333  1.0000
  H   H477      1.0  0.72149  0.09359  0.63549  1.0000
  H   H478      1.0  0.71085  0.13550  0.65241  1.0000
  H   H479      1.0  0.74688  0.12877  0.62006  1.0000
  H   H480      1.0  0.75254  0.11307  0.76814  1.0000
  H   H481      1.0  0.77768  0.07996  0.74515  1.0000
  H   H482      1.0  0.79538  0.10456  0.78315  1.0000
  H   H483      1.0  0.82399  0.19302  0.70856  1.0000
  H   H484      1.0  0.78782  0.21774  0.69115  1.0000
  H   H485      1.0  0.82295  0.20763  0.66089  1.0000
  H   H486      1.0  0.74899  0.17171  0.77624  1.0000
  H   H487      1.0  0.72216  0.20310  0.75546  1.0000
  H   H488      1.0  0.76710  0.20489  0.74692  1.0000
  H   H489      1.0  0.79477  0.26102  0.63258  1.0000
  C   C288      1.0  0.93442  0.29676  0.92332  1.0000
  H   H490      1.0  0.92589  0.27797  0.85110  1.0000
  H   H491      1.0  0.52221  0.20444  0.78999  1.0000
  H   H492      1.0  0.86224  0.30858  0.55166  1.0000
  H   H493      1.0  0.73215  0.03577  0.93455  1.0000
  H   H494      1.0  0.74972  0.06821  0.00171  1.0000
  H   H495      1.0  0.57246  0.12582  0.79974  1.0000
  H   H496      1.0  0.92758  0.30772  0.95171  1.0000
  C   C289      1.0  0.53183  0.21391  0.52978  1.0000
  C   C290      1.0  0.77955  0.28097  0.64593  1.0000
  C   C291      1.0  0.69630  0.04209  0.76319  1.0000
  C   C292      1.0  0.51208  0.18808  0.76779  1.0000
  H   H497      1.0  0.60363  0.08855  0.73203  1.0000
  H   H498      1.0  0.53779  0.02177  0.79421  1.0000
  C   C293      1.0  0.58250  0.02548  0.74206  1.0000
  H   H499      1.0  0.97116  0.25827  0.93533  1.0000
  C   C294      1.0  0.68841  0.07709  0.76142  1.0000
  C   C295      1.0  0.97860  0.25823  0.85945  1.0000
  C   C296      1.0  0.94774  0.26745  0.83455  1.0000
  C   C297      1.0  0.75707  0.30602  0.52644  1.0000
  C   C298      1.0  0.76698  0.04886  0.01429  1.0000
  H   H500      1.0  0.82104  0.29979  0.57206  1.0000
  H   H501      1.0  0.96226  0.33262  0.71020  1.0000
  H   H502      1.0  0.51937  0.09812  0.80455  1.0000
  H   H503      1.0  0.59040  0.14167  0.75568  1.0000
  H   H504      1.0  0.79687  0.04037  0.88411  1.0000
  H   H505      1.0  0.51782  0.08419  0.73561  1.0000
  H   H506      1.0  0.75432  0.05342  0.87456  1.0000
  H   H507      1.0  0.56610  0.05132  0.81657  1.0000
  C   C299      1.0  0.83868  0.32071  0.56357  1.0000
  C   C300      1.0  0.54870  0.07409  0.68656  1.0000
  C   C301      1.0  0.76065  0.03543  0.93212  1.0000
  N   N21       1.0  0.99158  0.28544  0.88665  1.0000
  C   C302      1.0  0.76118  0.01304  0.99653  1.0000
  H   H508      1.0  0.95542  0.28566  0.81186  1.0000
  H   H509      1.0  0.76809  0.32391  0.58300  1.0000
  H   H510      1.0  0.54837  0.12604  0.75626  1.0000
  C   C303      1.0  0.60751  0.00998  0.77094  1.0000
  H   H511      1.0  0.51886  0.04066  0.72294  1.0000
  H   H512      1.0  0.99492  0.28394  0.73740  1.0000
  H   H513      1.0  0.98557  0.29946  0.94643  1.0000
  S   S86       1.0  0.59856  0.18961  0.52620  1.0000
  H   H514      1.0  0.56296  0.09870  0.68746  1.0000
  C   C304      1.0  0.51528  0.07019  0.80621  1.0000
  H   H515      1.0  0.99918  0.25043  0.83881  1.0000
  C   C305      1.0  0.51285  0.16869  0.70234  1.0000
  H   H516      1.0  0.51882  0.02105  0.91542  1.0000
  H   H517      1.0  0.92957  0.31765  0.90311  1.0000
  H   H518      1.0  0.52281  0.17035  0.67367  1.0000
  C   C306      1.0  0.99098  0.32031  0.86834  1.0000
  H   H519      1.0  0.96558  0.32654  0.85657  1.0000
  C   C307      1.0  0.76277  0.33565  0.55501  1.0000
  H   H520      1.0  0.77997  0.28946  0.52314  1.0000
  C   C308      1.0  0.81380  0.00945  0.95777  1.0000
  H   H521      1.0  0.76299  0.00891  0.87595  1.0000
  H   H522      1.0  0.50906  0.06449  0.83638  1.0000
  H   H523      1.0  0.73324  0.00804  0.99743  1.0000
  Fe  Fe44      1.0  0.88603  0.57134  0.39966  1.0000
  S   S87       1.0  0.85421  0.54617  0.35442  1.0000
  S   S88       1.0  0.88117  0.56246  0.46306  1.0000
  Fe  Fe45      1.0  0.92378  0.61714  0.34220  1.0000
  S   S89       1.0  0.89468  0.59568  0.29304  1.0000
  H   H524      1.0  0.65966  0.64099  0.38138  1.0000
  Fe  Fe46      1.0  0.84832  0.60006  0.33186  1.0000
  H   H525      1.0  0.96895  0.48804  0.36549  1.0000
  Fe  Fe47      1.0  0.90340  0.54453  0.32006  1.0000
  S   S90       1.0  0.93343  0.50261  0.28973  1.0000
  S   S91       1.0  0.87711  0.62509  0.37928  1.0000
  S   S92       1.0  0.93541  0.56607  0.36731  1.0000
  S   S93       1.0  0.87240  0.38155  0.18927  1.0000
  C   C309      1.0  0.72494  0.64037  0.44085  1.0000
  H   H526      1.0  0.74851  0.37186  0.08671  1.0000
  C   C310      1.0  0.69000  0.65748  0.44939  1.0000
  H   H527      1.0  0.94357  0.38048  0.28684  1.0000
  C   C311      1.0  0.84868  0.67122  0.24030  1.0000
  C   C312      1.0  0.96603  0.40851  0.33419  1.0000
  C   C313      1.0  0.98996  0.43952  0.38780  1.0000
  C   C314      1.0  0.88925  0.41579  0.21651  1.0000
  C   C315      1.0  0.86695  0.43807  0.23632  1.0000
  C   C316      1.0  0.87996  0.46522  0.25860  1.0000
  C   C317      1.0  0.91535  0.47030  0.26087  1.0000
  C   C318      1.0  0.93754  0.44841  0.24056  1.0000
  C   C319      1.0  0.92459  0.42113  0.21872  1.0000
  H   H528      1.0  0.83957  0.43418  0.23465  1.0000
  H   H529      1.0  0.86266  0.48201  0.27414  1.0000
  H   H530      1.0  0.96491  0.45247  0.24179  1.0000
  H   H531      1.0  0.94199  0.40431  0.20356  1.0000
  H   H532      1.0  0.99729  0.56730  0.20544  1.0000
  H   H533      1.0  0.77419  0.36482  0.48594  1.0000
  H   H534      1.0  0.93924  0.61490  0.48712  1.0000
  N   N22       1.0  0.99884  0.42356  0.34971  1.0000
  C   C320      1.0  0.89634  0.46016  0.47916  1.0000
  C   C321      1.0  0.97663  0.67120  0.22338  1.0000
  H   H535      1.0  0.72611  0.61561  0.45614  1.0000
  C   C322      1.0  0.98258  0.66757  0.29184  1.0000
  C   C323      1.0  0.89278  0.49222  0.46141  1.0000
  C   C324      1.0  0.88412  0.52125  0.48311  1.0000
  H   H536      1.0  0.95289  0.39237  0.35594  1.0000
  H   H537      1.0  0.82100  0.40081  0.47602  1.0000
  H   H538      1.0  0.89676  0.49455  0.43107  1.0000
  S   S94       1.0  0.96679  0.65585  0.33704  1.0000
  H   H539      1.0  0.96195  0.48145  0.41520  1.0000
  H   H540      1.0  0.85551  0.65257  0.26244  1.0000
  C   C325      1.0  0.80206  0.41076  0.49719  1.0000
  H   H541      1.0  0.98368  0.39985  0.27510  1.0000
  H   H542      1.0  0.93684  0.45801  0.38189  1.0000
  S   S95       1.0  0.79770  0.62134  0.31022  1.0000
  H   H543      1.0  0.78656  0.37223  0.11438  1.0000
  C   C326      1.0  0.77784  0.38187  0.51107  1.0000
  H   H544      1.0  0.90308  0.43778  0.46234  1.0000
  H   H545      1.0  0.94093  0.64537  0.26049  1.0000
  H   H546      1.0  0.99470  0.59468  0.24719  1.0000
  C   C327      1.0  0.96291  0.46834  0.38704  1.0000
  C   C328      1.0  0.99743  0.56802  0.23699  1.0000
  H   H547      1.0  0.78675  0.43136  0.48397  1.0000
  H   H548      1.0  0.98850  0.64348  0.07320  1.0000
  H   H549      1.0  0.00598  0.36588  0.21126  1.0000
  H   H550      1.0  0.68725  0.66007  0.48087  1.0000
  C   C329      1.0  0.77978  0.66192  0.32196  1.0000
  H   H551      1.0  0.67027  0.63845  0.44114  1.0000
  H   H552      1.0  0.96212  0.66571  0.19802  1.0000
  H   H553      1.0  0.98024  0.41957  0.40772  1.0000
  H   H554      1.0  0.94750  0.42914  0.32712  1.0000
  H   H555      1.0  0.75184  0.39279  0.51624  1.0000
  H   H556      1.0  0.86879  0.67145  0.21781  1.0000
  C   C330      1.0  0.77065  0.35602  0.09544  1.0000
  H   H557      1.0  0.82489  0.66131  0.22703  1.0000
  C   C331      1.0  0.94833  0.61713  0.51689  1.0000
  H   H558      1.0  0.97399  0.55493  0.24772  1.0000
  H   H559      1.0  0.99151  0.46342  0.30837  1.0000
  H   H560      1.0  0.73991  0.65711  0.28033  1.0000
  C   C332      1.0  0.96453  0.65972  0.25879  1.0000
  H   H561      1.0  0.97740  0.57123  0.51356  1.0000
  H   H562      1.0  0.61546  0.66567  0.41757  1.0000
  H   H563      1.0  0.98184  0.36125  0.30343  1.0000
  H   H564      1.0  0.62173  0.66292  0.46842  1.0000
  C   C333      1.0  0.96954  0.38631  0.29786  1.0000
  C   C334      1.0  0.66507  0.66519  0.36644  1.0000
  H   H565      1.0  0.74678  0.65603  0.45100  1.0000
  H   H566      1.0  0.67812  0.65716  0.33955  1.0000
  H   H567      1.0  0.72840  0.63431  0.41017  1.0000
  S   S96       1.0  0.96508  0.35222  0.14982  1.0000
  C   C335      1.0  0.98948  0.67143  0.07935  1.0000
  Fe  Fe48      1.0  0.90999  0.34262  0.16517  1.0000
  C   C336      1.0  0.89143  0.45710  0.51863  1.0000
  H   H568      1.0  0.78534  0.34955  0.06918  1.0000
  H   H569      1.0  0.97190  0.63310  0.51605  1.0000
  C   C337      1.0  0.75119  0.67352  0.30178  1.0000
  Fe  Fe49      1.0  0.88122  0.47297  0.66840  1.0000
  S   S97       1.0  0.92759  0.45062  0.64000  1.0000
  S   S98       1.0  0.88672  0.53057  0.67084  1.0000
  Fe  Fe50      1.0  0.84636  0.40189  0.67237  1.0000
  S   S99       1.0  0.89168  0.37514  0.64503  1.0000
  H   H570      1.0  0.98384  0.47907  0.71518  1.0000
  Fe  Fe51      1.0  0.92377  0.40904  0.68340  1.0000
  S   S100      1.0  0.97395  0.40694  0.71554  1.0000
  Fe  Fe52      1.0  0.89129  0.42002  0.60498  1.0000
  S   S101      1.0  0.89639  0.41702  0.54091  1.0000
  S   S102      1.0  0.87847  0.43291  0.71365  1.0000
  S   S103      1.0  0.84485  0.44507  0.63034  1.0000
  S   S104      1.0  0.96110  0.65651  0.83746  1.0000
  H   H571      1.0  0.78213  0.65937  0.89146  1.0000
  S   S105      1.0  0.87245  0.61273  0.82593  1.0000
  H   H572      1.0  0.93856  0.45047  0.81680  1.0000
  H   H573      1.0  0.74210  0.39621  0.59320  1.0000
  H   H574      1.0  0.89141  0.60253  0.62507  1.0000
  H   H575      1.0  0.94622  0.50426  0.57942  1.0000
  C   C338      1.0  0.88331  0.55258  0.71448  1.0000
  C   C339      1.0  0.86711  0.53779  0.74595  1.0000
  C   C340      1.0  0.86390  0.55653  0.78010  1.0000
  C   C341      1.0  0.87751  0.58974  0.78311  1.0000
  C   C342      1.0  0.89447  0.60419  0.75194  1.0000
  C   C343      1.0  0.89703  0.58576  0.71756  1.0000
  H   H576      1.0  0.85641  0.51226  0.74371  1.0000
  H   H577      1.0  0.85076  0.54529  0.80421  1.0000
  H   H578      1.0  0.90506  0.62978  0.75410  1.0000
  H   H579      1.0  0.90970  0.59727  0.69334  1.0000
  N   N23       1.0  0.96422  0.57747  0.57351  1.0000
  H   H580      1.0  0.92216  0.49008  0.79921  1.0000
  C   C344      1.0  0.94053  0.46906  0.79316  1.0000
  Fe  Fe53      1.0  0.90418  0.66052  0.83395  1.0000
  H   H581      1.0  0.93261  0.45510  0.76712  1.0000
  C   C345      1.0  0.98589  0.60729  0.58671  1.0000
  H   H582      1.0  0.83599  0.67427  0.80824  1.0000
  H   H583      1.0  0.98116  0.53772  0.83901  1.0000
  H   H584      1.0  0.87871  0.48425  0.57043  1.0000
  C   C346      1.0  0.79613  0.38424  0.57852  1.0000
  C   C347      1.0  0.76697  0.40941  0.58890  1.0000
  C   C348      1.0  0.88254  0.48614  0.54008  1.0000
  C   C349      1.0  0.93201  0.57352  0.59711  1.0000
  C   C350      1.0  0.99369  0.37130  0.73652  1.0000
  H   H585      1.0  0.93346  0.56464  0.52438  1.0000
  N   N24       1.0  0.98331  0.51267  0.76472  1.0000
  C   C351      1.0  0.78236  0.61906  0.85036  1.0000
  H   H586      1.0  0.80109  0.65295  0.78645  1.0000
  H   H587      1.0  0.82018  0.39917  0.57509  1.0000
  H   H588      1.0  0.88979  0.60368  0.57394  1.0000
  N   N25       1.0  0.79002  0.36148  0.54445  1.0000
  H   H589      1.0  0.87140  0.54016  0.53918  1.0000
  C   C352      1.0  0.00004  0.35103  0.89429  1.0000
  C   C353      1.0  0.97790  0.48168  0.78945  1.0000
  H   H590      1.0  0.97384  0.60662  0.64845  1.0000
  H   H591      1.0  0.93543  0.54240  0.83309  1.0000
  H   H592      1.0  0.78821  0.60053  0.87318  1.0000
  H   H593      1.0  0.93654  0.54173  0.76883  1.0000
  H   H594      1.0  0.96330  0.52125  0.66820  1.0000
  C   C354      1.0  0.99633  0.60714  0.62893  1.0000
  H   H595      1.0  0.97374  0.56737  0.76538  1.0000
  H   H596      1.0  0.79629  0.60973  0.82468  1.0000
  H   H597      1.0  0.73748  0.34837  0.55899  1.0000
  H   H598      1.0  0.80051  0.36867  0.60428  1.0000
  C   C355      1.0  0.82325  0.34431  0.53334  1.0000
  H   H599      1.0  0.98110  0.64903  0.75644  1.0000
  H   H600      1.0  0.77296  0.42230  0.61632  1.0000
  C   C356      1.0  0.96111  0.54996  0.82199  1.0000
  H   H601      1.0  0.00425  0.53263  0.68589  1.0000
  H   H602      1.0  0.99822  0.37495  0.87755  1.0000
  C   C357      1.0  0.96920  0.51178  0.56265  1.0000
  H   H603      1.0  0.76449  0.42982  0.56737  1.0000
  H   H604      1.0  0.99089  0.54052  0.60830  1.0000
  S   S106      1.0  0.79453  0.37801  0.68809  1.0000
  H   H605      1.0  0.96600  0.55534  0.70209  1.0000
  H   H606      1.0  0.82220  0.65371  0.86913  1.0000
  H   H607      1.0  0.98729  0.48580  0.81867  1.0000
  H   H608      1.0  0.94317  0.49757  0.72552  1.0000
  C   C358      1.0  0.97119  0.50307  0.72536  1.0000
  C   C359      1.0  0.96346  0.54364  0.77851  1.0000
  H   H609      1.0  0.96259  0.51307  0.53212  1.0000
  C   C360      1.0  0.90724  0.60417  0.59868  1.0000
  H   H610      1.0  0.93774  0.56585  0.62670  1.0000
  H   H611      1.0  0.92025  0.62926  0.60067  1.0000
  H   H612      1.0  0.75435  0.61794  0.84569  1.0000
  H   H613      1.0  0.91635  0.55176  0.58641  1.0000
  C   C361      1.0  0.97685  0.53004  0.69409  1.0000
  S   S107      1.0  0.98318  0.66419  0.94254  1.0000
  H   H614      1.0  0.81631  0.42361  0.52028  1.0000
  H   H615      1.0  0.98202  0.35367  0.91874  1.0000
  H   H616      1.0  0.92801  0.63054  0.53323  1.0000
  C   C362      1.0  0.79423  0.65506  0.86321  1.0000
  H   H617      1.0  0.97301  0.63219  0.58228  1.0000
  C   C363      1.0  0.87864  0.51794  0.52235  1.0000
  H   H618      1.0  0.84331  0.36382  0.52682  1.0000
  H   H619      1.0  0.72551  0.35269  0.69361  1.0000
  C   C364      1.0  0.95587  0.58089  0.53181  1.0000
  C   C365      1.0  0.98534  0.54535  0.57792  1.0000
  H   H620      1.0  0.74308  0.66329  0.80593  1.0000
  H   H621      1.0  0.98796  0.49062  0.56552  1.0000
  H   H622      1.0  0.96291  0.57795  0.82770  1.0000
  H   H623      1.0  0.99334  0.45965  0.77835  1.0000
  H   H624      1.0  0.72943  0.67335  0.88232  1.0000
  C   C366      1.0  0.00677  0.65152  0.74490  1.0000
  Fe  Fe54      1.0  0.61210  0.80637  0.31025  1.0000
  S   S108      1.0  0.59834  0.84312  0.35721  1.0000
  H   H625      1.0  0.90933  0.70594  0.23949  1.0000
  Fe  Fe55      1.0  0.68465  0.79385  0.34052  1.0000
  S   S109      1.0  0.67552  0.83113  0.38898  1.0000
  S   S110      1.0  0.73882  0.77126  0.34211  1.0000
  Fe  Fe56      1.0  0.62407  0.80595  0.39561  1.0000
  S   S111      1.0  0.60483  0.78504  0.45211  1.0000
  Fe  Fe57      1.0  0.65082  0.86476  0.34567  1.0000
  S   S112      1.0  0.65511  0.92257  0.34321  1.0000
  S   S113      1.0  0.63422  0.76686  0.34944  1.0000
  S   S114      1.0  0.66346  0.82978  0.29656  1.0000
  H   H626      1.0  0.51244  0.79765  0.21803  1.0000
  N   N26       1.0  0.59590  0.94828  0.18517  1.0000
  H   H627      1.0  0.57217  0.86661  0.28627  1.0000
  C   C367      1.0  0.94958  0.73580  0.09959  1.0000
  H   H628      1.0  0.98601  0.77252  0.03693  1.0000
  H   H629      1.0  0.81736  0.98381  0.26525  1.0000
  H   H630      1.0  0.62998  0.88089  0.23921  1.0000
  C   C368      1.0  0.67214  0.94103  0.30150  1.0000
  C   C369      1.0  0.69172  0.92170  0.27561  1.0000
  C   C370      1.0  0.70469  0.93687  0.24235  1.0000
  C   C371      1.0  0.69786  0.97132  0.23452  1.0000
  C   C372      1.0  0.67849  0.99082  0.26046  1.0000
  C   C373      1.0  0.66592  0.97575  0.29403  1.0000
  H   H631      1.0  0.69719  0.89515  0.28141  1.0000
  H   H632      1.0  0.71982  0.92171  0.22250  1.0000
  C   C374      1.0  0.55327  0.78468  0.50583  1.0000
  C   C375      1.0  0.78077  0.71655  0.35588  1.0000
  C   C376      1.0  0.56837  0.80251  0.47538  1.0000
  C   C377      1.0  0.55468  0.83404  0.46476  1.0000
  H   H633      1.0  0.83444  0.72329  0.23203  1.0000
  H   H634      1.0  0.64208  0.72655  0.42197  1.0000
  H   H635      1.0  0.56641  0.84821  0.44174  1.0000
  H   H636      1.0  0.64615  0.95865  0.16113  1.0000
  H   H637      1.0  0.71604  0.71539  0.29207  1.0000
  H   H638      1.0  0.97106  0.68289  0.02437  1.0000
  H   H639      1.0  0.90504  0.69453  0.36517  1.0000
  C   C378      1.0  0.89956  0.73040  0.25182  1.0000
  H   H640      1.0  0.87624  0.77027  0.31305  1.0000
  H   H641      1.0  0.86041  0.79069  0.24668  1.0000
  H   H642      1.0  0.81791  0.70551  0.27476  1.0000
  C   C379      1.0  0.52809  0.88847  0.25942  1.0000
  H   H643      1.0  0.87226  0.72623  0.36434  1.0000
  C   C380      1.0  0.99221  0.74617  0.04663  1.0000
  H   H644      1.0  0.83460  0.80647  0.28516  1.0000
  H   H645      1.0  0.62854  0.91963  0.14539  1.0000
  H   H646      1.0  0.65137  0.89646  0.19792  1.0000
  H   H647      1.0  0.53246  0.91377  0.27127  1.0000
  H   H648      1.0  0.56375  0.76029  0.51424  1.0000
  H   H649      1.0  0.72879  0.76928  0.44519  1.0000
  C   C381      1.0  0.55047  0.86168  0.26825  1.0000
  H   H650      1.0  0.95972  0.79155  0.09579  1.0000
  H   H651      1.0  0.55394  0.88035  0.17809  1.0000
  C   C382      1.0  0.64951  0.70588  0.44183  1.0000
  C   C383      1.0  0.56075  0.93614  0.17386  1.0000
  C   C384      1.0  0.79399  0.68336  0.34972  1.0000
  C   C385      1.0  0.55802  0.90004  0.15593  1.0000
  H   H652      1.0  0.96972  0.72854  0.11988  1.0000
  H   H653      1.0  0.54814  0.95459  0.15450  1.0000
  H   H654      1.0  0.65086  0.99085  0.31401  1.0000
  H   H655      1.0  0.53193  0.80738  0.34413  1.0000
  C   C386      1.0  0.51690  0.82305  0.22955  1.0000
  H   H656      1.0  0.90104  0.68127  0.29912  1.0000
  H   H657      1.0  0.81755  0.77372  0.25564  1.0000
  H   H658      1.0  0.91479  0.78007  0.09764  1.0000
  H   H659      1.0  0.73695  0.71025  0.43328  1.0000
  H   H660      1.0  0.90592  0.72849  0.04420  1.0000
  H   H661      1.0  0.58773  0.92435  0.23996  1.0000
  C   C387      1.0  0.60996  0.96254  0.11509  1.0000
  H   H662      1.0  0.51930  0.92359  0.37456  1.0000
  C   C388      1.0  0.60873  0.92860  0.21896  1.0000
  H   H663      1.0  0.54329  0.93587  0.19895  1.0000
  C   C389      1.0  0.52620  0.84761  0.48457  1.0000
  C   C390      1.0  0.84152  0.70737  0.25679  1.0000
  H   H664      1.0  0.68455  0.76510  0.45787  1.0000
  C   C391      1.0  0.70504  0.75465  0.43894  1.0000
  C   C392      1.0  0.73759  0.70655  0.30838  1.0000
  H   H665      1.0  0.61908  0.99663  0.20224  1.0000
  H   H666      1.0  0.98372  0.67457  0.11007  1.0000
  N   N27       1.0  0.87019  0.72376  0.27902  1.0000
  H   H667      1.0  0.60983  0.87579  0.19450  1.0000
  H   H668      1.0  0.51068  0.90061  0.41760  1.0000
  C   C393      1.0  0.93082  0.73925  0.03395  1.0000
  H   H669      1.0  0.62825  0.94387  0.23441  1.0000
  S   S115      1.0  0.57199  0.79452  0.26598  1.0000
  C   C394      1.0  0.51084  0.82964  0.51469  1.0000
  C   C395      1.0  0.62149  0.94637  0.15273  1.0000
  C   C396      1.0  0.84161  0.78295  0.26881  1.0000
  C   C397      1.0  0.93111  0.74854  0.26845  1.0000
  H   H670      1.0  0.83554  0.75049  0.31732  1.0000
  H   H671      1.0  0.77229  0.97931  0.25364  1.0000
  H   H672      1.0  0.51321  0.87702  0.33599  1.0000
  C   C398      1.0  0.85640  0.75651  0.29650  1.0000
  H   H673      1.0  0.93815  0.67673  0.05884  1.0000
  H   H674      1.0  0.58230  0.98128  0.25883  1.0000
  C   C399      1.0  0.75264  0.72840  0.33515  1.0000
  H   H675      1.0  0.92694  0.72008  0.10812  1.0000
  H   H676      1.0  0.94351  0.73275  0.29037  1.0000
  S   S116      1.0  0.71410  0.98912  0.19217  1.0000
  C   C400      1.0  0.94068  0.77362  0.10815  1.0000
  C   C401      1.0  0.54487  0.82877  0.25364  1.0000
  H   H677      1.0  0.53571  0.89930  0.13659  1.0000
  H   H678      1.0  0.91400  0.73458  0.34358  1.0000
  H   H679      1.0  0.58028  0.89273  0.13800  1.0000
  H   H680      1.0  0.95056  0.75197  0.24545  1.0000
  C   C402      1.0  0.71130  0.71611  0.44596  1.0000
  C   C403      1.0  0.88094  0.69921  0.30983  1.0000
  H   H681      1.0  0.68512  0.71519  0.37543  1.0000
  H   H682      1.0  0.92499  0.77436  0.27993  1.0000
  H   H683      1.0  0.92784  0.76761  0.03509  1.0000
  C   C404      1.0  0.57139  0.99315  0.23313  1.0000
  H   H684      1.0  0.63121  0.96036  0.09394  1.0000
  C   C405      1.0  0.62571  0.89349  0.21146  1.0000
  N   N28       1.0  0.68435  0.69172  0.43095  1.0000
  H   H685      1.0  0.89089  0.74556  0.22714  1.0000
  C   C406      1.0  0.89381  0.71501  0.34755  1.0000
  H   H686      1.0  0.79249  0.73322  0.37678  1.0000
  N   N29       1.0  0.95984  0.72785  0.05899  1.0000
  H   H687      1.0  0.65021  0.71813  0.47058  1.0000
  H   H688      1.0  0.51611  0.87229  0.47678  1.0000
  H   H689      1.0  0.58186  0.00129  0.17416  1.0000
  H   H690      1.0  0.00404  0.73298  0.02167  1.0000
  H   H691      1.0  0.71416  0.71333  0.47728  1.0000
  H   H692      1.0  0.69834  0.76001  0.40920  1.0000
  H   H693      1.0  0.52539  0.85614  0.37724  1.0000
  C   C407      1.0  0.96336  0.68955  0.05400  1.0000
  H   H694      1.0  0.94026  0.77787  0.13943  1.0000
  H   H695      1.0  0.67058  0.95332  0.03315  1.0000
  C   C408      1.0  0.79822  0.98531  0.24231  1.0000
  C   C409      1.0  0.59315  0.98556  0.19703  1.0000
  H   H696      1.0  0.58765  0.94888  0.10290  1.0000
  H   H697      1.0  0.54427  0.98530  0.22989  1.0000
  H   H698      1.0  0.80436  0.96470  0.22134  1.0000
  H   H699      1.0  0.59527  0.69543  0.44913  1.0000
  H   H700      1.0  0.60394  0.99012  0.11800  1.0000
  C   C410      1.0  0.68884  0.68966  0.38839  1.0000
  H   H701      1.0  0.71567  0.68324  0.38026  1.0000
  H   H702      1.0  0.85928  0.68234  0.31848  1.0000
  H   H703      1.0  0.64071  0.67816  0.35920  1.0000
  C   C411      1.0  0.00737  0.68972  0.22060  1.0000
  C   C412      1.0  0.61919  0.68054  0.44403  1.0000
  H   H704      1.0  0.50825  0.77637  0.31817  1.0000
  H   H705      1.0  0.81546  0.67454  0.36611  1.0000
  H   H706      1.0  0.53694  0.77778  0.62092  1.0000
  S   S117      1.0  0.90414  0.70993  0.80127  1.0000
  C   C413      1.0  0.55656  0.89354  0.63296  1.0000
  H   H707      1.0  0.78150  0.70607  0.75628  1.0000
  Fe  Fe58      1.0  0.70899  0.89466  0.82294  1.0000
  S   S118      1.0  0.65956  0.88580  0.85556  1.0000
  S   S119      1.0  0.74404  0.85214  0.80002  1.0000
  Fe  Fe59      1.0  0.69693  0.97207  0.81911  1.0000
  S   S120      1.0  0.64733  0.96890  0.85139  1.0000
  Fe  Fe60      1.0  0.67477  0.93285  0.88936  1.0000
  S   S121      1.0  0.66986  0.93608  0.95373  1.0000
  Fe  Fe61      1.0  0.63612  0.92285  0.81462  1.0000
  S   S122      1.0  0.58313  0.92430  0.78830  1.0000
  S   S123      1.0  0.72572  0.93889  0.85967  1.0000
  S   S124      1.0  0.68412  0.92875  0.77943  1.0000
  Fe  Fe62      1.0  0.90289  0.73582  0.85890  1.0000
  H   H708      1.0  0.57337  0.86522  0.56273  1.0000
  S   S125      1.0  0.86920  0.77918  0.88210  1.0000
  H   H709      1.0  0.60641  0.88854  0.58410  1.0000
  C   C414      1.0  0.59247  0.86366  0.58597  1.0000
  Fe  Fe63      1.0  0.95598  0.68613  0.89194  1.0000
  C   C415      1.0  0.66849  0.97615  0.97770  1.0000
  C   C416      1.0  0.52996  0.90558  0.60380  1.0000
  H   H710      1.0  0.63019  0.82183  0.59707  1.0000
  C   C417      1.0  0.77968  0.83354  0.82308  1.0000
  C   C418      1.0  0.80153  0.81152  0.80220  1.0000
  C   C419      1.0  0.82960  0.79547  0.81955  1.0000
  C   C420      1.0  0.83573  0.80073  0.85823  1.0000
  C   C421      1.0  0.81410  0.82299  0.87906  1.0000
  C   C422      1.0  0.78626  0.83938  0.86161  1.0000
  H   H711      1.0  0.79683  0.80707  0.77231  1.0000
  H   H712      1.0  0.84652  0.77908  0.80304  1.0000
  H   H713      1.0  0.81867  0.82730  0.90899  1.0000
  H   H714      1.0  0.76963  0.85616  0.87804  1.0000
  H   H715      1.0  0.51683  0.92881  0.61517  1.0000
  C   C423      1.0  0.55895  0.82738  0.75324  1.0000
  C   C424      1.0  0.57650  0.85536  0.76960  1.0000
  C   C425      1.0  0.56274  0.88836  0.76756  1.0000
  C   C426      1.0  0.53155  0.89317  0.74886  1.0000
  H   H716      1.0  0.55547  0.92731  0.92588  1.0000
  H   H717      1.0  0.56962  0.80189  0.75507  1.0000
  H   H718      1.0  0.60046  0.85134  0.78408  1.0000
  C   C427      1.0  0.76202  0.97339  0.94265  1.0000
  H   H719      1.0  0.76578  0.71814  0.90525  1.0000
  H   H720      1.0  0.64281  0.88334  0.63521  1.0000
  H   H721      1.0  0.50980  0.88628  0.59847  1.0000
  H   H722      1.0  0.56456  0.00444  0.73387  1.0000
  C   C428      1.0  0.93425  0.72991  0.99131  1.0000
  H   H723      1.0  0.60430  0.81572  0.55534  1.0000
  H   H724      1.0  0.74557  0.70798  0.80631  1.0000
  H   H725      1.0  0.79756  0.75080  0.90320  1.0000
  C   C429      1.0  0.76791  0.94279  0.96922  1.0000
  C   C430      1.0  0.55912  0.79498  0.62615  1.0000
  H   H726      1.0  0.81055  0.70811  0.91282  1.0000
  C   C431      1.0  0.52780  0.83225  0.73439  1.0000
  H   H727      1.0  0.73393  0.97468  0.93760  1.0000
  H   H728      1.0  0.62149  0.98835  0.75710  1.0000
  H   H729      1.0  0.79420  0.94245  0.98074  1.0000
  C   C432      1.0  0.79235  0.72352  0.89601  1.0000
  H   H730      1.0  0.77332  0.96636  0.91464  1.0000
  H   H731      1.0  0.53273  0.83384  0.59531  1.0000
  H   H732      1.0  0.61819  0.90403  0.67322  1.0000
  C   C433      1.0  0.53819  0.96239  0.88085  1.0000
  H   H733      1.0  0.82653  0.72173  0.84857  1.0000
  C   C434      1.0  0.61747  0.83498  0.57349  1.0000
  H   H734      1.0  0.51273  0.78391  0.54830  1.0000
  C   C435      1.0  0.59849  0.85311  0.65616  1.0000
  C   C436      1.0  0.62775  0.87924  0.66168  1.0000
  H   H735      1.0  0.61080  0.82765  0.65358  1.0000
  H   H736      1.0  0.92925  0.70225  0.98621  1.0000
  C   C437      1.0  0.80703  0.70502  0.76971  1.0000
  H   H737      1.0  0.58384  0.85193  0.68346  1.0000
  H   H738      1.0  0.63863  0.84632  0.55632  1.0000
  H   H739      1.0  0.57524  0.91495  0.63525  1.0000
  S   S126      1.0  0.96044  0.73764  0.86485  1.0000
  H   H740      1.0  0.81417  0.73074  0.78048  1.0000
  C   C438      1.0  0.54725  0.83245  0.62222  1.0000
  C   C439      1.0  0.75008  0.68535  0.82462  1.0000
  H   H741      1.0  0.54330  0.89226  0.66120  1.0000
  H   H742      1.0  0.52800  0.83634  0.64543  1.0000
  Fe  Fe64      1.0  0.96144  0.70786  0.80967  1.0000
  S   S127      1.0  0.89860  0.68630  0.89080  1.0000
  H   H743      1.0  0.55595  0.97227  0.93941  1.0000
  N   N30       1.0  0.57441  0.86005  0.62388  1.0000
  H   H744      1.0  0.57927  0.78761  0.60544  1.0000
  H   H745      1.0  0.54778  0.94578  0.85716  1.0000
  H   H746      1.0  0.54220  0.91282  0.57641  1.0000
  N   N31       1.0  0.78713  0.68390  0.83610  1.0000
  H   H747      1.0  0.71890  0.71559  0.86503  1.0000
  C   C440      1.0  0.72314  0.68833  0.85686  1.0000
  H   H748      1.0  0.91462  0.74409  0.97507  1.0000
  C   C441      1.0  0.79843  0.71784  0.85299  1.0000
  H   H749      1.0  0.82580  0.69837  0.74683  1.0000
  H   H750      1.0  0.56752  0.78956  0.65554  1.0000
  H   H751      1.0  0.76370  0.91851  0.95314  1.0000
  H   H752      1.0  0.78589  0.73959  0.83833  1.0000
  H   H753      1.0  0.64568  0.86920  0.68323  1.0000
  C   C442      1.0  0.51416  0.86529  0.73235  1.0000
  H   H754      1.0  0.52063  0.91856  0.74722  1.0000
  H   H755      1.0  0.54509  0.98881  0.87193  1.0000
  H   H756      1.0  0.58767  0.95534  0.90768  1.0000
  C   C443      1.0  0.56010  0.95372  0.91572  1.0000
  H   H757      1.0  0.95962  0.73692  0.97917  1.0000
  S   S128      1.0  0.00331  0.71932  0.76674  1.0000
  H   H758      1.0  0.74895  0.94301  0.99305  1.0000
  C   C444      1.0  0.52447  0.79808  0.52529  1.0000
  H   H759      1.0  0.69501  0.99372  0.73335  1.0000
  H   H760      1.0  0.83198  0.96066  0.93246  1.0000
  C   C445      1.0  0.80854  0.67732  0.80072  1.0000
  C   C446      1.0  0.83388  0.98861  0.92733  1.0000
  H   H761      1.0  0.59389  0.99924  0.79596  1.0000
  H   H762      1.0  0.66664  0.00665  0.92711  1.0000
  C   C447      1.0  0.66775  0.00702  0.95781  1.0000
  C   C448      1.0  0.66986  0.97709  0.01760  1.0000
  H   H763      1.0  0.82569  0.99379  0.89799  1.0000
  H   H764      1.0  0.77248  0.99444  0.01664  1.0000
  H   H765      1.0  0.82362  0.00046  0.98558  1.0000
  H   H766      1.0  0.69849  0.67739  0.84686  1.0000
  H   H767      1.0  0.51566  0.96057  0.80596  1.0000
  H   H768      1.0  0.86149  0.99537  0.92896  1.0000
  N   N32       1.0  0.77511  0.00756  0.95671  1.0000
