data_image0
_chemical_formula_structural       H2SHC2H6CHC3HCSC2HCH6CH7C2HFeS3CHS2C6H4C2HNH2SNCH2CH4CFeH2CH3FeCHCH6FeCHCH2CHSHSNH2FeS2CFeSFeSC6H3CH2CSHCH2CH4CSHCH2CHCHCFeCH2N2C3H8CH3CH2CH3CH6CSHS2H2C2FeH2FeC6H4CH2C2H4CHFeH3CSHC3H4CSH5C2HNCNH2CHCH2S2CHFeS2NH3C2H2SC6HCH3CHCHCSH3SH3CHC2HCHCHCH2SHC2H2C3H6CHSHCH2CFeS2H2FeS4HC6H5FeC2H3CH3CH3CH8CNFeHC2HFeSCH2C2H4SFeSCHSCSH2CHSC6H5FeH3C4H2SCH2C2HCHSFeNH2CH4CFeHSH4CSC2HC4H5CHCFe2HCHSCNC2H5CH2CH6CH2CH2CH5CH2CH3NCH3SH3CHCSC2H5FeSCHCSHCH6CH2NCH6CH2CHC3HC2HC2H2FeCH5NH4CFeS2HCFeSCSHCH3C6H7CH2SHCHFeH4CSNCHFeHCH6C3H3CH7FeHSC2H3CFeS2CHFeSHCSH5C6H4NHCH2SH2CHCHCH3C3H2SHC3H2C2HCH
_chemical_formula_sum              "H384 S64 C224 Fe32 N16"
_cell_length_a       26.4408
_cell_length_b       26.6003
_cell_length_c       36.0852
_cell_angle_alpha    90.4274
_cell_angle_beta     89.8358
_cell_angle_gamma    89.8797

_space_group_name_H-M_alt    "P 1"
_space_group_IT_number       1

loop_
  _space_group_symop_operation_xyz
  'x, y, z'

loop_
  _atom_site_type_symbol
  _atom_site_label
  _atom_site_symmetry_multiplicity
  _atom_site_fract_x
  _atom_site_fract_y
  _atom_site_fract_z
  _atom_site_occupancy
  H   H1        1.0  0.01341  0.03397  0.28975  1.0000
  H   H2        1.0  0.44809  0.05582  0.34355  1.0000
  S   S1        1.0  0.05363  0.16301  0.08833  1.0000
  H   H3        1.0  0.13119  0.24094  0.08756  1.0000
  C   C1        1.0  0.23011  0.05228  0.12240  1.0000
  C   C2        1.0  0.10740  0.17248  0.06064  1.0000
  H   H4        1.0  0.27747  0.01475  0.05997  1.0000
  H   H5        1.0  0.14694  0.02751  0.15824  1.0000
  H   H6        1.0  0.47324  0.07672  0.30095  1.0000
  H   H7        1.0  0.20857  0.25001  0.04840  1.0000
  H   H8        1.0  0.23049  0.12453  0.09444  1.0000
  H   H9        1.0  0.21141  0.07435  0.06475  1.0000
  C   C3        1.0  0.18352  0.21839  0.04422  1.0000
  H   H10       1.0  0.11093  0.35163  0.07981  1.0000
  C   C4        1.0  0.07653  0.32370  0.02922  1.0000
  C   C5        1.0  0.11992  0.35081  0.04968  1.0000
  C   C6        1.0  0.13962  0.21353  0.06609  1.0000
  H   H11       1.0  0.27188  0.05050  0.11857  1.0000
  C   C7        1.0  0.20857  0.08894  0.09351  1.0000
  S   S2        1.0  0.01537  0.28821  0.14848  1.0000
  C   C8        1.0  0.02527  0.01608  0.06858  1.0000
  C   C9        1.0  0.39290  0.08310  0.30504  1.0000
  H   H12       1.0  0.04064  0.34209  0.03802  1.0000
  C   C10       1.0  0.11983  0.13587  0.03406  1.0000
  H   H13       1.0  0.09652  0.10289  0.03075  1.0000
  H   H14       1.0  0.22429  0.07115  0.14968  1.0000
  H   H15       1.0  0.07462  0.28542  0.04105  1.0000
  H   H16       1.0  0.24475  0.02266  0.19648  1.0000
  H   H17       1.0  0.16879  0.09907  0.09991  1.0000
  H   H18       1.0  0.39893  0.12362  0.31130  1.0000
  C   C11       1.0  0.44214  0.05399  0.31311  1.0000
  H   H19       1.0  0.15641  0.33066  0.04661  1.0000
  H   H20       1.0  0.38112  0.07987  0.27569  1.0000
  H   H21       1.0  0.36181  0.07077  0.32355  1.0000
  H   H22       1.0  0.13107  0.02533  0.11075  1.0000
  H   H23       1.0  0.46423  0.03359  0.24685  1.0000
  H   H24       1.0  0.03397  0.05669  0.07083  1.0000
  H   H25       1.0  0.12429  0.39046  0.04111  1.0000
  C   C12       1.0  0.01444  0.06462  0.52720  1.0000
  C   C13       1.0  0.02715  0.38764  0.51466  1.0000
  H   H26       1.0  0.16200  0.48968  0.50554  1.0000
  Fe  Fe1       1.0  0.08257  0.23625  0.60308  1.0000
  S   S3        1.0  0.05036  0.17610  0.63912  1.0000
  S   S4        1.0  0.15590  0.22054  0.57304  1.0000
  S   S5        1.0  0.27214  0.04300  0.36955  1.0000
  C   C14       1.0  0.16622  0.30037  0.48957  1.0000
  H   H27       1.0  0.09998  0.29131  0.52405  1.0000
  S   S6        1.0  0.07437  0.29770  0.64622  1.0000
  S   S7        1.0  0.14996  0.08966  0.42517  1.0000
  C   C15       1.0  0.15341  0.18271  0.53267  1.0000
  C   C16       1.0  0.19733  0.15814  0.52016  1.0000
  C   C17       1.0  0.19675  0.12921  0.48736  1.0000
  C   C18       1.0  0.15263  0.12609  0.46623  1.0000
  C   C19       1.0  0.10897  0.15152  0.47836  1.0000
  C   C20       1.0  0.10902  0.17885  0.51185  1.0000
  H   H28       1.0  0.23188  0.16117  0.53602  1.0000
  H   H29       1.0  0.23068  0.10998  0.47817  1.0000
  H   H30       1.0  0.07480  0.14946  0.46201  1.0000
  H   H31       1.0  0.07503  0.19778  0.52106  1.0000
  C   C21       1.0  0.02715  0.46168  0.62244  1.0000
  C   C22       1.0  0.14195  0.41029  0.50361  1.0000
  H   H32       1.0  0.18636  0.32835  0.47242  1.0000
  N   N1        1.0  0.12131  0.36985  0.52860  1.0000
  H   H33       1.0  0.03897  0.41029  0.49054  1.0000
  H   H34       1.0  0.12447  0.47301  0.54432  1.0000
  S   S8        1.0  0.40142  0.04569  0.41414  1.0000
  N   N2        1.0  0.02056  0.01690  0.50472  1.0000
  C   C23       1.0  0.16688  0.40383  0.58728  1.0000
  H   H35       1.0  0.14206  0.32806  0.57748  1.0000
  H   H36       1.0  0.15680  0.26810  0.47110  1.0000
  C   C24       1.0  0.04742  0.06892  0.56224  1.0000
  H   H37       1.0  0.09666  0.47958  0.49887  1.0000
  H   H38       1.0  0.18380  0.40663  0.50098  1.0000
  H   H39       1.0  0.01371  0.35022  0.50512  1.0000
  H   H40       1.0  0.08826  0.07188  0.55544  1.0000
  C   C25       1.0  0.11676  0.32145  0.50662  1.0000
  Fe  Fe2       1.0  0.03570  0.23788  0.68011  1.0000
  H   H41       1.0  0.04067  0.03764  0.58173  1.0000
  H   H42       1.0  0.19452  0.34777  0.55046  1.0000
  C   C26       1.0  0.12997  0.46557  0.51443  1.0000
  H   H43       1.0  0.02302  0.09789  0.50970  1.0000
  H   H44       1.0  0.19026  0.38981  0.61060  1.0000
  H   H45       1.0  0.05708  0.35298  0.56373  1.0000
  Fe  Fe3       1.0  0.21285  0.03367  0.41363  1.0000
  C   C27       1.0  0.06946  0.38222  0.54374  1.0000
  H   H46       1.0  0.12660  0.40521  0.47508  1.0000
  C   C28       1.0  0.15660  0.35978  0.56051  1.0000
  H   H47       1.0  0.18927  0.43372  0.57368  1.0000
  H   H48       1.0  0.08796  0.04992  0.48160  1.0000
  H   H49       1.0  0.13197  0.41947  0.59984  1.0000
  H   H50       1.0  0.09060  0.32606  0.48281  1.0000
  H   H51       1.0  0.05203  0.43279  0.63288  1.0000
  H   H52       1.0  0.06929  0.41731  0.56025  1.0000
  Fe  Fe4       1.0  0.32508  0.00597  0.41008  1.0000
  C   C29       1.0  0.50473  0.05412  0.41068  1.0000
  H   H53       1.0  0.49746  0.09391  0.40759  1.0000
  C   C30       1.0  0.46384  0.02096  0.41541  1.0000
  H   H54       1.0  0.19203  0.28514  0.51091  1.0000
  H   H55       1.0  0.03722  0.10425  0.57701  1.0000
  C   C31       1.0  0.07535  0.01355  0.49309  1.0000
  H   H56       1.0  0.10038  0.00643  0.51720  1.0000
  S   S9        1.0  0.00953  0.25349  0.57449  1.0000
  H   H57       1.0  0.00840  0.04222  0.44843  1.0000
  S   S10       1.0  0.04294  0.22481  0.74212  1.0000
  N   N3        1.0  0.02411  0.04470  0.85917  1.0000
  H   H58       1.0  0.49898  0.02400  0.77543  1.0000
  H   H59       1.0  0.08347  0.37207  0.94086  1.0000
  Fe  Fe5       1.0  0.25260  0.12503  0.94725  1.0000
  S   S11       1.0  0.18460  0.10688  0.91286  1.0000
  S   S12       1.0  0.24694  0.19051  0.98704  1.0000
  C   C32       1.0  0.02575  0.24116  0.97993  1.0000
  Fe  Fe6       1.0  0.23955  0.08870  0.86756  1.0000
  S   S13       1.0  0.22927  0.10120  0.80599  1.0000
  Fe  Fe7       1.0  0.19766  0.02810  0.93250  1.0000
  S   S14       1.0  0.30760  0.11492  0.89987  1.0000
  C   C33       1.0  0.09455  0.18984  0.75947  1.0000
  C   C34       1.0  0.09964  0.18371  0.79793  1.0000
  C   C35       1.0  0.14068  0.15658  0.81260  1.0000
  C   C36       1.0  0.17677  0.13509  0.78883  1.0000
  C   C37       1.0  0.17117  0.14054  0.75038  1.0000
  C   C38       1.0  0.13032  0.16788  0.73573  1.0000
  H   H60       1.0  0.07216  0.20073  0.81643  1.0000
  H   H61       1.0  0.14480  0.15293  0.84222  1.0000
  H   H62       1.0  0.19891  0.12408  0.73179  1.0000
  C   C39       1.0  0.05023  0.04542  0.82197  1.0000
  H   H63       1.0  0.33746  0.06773  0.76038  1.0000
  H   H64       1.0  0.05285  0.21777  0.96381  1.0000
  C   C40       1.0  0.37454  0.07073  0.77484  1.0000
  S   S15       1.0  0.26302  0.04713  0.96957  1.0000
  H   H65       1.0  0.12407  0.38909  0.97770  1.0000
  C   C41       1.0  0.04610  0.41242  0.98446  1.0000
  H   H66       1.0  0.10254  0.26245  0.92160  1.0000
  H   H67       1.0  0.33950  0.10579  0.82400  1.0000
  C   C42       1.0  0.08594  0.37338  0.97162  1.0000
  H   H68       1.0  0.02956  0.30352  0.94210  1.0000
  H   H69       1.0  0.09092  0.06221  0.89089  1.0000
  H   H70       1.0  0.35493  0.14825  0.78794  1.0000
  H   H71       1.0  0.14205  0.31780  0.92031  1.0000
  C   C43       1.0  0.16290  0.14119  0.01187  1.0000
  S   S16       1.0  0.24755  0.00812  0.88433  1.0000
  H   H72       1.0  0.17181  0.11262  0.99150  1.0000
  C   C44       1.0  0.46249  0.05707  0.91096  1.0000
  H   H73       1.0  0.40187  0.08285  0.75316  1.0000
  H   H74       1.0  0.43374  0.08585  0.91381  1.0000
  C   C45       1.0  0.02882  0.08711  0.92383  1.0000
  H   H75       1.0  0.12423  0.25297  0.98993  1.0000
  C   C46       1.0  0.36843  0.11437  0.80283  1.0000
  H   H76       1.0  0.05902  0.08306  0.69630  1.0000
  C   C47       1.0  0.05296  0.07836  0.88535  1.0000
  Fe  Fe8       1.0  0.31296  0.03509  0.91926  1.0000
  C   C48       1.0  0.12614  0.29056  0.97691  1.0000
  H   H77       1.0  0.40449  0.12458  0.81651  1.0000
  H   H78       1.0  0.16857  0.25785  0.93106  1.0000
  N   N4        1.0  0.08043  0.32143  0.98754  1.0000
  N   N5        1.0  0.38957  0.02071  0.79093  1.0000
  C   C49       1.0  0.13461  0.28210  0.93499  1.0000
  C   C50       1.0  0.43551  0.02566  0.81535  1.0000
  C   C51       1.0  0.48289  0.04886  0.79727  1.0000
  H   H79       1.0  0.42646  0.04820  0.84056  1.0000
  H   H80       1.0  0.12689  0.17243  0.70608  1.0000
  H   H81       1.0  0.16147  0.30807  0.98750  1.0000
  H   H82       1.0  0.05311  0.11348  0.93983  1.0000
  H   H83       1.0  0.04912  0.42138  0.01443  1.0000
  H   H84       1.0  0.05403  0.08459  0.81177  1.0000
  H   H85       1.0  0.47576  0.08679  0.78594  1.0000
  H   H86       1.0  0.06030  0.11575  0.87274  1.0000
  C   C52       1.0  0.03263  0.29798  0.97257  1.0000
  H   H87       1.0  0.02917  0.23167  0.00963  1.0000
  H   H88       1.0  0.05260  0.44820  0.96951  1.0000
  H   H89       1.0  0.02161  0.48924  0.71668  1.0000
  C   C53       1.0  0.02210  0.08085  0.71101  1.0000
  H   H90       1.0  0.02727  0.02569  0.80066  1.0000
  H   H91       1.0  0.13085  0.04411  0.83854  1.0000
  C   C54       1.0  0.19463  0.18265  0.01656  1.0000
  H   H92       1.0  0.02811  0.05655  0.73517  1.0000
  H   H93       1.0  0.34629  0.00655  0.71678  1.0000
  H   H94       1.0  0.01435  0.09653  0.00885  1.0000
  C   C55       1.0  0.10413  0.02294  0.82069  1.0000
  H   H95       1.0  0.34262  0.02435  0.84014  1.0000
  H   H96       1.0  0.01417  0.11983  0.72067  1.0000
  H   H97       1.0  0.01695  0.01381  0.00908  1.0000
  H   H98       1.0  0.02726  0.05186  0.93996  1.0000
  H   H99       1.0  0.30949  0.00596  0.79989  1.0000
  H   H100      1.0  0.11906  0.02583  0.79196  1.0000
  C   C56       1.0  0.44874  0.00635  0.91240  1.0000
  S   S17       1.0  0.24857  0.93945  0.29111  1.0000
  H   H101      1.0  0.03253  0.50857  0.06207  1.0000
  S   S18       1.0  0.07734  0.75607  0.15559  1.0000
  S   S19       1.0  0.03510  0.86339  0.23270  1.0000
  H   H102      1.0  0.05467  0.78829  0.33627  1.0000
  H   H103      1.0  0.44485  0.94731  0.21126  1.0000
  C   C57       1.0  0.13676  0.86424  0.03538  1.0000
  C   C58       1.0  0.49208  0.97718  0.31475  1.0000
  Fe  Fe9       1.0  0.07163  0.79865  0.10181  1.0000
  H   H104      1.0  0.05538  0.86660  0.03601  1.0000
  H   H105      1.0  0.20029  0.93550  0.08610  1.0000
  Fe  Fe10      1.0  0.25217  0.96479  0.35123  1.0000
  C   C59       1.0  0.18919  0.91820  0.27500  1.0000
  C   C60       1.0  0.18671  0.88530  0.24441  1.0000
  C   C61       1.0  0.13970  0.86869  0.23079  1.0000
  C   C62       1.0  0.09485  0.88505  0.24766  1.0000
  C   C63       1.0  0.09737  0.91879  0.27769  1.0000
  C   C64       1.0  0.14426  0.93502  0.29149  1.0000
  H   H106      1.0  0.22128  0.87203  0.23151  1.0000
  H   H107      1.0  0.13824  0.84265  0.20763  1.0000
  H   H108      1.0  0.06298  0.93252  0.29036  1.0000
  H   H109      1.0  0.14567  0.96132  0.31445  1.0000
  C   C65       1.0  0.12394  0.95447  0.13767  1.0000
  H   H110      1.0  0.50572  0.96264  0.22795  1.0000
  H   H111      1.0  0.19074  0.98131  0.20120  1.0000
  C   C66       1.0  0.26479  0.97621  0.06679  1.0000
  C   C67       1.0  0.15217  0.00466  0.13252  1.0000
  H   H112      1.0  0.02673  0.59667  0.08546  1.0000
  H   H113      1.0  0.29348  0.95756  0.08429  1.0000
  H   H114      1.0  0.25334  0.95850  0.20806  1.0000
  H   H115      1.0  0.08405  0.96268  0.14535  1.0000
  C   C68       1.0  0.01200  0.51650  0.08741  1.0000
  H   H116      1.0  0.39884  0.97620  0.34588  1.0000
  Fe  Fe11      1.0  0.02982  0.81928  0.17855  1.0000
  H   H117      1.0  0.06203  0.99593  0.06648  1.0000
  H   H118      1.0  0.46599  0.91876  0.25265  1.0000
  H   H119      1.0  0.27684  0.96877  0.14387  1.0000
  C   C69       1.0  0.39919  0.97297  0.31503  1.0000
  S   S20       1.0  0.14211  0.81755  0.06948  1.0000
  H   H120      1.0  0.13984  0.93149  0.16035  1.0000
  C   C70       1.0  0.23559  0.96852  0.14989  1.0000
  C   C71       1.0  0.21161  0.97573  0.08466  1.0000
  C   C72       1.0  0.39428  0.91684  0.30499  1.0000
  H   H121      1.0  0.12310  0.93188  0.11170  1.0000
  H   H122      1.0  0.49718  0.93752  0.30612  1.0000
  H   H123      1.0  0.22430  0.92826  0.14759  1.0000
  H   H124      1.0  0.42719  0.89429  0.31403  1.0000
  C   C73       1.0  0.03371  0.82343  0.34327  1.0000
  S   S21       1.0  0.02890  0.86360  0.12611  1.0000
  H   H125      1.0  0.36078  0.90129  0.31951  1.0000
  H   H126      1.0  0.26361  0.95506  0.04017  1.0000
  H   H127      1.0  0.48972  0.97538  0.34543  1.0000
  H   H128      1.0  0.38662  0.91142  0.27504  1.0000
  H   H129      1.0  0.04814  0.85155  0.32327  1.0000
  C   C74       1.0  0.00880  0.56662  0.10063  1.0000
  C   C75       1.0  0.46649  0.95436  0.23714  1.0000
  H   H130      1.0  0.18486  0.99302  0.06460  1.0000
  N   N6        1.0  0.20735  0.00035  0.12236  1.0000
  C   C76       1.0  0.23019  0.98434  0.19097  1.0000
  N   N7        1.0  0.44440  0.00021  0.29934  1.0000
  H   H131      1.0  0.36314  0.99016  0.30552  1.0000
  H   H132      1.0  0.21734  0.86939  0.02736  1.0000
  C   C77       1.0  0.44317  0.00039  0.25748  1.0000
  H   H133      1.0  0.40355  0.00482  0.24753  1.0000
  C   C78       1.0  0.08950  0.88222  0.02419  1.0000
  H   H134      1.0  0.09166  0.78529  0.53842  1.0000
  H   H135      1.0  0.15755  0.78071  0.48925  1.0000
  S   S22       1.0  0.05706  0.86881  0.58460  1.0000
  S   S23       1.0  0.03002  0.61445  0.61389  1.0000
  C   C79       1.0  0.03208  0.79634  0.40799  1.0000
  H   H136      1.0  0.05986  0.77073  0.46173  1.0000
  Fe  Fe12      1.0  0.24578  0.92736  0.43047  1.0000
  S   S24       1.0  0.18823  0.95847  0.39148  1.0000
  S   S25       1.0  0.22307  0.85492  0.45804  1.0000
  N   N8        1.0  0.04420  0.83953  0.38271  1.0000
  H   H137      1.0  0.19272  0.93645  0.50722  1.0000
  H   H138      1.0  0.13024  0.97356  0.45949  1.0000
  H   H139      1.0  0.03676  0.96485  0.54944  1.0000
  C   C80       1.0  0.04289  0.80515  0.44964  1.0000
  C   C81       1.0  0.08866  0.97309  0.46374  1.0000
  H   H140      1.0  0.06970  0.83604  0.45526  1.0000
  H   H141      1.0  0.44272  0.94370  0.42331  1.0000
  S   S26       1.0  0.30901  0.92817  0.38856  1.0000
  C   C82       1.0  0.10477  0.86349  0.55065  1.0000
  C   C83       1.0  0.13403  0.90579  0.54214  1.0000
  C   C84       1.0  0.17045  0.90360  0.51374  1.0000
  C   C85       1.0  0.17860  0.85865  0.49432  1.0000
  C   C86       1.0  0.15073  0.81579  0.50380  1.0000
  C   C87       1.0  0.11341  0.81833  0.53159  1.0000
  H   H142      1.0  0.12866  0.94031  0.55766  1.0000
  C   C88       1.0  0.47376  0.96963  0.41957  1.0000
  H   H143      1.0  0.01322  0.93616  0.50965  1.0000
  H   H144      1.0  0.05525  0.94568  0.36877  1.0000
  H   H145      1.0  0.13619  0.78845  0.41015  1.0000
  C   C89       1.0  0.09921  0.85443  0.38528  1.0000
  H   H146      1.0  0.07908  0.52240  0.63389  1.0000
  C   C90       1.0  0.13773  0.81086  0.38436  1.0000
  H   H147      1.0  0.07870  0.93464  0.47267  1.0000
  C   C91       1.0  0.04227  0.51253  0.62307  1.0000
  S   S27       1.0  0.01291  0.75134  0.64399  1.0000
  H   H148      1.0  0.10699  0.87707  0.41069  1.0000
  H   H149      1.0  0.07152  0.98134  0.43646  1.0000
  H   H150      1.0  0.05161  0.76118  0.39888  1.0000
  S   S28       1.0  0.26636  0.00217  0.45580  1.0000
  H   H151      1.0  0.10973  0.87971  0.36204  1.0000
  H   H152      1.0  0.17653  0.82678  0.38273  1.0000
  H   H153      1.0  0.02129  0.89633  0.42260  1.0000
  C   C92       1.0  0.01620  0.93050  0.36924  1.0000
  H   H154      1.0  0.01055  0.57415  0.68599  1.0000
  C   C93       1.0  0.01181  0.88373  0.39401  1.0000
  C   C94       1.0  0.00874  0.97062  0.52694  1.0000
  H   H155      1.0  0.13282  0.78605  0.35985  1.0000
  C   C95       1.0  0.00979  0.55081  0.61052  1.0000
  H   H156      1.0  0.04998  0.93176  0.98708  1.0000
  C   C96       1.0  0.13050  0.94028  0.98167  1.0000
  H   H157      1.0  0.47658  0.93015  0.90972  1.0000
  C   C97       1.0  0.08646  0.91944  0.99683  1.0000
  H   H158      1.0  0.31892  0.93769  0.84599  1.0000
  H   H159      1.0  0.02090  0.94626  0.82354  1.0000
  S   S29       1.0  0.38473  0.98701  0.91764  1.0000
  H   H160      1.0  0.38590  0.93853  0.84218  1.0000
  C   C98       1.0  0.17771  0.92233  0.99283  1.0000
  C   C99       1.0  0.02310  0.99237  0.87497  1.0000
  H   H161      1.0  0.21183  0.93747  0.98069  1.0000
  H   H162      1.0  0.34738  0.91937  0.80324  1.0000
  C   C100      1.0  0.48674  0.96950  0.90861  1.0000
  C   C101      1.0  0.35058  0.94615  0.82676  1.0000
  C   C102      1.0  0.35734  0.97310  0.73309  1.0000
  H   H163      1.0  0.36966  0.94380  0.71287  1.0000
  H   H164      1.0  0.02069  0.57453  0.73367  1.0000
  H   H165      1.0  0.03158  0.65536  0.74135  1.0000
  H   H166      1.0  0.44761  0.98840  0.82597  1.0000
  H   H167      1.0  0.41694  0.94883  0.77020  1.0000
  H   H168      1.0  0.32367  0.95824  0.74765  1.0000
  C   C103      1.0  0.40164  0.98498  0.75954  1.0000
  H   H169      1.0  0.03696  0.97777  0.71512  1.0000
  S   S30       1.0  0.12527  0.98874  0.94893  1.0000
  H   H170      1.0  0.10497  0.98260  0.82812  1.0000
  C   C104      1.0  0.18075  0.88384  0.01922  1.0000
  H   H171      1.0  0.06177  0.97975  0.88281  1.0000
  H   H172      1.0  0.43222  0.00039  0.74174  1.0000
  C   C105      1.0  0.34642  0.00150  0.81431  1.0000
  Fe  Fe13      1.0  0.89125  0.25368  0.09694  1.0000
  S   S31       1.0  0.93218  0.19893  0.13262  1.0000
  S   S32       1.0  0.82155  0.22341  0.06854  1.0000
  H   H173      1.0  0.83789  0.24160  0.30515  1.0000
  H   H174      1.0  0.87035  0.01906  0.28469  1.0000
  Fe  Fe14      1.0  0.94074  0.26274  0.17251  1.0000
  S   S33       1.0  0.93312  0.24365  0.23352  1.0000
  S   S34       1.0  0.96105  0.27773  0.06701  1.0000
  S   S35       1.0  0.89388  0.31690  0.13890  1.0000
  S   S36       1.0  0.77425  0.07883  0.28387  1.0000
  H   H175      1.0  0.81444  0.32210  0.27771  1.0000
  C   C106      1.0  0.89176  0.19414  0.24520  1.0000
  C   C107      1.0  0.84963  0.18289  0.22334  1.0000
  C   C108      1.0  0.81415  0.14712  0.23534  1.0000
  C   C109      1.0  0.82053  0.12227  0.26919  1.0000
  C   C110      1.0  0.86386  0.13183  0.29020  1.0000
  C   C111      1.0  0.89925  0.16777  0.27832  1.0000
  H   H176      1.0  0.84351  0.20295  0.19775  1.0000
  H   H177      1.0  0.78107  0.13948  0.21864  1.0000
  H   H178      1.0  0.87005  0.11173  0.31567  1.0000
  H   H179      1.0  0.93219  0.17575  0.29505  1.0000
  H   H180      1.0  0.54552  0.03973  0.32229  1.0000
  Fe  Fe15      1.0  0.96791  0.33793  0.11152  1.0000
  C   C112      1.0  0.94347  0.08270  0.04007  1.0000
  C   C113      1.0  0.89960  0.02593  0.21506  1.0000
  H   H181      1.0  0.75944  0.20927  0.30897  1.0000
  H   H182      1.0  0.87478  0.29179  0.32231  1.0000
  H   H183      1.0  0.85578  0.18556  0.35462  1.0000
  C   C114      1.0  0.80024  0.31336  0.30598  1.0000
  H   H184      1.0  0.90513  0.09936  0.03738  1.0000
  H   H185      1.0  0.54488  0.01387  0.27562  1.0000
  H   H186      1.0  0.77803  0.13156  0.04152  1.0000
  C   C115      1.0  0.83635  0.27492  0.32380  1.0000
  H   H187      1.0  0.77660  0.16360  0.34368  1.0000
  H   H188      1.0  0.95369  0.09138  0.06937  1.0000
  H   H189      1.0  0.79875  0.34927  0.32170  1.0000
  C   C116      1.0  0.96304  0.48761  0.13962  1.0000
  H   H190      1.0  0.92988  0.03228  0.19410  1.0000
  H   H191      1.0  0.94538  0.45753  0.15493  1.0000
  H   H192      1.0  0.81745  0.03955  0.21320  1.0000
  H   H193      1.0  0.76149  0.29825  0.30260  1.0000
  H   H194      1.0  0.98541  0.15072  0.02769  1.0000
  H   H195      1.0  0.96767  0.07049  0.26573  1.0000
  H   H196      1.0  0.84504  0.05589  0.06418  1.0000
  H   H197      1.0  0.89912  0.06171  0.23120  1.0000
  C   C117      1.0  0.97342  0.03440  0.28034  1.0000
  N   N9        1.0  0.94192  0.02702  0.03218  1.0000
  Fe  Fe16      1.0  0.76850  0.05589  0.34417  1.0000
  H   H198      1.0  0.84992  0.04632  0.16938  1.0000
  C   C118      1.0  0.84787  0.02396  0.19523  1.0000
  C   C119      1.0  0.75511  0.19860  0.33842  1.0000
  H   H199      1.0  0.93091  0.24017  0.34793  1.0000
  Fe  Fe17      1.0  0.00291  0.22749  0.10601  1.0000
  S   S37       1.0  0.99455  0.41408  0.08860  1.0000
  C   C120      1.0  0.85239  0.01521  0.06011  1.0000
  H   H200      1.0  0.94956  0.03349  0.30562  1.0000
  H   H201      1.0  0.71454  0.18942  0.34258  1.0000
  C   C121      1.0  0.98936  0.47658  0.10685  1.0000
  C   C122      1.0  0.83398  0.18748  0.02848  1.0000
  H   H202      1.0  0.92245  0.01276  0.08949  1.0000
  H   H203      1.0  0.82929  0.33042  0.44550  1.0000
  H   H204      1.0  0.58591  0.06227  0.40576  1.0000
  H   H205      1.0  0.86601  0.32422  0.38282  1.0000
  S   S38       1.0  0.70745  0.08558  0.38221  1.0000
  Fe  Fe18      1.0  0.77001  0.09095  0.42432  1.0000
  S   S39       1.0  0.78536  0.16110  0.45789  1.0000
  C   C123      1.0  0.93578  0.04327  0.47342  1.0000
  H   H206      1.0  0.91640  0.04033  0.44623  1.0000
  S   S40       1.0  0.83110  0.06765  0.38472  1.0000
  C   C124      1.0  0.98102  0.06329  0.68328  1.0000
  S   S41       1.0  0.92662  0.13179  0.59779  1.0000
  H   H207      1.0  0.93682  0.19774  0.38562  1.0000
  H   H208      1.0  0.74247  0.27237  0.36218  1.0000
  C   C125      1.0  0.98882  0.01942  0.46998  1.0000
  H   H209      1.0  0.88310  0.07288  0.66941  1.0000
  S   S42       1.0  0.95835  0.25527  0.65752  1.0000
  C   C126      1.0  0.82457  0.15274  0.49679  1.0000
  C   C127      1.0  0.84838  0.19445  0.51308  1.0000
  C   C128      1.0  0.88020  0.18838  0.54388  1.0000
  C   C129      1.0  0.88736  0.14070  0.55906  1.0000
  C   C130      1.0  0.86285  0.09915  0.54320  1.0000
  C   C131      1.0  0.83205  0.10503  0.51188  1.0000
  H   H210      1.0  0.84220  0.23155  0.50196  1.0000
  H   H211      1.0  0.89842  0.22075  0.55627  1.0000
  H   H212      1.0  0.86793  0.06228  0.55491  1.0000
  H   H213      1.0  0.81358  0.07280  0.49976  1.0000
  H   H214      1.0  0.93783  0.08405  0.48002  1.0000
  Fe  Fe19      1.0  0.97619  0.19759  0.61376  1.0000
  H   H215      1.0  0.76218  0.22603  0.39385  1.0000
  H   H216      1.0  0.92360  0.26224  0.39532  1.0000
  H   H217      1.0  0.84778  0.20202  0.40142  1.0000
  C   C132      1.0  0.89459  0.03285  0.67298  1.0000
  C   C133      1.0  0.76994  0.24102  0.36571  1.0000
  C   C134      1.0  0.82949  0.30472  0.38808  1.0000
  C   C135      1.0  0.55495  0.03629  0.40958  1.0000
  H   H218      1.0  0.91058  0.47677  0.58487  1.0000
  H   H219      1.0  0.78921  0.27753  0.43802  1.0000
  S   S43       1.0  0.95907  0.38491  0.60582  1.0000
  C   C136      1.0  0.85880  0.21774  0.37412  1.0000
  H   H220      1.0  0.85713  0.26984  0.43985  1.0000
  H   H221      1.0  0.79978  0.33323  0.38223  1.0000
  C   C137      1.0  0.97972  0.44840  0.60845  1.0000
  C   C138      1.0  0.82599  0.29429  0.43006  1.0000
  H   H222      1.0  0.96370  0.09851  0.67247  1.0000
  C   C139      1.0  0.94738  0.48663  0.59575  1.0000
  H   H223      1.0  0.86868  0.02402  0.61625  1.0000
  S   S44       1.0  0.75764  0.01354  0.44674  1.0000
  Fe  Fe20      1.0  0.99806  0.31074  0.62039  1.0000
  N   N10       1.0  0.82367  0.25961  0.36290  1.0000
  H   H224      1.0  0.91152  0.02401  0.49372  1.0000
  H   H225      1.0  0.93605  0.02417  0.62010  1.0000
  C   C140      1.0  0.91554  0.23109  0.37571  1.0000
  H   H226      1.0  0.00060  0.04579  0.65904  1.0000
  H   H227      1.0  0.97493  0.07062  0.53641  1.0000
  H   H228      1.0  0.86121  0.01396  0.68564  1.0000
  H   H229      1.0  0.99406  0.40679  0.52763  1.0000
  C   C141      1.0  0.90077  0.01105  0.63350  1.0000
  Fe  Fe21      1.0  0.69946  0.00571  0.40144  1.0000
  H   H230      1.0  0.96776  0.49338  0.68761  1.0000
  S   S45       1.0  0.85831  0.09958  0.92046  1.0000
  H   H231      1.0  0.95384  0.04072  0.75697  1.0000
  H   H232      1.0  0.66812  0.25476  0.91692  1.0000
  H   H233      1.0  0.94798  0.05656  0.88019  1.0000
  H   H234      1.0  0.56925  0.19621  0.91181  1.0000
  C   C142      1.0  0.84805  0.13290  0.96212  1.0000
  S   S46       1.0  0.61511  0.05341  0.89465  1.0000
  C   C143      1.0  0.81305  0.11642  0.98848  1.0000
  C   C144      1.0  0.73849  0.25012  0.97488  1.0000
  H   H235      1.0  0.79150  0.08260  0.98348  1.0000
  C   C145      1.0  0.51354  0.07057  0.90547  1.0000
  C   C146      1.0  0.86985  0.20326  0.00254  1.0000
  C   C147      1.0  0.63111  0.15224  0.96704  1.0000
  C   C148      1.0  0.96388  0.11824  0.84331  1.0000
  H   H236      1.0  0.52358  0.10987  0.90410  1.0000
  H   H237      1.0  0.62122  0.08122  0.99564  1.0000
  H   H238      1.0  0.73682  0.14180  0.94433  1.0000
  H   H239      1.0  0.92285  0.12640  0.84030  1.0000
  H   H240      1.0  0.70657  0.19514  0.87239  1.0000
  C   C149      1.0  0.97037  0.06264  0.85442  1.0000
  H   H241      1.0  0.60948  0.13352  0.94455  1.0000
  C   C150      1.0  0.55156  0.03369  0.90176  1.0000
  Fe  Fe22      1.0  0.69052  0.01082  0.89016  1.0000
  Fe  Fe23      1.0  0.80151  0.04030  0.90324  1.0000
  H   H242      1.0  0.60239  0.17303  0.98391  1.0000
  C   C151      1.0  0.87641  0.17633  0.96925  1.0000
  H   H243      1.0  0.90346  0.18926  0.94891  1.0000
  S   S47       1.0  0.74757  0.05439  0.85676  1.0000
  C   C152      1.0  0.70662  0.15874  0.92720  1.0000
  N   N11       1.0  0.66991  0.18797  0.95133  1.0000
  C   C153      1.0  0.64180  0.22790  0.93021  1.0000
  C   C154      1.0  0.92292  0.04277  0.73653  1.0000
  H   H244      1.0  0.68781  0.12604  0.91376  1.0000
  H   H245      1.0  0.75107  0.22274  0.90432  1.0000
  H   H246      1.0  0.92316  0.12533  0.72841  1.0000
  H   H247      1.0  0.95838  0.12109  0.98732  1.0000
  H   H248      1.0  0.89435  0.01514  0.74656  1.0000
  C   C155      1.0  0.80569  0.14397  0.02141  1.0000
  H   H249      1.0  0.72574  0.28089  0.95664  1.0000
  H   H250      1.0  0.94532  0.03721  0.97267  1.0000
  C   C156      1.0  0.73302  0.18731  0.89543  1.0000
  H   H251      1.0  0.76358  0.16313  0.88379  1.0000
  H   H252      1.0  0.88355  0.03782  0.99085  1.0000
  H   H253      1.0  0.71490  0.18354  0.00139  1.0000
  H   H254      1.0  0.62220  0.17609  0.88381  1.0000
  H   H255      1.0  0.51261  0.05308  0.81883  1.0000
  H   H256      1.0  0.68343  0.08860  0.97745  1.0000
  C   C157      1.0  0.89921  0.09558  0.74071  1.0000
  H   H257      1.0  0.61849  0.25137  0.94950  1.0000
  H   H258      1.0  0.97824  0.14445  0.86482  1.0000
  C   C158      1.0  0.60591  0.20819  0.89966  1.0000
  H   H259      1.0  0.59751  0.23882  0.87982  1.0000
  H   H260      1.0  0.89129  0.23717  0.00759  1.0000
  C   C159      1.0  0.65186  0.10908  0.99110  1.0000
  H   H261      1.0  0.95069  0.04021  0.83270  1.0000
  H   H262      1.0  0.89435  0.10455  0.77062  1.0000
  H   H263      1.0  0.77221  0.23083  0.96317  1.0000
  H   H264      1.0  0.86089  0.09694  0.72825  1.0000
  H   H265      1.0  0.66856  0.23168  0.00225  1.0000
  C   C160      1.0  0.69644  0.21220  0.98383  1.0000
  H   H266      1.0  0.99068  0.10427  0.92229  1.0000
  H   H267      1.0  0.75130  0.26790  0.00121  1.0000
  C   C161      1.0  0.92088  0.01911  0.99380  1.0000
  H   H268      1.0  0.98218  0.12677  0.81641  1.0000
  H   H269      1.0  0.99869  0.31693  0.98461  1.0000
  H   H270      1.0  0.98721  0.22975  0.97111  1.0000
  N   N12       1.0  0.94029  0.02884  0.69792  1.0000
  C   C162      1.0  0.97719  0.11409  0.01415  1.0000
  H   H271      1.0  0.00699  0.40025  0.97816  1.0000
  H   H272      1.0  0.96031  0.49588  0.73748  1.0000
  H   H273      1.0  0.66370  0.12258  0.01891  1.0000
  S   S48       1.0  0.88944  0.86323  0.09576  1.0000
  H   H274      1.0  0.85163  0.94437  0.32201  1.0000
  H   H275      1.0  0.80175  0.90988  0.06532  1.0000
  H   H276      1.0  0.92725  0.72195  0.02763  1.0000
  C   C163      1.0  0.86384  0.86084  0.05082  1.0000
  H   H277      1.0  0.91281  0.96072  0.05982  1.0000
  C   C164      1.0  0.83066  0.73640  0.12066  1.0000
  S   S49       1.0  0.95747  0.77955  0.16496  1.0000
  C   C165      1.0  0.79746  0.63263  0.02372  1.0000
  C   C166      1.0  0.81994  0.88864  0.04334  1.0000
  H   H278      1.0  0.81908  0.71027  0.03313  1.0000
  H   H279      1.0  0.90140  0.61111  0.04194  1.0000
  H   H280      1.0  0.88294  0.90331  0.29008  1.0000
  H   H281      1.0  0.90644  0.71021  0.11082  1.0000
  H   H282      1.0  0.83417  0.00180  0.03423  1.0000
  Fe  Fe24      1.0  0.95994  0.81970  0.11073  1.0000
  S   S50       1.0  0.00231  0.75762  0.08138  1.0000
  C   C167      1.0  0.84561  0.62787  0.10422  1.0000
  H   H283      1.0  0.93914  0.54562  0.17812  1.0000
  C   C168      1.0  0.98258  0.57758  0.13348  1.0000
  S   S51       1.0  0.97504  0.64018  0.15101  1.0000
  H   H284      1.0  0.91821  0.94943  0.31676  1.0000
  C   C169      1.0  0.87136  0.71476  0.09416  1.0000
  H   H285      1.0  0.80633  0.63365  0.11462  1.0000
  H   H286      1.0  0.92648  0.90213  0.23585  1.0000
  H   H287      1.0  0.83469  0.97442  0.25988  1.0000
  H   H288      1.0  0.87045  0.63298  0.12889  1.0000
  H   H289      1.0  0.87947  0.74510  0.07402  1.0000
  H   H290      1.0  0.79598  0.74782  0.10570  1.0000
  C   C170      1.0  0.95961  0.53773  0.15272  1.0000
  H   H291      1.0  0.76874  0.60833  0.03717  1.0000
  H   H292      1.0  0.96171  0.78182  0.34919  1.0000
  N   N13       1.0  0.85836  0.66598  0.07469  1.0000
  C   C171      1.0  0.87334  0.98159  0.27095  1.0000
  H   H293      1.0  0.84576  0.77105  0.13393  1.0000
  H   H294      1.0  0.77945  0.68466  0.06687  1.0000
  H   H295      1.0  0.83556  0.54881  0.11712  1.0000
  H   H296      1.0  0.82884  0.56109  0.06890  1.0000
  H   H297      1.0  0.99112  0.96195  0.03276  1.0000
  H   H298      1.0  0.93824  0.64810  0.07192  1.0000
  C   C172      1.0  0.90925  0.93283  0.21923  1.0000
  H   H299      1.0  0.86951  0.92045  0.21486  1.0000
  H   H300      1.0  0.89064  0.56034  0.09040  1.0000
  C   C173      1.0  0.85045  0.57165  0.09387  1.0000
  H   H301      1.0  0.82121  0.71030  0.14345  1.0000
  C   C174      1.0  0.81359  0.67567  0.04997  1.0000
  C   C175      1.0  0.96460  0.98857  0.25465  1.0000
  C   C176      1.0  0.88277  0.94218  0.30136  1.0000
  H   H302      1.0  0.95374  0.84742  0.33705  1.0000
  C   C177      1.0  0.97781  0.81358  0.33338  1.0000
  C   C178      1.0  0.93621  0.93144  0.18130  1.0000
  H   H303      1.0  0.91756  0.95593  0.16069  1.0000
  C   C179      1.0  0.90480  0.64977  0.05320  1.0000
  C   C180      1.0  0.99390  0.00372  0.03378  1.0000
  H   H304      1.0  0.57432  0.98052  0.31293  1.0000
  H   H305      1.0  0.97567  0.80298  0.30356  1.0000
  Fe  Fe25      1.0  0.00447  0.71919  0.13704  1.0000
  C   C181      1.0  0.90931  0.00238  0.06119  1.0000
  H   H306      1.0  0.93422  0.89253  0.17012  1.0000
  H   H307      1.0  0.92108  0.81215  0.02782  1.0000
  H   H308      1.0  0.83326  0.99559  0.08332  1.0000
  H   H309      1.0  0.97696  0.95445  0.26986  1.0000
  H   H310      1.0  0.00340  0.92272  0.34059  1.0000
  N   N14       1.0  0.91162  0.98227  0.23994  1.0000
  H   H311      1.0  0.97681  0.94119  0.18353  1.0000
  H   H312      1.0  0.83666  0.98572  0.18639  1.0000
  H   H313      1.0  0.99218  0.99206  0.23148  1.0000
  H   H314      1.0  0.00648  0.00319  0.09430  1.0000
  C   C182      1.0  0.54169  0.00483  0.30544  1.0000
  Fe  Fe26      1.0  0.90775  0.75663  0.57131  1.0000
  S   S52       1.0  0.92626  0.82316  0.60708  1.0000
  S   S53       1.0  0.84448  0.76660  0.53039  1.0000
  H   H315      1.0  0.63866  0.96303  0.53646  1.0000
  C   C183      1.0  0.85674  0.60910  0.68621  1.0000
  Fe  Fe27      1.0  0.93063  0.76781  0.65327  1.0000
  S   S54       1.0  0.90479  0.70199  0.61872  1.0000
  C   C184      1.0  0.75737  0.96400  0.61597  1.0000
  S   S55       1.0  0.88311  0.94213  0.41635  1.0000
  H   H316      1.0  0.92708  0.59040  0.65875  1.0000
  C   C185      1.0  0.71595  0.94553  0.58907  1.0000
  H   H317      1.0  0.74636  0.98077  0.52582  1.0000
  H   H318      1.0  0.76100  0.92431  0.50133  1.0000
  H   H319      1.0  0.79969  0.87685  0.58054  1.0000
  C   C186      1.0  0.85588  0.81430  0.49791  1.0000
  C   C187      1.0  0.90349  0.83685  0.49527  1.0000
  C   C188      1.0  0.91173  0.87545  0.46964  1.0000
  C   C189      1.0  0.87204  0.89290  0.44750  1.0000
  C   C190      1.0  0.82429  0.87080  0.45038  1.0000
  C   C191      1.0  0.81646  0.83103  0.47514  1.0000
  H   H320      1.0  0.93398  0.82440  0.51291  1.0000
  H   H321      1.0  0.94865  0.89247  0.46758  1.0000
  H   H322      1.0  0.79360  0.88378  0.43309  1.0000
  H   H323      1.0  0.77966  0.81346  0.47688  1.0000
  H   H324      1.0  0.78915  0.93747  0.61943  1.0000
  H   H325      1.0  0.93685  0.56646  0.58697  1.0000
  H   H326      1.0  0.72902  0.85583  0.62508  1.0000
  C   C192      1.0  0.76286  0.94252  0.52923  1.0000
  H   H327      1.0  0.99123  0.78666  0.40633  1.0000
  H   H328      1.0  0.62010  0.91502  0.50463  1.0000
  S   S56       1.0  0.62754  0.96068  0.41221  1.0000
  H   H329      1.0  0.85877  0.86365  0.67401  1.0000
  C   C193      1.0  0.81972  0.94977  0.53677  1.0000
  H   H330      1.0  0.89965  0.96931  0.63353  1.0000
  Fe  Fe28      1.0  0.81427  0.98944  0.40377  1.0000
  H   H331      1.0  0.95736  0.94255  0.56895  1.0000
  H   H332      1.0  0.69585  0.86468  0.51622  1.0000
  H   H333      1.0  0.68578  0.92709  0.60573  1.0000
  H   H334      1.0  0.69711  0.98015  0.57878  1.0000
  C   C194      1.0  0.96219  0.53754  0.59685  1.0000
  S   S57       1.0  0.98808  0.73847  0.55546  1.0000
  N   N15       1.0  0.73255  0.91272  0.55700  1.0000
  C   C195      1.0  0.73632  0.83448  0.59909  1.0000
  H   H335      1.0  0.65962  0.87485  0.55720  1.0000
  Fe  Fe29      1.0  0.98706  0.68861  0.60608  1.0000
  H   H336      1.0  0.94016  0.00295  0.55393  1.0000
  C   C196      1.0  0.56494  0.98501  0.41366  1.0000
  H   H337      1.0  0.97421  0.65755  0.68425  1.0000
  H   H338      1.0  0.83535  0.97524  0.51535  1.0000
  H   H339      1.0  0.70099  0.81691  0.58891  1.0000
  H   H340      1.0  0.74085  0.96829  0.64419  1.0000
  H   H341      1.0  0.92892  0.94956  0.52396  1.0000
  H   H342      1.0  0.76235  0.80310  0.60619  1.0000
  C   C197      1.0  0.68567  0.89373  0.53748  1.0000
  C   C198      1.0  0.76195  0.86715  0.56936  1.0000
  C   C199      1.0  0.65347  0.93371  0.51734  1.0000
  H   H343      1.0  0.77013  0.84232  0.54517  1.0000
  H   H344      1.0  0.97118  0.87298  0.39557  1.0000
  H   H345      1.0  0.99123  0.96056  0.38061  1.0000
  C   C200      1.0  0.95553  0.96676  0.54400  1.0000
  H   H346      1.0  0.53147  0.91210  0.42211  1.0000
  H   H347      1.0  0.84076  0.91383  0.53387  1.0000
  H   H348      1.0  0.90028  0.54200  0.68612  1.0000
  H   H349      1.0  0.67426  0.95153  0.49415  1.0000
  H   H350      1.0  0.97102  0.96354  0.66901  1.0000
  H   H351      1.0  0.83450  0.59463  0.66233  1.0000
  H   H352      1.0  0.82763  0.96712  0.56398  1.0000
  Fe  Fe30      1.0  0.00673  0.80175  0.59470  1.0000
  H   H353      1.0  0.98381  0.98125  0.45763  1.0000
  S   S58       1.0  0.75596  0.97518  0.35991  1.0000
  C   C201      1.0  0.52412  0.95184  0.41883  1.0000
  C   C202      1.0  0.90900  0.58284  0.68607  1.0000
  H   H354      1.0  0.85925  0.65029  0.68256  1.0000
  H   H355      1.0  0.77222  0.00114  0.60724  1.0000
  H   H356      1.0  0.00738  0.81367  0.46494  1.0000
  C   C203      1.0  0.99981  0.95128  0.84989  1.0000
  Fe  Fe31      1.0  0.77306  0.98014  0.83332  1.0000
  S   S59       1.0  0.71225  0.93698  0.86306  1.0000
  S   S60       1.0  0.79211  0.97510  0.77185  1.0000
  C   C204      1.0  0.85408  0.86935  0.70352  1.0000
  H   H357      1.0  0.76556  0.91081  0.00192  1.0000
  Fe  Fe32      1.0  0.76996  0.93156  0.90908  1.0000
  S   S61       1.0  0.79476  0.85822  0.93468  1.0000
  H   H358      1.0  0.95224  0.94520  0.97743  1.0000
  C   C205      1.0  0.95754  0.97468  0.69716  1.0000
  S   S62       1.0  0.83171  0.96973  0.87718  1.0000
  H   H359      1.0  0.93308  0.60030  0.81250  1.0000
  H   H360      1.0  0.95395  0.66737  0.00673  1.0000
  H   H361      1.0  0.95925  0.95841  0.84415  1.0000
  H   H362      1.0  0.89416  0.55371  0.75184  1.0000
  H   H363      1.0  0.89111  0.61979  0.75976  1.0000
  C   C206      1.0  0.79942  0.88927  0.00748  1.0000
  C   C207      1.0  0.87298  0.83365  0.72823  1.0000
  C   C208      1.0  0.86593  0.84103  0.76646  1.0000
  C   C209      1.0  0.84070  0.88396  0.78006  1.0000
  C   C210      1.0  0.82204  0.91978  0.75547  1.0000
  C   C211      1.0  0.82844  0.91217  0.71715  1.0000
  H   H364      1.0  0.89553  0.96284  0.95400  1.0000
  H   H365      1.0  0.88004  0.81338  0.78571  1.0000
  H   H366      1.0  0.83559  0.88919  0.80961  1.0000
  H   H367      1.0  0.00176  0.91476  0.86459  1.0000
  N   N16       1.0  0.94445  0.59676  0.71731  1.0000
  H   H368      1.0  0.83465  0.60073  0.71158  1.0000
  C   C212      1.0  0.86512  0.83199  0.98685  1.0000
  H   H369      1.0  0.81320  0.93925  0.69800  1.0000
  H   H370      1.0  0.88915  0.68219  0.99812  1.0000
  S   S63       1.0  0.90496  0.77900  0.71273  1.0000
  H   H371      1.0  0.92347  0.67530  0.71399  1.0000
  H   H372      1.0  0.99168  0.96744  0.75286  1.0000
  C   C213      1.0  0.82178  0.86068  0.97918  1.0000
  H   H373      1.0  0.88248  0.80981  0.96499  1.0000
  C   C214      1.0  0.91786  0.58825  0.75379  1.0000
  H   H374      1.0  0.00256  0.71412  0.73188  1.0000
  C   C215      1.0  0.98415  0.50784  0.71388  1.0000
  H   H375      1.0  0.56660  0.95421  0.90052  1.0000
  H   H376      1.0  0.95386  0.54091  0.79599  1.0000
  H   H377      1.0  0.97723  0.67775  0.76844  1.0000
  C   C216      1.0  0.53787  0.98301  0.90338  1.0000
  C   C217      1.0  0.00080  0.96003  0.72338  1.0000
  C   C218      1.0  0.91508  0.96399  0.98122  1.0000
  H   H378      1.0  0.82918  0.60910  0.01366  1.0000
  H   H379      1.0  0.78055  0.64896  0.99832  1.0000
  S   S64       1.0  0.74378  0.00181  0.93876  1.0000
  H   H380      1.0  0.89172  0.94224  0.00069  1.0000
  C   C219      1.0  0.99168  0.56535  0.71271  1.0000
  C   C220      1.0  0.95777  0.65142  0.71236  1.0000
  C   C221      1.0  0.95150  0.58127  0.78846  1.0000
  H   H381      1.0  0.99002  0.59692  0.78654  1.0000
  H   H382      1.0  0.92523  0.94942  0.70364  1.0000
  C   C222      1.0  0.99458  0.67486  0.74050  1.0000
  C   C223      1.0  0.91893  0.68267  0.01969  1.0000
  H   H383      1.0  0.00103  0.99167  0.90127  1.0000
  C   C224      1.0  0.88670  0.83283  0.02243  1.0000
  H   H384      1.0  0.00698  0.91876  0.72090  1.0000
