data_image0
_chemical_formula_structural       FeSH2C2FeS2FeS2FeSFeS3FeS3FeSFeSH2C6H4C6H4C6H3C2H5C3H3NHC4H2C2SH3C2H4CHC2H5CHSHNH5CHCHCH2CNH2C2H6SH7CH4CH4NC2HC3HCH4CH13CHNC8H6C2H3CH3FeHCH6SH3CH5FeS2FeS2FeSFeS3FeHFeHC2SHFe2S2FeS2FeSFeS3H2SH4SC6H4C6H6SC3H4C6H4C5HCH2C6H7C2H3CH3NH2CNHC2H4CH2C5H7CHCHCH5CH3CH2CHC2HC2H2CH3CH2C3HFeHC2H8CH8SCH4CNHC2H2CH4CH3CHNC2H5CH2C3HCHCH5CHCH6CH5CHCNC6H2SH3C3HCHSCH8NHNCH2SHCHC2HCNSCHCNFeS2FeSFeSFeS2FeS2FeSFeS3FeS2H2SH5C2HCH2CH3C6H5C2H2SC6H3CHCH3CH3C4H2C2H2CHNH6SH2C2H4C2H7CH2NH2C2FeC2H3FeH5CH2SCH8NC4HC3H12CH4NC8H13SH6C2HC2H3FeCHCH3CH3C3H2FeSFe2S2FeS2FeS2FeS2FeSFeS3CH2C7H5CNC2HC2HSC6H5C3HFeH2CHCH2C2H3CHCHCHCHSC2NC5H4CH12CHSH2CNCHC2HCSH4CH2CHC2H6CNHCHCNCHCHCH3CH4C4H20CH2CH2CH5CHCHCHC2NH3CH5CH3S2H2SHCFeS2FeS2FeSFeS3FeHSHFe2SNSHFe2NCSHFeS2FeS2FeSFeS3HC4HCH4C6H4C4HC2H2C6H5CHC3H3FeC6H4C7H4SC2H3NH4SH5CHCHCHCH2CH2C2HCH3NC8H23CHSH5CSH8CH8CH2NH2CHSHC2H2C2HC2HC4H7CHCH5CH4CHCH6FeS2FeS2FeSFeS3HFeS3Fe2S2H2CH2CFeSH3C2HSHFeSHCHCH2C6H2CHC6H4C6H4NC4H2C2H8CH2SH5CH2CSH2CNC8H22CH2CH2CS2HCH2CNHNCH3CH2CH2CHCHC4H3CH2SH2CH3CHCH4CH3CH2FeHFeSFeSFeSFeS3FeS2FeS2FeSFeS3C6H5SC4H5C2HCH2CHC2HCH2C4SH3CHC2H2CH6C2HNH9CHC2HNC2HCHCHNC2H6NC5HCH9C3HCH12NHCHC2HCHCHCHC2HCH2CSH6CH7C2H8CH3SH3C2H3CFeHSH2SFeS2FeS2FeSFeS3CH3SCHFeS2FeS2FeSFeS3C6H5CHC2H5C6H4C6H4C7H3C6H5C6H3NC2HCH2SH4CH2CHC2H3CH5C2HCHC2HNHCSH7C2H5CH2CH4NSCH6CHC2H4SH3SC2H11CFeH2CH3CH5C2H2C2NH2C2H2CNH2FeH6CH2FeHFeH4FeC4HC3HSHC2H2CH5CH2CH2CH7CFeSFeS2FeSFeS3FeS2FeS2FeSFeS3HFeHC3H3C2HC2HC7H4C6H7C3H6NC4HCHCH2CH12C2H5NCH3SHCHCH3CH15CH9SC2HNC4HC3HCHC2H5SCH8NC8H17NHCHCH2NCH2C2H2CSCHC2H2SH3CH9CH4CH3CFeS2FeS2FeSFeS3CFeS2FeS2Fe2S3HC3H4CHC7H4C6H5CHCH3NHNHCH2C3H2CH3CHCH5CHC3H3CSC2H2NH2C2H2C3H6SH2C3HCH2CH3CH3CH5CHSHC2H3NC2H3NC2HCH7C3H4CH3CH4CH2CH5C2H2CHC3H2CH3FeH2C2HCH9C2HC2H2FeS2FeS2FeSFeS3FeS2FeSCHCHFeS2FeS2FeSFeS3HSC2SH5C6HCH2C6H4C6HCH2C6H4C6H4CH3C2HCHC6H4NC8H21CH5C2HCH2CH5C2H4Fe2H2CH2NCHCH3CH3CFeH2CHSHCHNH2NH2SCH11C2H4NC2H2CH3SH4SHNSCH2C4HSCHCH8CHC2HCHCHC2H2SHCHCHFeH5CH2FeS2FeS2FeSFeS3FeS2FeS2Fe2S2HFeH4CHC3NC3H4CHCH2CH2C2H4C3HC4H2C6H3NC8H20C2H2CHCH5CSH3CH2CSHNHNHCHCH3CH2CH3CHCH4CH3CH2SCHSCHC2HC2HCHCHSH2CH2CH2CH
_chemical_formula_sum              "Fe128 S256 H1536 C896 N64"
_cell_length_a       41.9087
_cell_length_b       41.9961
_cell_length_c       70.5759
_cell_angle_alpha    89.9627
_cell_angle_beta     90.1619
_cell_angle_gamma    90.1854

_space_group_name_H-M_alt    "P 1"
_space_group_IT_number       1

loop_
  _space_group_symop_operation_xyz
  'x, y, z'

loop_
  _atom_site_type_symbol
  _atom_site_label
  _atom_site_symmetry_multiplicity
  _atom_site_fract_x
  _atom_site_fract_y
  _atom_site_fract_z
  _atom_site_occupancy
  Fe  Fe1       1.0  0.06906  0.41554  0.30612  1.0000
  S   S1        1.0  0.05739  0.44567  0.27979  1.0000
  H   H1        1.0  0.33231  0.45486  0.08670  1.0000
  H   H2        1.0  0.02422  0.99617  0.30331  1.0000
  C   C1        1.0  0.48220  0.04498  0.11205  1.0000
  C   C2        1.0  0.16702  0.48244  0.31145  1.0000
  Fe  Fe2       1.0  0.28544  0.33357  0.05354  1.0000
  S   S2        1.0  0.25015  0.32108  0.07643  1.0000
  S   S3        1.0  0.28032  0.32928  0.02125  1.0000
  Fe  Fe3       1.0  0.34081  0.34058  0.08273  1.0000
  S   S4        1.0  0.30930  0.32727  0.10724  1.0000
  S   S5        1.0  0.39392  0.35320  0.08251  1.0000
  Fe  Fe4       1.0  0.28902  0.28906  0.08809  1.0000
  S   S6        1.0  0.27693  0.23607  0.09176  1.0000
  Fe  Fe5       1.0  0.27325  0.36039  0.09354  1.0000
  S   S7        1.0  0.25282  0.39926  0.11294  1.0000
  S   S8        1.0  0.32309  0.30031  0.06463  1.0000
  S   S9        1.0  0.30600  0.37511  0.06978  1.0000
  Fe  Fe6       1.0  0.40940  0.03341  0.14894  1.0000
  S   S10       1.0  0.38428  0.06532  0.16946  1.0000
  S   S11       1.0  0.46348  0.04139  0.14978  1.0000
  S   S12       1.0  0.31663  0.03596  0.15591  1.0000
  Fe  Fe7       1.0  0.34968  0.07544  0.14578  1.0000
  S   S13       1.0  0.34746  0.12984  0.14179  1.0000
  Fe  Fe8       1.0  0.35422  0.02344  0.17778  1.0000
  S   S14       1.0  0.37561  0.04405  0.12505  1.0000
  H   H3        1.0  0.23524  0.28281  0.03655  1.0000
  H   H4        1.0  0.46005  0.03298  0.10859  1.0000
  C   C3        1.0  0.29784  0.20668  0.10513  1.0000
  C   C4        1.0  0.28916  0.17439  0.10320  1.0000
  C   C5        1.0  0.30432  0.15042  0.11401  1.0000
  C   C6        1.0  0.32809  0.15854  0.12712  1.0000
  C   C7        1.0  0.33693  0.19081  0.12892  1.0000
  C   C8        1.0  0.32213  0.21469  0.11792  1.0000
  H   H5        1.0  0.27032  0.16788  0.09343  1.0000
  H   H6        1.0  0.29715  0.12579  0.11249  1.0000
  H   H7        1.0  0.35505  0.19747  0.13913  1.0000
  H   H8        1.0  0.32896  0.23937  0.11967  1.0000
  C   C9        1.0  0.41971  0.36096  0.10194  1.0000
  C   C10       1.0  0.45036  0.37338  0.09846  1.0000
  C   C11       1.0  0.47097  0.38153  0.11354  1.0000
  C   C12       1.0  0.46104  0.37723  0.13226  1.0000
  C   C13       1.0  0.43057  0.36442  0.13572  1.0000
  C   C14       1.0  0.41006  0.35611  0.12067  1.0000
  H   H9        1.0  0.45802  0.37722  0.08400  1.0000
  H   H10       1.0  0.24376  0.00798  0.19266  1.0000
  H   H11       1.0  0.42278  0.36087  0.15018  1.0000
  H   H12       1.0  0.38666  0.34630  0.12353  1.0000
  C   C15       1.0  0.15913  0.45692  0.11088  1.0000
  C   C16       1.0  0.16502  0.43316  0.09729  1.0000
  C   C17       1.0  0.19368  0.41557  0.09750  1.0000
  C   C18       1.0  0.21692  0.42165  0.11131  1.0000
  C   C19       1.0  0.21131  0.44587  0.12469  1.0000
  C   C20       1.0  0.18263  0.46343  0.12449  1.0000
  H   H13       1.0  0.14715  0.42809  0.08660  1.0000
  H   H14       1.0  0.19762  0.39709  0.08710  1.0000
  H   H15       1.0  0.22911  0.45081  0.13542  1.0000
  C   C21       1.0  0.03864  0.03215  0.28396  1.0000
  C   C22       1.0  0.07399  0.45710  0.25755  1.0000
  H   H16       1.0  0.20110  0.18163  0.04891  1.0000
  H   H17       1.0  0.21096  0.26068  0.07181  1.0000
  H   H18       1.0  0.39942  0.11241  0.11733  1.0000
  H   H19       1.0  0.20952  0.20688  0.00877  1.0000
  H   H20       1.0  0.30167  0.44582  0.12123  1.0000
  C   C23       1.0  0.35581  0.42019  0.14229  1.0000
  C   C24       1.0  0.21721  0.34315  0.01181  1.0000
  C   C25       1.0  0.24685  0.33193  0.00579  1.0000
  H   H21       1.0  0.00866  0.08606  0.30021  1.0000
  H   H22       1.0  0.21409  0.35051  0.02637  1.0000
  H   H23       1.0  0.38312  0.16280  0.09334  1.0000
  N   N1        1.0  0.44310  0.13999  0.11446  1.0000
  H   H24       1.0  0.32873  0.01086  0.24890  1.0000
  C   C26       1.0  0.19231  0.25526  0.00852  1.0000
  C   C27       1.0  0.42197  0.16895  0.11396  1.0000
  C   C28       1.0  0.43442  0.13160  0.15047  1.0000
  C   C29       1.0  0.32906  0.39511  0.14451  1.0000
  H   H25       1.0  0.16162  0.44970  0.18113  1.0000
  H   H26       1.0  0.41681  0.43791  0.10982  1.0000
  C   C30       1.0  0.19167  0.34556  0.99882  1.0000
  C   C31       1.0  0.41419  0.45094  0.12338  1.0000
  S   S15       1.0  0.34180  0.01589  0.20917  1.0000
  H   H27       1.0  0.05966  0.29397  0.30709  1.0000
  H   H28       1.0  0.46161  0.14238  0.08560  1.0000
  H   H29       1.0  0.06425  0.07191  0.30917  1.0000
  C   C32       1.0  0.48949  0.05183  0.13096  1.0000
  C   C33       1.0  0.32232  0.46072  0.12576  1.0000
  H   H30       1.0  0.19056  0.28307  0.05407  1.0000
  H   H31       1.0  0.20717  0.26190  0.99613  1.0000
  H   H32       1.0  0.47293  0.31252  0.15852  1.0000
  H   H33       1.0  0.30687  0.22076  0.02593  1.0000
  C   C34       1.0  0.35442  0.44088  0.08889  1.0000
  H   H34       1.0  0.25500  0.25966  0.05371  1.0000
  C   C35       1.0  0.49034  0.26802  0.14516  1.0000
  C   C36       1.0  0.06802  0.48719  0.22786  1.0000
  H   H35       1.0  0.42099  0.17329  0.08254  1.0000
  H   H36       1.0  0.19189  0.37672  0.14735  1.0000
  H   H37       1.0  0.31104  0.25523  0.01133  1.0000
  H   H38       1.0  0.15338  0.46635  0.32083  1.0000
  H   H39       1.0  0.23553  0.16501  0.05975  1.0000
  C   C37       1.0  0.42366  0.11007  0.11110  1.0000
  H   H40       1.0  0.18031  0.43192  0.16148  1.0000
  S   S16       1.0  0.05309  0.36521  0.31154  1.0000
  H   H41       1.0  0.37409  0.40575  0.10778  1.0000
  N   N2        1.0  0.00349  0.03969  0.31393  1.0000
  H   H42       1.0  0.37824  0.40626  0.14153  1.0000
  H   H43       1.0  0.06865  0.25655  0.31732  1.0000
  H   H44       1.0  0.14081  0.45216  0.23021  1.0000
  H   H45       1.0  0.17862  0.48181  0.13493  1.0000
  H   H46       1.0  0.03561  0.05773  0.28085  1.0000
  C   C38       1.0  0.16763  0.42607  0.17487  1.0000
  H   H47       1.0  0.33501  0.37303  0.13665  1.0000
  C   C39       1.0  0.47021  0.14203  0.10046  1.0000
  H   H48       1.0  0.13137  0.44394  0.14928  1.0000
  C   C40       1.0  0.10466  0.44819  0.25187  1.0000
  H   H49       1.0  0.22298  0.20304  0.06736  1.0000
  H   H50       1.0  0.37763  0.48431  0.11512  1.0000
  C   C41       1.0  0.40552  0.17680  0.09500  1.0000
  N   N3        1.0  0.35304  0.44207  0.12544  1.0000
  H   H51       1.0  0.43980  0.00091  0.26413  1.0000
  H   H52       1.0  0.16896  0.35479  0.00355  1.0000
  C   C42       1.0  0.35354  0.42220  0.10770  1.0000
  C   C43       1.0  0.41912  0.09909  0.09039  1.0000
  H   H53       1.0  0.47961  0.25056  0.13508  1.0000
  H   H54       1.0  0.99278  0.00999  0.28935  1.0000
  H   H55       1.0  0.32599  0.38924  0.15975  1.0000
  H   H56       1.0  0.19239  0.48061  0.31591  1.0000
  H   H57       1.0  0.20054  0.38705  0.18280  1.0000
  H   H58       1.0  0.43204  0.47055  0.12315  1.0000
  S   S17       1.0  0.12243  0.47809  0.11002  1.0000
  H   H59       1.0  0.03581  0.02024  0.26999  1.0000
  H   H60       1.0  0.47593  0.11860  0.13450  1.0000
  H   H61       1.0  0.33221  0.40630  0.10702  1.0000
  H   H62       1.0  0.11896  0.43324  0.26101  1.0000
  H   H63       1.0  0.10312  0.48177  0.32104  1.0000
  H   H64       1.0  0.47056  0.16023  0.13776  1.0000
  H   H65       1.0  0.16565  0.47385  0.29662  1.0000
  C   C44       1.0  0.04931  0.27429  0.31565  1.0000
  H   H66       1.0  0.26187  0.22338  0.00371  1.0000
  H   H67       1.0  0.32302  0.48033  0.11514  1.0000
  H   H68       1.0  0.40933  0.11790  0.08113  1.0000
  H   H69       1.0  0.39935  0.20252  0.09475  1.0000
  C   C45       1.0  0.45776  0.13788  0.13400  1.0000
  H   H70       1.0  0.35847  0.43361  0.15581  1.0000
  H   H71       1.0  0.38120  0.47816  0.13976  1.0000
  H   H72       1.0  0.40206  0.16613  0.12421  1.0000
  H   H73       1.0  0.18684  0.24064  0.05493  1.0000
  N   N4        1.0  0.13750  0.40729  0.17099  1.0000
  C   C46       1.0  0.12152  0.40139  0.18982  1.0000
  C   C47       1.0  0.11676  0.42824  0.15859  1.0000
  H   H74       1.0  0.40191  0.07892  0.09008  1.0000
  C   C48       1.0  0.14536  0.37590  0.16185  1.0000
  C   C49       1.0  0.08712  0.38859  0.18915  1.0000
  C   C50       1.0  0.09309  0.41145  0.14501  1.0000
  H   H75       1.0  0.29806  0.26010  0.03511  1.0000
  C   C51       1.0  0.16607  0.37805  0.14384  1.0000
  H   H76       1.0  0.13536  0.38404  0.19845  1.0000
  H   H77       1.0  0.12079  0.42368  0.19833  1.0000
  H   H78       1.0  0.43456  0.08935  0.11850  1.0000
  H   H79       1.0  0.10315  0.44532  0.16750  1.0000
  C   C52       1.0  0.46368  0.29141  0.15081  1.0000
  H   H80       1.0  0.37568  0.45650  0.08774  1.0000
  H   H81       1.0  0.15799  0.35998  0.17199  1.0000
  H   H82       1.0  0.12358  0.36189  0.15842  1.0000
  H   H83       1.0  0.07035  0.40680  0.18363  1.0000
  H   H84       1.0  0.08519  0.36619  0.18093  1.0000
  H   H85       1.0  0.27024  0.20655  0.04766  1.0000
  H   H86       1.0  0.07743  0.39396  0.15211  1.0000
  H   H87       1.0  0.07743  0.42966  0.13841  1.0000
  H   H88       1.0  0.10569  0.39962  0.13316  1.0000
  H   H89       1.0  0.43450  0.19064  0.11919  1.0000
  H   H90       1.0  0.48525  0.12023  0.10147  1.0000
  H   H91       1.0  0.16173  0.40030  0.13588  1.0000
  H   H92       1.0  0.07927  0.38320  0.20384  1.0000
  C   C53       1.0  0.19225  0.41037  0.18818  1.0000
  H   H93       1.0  0.15981  0.35839  0.13397  1.0000
  N   N5        1.0  0.23665  0.23245  0.03006  1.0000
  C   C54       1.0  0.26156  0.24112  0.01545  1.0000
  C   C55       1.0  0.20604  0.22632  0.01930  1.0000
  C   C56       1.0  0.24752  0.20235  0.03980  1.0000
  C   C57       1.0  0.23400  0.25948  0.04402  1.0000
  C   C58       1.0  0.29622  0.24429  0.02265  1.0000
  C   C59       1.0  0.09873  0.47849  0.22223  1.0000
  C   C60       1.0  0.22495  0.18769  0.05464  1.0000
  C   C61       1.0  0.20377  0.26055  0.05663  1.0000
  H   H94       1.0  0.06323  0.02777  0.28925  1.0000
  H   H95       1.0  0.25589  0.26432  0.00868  1.0000
  H   H96       1.0  0.18671  0.21730  0.02846  1.0000
  H   H97       1.0  0.44827  0.12815  0.16376  1.0000
  H   H98       1.0  0.25259  0.18354  0.02910  1.0000
  H   H99       1.0  0.35611  0.42363  0.07701  1.0000
  C   C62       1.0  0.31357  0.47601  0.14490  1.0000
  C   C63       1.0  0.38057  0.46531  0.12598  1.0000
  H   H100      1.0  0.42039  0.10958  0.14831  1.0000
  H   H101      1.0  0.41802  0.15185  0.15289  1.0000
  H   H102      1.0  0.18300  0.40787  0.20282  1.0000
  C   C64       1.0  0.11695  0.45893  0.23435  1.0000
  H   H103      1.0  0.11508  0.48575  0.28804  1.0000
  H   H104      1.0  0.30550  0.40353  0.13962  1.0000
  H   H105      1.0  0.44181  0.08996  0.08441  1.0000
  Fe  Fe9       1.0  0.34519  0.00381  0.13680  1.0000
  H   H106      1.0  0.21359  0.42606  0.18910  1.0000
  C   C65       1.0  0.01363  0.01858  0.29778  1.0000
  H   H107      1.0  0.18923  0.27632  0.01778  1.0000
  H   H108      1.0  0.45008  0.29939  0.13816  1.0000
  H   H109      1.0  0.30762  0.45772  0.15570  1.0000
  H   H110      1.0  0.44639  0.27914  0.16025  1.0000
  H   H111      1.0  0.42098  0.43524  0.13535  1.0000
  H   H112      1.0  0.43056  0.99886  0.23034  1.0000
  S   S18       1.0  0.48529  0.38770  0.15187  1.0000
  H   H113      1.0  0.02934  0.26423  0.30724  1.0000
  H   H114      1.0  0.47964  0.19386  0.10160  1.0000
  H   H115      1.0  0.42564  0.00091  0.29463  1.0000
  C   C66       1.0  0.05585  0.47667  0.24543  1.0000
  H   H116      1.0  0.28454  0.00147  0.18727  1.0000
  H   H117      1.0  0.16835  0.24903  0.00281  1.0000
  H   H118      1.0  0.03212  0.48376  0.24966  1.0000
  H   H119      1.0  0.29187  0.49081  0.14297  1.0000
  H   H120      1.0  0.38215  0.48188  0.34820  1.0000
  Fe  Fe10      1.0  0.18430  0.09354  0.37762  1.0000
  S   S19       1.0  0.16631  0.06403  0.40176  1.0000
  S   S20       1.0  0.22120  0.07494  0.35647  1.0000
  Fe  Fe11      1.0  0.14851  0.15376  0.39154  1.0000
  S   S21       1.0  0.12908  0.12742  0.41696  1.0000
  S   S22       1.0  0.13514  0.20663  0.39233  1.0000
  Fe  Fe12      1.0  0.17804  0.10611  0.42042  1.0000
  S   S23       1.0  0.21457  0.10285  0.44476  1.0000
  Fe  Fe13      1.0  0.11898  0.08811  0.39599  1.0000
  S   S24       1.0  0.07314  0.05866  0.39532  1.0000
  S   S25       1.0  0.19807  0.13493  0.39631  1.0000
  S   S26       1.0  0.13620  0.11518  0.37049  1.0000
  Fe  Fe14      1.0  0.08636  0.42516  0.34797  1.0000
  H   H121      1.0  0.21799  0.46885  0.35819  1.0000
  Fe  Fe15      1.0  0.02814  0.38269  0.33769  1.0000
  H   H122      1.0  0.35431  0.48665  0.40324  1.0000
  C   C67       1.0  0.47109  0.13095  0.64254  1.0000
  C   C68       1.0  0.00668  0.10851  0.36505  1.0000
  S   S27       1.0  0.07064  0.37556  0.35689  1.0000
  H   H123      1.0  0.08407  0.47372  0.64503  1.0000
  Fe  Fe16      1.0  0.09612  0.36010  0.33047  1.0000
  Fe  Fe17      1.0  0.24758  0.09446  0.60147  1.0000
  S   S28       1.0  0.26411  0.06831  0.57568  1.0000
  S   S29       1.0  0.21580  0.07134  0.62397  1.0000
  Fe  Fe18      1.0  0.28128  0.15728  0.58959  1.0000
  S   S30       1.0  0.29959  0.13450  0.56278  1.0000
  S   S31       1.0  0.29219  0.21081  0.59124  1.0000
  Fe  Fe19      1.0  0.25079  0.11258  0.55925  1.0000
  S   S32       1.0  0.21352  0.11380  0.53519  1.0000
  Fe  Fe20      1.0  0.31141  0.09263  0.58163  1.0000
  S   S33       1.0  0.35911  0.06673  0.57919  1.0000
  S   S34       1.0  0.23181  0.13765  0.58508  1.0000
  S   S35       1.0  0.29568  0.11638  0.60849  1.0000
  H   H124      1.0  0.05986  0.29852  0.34158  1.0000
  H   H125      1.0  0.43702  0.38657  0.61463  1.0000
  S   S36       1.0  0.35736  0.39006  0.63550  1.0000
  H   H126      1.0  0.05395  0.22562  0.34093  1.0000
  H   H127      1.0  0.39990  0.25899  0.60118  1.0000
  H   H128      1.0  0.09557  0.06667  0.52723  1.0000
  H   H129      1.0  0.07828  0.44770  0.59602  1.0000
  S   S37       1.0  0.12362  0.31338  0.32801  1.0000
  C   C69       1.0  0.38611  0.05889  0.59809  1.0000
  C   C70       1.0  0.37916  0.06721  0.61681  1.0000
  C   C71       1.0  0.40082  0.05979  0.63149  1.0000
  C   C72       1.0  0.42991  0.04450  0.62764  1.0000
  C   C73       1.0  0.43715  0.03671  0.60887  1.0000
  C   C74       1.0  0.41528  0.04373  0.59421  1.0000
  H   H130      1.0  0.35705  0.07922  0.62000  1.0000
  H   H131      1.0  0.41333  0.13079  0.58979  1.0000
  H   H132      1.0  0.45925  0.02458  0.60571  1.0000
  H   H133      1.0  0.42090  0.03717  0.57978  1.0000
  C   C75       1.0  0.29813  0.23811  0.61022  1.0000
  C   C76       1.0  0.30081  0.22821  0.62908  1.0000
  C   C77       1.0  0.30639  0.25078  0.64354  1.0000
  C   C78       1.0  0.30945  0.28345  0.63938  1.0000
  C   C79       1.0  0.30673  0.29337  0.62051  1.0000
  C   C80       1.0  0.30116  0.27079  0.60605  1.0000
  H   H134      1.0  0.29852  0.20321  0.63252  1.0000
  H   H135      1.0  0.06909  0.25002  0.35873  1.0000
  H   H136      1.0  0.30878  0.31840  0.61708  1.0000
  H   H137      1.0  0.29908  0.27872  0.59151  1.0000
  H   H138      1.0  0.47571  0.09093  0.58025  1.0000
  H   H139      1.0  0.45583  0.30851  0.62680  1.0000
  S   S38       1.0  0.04133  0.43341  0.33120  1.0000
  C   C81       1.0  0.19868  0.01356  0.60735  1.0000
  C   C82       1.0  0.19345  0.03534  0.62200  1.0000
  C   C83       1.0  0.16978  0.02844  0.63550  1.0000
  H   H140      1.0  0.99663  0.46565  0.61382  1.0000
  H   H141      1.0  0.21701  0.01824  0.59696  1.0000
  H   H142      1.0  0.42452  0.48855  0.37119  1.0000
  H   H143      1.0  0.29024  0.07847  0.38015  1.0000
  C   C84       1.0  0.21335  0.10427  0.46995  1.0000
  C   C85       1.0  0.24227  0.10266  0.48012  1.0000
  C   C86       1.0  0.24287  0.10527  0.50007  1.0000
  C   C87       1.0  0.21447  0.10951  0.51010  1.0000
  C   C88       1.0  0.18551  0.11073  0.49994  1.0000
  C   C89       1.0  0.18489  0.10802  0.48000  1.0000
  H   H144      1.0  0.26445  0.09982  0.47253  1.0000
  H   H145      1.0  0.26531  0.10430  0.50767  1.0000
  H   H146      1.0  0.16338  0.11389  0.50755  1.0000
  H   H147      1.0  0.16243  0.10902  0.47243  1.0000
  C   C90       1.0  0.39413  0.31680  0.62289  1.0000
  C   C91       1.0  0.99438  0.24851  0.33895  1.0000
  C   C92       1.0  0.03529  0.09989  0.37424  1.0000
  C   C93       1.0  0.03770  0.07045  0.38341  1.0000
  C   C94       1.0  0.23860  0.18587  0.47316  1.0000
  H   H148      1.0  0.28165  0.45981  0.35872  1.0000
  C   C95       1.0  0.24793  0.48011  0.63636  1.0000
  H   H149      1.0  0.05544  0.11608  0.37433  1.0000
  H   H150      1.0  0.40788  0.33667  0.62941  1.0000
  C   C96       1.0  0.13283  0.23583  0.37413  1.0000
  C   C97       1.0  0.13863  0.22875  0.35508  1.0000
  C   C98       1.0  0.13597  0.25280  0.34117  1.0000
  C   C99       1.0  0.12721  0.28405  0.34608  1.0000
  C   C100      1.0  0.12146  0.29110  0.36514  1.0000
  C   C101      1.0  0.12432  0.26714  0.37906  1.0000
  H   H151      1.0  0.14530  0.20482  0.35106  1.0000
  H   H152      1.0  0.13205  0.99617  0.64424  1.0000
  H   H153      1.0  0.11519  0.31511  0.36917  1.0000
  H   H154      1.0  0.11987  0.27293  0.39374  1.0000
  H   H155      1.0  0.29115  0.43350  0.37774  1.0000
  H   H156      1.0  0.13774  0.08690  0.54432  1.0000
  H   H157      1.0  0.33838  0.44716  0.35687  1.0000
  C   C102      1.0  0.23934  0.03658  0.35616  1.0000
  C   C103      1.0  0.26769  0.03208  0.34586  1.0000
  H   H158      1.0  0.00218  0.23251  0.32729  1.0000
  H   H159      1.0  0.37804  0.22322  0.63700  1.0000
  H   H160      1.0  0.05536  0.30904  0.37227  1.0000
  C   C104      1.0  0.31398  0.00126  0.59941  1.0000
  H   H161      1.0  0.13177  0.11716  0.58350  1.0000
  H   H162      1.0  0.37897  0.34917  0.60061  1.0000
  H   H163      1.0  0.02151  0.05012  0.34209  1.0000
  N   N6        1.0  0.14087  0.05358  0.56799  1.0000
  H   H164      1.0  0.19813  0.25608  0.49007  1.0000
  H   H165      1.0  0.10704  0.09040  0.56077  1.0000
  C   C105      1.0  0.16680  0.46788  0.36129  1.0000
  N   N7        1.0  0.40938  0.28504  0.62722  1.0000
  H   H166      1.0  0.38086  0.20933  0.61328  1.0000
  C   C106      1.0  0.16033  0.02745  0.55904  1.0000
  C   C107      1.0  0.27613  0.01940  0.64821  1.0000
  H   H167      1.0  0.22266  0.16990  0.48127  1.0000
  H   H168      1.0  0.26188  0.17340  0.47213  1.0000
  H   H169      1.0  0.27506  0.05282  0.44496  1.0000
  H   H170      1.0  0.02257  0.30850  0.33188  1.0000
  C   C108      1.0  0.01110  0.28291  0.36528  1.0000
  H   H171      1.0  0.99311  0.26919  0.37346  1.0000
  H   H172      1.0  0.21526  0.25558  0.42682  1.0000
  C   C109      1.0  0.14894  0.10139  0.59085  1.0000
  C   C110      1.0  0.39157  0.25975  0.61615  1.0000
  C   C111      1.0  0.39237  0.22536  0.62383  1.0000
  C   C112      1.0  0.18466  0.03806  0.54399  1.0000
  C   C113      1.0  0.45990  0.37593  0.61782  1.0000
  H   H173      1.0  0.36575  0.26560  0.61533  1.0000
  H   H174      1.0  0.38016  0.27965  0.65224  1.0000
  H   H175      1.0  0.24310  0.20814  0.48118  1.0000
  H   H176      1.0  0.32955  0.07225  0.44326  1.0000
  H   H177      1.0  0.17086  0.25234  0.45513  1.0000
  H   H178      1.0  0.41442  0.25562  0.65257  1.0000
  H   H179      1.0  0.16429  0.44395  0.35578  1.0000
  C   C114      1.0  0.16385  0.07654  0.57737  1.0000
  H   H180      1.0  0.19536  0.01666  0.53734  1.0000
  C   C115      1.0  0.09031  0.46565  0.63048  1.0000
  H   H181      1.0  0.14001  0.48387  0.63131  1.0000
  C   C116      1.0  0.40590  0.27946  0.64824  1.0000
  H   H182      1.0  0.34394  0.45265  0.38126  1.0000
  H   H183      1.0  0.11897  0.17381  0.46379  1.0000
  H   H184      1.0  0.46308  0.23969  0.61434  1.0000
  H   H185      1.0  0.12875  0.21522  0.46167  1.0000
  H   H186      1.0  0.17386  0.01437  0.57013  1.0000
  C   C117      1.0  0.28538  0.05360  0.65402  1.0000
  H   H187      1.0  0.27079  0.02053  0.61134  1.0000
  H   H188      1.0  0.34952  0.99379  0.63185  1.0000
  H   H189      1.0  0.08664  0.00172  0.59081  1.0000
  C   C118      1.0  0.39049  0.32544  0.60171  1.0000
  H   H190      1.0  0.07503  0.05090  0.54762  1.0000
  H   H191      1.0  0.16569  0.04492  0.64702  1.0000
  C   C119      1.0  0.42940  0.13274  0.60230  1.0000
  H   H192      1.0  0.33040  0.03542  0.45578  1.0000
  C   C120      1.0  0.29533  0.45790  0.37216  1.0000
  C   C121      1.0  0.46100  0.14861  0.59638  1.0000
  H   H193      1.0  0.17297  0.17570  0.47323  1.0000
  C   C122      1.0  0.44381  0.28684  0.62115  1.0000
  C   C123      1.0  0.12195  0.07222  0.55358  1.0000
  H   H194      1.0  0.34019  0.00127  0.60157  1.0000
  H   H195      1.0  0.10771  0.47594  0.42775  1.0000
  C   C124      1.0  0.13982  0.48434  0.36745  1.0000
  H   H196      1.0  0.45646  0.17464  0.59715  1.0000
  H   H197      1.0  0.41382  0.32750  0.59446  1.0000
  H   H198      1.0  0.47112  0.36629  0.58854  1.0000
  C   C125      1.0  0.03720  0.29394  0.37927  1.0000
  H   H199      1.0  0.44552  0.29012  0.60555  1.0000
  H   H200      1.0  0.07408  0.07176  0.33379  1.0000
  C   C126      1.0  0.02126  0.45992  0.61860  1.0000
  C   C127      1.0  0.22649  0.01070  0.36608  1.0000
  C   C128      1.0  0.28046  0.09301  0.39186  1.0000
  H   H201      1.0  0.27674  0.09503  0.42226  1.0000
  Fe  Fe21      1.0  0.33165  0.43333  0.64714  1.0000
  H   H202      1.0  0.13312  0.03592  0.59650  1.0000
  C   C129      1.0  0.47065  0.37469  0.63659  1.0000
  C   C130      1.0  0.19725  0.48203  0.36274  1.0000
  H   H203      1.0  0.19992  0.23856  0.40543  1.0000
  H   H204      1.0  0.37476  0.30851  0.59401  1.0000
  H   H205      1.0  0.15864  0.24274  0.48597  1.0000
  H   H206      1.0  0.44718  0.12275  0.63802  1.0000
  H   H207      1.0  0.12617  0.19006  0.44089  1.0000
  H   H208      1.0  0.16818  0.11689  0.59656  1.0000
  H   H209      1.0  0.17758  0.09028  0.56665  1.0000
  H   H210      1.0  0.39541  0.46359  0.38210  1.0000
  C   C131      1.0  0.23570  0.00550  0.41568  1.0000
  H   H211      1.0  0.39505  0.06600  0.64595  1.0000
  H   H212      1.0  0.22830  0.17058  0.44459  1.0000
  H   H213      1.0  0.17266  0.15914  0.45045  1.0000
  H   H214      1.0  0.41678  0.21647  0.62635  1.0000
  H   H215      1.0  0.20464  0.05153  0.55051  1.0000
  H   H216      1.0  0.36985  0.31808  0.62924  1.0000
  H   H217      1.0  0.19028  0.21459  0.49029  1.0000
  H   H218      1.0  0.30556  0.04292  0.61601  1.0000
  S   S39       1.0  0.10121  0.46678  0.36702  1.0000
  C   C132      1.0  0.15071  0.00074  0.63401  1.0000
  H   H219      1.0  0.10755  0.02986  0.53643  1.0000
  H   H220      1.0  0.23288  0.21985  0.41670  1.0000
  H   H221      1.0  0.23889  0.99816  0.43064  1.0000
  H   H222      1.0  0.02606  0.30868  0.39051  1.0000
  C   C133      1.0  0.46502  0.25791  0.62568  1.0000
  N   N8        1.0  0.28337  0.04517  0.41506  1.0000
  H   H223      1.0  0.20958  0.00514  0.41291  1.0000
  C   C134      1.0  0.29115  0.03872  0.43559  1.0000
  C   C135      1.0  0.30329  0.02605  0.40136  1.0000
  H   H224      1.0  0.29165  0.02539  0.38714  1.0000
  H   H225      1.0  0.23385  0.05578  0.42053  1.0000
  C   C136      1.0  0.32576  0.04622  0.44166  1.0000
  H   H226      1.0  0.47538  0.17589  0.62805  1.0000
  H   H227      1.0  0.43245  0.10804  0.60719  1.0000
  H   H228      1.0  0.32684  0.48962  0.33569  1.0000
  H   H229      1.0  0.31538  0.08590  0.41339  1.0000
  C   C137      1.0  0.06385  0.48887  0.57986  1.0000
  H   H230      1.0  0.25426  0.09490  0.39031  1.0000
  H   H231      1.0  0.04905  0.27361  0.38642  1.0000
  H   H232      1.0  0.28904  0.06924  0.64157  1.0000
  C   C138      1.0  0.01126  0.04969  0.38315  1.0000
  H   H233      1.0  0.32674  0.03802  0.39904  1.0000
  N   N9        1.0  0.02255  0.26459  0.34820  1.0000
  C   C139      1.0  0.12683  0.46116  0.62957  1.0000
  C   C140      1.0  0.33142  0.46290  0.36887  1.0000
  H   H234      1.0  0.02424  0.19332  0.36072  1.0000
  H   H235      1.0  0.30968  0.01459  0.58605  1.0000
  H   H236      1.0  0.02005  0.44852  0.63280  1.0000
  H   H237      1.0  0.29005  0.11754  0.39018  1.0000
  H   H238      1.0  0.49027  0.26601  0.62663  1.0000
  C   C141      1.0  0.03835  0.28784  0.33488  1.0000
  H   H239      1.0  0.07965  0.44141  0.62926  1.0000
  H   H240      1.0  0.99827  0.30484  0.36081  1.0000
  C   C142      1.0  0.29620  0.01811  0.61569  1.0000
  C   C143      1.0  0.28960  0.08019  0.41163  1.0000
  C   C144      1.0  0.47934  0.36449  0.60305  1.0000
  H   H241      1.0  0.01766  0.22341  0.37842  1.0000
  C   C145      1.0  0.18400  0.23700  0.48302  1.0000
  H   H242      1.0  0.17356  0.05219  0.53247  1.0000
  C   C146      1.0  0.09872  0.05348  0.54076  1.0000
  H   H243      1.0  0.34354  0.03646  0.43165  1.0000
  H   H244      1.0  0.18215  0.06357  0.58571  1.0000
  H   H245      1.0  0.00351  0.99786  0.34723  1.0000
  H   H246      1.0  0.13757  0.09020  0.60338  1.0000
  H   H247      1.0  0.34122  0.03124  0.64122  1.0000
  C   C147      1.0  0.04641  0.23938  0.35359  1.0000
  H   H248      1.0  0.18486  0.18849  0.42282  1.0000
  C   C148      1.0  0.10329  0.00744  0.57904  1.0000
  H   H249      1.0  0.05581  0.20594  0.37657  1.0000
  H   H250      1.0  0.00506  0.13136  0.35806  1.0000
  H   H251      1.0  0.24435  0.20959  0.44698  1.0000
  H   H252      1.0  0.24162  0.04471  0.39691  1.0000
  H   H253      1.0  0.28542  0.47490  0.38258  1.0000
  H   H254      1.0  0.13432  0.44961  0.61618  1.0000
  C   C149      1.0  0.11940  0.03982  0.58315  1.0000
  H   H255      1.0  0.28647  0.01371  0.43963  1.0000
  H   H256      1.0  0.03041  0.44236  0.60832  1.0000
  H   H257      1.0  0.10012  0.05688  0.58686  1.0000
  H   H258      1.0  0.04542  0.02311  0.32922  1.0000
  H   H259      1.0  0.21267  0.25236  0.45921  1.0000
  C   C150      1.0  0.03502  0.21416  0.36806  1.0000
  H   H260      1.0  0.16274  0.22318  0.42845  1.0000
  C   C151      1.0  0.24829  0.03933  0.41177  1.0000
  N   N10       1.0  0.19316  0.20645  0.45129  1.0000
  C   C152      1.0  0.18638  0.21166  0.43047  1.0000
  C   C153      1.0  0.16935  0.18204  0.45818  1.0000
  C   C154      1.0  0.22637  0.19296  0.45300  1.0000
  C   C155      1.0  0.19059  0.23801  0.46142  1.0000
  C   C156      1.0  0.21031  0.23273  0.41953  1.0000
  C   C157      1.0  0.13392  0.19126  0.45594  1.0000
  H   H261      1.0  0.41719  0.14672  0.61347  1.0000
  H   H262      1.0  0.25199  0.02095  0.64171  1.0000
  S   S40       1.0  0.31269  0.47305  0.62791  1.0000
  H   H263      1.0  0.20439  0.01356  0.37377  1.0000
  H   H264      1.0  0.46455  0.14436  0.58095  1.0000
  H   H265      1.0  0.10841  0.47638  0.59261  1.0000
  C   C158      1.0  0.33295  0.00609  0.64170  1.0000
  C   C159      1.0  0.39969  0.48799  0.37673  1.0000
  C   C160      1.0  0.08271  0.47382  0.59636  1.0000
  H   H266      1.0  0.25066  0.46029  0.64602  1.0000
  C   C161      1.0  0.03077  0.04506  0.32767  1.0000
  H   H267      1.0  0.19846  0.48809  0.64338  1.0000
  S   S41       1.0  0.45544  0.03446  0.64687  1.0000
  C   C162      1.0  0.27407  0.49034  0.62562  1.0000
  H   H268      1.0  0.14520  0.00899  0.55228  1.0000
  H   H269      1.0  0.16173  0.48720  0.43571  1.0000
  H   H270      1.0  0.46002  0.24699  0.63960  1.0000
  H   H271      1.0  0.08924  0.00725  0.56579  1.0000
  H   H272      1.0  0.01288  0.02692  0.39026  1.0000
  H   H273      1.0  0.13446  0.44532  0.64134  1.0000
  H   H274      1.0  0.30543  0.99945  0.33803  1.0000
  H   H275      1.0  0.14069  0.24713  0.32649  1.0000
  N   N11       1.0  0.07639  0.48757  0.61575  1.0000
  H   H276      1.0  0.03786  0.48418  0.58097  1.0000
  N   N12       1.0  0.29894  0.00284  0.63499  1.0000
  C   C163      1.0  0.28345  0.00237  0.34583  1.0000
  H   H277      1.0  0.07196  0.47824  0.56630  1.0000
  H   H278      1.0  0.27771  0.05180  0.33796  1.0000
  S   S42       1.0  0.44869  0.39172  0.65549  1.0000
  H   H279      1.0  0.47854  0.09118  0.61591  1.0000
  C   C164      1.0  0.31121  0.99127  0.40691  1.0000
  H   H280      1.0  0.04214  0.09617  0.32581  1.0000
  C   C165      1.0  0.05392  0.07283  0.32353  1.0000
  C   C166      1.0  0.48776  0.15248  0.62780  1.0000
  H   H281      1.0  0.48608  0.10996  0.64609  1.0000
  C   C167      1.0  0.04116  0.49091  0.61944  1.0000
  N   N13       1.0  0.49029  0.14007  0.60773  1.0000
  S   S43       1.0  0.11471  0.40923  0.32270  1.0000
  C   C168      1.0  0.27234  0.34039  0.92309  1.0000
  H   H282      1.0  0.21431  0.39259  0.92100  1.0000
  C   C169      1.0  0.19885  0.09194  0.89985  1.0000
  N   N14       1.0  0.44578  0.48662  0.79132  1.0000
  Fe  Fe22      1.0  0.02587  0.04628  0.82912  1.0000
  S   S44       1.0  0.05409  0.07497  0.80811  1.0000
  S   S45       1.0  0.11753  0.03638  0.82099  1.0000
  Fe  Fe23      1.0  0.09122  0.08008  0.83084  1.0000
  S   S46       1.0  0.11939  0.12655  0.83313  1.0000
  Fe  Fe24      1.0  0.07779  0.02916  0.79974  1.0000
  S   S47       1.0  0.06154  0.05450  0.85257  1.0000
  Fe  Fe25      1.0  0.17655  0.34134  0.89153  1.0000
  S   S48       1.0  0.14956  0.37179  0.91193  1.0000
  S   S49       1.0  0.21776  0.35991  0.87337  1.0000
  Fe  Fe26      1.0  0.13782  0.28146  0.90147  1.0000
  S   S50       1.0  0.10843  0.30868  0.92276  1.0000
  S   S51       1.0  0.12609  0.22809  0.90050  1.0000
  Fe  Fe27      1.0  0.10556  0.34705  0.90065  1.0000
  S   S52       1.0  0.06193  0.37892  0.89626  1.0000
  Fe  Fe28      1.0  0.15471  0.33091  0.93237  1.0000
  S   S53       1.0  0.16245  0.34121  0.96398  1.0000
  S   S54       1.0  0.13228  0.31886  0.87871  1.0000
  S   S55       1.0  0.18444  0.30146  0.91260  1.0000
  Fe  Fe29      1.0  0.34474  0.41663  0.68855  1.0000
  S   S56       1.0  0.33436  0.42700  0.72003  1.0000
  S   S57       1.0  0.37069  0.37201  0.68023  1.0000
  H   H283      1.0  0.08626  0.02457  0.72688  1.0000
  H   H284      1.0  0.13890  0.46031  0.86999  1.0000
  S   S58       1.0  0.08533  0.02539  0.76758  1.0000
  H   H285      1.0  0.22640  0.44863  0.70039  1.0000
  H   H286      1.0  0.44947  0.30385  0.65872  1.0000
  H   H287      1.0  0.22765  0.31670  0.95935  1.0000
  H   H288      1.0  0.22256  0.47488  0.88818  1.0000
  H   H289      1.0  0.10380  0.13373  0.79177  1.0000
  C   C170      1.0  0.02913  0.35016  0.86641  1.0000
  C   C171      1.0  0.02911  0.37352  0.88053  1.0000
  H   H290      1.0  0.41961  0.29640  0.67622  1.0000
  C   C172      1.0  0.12953  0.43955  0.87793  1.0000
  H   H291      1.0  0.18079  0.40649  0.94745  1.0000
  H   H292      1.0  0.04896  0.33383  0.86540  1.0000
  C   C173      1.0  0.27588  0.39275  0.95291  1.0000
  H   H293      1.0  0.46364  0.43813  0.79127  1.0000
  H   H294      1.0  0.28461  0.33404  0.93649  1.0000
  H   H295      1.0  0.22138  0.36648  0.94032  1.0000
  C   C174      1.0  0.11943  0.15514  0.85172  1.0000
  C   C175      1.0  0.13539  0.18432  0.84898  1.0000
  C   C176      1.0  0.13689  0.20734  0.86353  1.0000
  C   C177      1.0  0.12295  0.20113  0.88114  1.0000
  C   C178      1.0  0.10711  0.17186  0.88389  1.0000
  C   C179      1.0  0.10498  0.14916  0.86920  1.0000
  H   H296      1.0  0.14668  0.18921  0.83553  1.0000
  H   H297      1.0  0.14932  0.22962  0.86125  1.0000
  H   H298      1.0  0.09617  0.16688  0.89744  1.0000
  H   H299      1.0  0.09220  0.12712  0.87143  1.0000
  H   H300      1.0  0.12751  0.45828  0.83661  1.0000
  C   C180      1.0  0.34223  0.45727  0.73723  1.0000
  C   C181      1.0  0.33054  0.45323  0.75578  1.0000
  H   H301      1.0  0.21305  0.40874  0.96374  1.0000
  H   H302      1.0  0.31842  0.43131  0.75947  1.0000
  S   S59       1.0  0.31706  0.31054  0.65825  1.0000
  C   C182      1.0  0.26004  0.46136  0.86899  1.0000
  C   C183      1.0  0.27328  0.43608  0.85881  1.0000
  C   C184      1.0  0.25977  0.40530  0.86011  1.0000
  C   C185      1.0  0.23300  0.39939  0.87160  1.0000
  C   C186      1.0  0.21962  0.42471  0.88164  1.0000
  C   C187      1.0  0.23298  0.45549  0.88026  1.0000
  H   H303      1.0  0.29409  0.44018  0.85010  1.0000
  H   H304      1.0  0.27036  0.38588  0.85229  1.0000
  H   H305      1.0  0.19923  0.42054  0.89062  1.0000
  C   C188      1.0  0.99920  0.04871  0.76046  1.0000
  H   H306      1.0  0.21894  0.09990  0.79709  1.0000
  C   C189      1.0  0.31243  0.39599  0.95432  1.0000
  H   H307      1.0  0.02423  0.05647  0.75803  1.0000
  H   H308      1.0  0.41577  0.42885  0.80538  1.0000
  H   H309      1.0  0.28440  0.32719  0.91151  1.0000
  C   C190      1.0  0.34047  0.99232  0.66151  1.0000
  H   H310      1.0  0.46805  0.14446  0.65593  1.0000
  H   H311      1.0  0.24465  0.44008  0.91839  1.0000
  H   H312      1.0  0.26329  0.44884  0.94029  1.0000
  C   C191      1.0  0.27434  0.37636  0.91878  1.0000
  C   C192      1.0  0.22467  0.32437  0.97386  1.0000
  C   C193      1.0  0.09328  0.06994  0.90283  1.0000
  C   C194      1.0  0.20649  0.41279  0.94869  1.0000
  H   H313      1.0  0.00378  0.32996  0.84258  1.0000
  H   H314      1.0  0.19007  0.02600  0.77699  1.0000
  C   C195      1.0  0.26470  0.43273  0.92779  1.0000
  C   C196      1.0  0.17301  0.02590  0.89475  1.0000
  H   H315      1.0  0.22068  0.13117  0.76169  1.0000
  H   H316      1.0  0.21126  0.09118  0.91378  1.0000
  C   C197      1.0  0.22574  0.39115  0.93524  1.0000
  H   H317      1.0  0.32524  0.38619  0.94199  1.0000
  N   N15       1.0  0.26100  0.39826  0.93373  1.0000
  H   H318      1.0  0.26194  0.38042  0.90503  1.0000
  H   H319      1.0  0.20862  0.43840  0.94510  1.0000
  H   H320      1.0  0.20131  0.11681  0.89462  1.0000
  H   H321      1.0  0.29977  0.38137  0.91573  1.0000
  H   H322      1.0  0.31955  0.42122  0.95652  1.0000
  H   H323      1.0  0.20304  0.99953  0.91433  1.0000
  S   S60       1.0  0.37169  0.44622  0.66736  1.0000
  H   H324      1.0  0.20583  0.12724  0.81471  1.0000
  H   H325      1.0  0.30687  0.05403  0.66322  1.0000
  C   C198      1.0  0.06316  0.42150  0.82988  1.0000
  C   C199      1.0  0.19525  0.33641  0.97976  1.0000
  H   H326      1.0  0.26815  0.44709  0.69599  1.0000
  H   H327      1.0  0.14418  0.43682  0.89095  1.0000
  H   H328      1.0  0.21205  0.07664  0.88991  1.0000
  H   H329      1.0  0.32102  0.38168  0.96656  1.0000
  C   C200      1.0  0.39992  0.44795  0.80009  1.0000
  C   C201      1.0  0.17255  0.43464  0.83665  1.0000
  H   H330      1.0  0.26549  0.06409  0.66230  1.0000
  H   H331      1.0  0.43119  0.45928  0.76670  1.0000
  H   H332      1.0  0.48655  0.48114  0.82447  1.0000
  H   H333      1.0  0.16279  0.37258  0.82368  1.0000
  H   H334      1.0  0.39226  0.44275  0.78537  1.0000
  H   H335      1.0  0.19253  0.03798  0.92315  1.0000
  H   H336      1.0  0.18381  0.44018  0.82279  1.0000
  C   C202      1.0  0.11959  0.04426  0.90196  1.0000
  H   H337      1.0  0.24739  0.33165  0.92328  1.0000
  H   H338      1.0  0.05556  0.39687  0.82625  1.0000
  N   N16       1.0  0.15076  0.05395  0.89281  1.0000
  H   H339      1.0  0.27218  0.00546  0.66141  1.0000
  H   H340      1.0  0.08265  0.44701  0.85341  1.0000
  C   C203      1.0  0.14401  0.05964  0.87207  1.0000
  C   C204      1.0  0.16299  0.08379  0.90230  1.0000
  Fe  Fe30      1.0  0.39485  0.40058  0.65748  1.0000
  C   C205      1.0  0.47700  0.45878  0.81827  1.0000
  C   C206      1.0  0.17221  0.07071  0.85972  1.0000
  H   H341      1.0  0.18371  0.41240  0.84168  1.0000
  H   H342      1.0  0.29504  0.43156  0.90234  1.0000
  H   H343      1.0  0.07562  0.43266  0.81774  1.0000
  Fe  Fe31      1.0  0.08590  0.01026  0.84145  1.0000
  H   H344      1.0  0.18107  0.05013  0.79702  1.0000
  H   H345      1.0  0.13403  0.03764  0.86544  1.0000
  H   H346      1.0  0.12564  0.07832  0.87014  1.0000
  H   H347      1.0  0.14917  0.10486  0.89727  1.0000
  H   H348      1.0  0.15856  0.08257  0.91785  1.0000
  C   C207      1.0  0.08193  0.00039  0.73150  1.0000
  H   H349      1.0  0.41816  0.48671  0.81727  1.0000
  H   H350      1.0  0.36044  0.00606  0.66797  1.0000
  S   S61       1.0  0.30365  0.40548  0.66874  1.0000
  C   C208      1.0  0.25037  0.32244  0.98677  1.0000
  H   H351      1.0  0.20341  0.11285  0.74093  1.0000
  H   H352      1.0  0.16396  0.07250  0.84481  1.0000
  H   H353      1.0  0.19237  0.05376  0.85969  1.0000
  H   H354      1.0  0.18023  0.09501  0.86366  1.0000
  H   H355      1.0  0.04080  0.43505  0.83236  1.0000
  H   H356      1.0  0.13080  0.42855  0.81879  1.0000
  H   H357      1.0  0.08462  0.07710  0.88868  1.0000
  H   H358      1.0  0.26631  0.40995  0.96342  1.0000
  N   N17       1.0  0.11750  0.41057  0.84645  1.0000
  C   C209      1.0  0.08345  0.42204  0.84816  1.0000
  C   C210      1.0  0.13090  0.40849  0.86628  1.0000
  C   C211      1.0  0.11643  0.37765  0.83790  1.0000
  C   C212      1.0  0.13581  0.43348  0.83401  1.0000
  H   H359      1.0  0.14971  0.03600  0.78128  1.0000
  C   C213      1.0  0.35789  0.48579  0.73275  1.0000
  C   C214      1.0  0.14862  0.36087  0.83497  1.0000
  C   C215      1.0  0.42336  0.30345  0.66121  1.0000
  H   H360      1.0  0.07029  0.40773  0.85887  1.0000
  H   H361      1.0  0.20327  0.15512  0.74352  1.0000
  H   H362      1.0  0.15595  0.40031  0.86652  1.0000
  H   H363      1.0  0.11784  0.39002  0.87450  1.0000
  H   H364      1.0  0.10117  0.36163  0.84671  1.0000
  H   H365      1.0  0.10531  0.37808  0.82360  1.0000
  H   H366      1.0  0.27315  0.31348  0.98200  1.0000
  H   H367      1.0  0.26880  0.36933  0.95896  1.0000
  H   H368      1.0  0.01950  0.00528  0.77114  1.0000
  H   H369      1.0  0.37797  0.44704  0.80886  1.0000
  H   H370      1.0  0.45904  0.48868  0.74220  1.0000
  H   H371      1.0  0.41365  0.32782  0.65981  1.0000
  C   C216      1.0  0.29517  0.44197  0.91681  1.0000
  H   H372      1.0  0.19505  0.02872  0.88634  1.0000
  H   H373      1.0  0.14403  0.33609  0.83014  1.0000
  H   H374      1.0  0.16279  0.35893  0.84815  1.0000
  H   H375      1.0  0.21324  0.14187  0.79148  1.0000
  N   N18       1.0  0.16104  0.10452  0.77478  1.0000
  C   C217      1.0  0.12588  0.09664  0.77389  1.0000
  C   C218      1.0  0.17912  0.07489  0.76928  1.0000
  C   C219      1.0  0.16748  0.13115  0.76079  1.0000
  C   C220      1.0  0.16857  0.11491  0.79474  1.0000
  C   C221      1.0  0.10275  0.12475  0.77701  1.0000
  C   C222      1.0  0.17437  0.04546  0.78207  1.0000
  C   C223      1.0  0.20077  0.13236  0.75143  1.0000
  C   C224      1.0  0.20386  0.12115  0.79942  1.0000
  H   H376      1.0  0.11969  0.08573  0.75993  1.0000
  H   H377      1.0  0.11939  0.07868  0.78480  1.0000
  H   H378      1.0  0.20523  0.07920  0.76898  1.0000
  H   H379      1.0  0.17248  0.06761  0.75458  1.0000
  H   H380      1.0  0.15055  0.12985  0.74858  1.0000
  H   H381      1.0  0.16318  0.15482  0.76744  1.0000
  H   H382      1.0  0.15583  0.13734  0.79826  1.0000
  H   H383      1.0  0.15969  0.09697  0.80509  1.0000
  H   H384      1.0  0.10663  0.14468  0.76698  1.0000
  H   H385      1.0  0.07795  0.11614  0.77467  1.0000
  H   H386      1.0  0.00301  0.41295  0.89231  1.0000
  H   H387      1.0  0.45566  0.45116  0.82636  1.0000
  H   H388      1.0  0.07229  0.05983  0.91035  1.0000
  S   S62       1.0  0.04761  0.99993  0.81957  1.0000
  H   H389      1.0  0.10090  0.09132  0.91090  1.0000
  H   H390      1.0  0.12338  0.03697  0.91692  1.0000
  H   H391      1.0  0.31733  0.43519  0.92430  1.0000
  H   H392      1.0  0.29573  0.46824  0.91485  1.0000
  H   H393      1.0  0.17962  0.45457  0.84614  1.0000
  H   H394      1.0  0.10920  0.02297  0.89470  1.0000
  C   C225      1.0  0.00315  0.39465  0.88153  1.0000
  C   C226      1.0  0.41505  0.48141  0.80193  1.0000
  H   H395      1.0  0.10483  0.44439  0.88279  1.0000
  C   C227      1.0  0.18341  0.01725  0.91510  1.0000
  C   C228      1.0  0.47029  0.46206  0.79681  1.0000
  H   H396      1.0  0.16163  0.00420  0.88872  1.0000
  H   H397      1.0  0.48744  0.47510  0.75928  1.0000
  H   H398      1.0  0.16386  0.00552  0.92308  1.0000
  Fe  Fe32      1.0  0.33216  0.36305  0.65864  1.0000
  C   C229      1.0  0.99885  0.02058  0.77456  1.0000
  H   H399      1.0  0.00448  0.03069  0.78879  1.0000
  C   C230      1.0  0.08019  0.99366  0.75103  1.0000
  H   H400      1.0  0.30774  0.47662  0.68583  1.0000
  H   H401      1.0  0.47768  0.99967  0.80886  1.0000
  H   H402      1.0  0.32394  0.47418  0.78357  1.0000
  C   C231      1.0  0.24920  0.46172  0.70250  1.0000
  H   H403      1.0  0.25332  0.46305  0.71802  1.0000
  H   H404      1.0  0.32040  0.99428  0.67157  1.0000
  H   H405      1.0  0.30828  0.24287  0.65810  1.0000
  C   C232      1.0  0.33360  0.47756  0.76951  1.0000
  C   C233      1.0  0.00348  0.34806  0.85348  1.0000
  C   C234      1.0  0.43897  0.48385  0.77040  1.0000
  H   H406      1.0  0.36728  0.48922  0.71864  1.0000
  H   H407      1.0  0.23810  0.49106  0.67852  1.0000
  Fe  Fe33      1.0  0.35788  0.90021  0.30137  1.0000
  S   S63       1.0  0.35967  0.90209  0.26879  1.0000
  Fe  Fe34      1.0  0.09533  0.51975  0.17519  1.0000
  Fe  Fe35      1.0  0.10694  0.57896  0.14917  1.0000
  S   S64       1.0  0.07760  0.55875  0.12535  1.0000
  S   S65       1.0  0.13226  0.62732  0.14916  1.0000
  Fe  Fe36      1.0  0.04266  0.54509  0.14818  1.0000
  S   S66       1.0  0.07122  0.56742  0.17201  1.0000
  S   S67       1.0  0.13393  0.53342  0.15447  1.0000
  Fe  Fe37      1.0  0.15376  0.84430  0.05792  1.0000
  S   S68       1.0  0.18891  0.82380  0.07878  1.0000
  S   S69       1.0  0.16480  0.86306  0.02796  1.0000
  Fe  Fe38      1.0  0.09743  0.84137  0.08732  1.0000
  S   S70       1.0  0.12945  0.82113  0.10991  1.0000
  S   S71       1.0  0.04262  0.84330  0.08934  1.0000
  Fe  Fe39      1.0  0.16620  0.85730  0.09983  1.0000
  S   S72       1.0  0.19058  0.89209  0.12042  1.0000
  Fe  Fe40      1.0  0.14921  0.78949  0.08703  1.0000
  S   S73       1.0  0.15001  0.73488  0.08603  1.0000
  S   S74       1.0  0.13248  0.87933  0.07863  1.0000
  S   S75       1.0  0.11575  0.80829  0.06471  1.0000
  C   C235      1.0  0.28311  0.92208  0.20249  1.0000
  H   H408      1.0  0.24852  0.88711  0.21327  1.0000
  H   H409      1.0  0.06840  0.74746  0.05747  1.0000
  C   C236      1.0  0.33161  0.91729  0.16988  1.0000
  C   C237      1.0  0.22783  0.91226  0.11848  1.0000
  C   C238      1.0  0.23128  0.94267  0.12664  1.0000
  C   C239      1.0  0.26101  0.95859  0.12667  1.0000
  C   C240      1.0  0.28780  0.94413  0.11867  1.0000
  C   C241      1.0  0.28434  0.91376  0.11045  1.0000
  C   C242      1.0  0.25461  0.89784  0.11043  1.0000
  H   H410      1.0  0.21078  0.95398  0.13300  1.0000
  H   H411      1.0  0.29534  0.85676  0.05575  1.0000
  H   H412      1.0  0.18201  0.61785  0.11010  1.0000
  H   H413      1.0  0.25259  0.87407  0.10465  1.0000
  H   H414      1.0  0.23331  0.92745  0.21301  1.0000
  C   C243      1.0  0.44392  0.97884  0.23693  1.0000
  N   N19       1.0  0.12217  0.52441  0.30802  1.0000
  C   C244      1.0  0.01689  0.86416  0.10512  1.0000
  C   C245      1.0  0.02830  0.88034  0.12110  1.0000
  H   H415      1.0  0.18649  0.92411  0.05218  1.0000
  C   C246      1.0  0.19860  0.59719  0.11019  1.0000
  C   C247      1.0  0.44697  0.91995  0.25927  1.0000
  H   H416      1.0  0.05368  0.88105  0.12394  1.0000
  S   S76       1.0  0.32589  0.96301  0.11833  1.0000
  C   C248      1.0  0.13413  0.65783  0.13170  1.0000
  C   C249      1.0  0.14801  0.68727  0.13657  1.0000
  C   C250      1.0  0.15192  0.71158  0.12296  1.0000
  C   C251      1.0  0.14267  0.70642  0.10416  1.0000
  C   C252      1.0  0.12860  0.67704  0.09929  1.0000
  C   C253      1.0  0.12370  0.65312  0.11306  1.0000
  H   H417      1.0  0.15618  0.69119  0.15094  1.0000
  H   H418      1.0  0.16306  0.73391  0.12689  1.0000
  H   H419      1.0  0.12129  0.67286  0.08479  1.0000
  H   H420      1.0  0.11240  0.63090  0.10916  1.0000
  H   H421      1.0  0.17351  0.62364  0.05794  1.0000
  C   C254      1.0  0.13308  0.55119  0.08361  1.0000
  C   C255      1.0  0.20574  0.51656  0.08402  1.0000
  C   C256      1.0  0.35461  0.93417  0.25250  1.0000
  H   H422      1.0  0.18293  0.50387  0.08644  1.0000
  Fe  Fe41      1.0  0.10242  0.51219  0.13226  1.0000
  H   H423      1.0  0.22112  0.87637  0.16380  1.0000
  H   H424      1.0  0.22885  0.95384  0.18717  1.0000
  C   C257      1.0  0.36368  0.92989  0.23345  1.0000
  H   H425      1.0  0.14413  0.53214  0.07511  1.0000
  C   C258      1.0  0.15401  0.56250  0.10042  1.0000
  H   H426      1.0  0.29753  0.94021  0.21022  1.0000
  H   H427      1.0  0.37328  0.90720  0.22904  1.0000
  C   C259      1.0  0.21384  0.82667  0.01213  1.0000
  C   C260      1.0  0.19119  0.85072  0.00955  1.0000
  H   H428      1.0  0.36811  0.95119  0.20557  1.0000
  H   H429      1.0  0.21502  0.81418  0.02552  1.0000
  H   H430      1.0  0.15070  0.61896  0.07924  1.0000
  C   C261      1.0  0.21022  0.54412  0.09816  1.0000
  H   H431      1.0  0.29900  0.90094  0.20239  1.0000
  C   C262      1.0  0.43496  0.97688  0.25812  1.0000
  H   H432      1.0  0.29216  0.96446  0.03478  1.0000
  C   C263      1.0  0.27263  0.85483  0.04769  1.0000
  H   H433      1.0  0.42802  0.97596  0.31498  1.0000
  C   C264      1.0  0.05910  0.72364  0.12030  1.0000
  H   H434      1.0  0.05370  0.50221  0.21876  1.0000
  S   S77       1.0  0.06452  0.49657  0.15290  1.0000
  C   C265      1.0  0.36076  0.95479  0.22009  1.0000
  C   C266      1.0  0.07972  0.74915  0.13033  1.0000
  N   N20       1.0  0.25410  0.91397  0.04995  1.0000
  C   C267      1.0  0.23494  0.93415  0.06352  1.0000
  C   C268      1.0  0.28879  0.92201  0.05321  1.0000
  C   C269      1.0  0.24799  0.87936  0.05464  1.0000
  C   C270      1.0  0.24293  0.92166  0.03011  1.0000
  C   C271      1.0  0.19954  0.92488  0.06585  1.0000
  H   H435      1.0  0.18757  0.94277  0.07497  1.0000
  H   H436      1.0  0.28843  0.90699  0.01605  1.0000
  H   H437      1.0  0.14065  0.58239  0.10709  1.0000
  H   H438      1.0  0.24564  0.93371  0.07798  1.0000
  C   C272      1.0  0.33873  0.98831  0.24453  1.0000
  H   H439      1.0  0.30491  0.90712  0.04455  1.0000
  H   H440      1.0  0.29563  0.91644  0.06813  1.0000
  H   H441      1.0  0.24682  0.87596  0.07028  1.0000
  H   H442      1.0  0.22432  0.87160  0.04908  1.0000
  H   H443      1.0  0.21817  0.91273  0.02785  1.0000
  H   H444      1.0  0.26006  0.92460  0.00106  1.0000
  H   H445      1.0  0.02892  0.73920  0.06416  1.0000
  H   H446      1.0  0.33508  0.96735  0.27253  1.0000
  H   H447      1.0  0.03508  0.78476  0.11006  1.0000
  H   H448      1.0  0.46965  0.98377  0.23481  1.0000
  H   H449      1.0  0.13451  0.55107  0.27090  1.0000
  H   H450      1.0  0.31869  0.96177  0.18249  1.0000
  C   C273      1.0  0.25290  0.96034  0.18195  1.0000
  H   H451      1.0  0.16146  0.51780  0.27443  1.0000
  S   S78       1.0  0.39528  0.86852  0.31447  1.0000
  H   H452      1.0  0.25352  0.88464  0.00907  1.0000
  H   H453      1.0  0.04291  0.71326  0.13121  1.0000
  C   C274      1.0  0.20052  0.58639  0.13104  1.0000
  N   N21       1.0  0.27566  0.93257  0.18252  1.0000
  C   C275      1.0  0.30655  0.94351  0.17357  1.0000
  H   H454      1.0  0.13744  0.57216  0.30054  1.0000
  C   C276      1.0  0.26268  0.90518  0.17086  1.0000
  C   C277      1.0  0.19014  0.86661  0.99196  1.0000
  H   H455      1.0  0.46404  0.91798  0.24727  1.0000
  C   C278      1.0  0.03669  0.67690  0.09071  1.0000
  S   S79       1.0  0.11571  0.49148  0.20039  1.0000
  H   H456      1.0  0.25309  0.80079  0.99973  1.0000
  H   H457      1.0  0.09578  0.56730  0.30064  1.0000
  H   H458      1.0  0.01598  0.90807  0.14579  1.0000
  H   H459      1.0  0.45031  0.86838  0.26128  1.0000
  C   C279      1.0  0.26252  0.90837  0.01342  1.0000
  H   H460      1.0  0.27488  0.88254  0.17469  1.0000
  H   H461      1.0  0.01875  0.65942  0.08547  1.0000
  C   C280      1.0  0.17517  0.61862  0.07337  1.0000
  H   H462      1.0  0.04487  0.77891  0.06752  1.0000
  C   C281      1.0  0.01921  0.70732  0.09716  1.0000
  C   C282      1.0  0.44996  0.88914  0.27102  1.0000
  H   H463      1.0  0.21761  0.58989  0.07325  1.0000
  H   H464      1.0  0.17835  0.57431  0.13558  1.0000
  H   H465      1.0  0.30190  0.95536  0.15971  1.0000
  H   H466      1.0  0.26779  0.90897  0.15553  1.0000
  H   H467      1.0  0.26723  0.98463  0.20855  1.0000
  H   H468      1.0  0.05847  0.53804  0.31371  1.0000
  C   C283      1.0  0.02028  0.76271  0.10930  1.0000
  N   N22       1.0  0.04031  0.73470  0.10321  1.0000
  H   H469      1.0  0.48968  0.98532  0.27490  1.0000
  C   C284      1.0  0.00681  0.89568  0.13347  1.0000
  H   H470      1.0  0.08965  0.51841  0.28434  1.0000
  C   C285      1.0  0.06372  0.74437  0.08806  1.0000
  N   N23       1.0  0.18803  0.57218  0.09608  1.0000
  C   C286      1.0  0.15624  0.51732  0.31356  1.0000
  H   H471      1.0  0.18298  0.56988  0.06538  1.0000
  C   C287      1.0  0.05019  0.75303  0.06839  1.0000
  H   H472      1.0  0.21755  0.89535  0.18632  1.0000
  C   C288      1.0  0.25473  0.91265  0.21516  1.0000
  H   H473      1.0  0.42876  0.88591  0.28019  1.0000
  H   H474      1.0  0.23555  0.55213  0.09709  1.0000
  H   H475      1.0  0.21271  0.91773  0.16454  1.0000
  C   C289      1.0  0.43513  0.95012  0.28862  1.0000
  H   H476      1.0  0.07763  0.76563  0.09263  1.0000
  H   H477      1.0  0.08235  0.72594  0.08601  1.0000
  H   H478      1.0  0.04947  0.66510  0.10256  1.0000
  H   H479      1.0  0.09885  0.75835  0.12100  1.0000
  C   C290      1.0  0.43865  0.98044  0.30083  1.0000
  C   C291      1.0  0.10022  0.50804  0.32182  1.0000
  C   C292      1.0  0.11779  0.56005  0.30836  1.0000
  C   C293      1.0  0.06415  0.51392  0.31895  1.0000
  H   H480      1.0  0.22246  0.60704  0.10634  1.0000
  H   H481      1.0  0.12640  0.57112  0.07412  1.0000
  H   H482      1.0  0.26150  0.91658  0.23023  1.0000
  H   H483      1.0  0.26309  0.83052  0.05036  1.0000
  H   H484      1.0  0.11041  0.54122  0.08919  1.0000
  H   H485      1.0  0.12812  0.51446  0.25878  1.0000
  H   H486      1.0  0.07580  0.70426  0.11647  1.0000
  H   H487      1.0  0.34027  0.90625  0.18319  1.0000
  H   H488      1.0  0.40858  0.97387  0.25868  1.0000
  H   H489      1.0  0.15348  0.54321  0.11125  1.0000
  H   H490      1.0  0.35269  0.92816  0.16292  1.0000
  H   H491      1.0  0.19710  0.90170  0.07323  1.0000
  H   H492      1.0  0.06542  0.76922  0.13591  1.0000
  H   H493      1.0  0.24893  0.96805  0.16702  1.0000
  H   H494      1.0  0.30496  0.90223  0.10437  1.0000
  H   H495      1.0  0.44360  0.93012  0.29754  1.0000
  H   H496      1.0  0.01103  0.75876  0.12388  1.0000
  H   H497      1.0  0.27741  0.85643  0.03235  1.0000
  H   H498      1.0  0.40915  0.94528  0.28673  1.0000
  H   H499      1.0  0.20350  0.60769  0.14024  1.0000
  C   C294      1.0  0.22645  0.89864  0.17174  1.0000
  H   H500      1.0  0.18910  0.63842  0.07981  1.0000
  H   H501      1.0  0.09186  0.73799  0.14267  1.0000
  C   C295      1.0  0.19184  0.58628  0.07655  1.0000
  H   H502      1.0  0.22140  0.57082  0.13366  1.0000
  H   H503      1.0  0.43678  0.95710  0.22904  1.0000
  C   C296      1.0  0.11457  0.51224  0.28844  1.0000
  H   H504      1.0  0.32281  0.89871  0.15999  1.0000
  H   H505      1.0  0.42278  0.91864  0.25275  1.0000
  H   H506      1.0  0.20770  0.53296  0.11240  1.0000
  H   H507      1.0  0.20786  0.52410  0.06904  1.0000
  H   H508      1.0  0.00304  0.71393  0.08537  1.0000
  C   C297      1.0  0.29825  0.95694  0.04940  1.0000
  H   H509      1.0  0.17329  0.53226  0.30534  1.0000
  C   C298      1.0  0.34225  0.96364  0.25798  1.0000
  H   H510      1.0  0.23520  0.95964  0.05920  1.0000
  C   C299      1.0  0.34791  0.98411  0.22552  1.0000
  H   H511      1.0  0.22474  0.49862  0.08654  1.0000
  C   C300      1.0  0.23540  0.81910  0.99744  1.0000
  C   C301      1.0  0.13622  0.52486  0.27245  1.0000
  N   N24       1.0  0.45136  0.95122  0.26958  1.0000
  H   H512      1.0  0.24049  0.94779  0.02789  1.0000
  H   H513      1.0  0.05381  0.49630  0.30891  1.0000
  H   H514      1.0  0.28736  0.97336  0.05984  1.0000
  C   C302      1.0  0.26310  0.98999  0.19335  1.0000
  H   H515      1.0  0.05338  0.68162  0.07887  1.0000
  H   H516      1.0  0.26316  0.98211  0.13278  1.0000
  H   H517      1.0  0.32452  0.95943  0.05106  1.0000
  H   H518      1.0  0.46396  0.98676  0.30345  1.0000
  H   H519      1.0  0.47180  0.88810  0.27977  1.0000
  C   C303      1.0  0.48625  0.95980  0.27108  1.0000
  H   H520      1.0  0.00292  0.70042  0.10895  1.0000
  H   H521      1.0  0.00815  0.80290  0.14600  1.0000
  H   H522      1.0  0.99626  0.77470  0.08214  1.0000
  S   S80       1.0  0.36819  0.94118  0.32106  1.0000
  S   S81       1.0  0.31898  0.87887  0.31972  1.0000
  H   H523      1.0  0.33276  0.49180  0.15032  1.0000
  H   H524      1.0  0.99299  0.55054  0.10746  1.0000
  S   S82       1.0  0.38177  0.99038  0.15905  1.0000
  H   H525      1.0  0.17276  0.88526  0.98976  1.0000
  C   C304      1.0  0.17963  0.98593  0.60584  1.0000
  Fe  Fe42      1.0  0.31993  0.60222  0.40156  1.0000
  S   S83       1.0  0.29648  0.60323  0.37297  1.0000
  S   S84       1.0  0.37267  0.58999  0.40600  1.0000
  Fe  Fe43      1.0  0.25655  0.61661  0.42264  1.0000
  S   S85       1.0  0.22954  0.61858  0.39491  1.0000
  S   S86       1.0  0.22610  0.62987  0.44867  1.0000
  Fe  Fe44      1.0  0.25688  0.57495  0.38666  1.0000
  S   S87       1.0  0.24021  0.52879  0.37242  1.0000
  Fe  Fe45      1.0  0.27140  0.64695  0.38377  1.0000
  S   S88       1.0  0.26103  0.69107  0.36582  1.0000
  S   S89       1.0  0.28187  0.57121  0.41487  1.0000
  S   S90       1.0  0.29685  0.64769  0.41184  1.0000
  Fe  Fe46      1.0  0.07961  0.85155  0.64542  1.0000
  H   H526      1.0  0.35696  0.53894  0.33161  1.0000
  S   S91       1.0  0.36815  0.88939  0.35591  1.0000
  H   H527      1.0  0.15375  0.50373  0.41320  1.0000
  Fe  Fe47      1.0  0.33139  0.91855  0.34017  1.0000
  Fe  Fe48      1.0  0.40386  0.90804  0.33505  1.0000
  S   S92       1.0  0.45632  0.92127  0.33963  1.0000
  N   N25       1.0  0.34158  0.49675  0.36496  1.0000
  S   S93       1.0  0.05360  0.94092  0.65166  1.0000
  H   H528      1.0  0.29120  0.95743  0.64879  1.0000
  Fe  Fe49      1.0  0.02467  0.89975  0.63972  1.0000
  Fe  Fe50      1.0  0.09478  0.92070  0.63482  1.0000
  N   N26       1.0  0.16181  0.53909  0.43496  1.0000
  C   C305      1.0  0.29046  0.96798  0.63431  1.0000
  S   S94       1.0  0.06432  0.88231  0.62100  1.0000
  H   H529      1.0  0.06884  0.53952  0.64261  1.0000
  Fe  Fe51      1.0  0.15827  0.57602  0.59881  1.0000
  S   S95       1.0  0.13200  0.55405  0.57424  1.0000
  S   S96       1.0  0.17714  0.54226  0.62184  1.0000
  Fe  Fe52      1.0  0.14210  0.64395  0.58513  1.0000
  S   S97       1.0  0.11537  0.62559  0.55955  1.0000
  S   S98       1.0  0.14898  0.69806  0.58670  1.0000
  Fe  Fe53      1.0  0.09376  0.59032  0.58007  1.0000
  S   S99       1.0  0.04063  0.57755  0.57832  1.0000
  Fe  Fe54      1.0  0.15603  0.59118  0.55593  1.0000
  S   S100      1.0  0.18264  0.57378  0.52926  1.0000
  S   S101      1.0  0.11833  0.61047  0.60572  1.0000
  S   S102      1.0  0.18432  0.61131  0.58046  1.0000
  H   H530      1.0  0.09533  0.56822  0.33623  1.0000
  C   C306      1.0  0.21424  0.52165  0.62221  1.0000
  C   C307      1.0  0.24015  0.53134  0.61114  1.0000
  C   C308      1.0  0.30350  0.83753  0.37844  1.0000
  C   C309      1.0  0.24230  0.98108  0.36614  1.0000
  H   H531      1.0  0.29790  0.50899  0.34999  1.0000
  C   C310      1.0  0.27094  0.97674  0.35612  1.0000
  H   H532      1.0  0.23750  0.55116  0.60148  1.0000
  H   H533      1.0  0.36701  0.74281  0.36778  1.0000
  H   H534      1.0  0.02301  0.81838  0.63376  1.0000
  H   H535      1.0  0.04891  0.83853  0.57837  1.0000
  C   C311      1.0  0.13008  0.72527  0.60245  1.0000
  C   C312      1.0  0.13373  0.75826  0.59945  1.0000
  C   C313      1.0  0.12004  0.78066  0.61193  1.0000
  C   C314      1.0  0.10285  0.77028  0.62776  1.0000
  C   C315      1.0  0.09893  0.73731  0.63063  1.0000
  C   C316      1.0  0.11224  0.71494  0.61802  1.0000
  H   H536      1.0  0.14752  0.76657  0.58748  1.0000
  H   H537      1.0  0.12333  0.80590  0.60952  1.0000
  H   H538      1.0  0.13854  0.56986  0.33668  1.0000
  H   H539      1.0  0.10932  0.68971  0.62061  1.0000
  C   C317      1.0  0.21828  0.49581  0.63473  1.0000
  C   C318      1.0  0.09148  0.52018  0.61666  1.0000
  C   C319      1.0  0.02328  0.57525  0.61634  1.0000
  C   C320      1.0  0.01433  0.56990  0.59750  1.0000
  H   H540      1.0  0.30902  0.81466  0.37149  1.0000
  C   C321      1.0  0.22634  0.87920  0.39438  1.0000
  C   C322      1.0  0.32876  0.84306  0.39402  1.0000
  H   H541      1.0  0.04647  0.58535  0.61948  1.0000
  H   H542      1.0  0.05182  0.51164  0.33281  1.0000
  C   C323      1.0  0.21461  0.61359  0.47101  1.0000
  C   C324      1.0  0.19049  0.62895  0.48141  1.0000
  C   C325      1.0  0.18013  0.61699  0.49907  1.0000
  C   C326      1.0  0.19408  0.58965  0.50678  1.0000
  C   C327      1.0  0.21808  0.57417  0.49632  1.0000
  C   C328      1.0  0.22828  0.58598  0.47856  1.0000
  H   H543      1.0  0.17950  0.65014  0.47565  1.0000
  H   H544      1.0  0.16109  0.62870  0.50660  1.0000
  H   H545      1.0  0.22906  0.55296  0.50209  1.0000
  H   H546      1.0  0.24689  0.57388  0.47082  1.0000
  H   H547      1.0  0.02021  0.85391  0.59436  1.0000
  C   C329      1.0  0.27324  0.77979  0.39653  1.0000
  H   H548      1.0  0.20904  0.56005  0.43881  1.0000
  C   C330      1.0  0.20111  0.51279  0.37030  1.0000
  C   C331      1.0  0.17404  0.52964  0.37597  1.0000
  C   C332      1.0  0.14357  0.51540  0.37462  1.0000
  H   H549      1.0  0.08577  0.72898  0.64284  1.0000
  H   H550      1.0  0.10818  0.52272  0.64645  1.0000
  H   H551      1.0  0.17666  0.55362  0.38134  1.0000
  Fe  Fe55      1.0  0.35761  0.85100  0.33455  1.0000
  C   C333      1.0  0.33410  0.76927  0.35035  1.0000
  C   C334      1.0  0.34303  0.74370  0.36209  1.0000
  C   C335      1.0  0.32110  0.71942  0.36677  1.0000
  C   C336      1.0  0.28994  0.72034  0.35967  1.0000
  C   C337      1.0  0.28107  0.74572  0.34773  1.0000
  C   C338      1.0  0.30301  0.77006  0.34308  1.0000
  H   H552      1.0  0.32775  0.82471  0.40528  1.0000
  H   H553      1.0  0.32830  0.70005  0.37594  1.0000
  H   H554      1.0  0.25708  0.74653  0.34206  1.0000
  H   H555      1.0  0.33631  0.98940  0.41189  1.0000
  C   C339      1.0  0.44725  0.56317  0.36053  1.0000
  C   C340      1.0  0.45419  0.56015  0.37986  1.0000
  C   C341      1.0  0.43143  0.56917  0.39357  1.0000
  C   C342      1.0  0.40154  0.58148  0.38818  1.0000
  C   C343      1.0  0.39510  0.58565  0.36887  1.0000
  C   C344      1.0  0.41772  0.57635  0.35516  1.0000
  C   C345      1.0  0.26200  0.87112  0.39219  1.0000
  H   H556      1.0  0.43685  0.56608  0.40845  1.0000
  H   H557      1.0  0.37262  0.59586  0.36450  1.0000
  H   H558      1.0  0.41216  0.57904  0.34027  1.0000
  H   H559      1.0  0.18347  0.96954  0.59426  1.0000
  S   S103      1.0  0.12970  0.94633  0.61489  1.0000
  C   C346      1.0  0.14277  0.56445  0.42484  1.0000
  C   C347      1.0  0.33751  0.50658  0.40143  1.0000
  H   H560      1.0  0.48867  0.81293  0.34873  1.0000
  H   H561      1.0  0.30987  0.97615  0.39400  1.0000
  H   H562      1.0  0.11743  0.56423  0.42950  1.0000
  N   N27       1.0  0.26929  0.83821  0.38482  1.0000
  H   H563      1.0  0.25454  0.80550  0.36281  1.0000
  H   H564      1.0  0.13924  0.61518  0.41887  1.0000
  H   H565      1.0  0.27329  0.87492  0.40630  1.0000
  H   H566      1.0  0.45220  0.79109  0.34666  1.0000
  S   S104      1.0  0.36225  0.80021  0.34604  1.0000
  H   H567      1.0  0.27283  0.88987  0.38311  1.0000
  H   H568      1.0  0.26799  0.84237  0.34041  1.0000
  H   H569      1.0  0.01904  0.70992  0.61272  1.0000
  H   H570      1.0  0.30785  0.85580  0.36729  1.0000
  H   H571      1.0  0.47629  0.74345  0.36135  1.0000
  C   C348      1.0  0.47472  0.79305  0.35496  1.0000
  H   H572      1.0  0.14234  0.55981  0.40931  1.0000
  C   C349      1.0  0.33373  0.54008  0.33910  1.0000
  H   H573      1.0  0.19875  0.55300  0.41485  1.0000
  C   C350      1.0  0.02632  0.83274  0.58584  1.0000
  H   H574      1.0  0.00958  0.57116  0.64573  1.0000
  C   C351      1.0  0.26336  0.81457  0.40055  1.0000
  H   H575      1.0  0.23222  0.96137  0.37399  1.0000
  H   H576      1.0  0.34792  0.54147  0.37972  1.0000
  C   C352      1.0  0.01947  0.73289  0.60490  1.0000
  H   H577      1.0  0.25366  0.93385  0.62622  1.0000
  H   H578      1.0  0.47674  0.55004  0.38425  1.0000
  C   C353      1.0  0.25053  0.85179  0.35079  1.0000
  C   C354      1.0  0.11693  0.57542  0.32822  1.0000
  H   H579      1.0  0.11598  0.60173  0.32664  1.0000
  C   C355      1.0  0.03152  0.80239  0.59790  1.0000
  H   H580      1.0  0.22417  0.90284  0.40132  1.0000
  H   H581      1.0  0.29593  0.78936  0.33386  1.0000
  H   H582      1.0  0.06817  0.51481  0.57884  1.0000
  N   N28       1.0  0.23037  0.67968  0.53951  1.0000
  C   C356      1.0  0.20411  0.69081  0.52635  1.0000
  C   C357      1.0  0.26092  0.69533  0.53308  1.0000
  C   C358      1.0  0.22202  0.69027  0.55935  1.0000
  C   C359      1.0  0.23190  0.64388  0.53820  1.0000
  C   C360      1.0  0.16959  0.68331  0.53266  1.0000
  C   C361      1.0  0.27212  0.68648  0.51294  1.0000
  C   C362      1.0  0.24939  0.69286  0.57392  1.0000
  C   C363      1.0  0.25904  0.62686  0.54891  1.0000
  H   H583      1.0  0.20537  0.71712  0.52428  1.0000
  H   H584      1.0  0.20677  0.68018  0.51200  1.0000
  H   H585      1.0  0.28117  0.68993  0.54267  1.0000
  H   H586      1.0  0.25852  0.72174  0.53368  1.0000
  H   H587      1.0  0.21091  0.71439  0.55911  1.0000
  H   H588      1.0  0.20367  0.67421  0.56557  1.0000
  H   H589      1.0  0.20955  0.63305  0.54362  1.0000
  H   H590      1.0  0.23257  0.63572  0.52322  1.0000
  H   H591      1.0  0.16245  0.69771  0.54511  1.0000
  H   H592      1.0  0.15289  0.68953  0.52099  1.0000
  H   H593      1.0  0.16590  0.65779  0.53588  1.0000
  H   H594      1.0  0.27656  0.66057  0.51147  1.0000
  H   H595      1.0  0.25511  0.69442  0.50185  1.0000
  H   H596      1.0  0.29512  0.69875  0.51002  1.0000
  H   H597      1.0  0.23890  0.69774  0.58808  1.0000
  H   H598      1.0  0.26543  0.71321  0.57064  1.0000
  H   H599      1.0  0.26342  0.67080  0.57531  1.0000
  H   H600      1.0  0.25180  0.62108  0.56364  1.0000
  H   H601      1.0  0.28185  0.64006  0.54903  1.0000
  H   H602      1.0  0.26441  0.60412  0.54153  1.0000
  H   H603      1.0  0.26877  0.76517  0.40939  1.0000
  H   H604      1.0  0.10659  0.51367  0.33675  1.0000
  H   H605      1.0  0.03399  0.76303  0.62800  1.0000
  C   C364      1.0  0.15430  0.59911  0.42761  1.0000
  H   H606      1.0  0.21361  0.86161  0.40333  1.0000
  S   S105      1.0  0.47296  0.54776  0.34268  1.0000
  H   H607      1.0  0.29897  0.77735  0.39327  1.0000
  H   H608      1.0  0.34669  0.52613  0.41055  1.0000
  H   H609      1.0  0.38462  0.52162  0.35649  1.0000
  H   H610      1.0  0.24245  0.51863  0.42716  1.0000
  H   H611      1.0  0.03808  0.78379  0.58745  1.0000
  C   C365      1.0  0.37681  0.49738  0.36061  1.0000
  S   S106      1.0  0.29090  0.93950  0.35805  1.0000
  H   H612      1.0  0.13192  0.54528  0.45972  1.0000
  H   H613      1.0  0.16783  0.56732  0.46042  1.0000
  H   H614      1.0  0.22289  0.82697  0.37240  1.0000
  H   H615      1.0  0.12276  0.52844  0.37921  1.0000
  H   H616      1.0  0.30832  0.52708  0.37976  1.0000
  H   H617      1.0  0.15198  0.60721  0.44249  1.0000
  H   H618      1.0  0.11628  0.51966  0.61116  1.0000
  H   H619      1.0  0.32687  0.86721  0.40025  1.0000
  C   C366      1.0  0.32402  0.50738  0.34731  1.0000
  H   H620      1.0  0.46773  0.79929  0.36963  1.0000
  H   H621      1.0  0.05329  0.80620  0.60674  1.0000
  H   H622      1.0  0.25883  0.76889  0.38503  1.0000
  H   H623      1.0  0.17917  0.60271  0.42284  1.0000
  H   H624      1.0  0.44632  0.87413  0.36978  1.0000
  H   H625      1.0  0.10608  0.50407  0.44668  1.0000
  H   H626      1.0  0.27560  0.82201  0.41385  1.0000
  H   H627      1.0  0.09826  0.51607  0.42229  1.0000
  C   C367      1.0  0.15765  0.54403  0.45598  1.0000
  H   H628      1.0  0.31396  0.50014  0.40752  1.0000
  H   H629      1.0  0.07877  0.53705  0.60714  1.0000
  N   N29       1.0  0.00374  0.79184  0.61006  1.0000
  H   H630      1.0  0.30531  0.97667  0.59693  1.0000
  H   H631      1.0  0.03001  0.50875  0.60987  1.0000
  C   C368      1.0  0.00034  0.81623  0.62560  1.0000
  H   H632      1.0  0.25752  0.87650  0.35430  1.0000
  S   S107      1.0  0.08537  0.79714  0.64428  1.0000
  H   H633      1.0  0.16771  0.52554  0.48403  1.0000
  C   C369      1.0  0.33359  0.51928  0.38093  1.0000
  C   C370      1.0  0.01251  0.76028  0.61886  1.0000
  H   H634      1.0  0.23757  0.81377  0.40420  1.0000
  H   H635      1.0  0.22681  0.85344  0.34381  1.0000
  C   C371      1.0  0.24836  0.82955  0.36820  1.0000
  C   C372      1.0  0.48280  0.90021  0.35496  1.0000
  H   H636      1.0  0.28985  0.52392  0.60449  1.0000
  C   C373      1.0  0.47165  0.87874  0.36863  1.0000
  C   C374      1.0  0.26986  0.51587  0.61293  1.0000
  H   H637      1.0  0.21433  0.88121  0.38040  1.0000
  C   C375      1.0  0.00225  0.56728  0.63119  1.0000
  C   C376      1.0  0.21692  0.51210  0.42863  1.0000
  C   C377      1.0  0.25709  0.96010  0.62620  1.0000
  C   C378      1.0  0.15523  0.97954  0.61898  1.0000
  H   H638      1.0  0.35284  0.84125  0.38753  1.0000
  H   H639      1.0  0.04388  0.73508  0.59891  1.0000
  H   H640      1.0  0.30848  0.95432  0.62612  1.0000
  H   H641      1.0  0.21488  0.49716  0.44145  1.0000
  H   H642      1.0  0.16351  0.49490  0.46675  1.0000
  H   H643      1.0  0.33469  0.55882  0.35008  1.0000
  H   H644      1.0  0.39912  0.50565  0.38841  1.0000
  C   C379      1.0  0.19655  0.54273  0.42936  1.0000
  H   H645      1.0  0.21065  0.49761  0.41597  1.0000
  C   C380      1.0  0.09280  0.53599  0.63641  1.0000
  H   H646      1.0  0.00175  0.73140  0.59327  1.0000
  H   H647      1.0  0.25421  0.96818  0.61135  1.0000
  H   H648      1.0  0.10375  0.55998  0.63495  1.0000
  H   H649      1.0  0.99595  0.84023  0.61971  1.0000
  H   H650      1.0  0.23771  0.97022  0.63501  1.0000
  C   C381      1.0  0.14913  0.50711  0.42860  1.0000
  H   H651      1.0  0.19944  0.51945  0.46782  1.0000
  H   H652      1.0  0.29522  0.98015  0.41741  1.0000
  H   H653      1.0  0.31569  0.54762  0.32845  1.0000
  H   H654      1.0  0.00776  0.82917  0.57480  1.0000
  C   C382      1.0  0.11320  0.50101  0.43168  1.0000
  H   H655      1.0  0.48419  0.84804  0.39204  1.0000
  C   C383      1.0  0.17312  0.51919  0.46908  1.0000
  H   H656      1.0  0.03688  0.50095  0.63378  1.0000
  H   H657      1.0  0.16059  0.52368  0.32867  1.0000
  H   H658      1.0  0.99403  0.75153  0.62872  1.0000
  H   H659      1.0  0.12101  0.98783  0.57882  1.0000
  H   H660      1.0  0.24620  0.98788  0.40589  1.0000
  H   H661      1.0  0.99621  0.97379  0.32628  1.0000
  Fe  Fe56      1.0  0.27082  0.80260  0.89258  1.0000
  S   S108      1.0  0.30541  0.80412  0.91662  1.0000
  S   S109      1.0  0.25591  0.75628  0.87787  1.0000
  Fe  Fe57      1.0  0.26155  0.87522  0.89374  1.0000
  S   S110      1.0  0.29637  0.88102  0.91820  1.0000
  S   S111      1.0  0.24291  0.91884  0.87758  1.0000
  Fe  Fe58      1.0  0.32733  0.84656  0.90207  1.0000
  S   S112      1.0  0.38174  0.84363  0.89995  1.0000
  Fe  Fe59      1.0  0.27138  0.83814  0.93081  1.0000
  S   S113      1.0  0.26325  0.82526  0.96222  1.0000
  S   S114      1.0  0.29434  0.84309  0.87708  1.0000
  S   S115      1.0  0.23497  0.83427  0.90727  1.0000
  H   H662      1.0  0.48826  0.86409  0.87355  1.0000
  Fe  Fe60      1.0  0.39056  0.53387  0.84769  1.0000
  S   S116      1.0  0.38274  0.57359  0.82717  1.0000
  S   S117      1.0  0.44249  0.51875  0.85221  1.0000
  S   S118      1.0  0.30637  0.56299  0.83145  1.0000
  Fe  Fe61      1.0  0.34580  0.54181  0.81348  1.0000
  Fe  Fe62      1.0  0.34450  0.59091  0.84697  1.0000
  S   S119      1.0  0.34977  0.64239  0.85762  1.0000
  S   S120      1.0  0.35433  0.55230  0.86835  1.0000
  H   H663      1.0  0.45462  0.66410  0.87036  1.0000
  H   H664      1.0  0.43831  0.54921  0.77333  1.0000
  C   C384      1.0  0.27466  0.73419  0.93853  1.0000
  H   H665      1.0  0.27758  0.75440  0.94851  1.0000
  H   H666      1.0  0.16465  0.98753  0.84555  1.0000
  C   C385      1.0  0.33168  0.51910  0.67739  1.0000
  Fe  Fe63      1.0  0.06972  0.90694  0.67456  1.0000
  S   S121      1.0  0.06792  0.91269  0.70703  1.0000
  H   H667      1.0  0.07361  0.95651  0.77166  1.0000
  H   H668      1.0  0.47943  0.73998  0.86809  1.0000
  H   H669      1.0  0.26388  0.55579  0.72639  1.0000
  C   C386      1.0  0.07280  0.94459  0.72351  1.0000
  C   C387      1.0  0.30029  0.50036  0.68042  1.0000
  H   H670      1.0  0.31283  0.53159  0.71296  1.0000
  S   S122      1.0  0.27681  0.50032  0.86887  1.0000
  H   H671      1.0  0.06694  0.91366  0.74764  1.0000
  Fe  Fe64      1.0  0.31789  0.52319  0.85208  1.0000
  S   S123      1.0  0.10261  0.97313  0.86288  1.0000
  H   H672      1.0  0.23701  0.53803  0.66261  1.0000
  C   C388      1.0  0.23452  0.83520  0.97990  1.0000
  H   H673      1.0  0.20197  0.77335  0.90259  1.0000
  C   C389      1.0  0.21149  0.85884  0.97720  1.0000
  H   H674      1.0  0.32907  0.54519  0.67834  1.0000
  H   H675      1.0  0.21045  0.87149  0.96386  1.0000
  C   C390      1.0  0.20334  0.93206  0.87290  1.0000
  C   C391      1.0  0.17686  0.91978  0.88249  1.0000
  C   C392      1.0  0.14615  0.93218  0.87895  1.0000
  C   C393      1.0  0.14141  0.95664  0.86559  1.0000
  C   C394      1.0  0.16783  0.96865  0.85579  1.0000
  C   C395      1.0  0.19861  0.95661  0.85957  1.0000
  H   H676      1.0  0.18012  0.90106  0.89285  1.0000
  H   H677      1.0  0.12593  0.92284  0.88669  1.0000
  C   C396      1.0  0.43915  0.54777  0.78899  1.0000
  H   H678      1.0  0.21894  0.96629  0.85209  1.0000
  C   C397      1.0  0.40868  0.86427  0.88486  1.0000
  C   C398      1.0  0.39880  0.88870  0.87273  1.0000
  C   C399      1.0  0.42125  0.90456  0.86117  1.0000
  C   C400      1.0  0.45369  0.89592  0.86140  1.0000
  C   C401      1.0  0.46340  0.87093  0.87317  1.0000
  C   C402      1.0  0.44105  0.85537  0.88491  1.0000
  H   H679      1.0  0.37400  0.89579  0.87253  1.0000
  H   H680      1.0  0.41347  0.92390  0.85217  1.0000
  H   H681      1.0  0.47561  0.51644  0.75865  1.0000
  H   H682      1.0  0.44893  0.83647  0.89421  1.0000
  C   C403      1.0  0.28052  0.72241  0.87428  1.0000
  C   C404      1.0  0.30972  0.71875  0.88367  1.0000
  C   C405      1.0  0.32983  0.69299  0.87916  1.0000
  C   C406      1.0  0.32084  0.67028  0.86546  1.0000
  C   C407      1.0  0.29092  0.67305  0.85678  1.0000
  C   C408      1.0  0.27090  0.69898  0.86119  1.0000
  H   H683      1.0  0.31722  0.73621  0.89403  1.0000
  H   H684      1.0  0.35285  0.69096  0.88602  1.0000
  H   H685      1.0  0.28377  0.65595  0.84611  1.0000
  H   H686      1.0  0.24824  0.70141  0.85394  1.0000
  N   N30       1.0  0.21295  0.73664  0.93651  1.0000
  C   C409      1.0  0.24439  0.73758  0.92618  1.0000
  C   C410      1.0  0.18650  0.73523  0.92196  1.0000
  C   C411      1.0  0.21050  0.70783  0.94914  1.0000
  C   C412      1.0  0.21065  0.76595  0.94872  1.0000
  H   H687      1.0  0.29586  0.73453  0.92911  1.0000
  H   H688      1.0  0.17261  0.78595  0.91987  1.0000
  C   C413      1.0  0.21523  0.67546  0.93920  1.0000
  C   C414      1.0  0.17925  0.77026  0.95983  1.0000
  H   H689      1.0  0.24548  0.71895  0.91497  1.0000
  H   H690      1.0  0.24702  0.76050  0.91845  1.0000
  H   H691      1.0  0.16344  0.72791  0.92843  1.0000
  H   H692      1.0  0.19148  0.71651  0.91120  1.0000
  H   H693      1.0  0.22775  0.70939  0.96114  1.0000
  H   H694      1.0  0.18663  0.70684  0.95603  1.0000
  H   H695      1.0  0.47431  0.67938  0.85041  1.0000
  H   H696      1.0  0.21565  0.78810  0.94054  1.0000
  C   C415      1.0  0.47836  0.66528  0.86339  1.0000
  H   H697      1.0  0.01931  0.96179  0.78786  1.0000
  H   H698      1.0  0.48632  0.95783  0.73143  1.0000
  S   S124      1.0  0.11234  0.88850  0.65830  1.0000
  H   H699      1.0  0.46522  0.87038  0.79780  1.0000
  H   H700      1.0  0.41454  0.54749  0.79454  1.0000
  H   H701      1.0  0.23907  0.67338  0.93256  1.0000
  H   H702      1.0  0.19647  0.67090  0.92841  1.0000
  H   H703      1.0  0.21341  0.65614  0.94992  1.0000
  C   C416      1.0  0.48528  0.58727  0.88488  1.0000
  H   H704      1.0  0.15802  0.76076  0.95241  1.0000
  H   H705      1.0  0.22629  0.50742  0.70045  1.0000
  C   C417      1.0  0.07097  0.93792  0.74306  1.0000
  S   S125      1.0  0.34977  0.53932  0.78087  1.0000
  H   H706      1.0  0.42936  0.94710  0.77208  1.0000
  H   H707      1.0  0.35012  0.51148  0.68776  1.0000
  C   C418      1.0  0.48419  0.91760  0.79206  1.0000
  N   N31       1.0  0.36043  0.77420  0.84316  1.0000
  C   C419      1.0  0.35585  0.78295  0.86370  1.0000
  C   C420      1.0  0.33820  0.79423  0.83130  1.0000
  C   C421      1.0  0.39426  0.78047  0.83697  1.0000
  C   C422      1.0  0.35324  0.73922  0.84077  1.0000
  C   C423      1.0  0.37991  0.76837  0.87785  1.0000
  C   C424      1.0  0.30219  0.78732  0.83368  1.0000
  C   C425      1.0  0.40672  0.81469  0.84015  1.0000
  C   C426      1.0  0.35376  0.72640  0.82029  1.0000
  H   H708      1.0  0.35650  0.80925  0.86569  1.0000
  H   H709      1.0  0.33176  0.77572  0.86864  1.0000
  H   H710      1.0  0.34391  0.79202  0.81596  1.0000
  H   H711      1.0  0.34136  0.81995  0.83468  1.0000
  H   H712      1.0  0.41107  0.76379  0.84410  1.0000
  H   H713      1.0  0.39699  0.77587  0.82155  1.0000
  H   H714      1.0  0.37047  0.72436  0.84883  1.0000
  H   H715      1.0  0.32945  0.73337  0.84671  1.0000
  H   H716      1.0  0.38059  0.74208  0.87724  1.0000
  H   H717      1.0  0.40428  0.77817  0.87598  1.0000
  H   H718      1.0  0.37242  0.77468  0.89247  1.0000
  H   H719      1.0  0.29537  0.76310  0.82890  1.0000
  H   H720      1.0  0.29417  0.79068  0.84847  1.0000
  H   H721      1.0  0.28841  0.80439  0.82487  1.0000
  H   H722      1.0  0.43201  0.81619  0.83555  1.0000
  H   H723      1.0  0.40633  0.82159  0.85525  1.0000
  H   H724      1.0  0.39325  0.83246  0.83173  1.0000
  H   H725      1.0  0.33564  0.73794  0.81114  1.0000
  H   H726      1.0  0.34787  0.70055  0.82064  1.0000
  H   H727      1.0  0.37761  0.72870  0.81371  1.0000
  H   H728      1.0  0.43727  0.57629  0.87543  1.0000
  H   H729      1.0  0.00479  0.99092  0.73954  1.0000
  C   C427      1.0  0.29077  0.51674  0.71302  1.0000
  H   H730      1.0  0.46434  0.98262  0.74733  1.0000
  H   H731      1.0  0.17469  0.79613  0.96177  1.0000
  C   C428      1.0  0.07464  0.96223  0.75674  1.0000
  H   H732      1.0  0.16131  0.76182  0.90015  1.0000
  H   H733      1.0  0.41159  0.93720  0.80198  1.0000
  C   C429      1.0  0.47112  0.54272  0.86439  1.0000
  S   S126      1.0  0.35512  0.50085  0.83331  1.0000
  S   S127      1.0  0.03852  0.86729  0.66356  1.0000
  H   H734      1.0  0.47784  0.60749  0.89324  1.0000
  C   C430      1.0  0.24640  0.49502  0.69334  1.0000
  H   H735      1.0  0.37134  0.53279  0.74246  1.0000
  H   H736      1.0  0.28214  0.52856  0.74250  1.0000
  C   C431      1.0  0.26744  0.54847  0.68734  1.0000
  N   N32       1.0  0.27624  0.51523  0.69353  1.0000
  H   H737      1.0  0.48358  0.52219  0.79114  1.0000
  N   N33       1.0  0.47887  0.94758  0.78073  1.0000
  C   C432      1.0  0.44521  0.96008  0.78218  1.0000
  H   H738      1.0  0.43764  0.89514  0.78521  1.0000
  H   H739      1.0  0.48550  0.64066  0.85956  1.0000
  H   H740      1.0  0.45039  0.57013  0.79417  1.0000
  C   C433      1.0  0.46317  0.88884  0.78656  1.0000
  H   H741      1.0  0.48951  0.69666  0.88684  1.0000
  H   H742      1.0  0.28673  0.56586  0.69065  1.0000
  C   C434      1.0  0.26922  0.53024  0.72874  1.0000
  H   H743      1.0  0.07969  0.98164  0.70288  1.0000
  H   H744      1.0  0.28977  0.49474  0.66634  1.0000
  C   C435      1.0  0.34789  0.50661  0.76475  1.0000
  H   H745      1.0  0.44475  0.95555  0.81415  1.0000
  C   C436      1.0  0.46215  0.56956  0.87481  1.0000
  H   H746      1.0  0.18093  0.75891  0.97403  1.0000
  C   C437      1.0  0.42869  0.95745  0.80177  1.0000
  C   C438      1.0  0.18058  0.76610  0.91069  1.0000
  C   C439      1.0  0.25845  0.55225  0.66625  1.0000
  C   C440      1.0  0.36017  0.51046  0.74631  1.0000
  H   H747      1.0  0.24659  0.55728  0.69553  1.0000
  H   H748      1.0  0.22974  0.76583  0.95969  1.0000
  H   H749      1.0  0.41864  0.49943  0.76630  1.0000
  C   C441      1.0  0.48565  0.93943  0.76026  1.0000
  H   H750      1.0  0.99657  0.94109  0.80518  1.0000
  H   H751      1.0  0.27550  0.71134  0.94634  1.0000
  S   S128      1.0  0.48115  0.91756  0.84712  1.0000
  H   H752      1.0  0.24672  0.51659  0.73030  1.0000
  H   H753      1.0  0.46017  0.52216  0.81193  1.0000
  C   C442      1.0  0.07822  0.97608  0.71782  1.0000
  H   H754      1.0  0.46774  0.92216  0.75472  1.0000
  H   H755      1.0  0.48109  0.92141  0.80740  1.0000
  H   H756      1.0  0.29869  0.49275  0.71761  1.0000
  C   C443      1.0  0.99510  0.95278  0.79107  1.0000
  H   H757      1.0  0.34059  0.51448  0.66282  1.0000
  C   C444      1.0  0.45868  0.51916  0.79628  1.0000
  H   H758      1.0  0.47162  0.87778  0.77321  1.0000
  H   H759      1.0  0.00611  0.95600  0.75420  1.0000
  H   H760      1.0  0.41401  0.97907  0.80413  1.0000
  H   H761      1.0  0.34754  0.96690  0.66046  1.0000
  C   C445      1.0  0.48582  0.96747  0.74609  1.0000
  H   H762      1.0  0.44441  0.98552  0.77774  1.0000
  H   H763      1.0  0.25242  0.57754  0.66339  1.0000
  H   H764      1.0  0.39652  0.49834  0.79702  1.0000
  C   C446      1.0  0.46715  0.49156  0.75711  1.0000
  H   H765      1.0  0.27835  0.54598  0.65663  1.0000
  H   H766      1.0  0.59792  0.45994  0.30892  1.0000
  Fe  Fe65      1.0  0.87102  0.03794  0.30851  1.0000
  H   H767      1.0  0.71971  0.09009  0.02184  1.0000
  Fe  Fe66      1.0  0.60005  0.43866  0.14521  1.0000
  S   S129      1.0  0.62681  0.41692  0.16978  1.0000
  Fe  Fe67      1.0  0.53807  0.40150  0.15379  1.0000
  S   S130      1.0  0.56139  0.37791  0.17875  1.0000
  Fe  Fe68      1.0  0.58173  0.42576  0.18666  1.0000
  S   S131      1.0  0.57008  0.44407  0.21674  1.0000
  Fe  Fe69      1.0  0.60368  0.37089  0.15973  1.0000
  S   S132      1.0  0.62631  0.32131  0.15998  1.0000
  S   S133      1.0  0.55615  0.44985  0.16249  1.0000
  S   S134      1.0  0.57940  0.39209  0.13431  1.0000
  Fe  Fe70      1.0  0.67734  0.10475  0.09561  1.0000
  S   S135      1.0  0.65189  0.07947  0.07175  1.0000
  S   S136      1.0  0.71241  0.08207  0.11654  1.0000
  Fe  Fe71      1.0  0.64162  0.16783  0.08932  1.0000
  S   S137      1.0  0.61376  0.14588  0.06541  1.0000
  S   S138      1.0  0.63076  0.22119  0.09169  1.0000
  Fe  Fe72      1.0  0.60783  0.10279  0.08376  1.0000
  S   S139      1.0  0.55972  0.07711  0.08311  1.0000
  Fe  Fe73      1.0  0.65985  0.12484  0.05513  1.0000
  S   S140      1.0  0.66583  0.13491  0.02331  1.0000
  S   S141      1.0  0.63251  0.12585  0.10850  1.0000
  S   S142      1.0  0.68830  0.14884  0.07828  1.0000
  C   C447      1.0  0.62829  0.29401  0.14073  1.0000
  C   C448      1.0  0.62082  0.30300  0.12215  1.0000
  C   C449      1.0  0.62213  0.28045  0.10735  1.0000
  C   C450      1.0  0.63066  0.24859  0.11092  1.0000
  C   C451      1.0  0.63834  0.23963  0.12947  1.0000
  C   C452      1.0  0.63730  0.26227  0.14424  1.0000
  H   H768      1.0  0.61422  0.32738  0.11917  1.0000
  H   H769      1.0  0.61623  0.28774  0.09307  1.0000
  H   H770      1.0  0.64512  0.21529  0.13244  1.0000
  H   H771      1.0  0.64333  0.25509  0.15854  1.0000
  H   H772      1.0  0.67265  0.43425  0.28967  1.0000
  S   S143      1.0  0.61835  0.47651  0.12446  1.0000
  C   C453      1.0  0.54004  0.07574  0.12071  1.0000
  C   C454      1.0  0.53304  0.06824  0.10186  1.0000
  C   C455      1.0  0.87061  0.48378  0.13072  1.0000
  C   C456      1.0  0.55549  0.23493  0.14560  1.0000
  H   H773      1.0  0.60908  0.07899  0.14396  1.0000
  H   H774      1.0  0.56203  0.08797  0.12413  1.0000
  H   H775      1.0  0.94067  0.05814  0.29954  1.0000
  H   H776      1.0  0.49481  0.28525  0.10955  1.0000
  H   H777      1.0  0.84841  0.00223  0.11888  1.0000
  C   C457      1.0  0.73720  0.02793  0.09901  1.0000
  C   C458      1.0  0.73628  0.04714  0.11519  1.0000
  H   H778      1.0  0.70103  0.29141  0.06331  1.0000
  C   C459      1.0  0.64830  0.00192  0.10339  1.0000
  H   H779      1.0  0.75701  0.20627  0.04425  1.0000
  H   H780      1.0  0.72378  0.03471  0.08654  1.0000
  C   C460      1.0  0.92068  0.01992  0.09875  1.0000
  H   H781      1.0  0.56946  0.01567  0.13516  1.0000
  C   C461      1.0  0.53562  0.31638  0.10708  1.0000
  C   C462      1.0  0.53628  0.30609  0.14983  1.0000
  H   H782      1.0  0.57227  0.00284  0.11094  1.0000
  C   C463      1.0  0.58226  0.46666  0.23700  1.0000
  H   H783      1.0  0.75629  0.07543  0.99558  1.0000
  H   H784      1.0  0.71890  0.26130  0.00129  1.0000
  C   C464      1.0  0.62780  0.04324  0.12457  1.0000
  C   C465      1.0  0.74398  0.20783  0.03058  1.0000
  C   C466      1.0  0.69365  0.12435  0.00532  1.0000
  C   C467      1.0  0.71748  0.10162  0.00819  1.0000
  S   S144      1.0  0.88183  0.08891  0.31620  1.0000
  H   H785      1.0  0.67733  0.47396  0.14719  1.0000
  H   H786      1.0  0.63927  0.45982  0.28741  1.0000
  H   H787      1.0  0.68495  0.23509  0.00191  1.0000
  C   C468      1.0  0.65362  0.44639  0.29794  1.0000
  H   H788      1.0  0.79326  0.47874  0.10689  1.0000
  C   C469      1.0  0.80125  0.46679  0.12011  1.0000
  C   C470      1.0  0.66651  0.00476  0.13622  1.0000
  H   H789      1.0  0.55186  0.33147  0.11567  1.0000
  H   H790      1.0  0.93430  0.01034  0.11109  1.0000
  C   C471      1.0  0.75407  0.03790  0.13122  1.0000
  H   H791      1.0  0.64543  0.06146  0.15184  1.0000
  H   H792      1.0  0.81421  0.47925  0.14878  1.0000
  H   H793      1.0  0.68058  0.49046  0.30083  1.0000
  H   H794      1.0  0.75050  0.23016  0.02320  1.0000
  H   H795      1.0  0.54954  0.29833  0.09918  1.0000
  H   H796      1.0  0.55588  0.42721  0.31412  1.0000
  C   C472      1.0  0.87225  0.99702  0.26146  1.0000
  C   C473      1.0  0.56809  0.49062  0.26767  1.0000
  H   H797      1.0  0.66824  0.01819  0.09931  1.0000
  N   N34       1.0  0.51971  0.28305  0.13661  1.0000
  H   H798      1.0  0.92125  0.04609  0.10109  1.0000
  H   H799      1.0  0.85533  0.05060  0.13695  1.0000
  H   H800      1.0  0.64191  0.38666  0.28683  1.0000
  H   H801      1.0  0.50698  0.16989  0.11576  1.0000
  H   H802      1.0  0.49287  0.32080  0.12304  1.0000
  H   H803      1.0  0.60958  0.02710  0.08797  1.0000
  H   H804      1.0  0.82264  0.03063  0.06938  1.0000
  H   H805      1.0  0.86926  0.46895  0.14381  1.0000
  H   H806      1.0  0.56137  0.30417  0.17688  1.0000
  C   C474      1.0  0.50902  0.30097  0.11914  1.0000
  H   H807      1.0  0.53598  0.46300  0.25012  1.0000
  C   C475      1.0  0.77260  0.00991  0.13114  1.0000
  C   C476      1.0  0.62132  0.39878  0.29368  1.0000
  H   H808      1.0  0.95765  0.01523  0.31450  1.0000
  N   N35       1.0  0.63782  0.00884  0.12341  1.0000
  C   C477      1.0  0.49268  0.17100  0.10253  1.0000
  C   C478      1.0  0.69455  0.25793  0.00717  1.0000
  H   H809      1.0  0.57045  0.21653  0.13864  1.0000
  C   C479      1.0  0.51860  0.06708  0.13521  1.0000
  H   H810      1.0  0.53053  0.24201  0.11921  1.0000
  C   C480      1.0  0.53773  0.29698  0.17110  1.0000
  H   H811      1.0  0.87913  0.01838  0.06876  1.0000
  N   N36       1.0  0.63304  0.42239  0.30826  1.0000
  C   C481      1.0  0.62250  0.00418  0.08789  1.0000
  C   C482      1.0  0.83298  0.01779  0.08170  1.0000
  H   H812      1.0  0.86832  0.46655  0.11890  1.0000
  H   H813      1.0  0.78620  0.00326  0.14358  1.0000
  H   H814      1.0  0.68450  0.02372  0.13349  1.0000
  H   H815      1.0  0.75344  0.05248  0.14385  1.0000
  H   H816      1.0  0.67966  0.27695  0.00074  1.0000
  H   H817      1.0  0.88986  0.06271  0.12414  1.0000
  N   N37       1.0  0.69017  0.23263  0.04091  1.0000
  C   C483      1.0  0.70265  0.23890  0.06071  1.0000
  C   C484      1.0  0.70766  0.20396  0.03337  1.0000
  C   C485      1.0  0.65524  0.22426  0.04280  1.0000
  C   C486      1.0  0.69496  0.26210  0.02901  1.0000
  C   C487      1.0  0.61313  0.47908  0.23908  1.0000
  H   H818      1.0  0.56355  0.26763  0.12337  1.0000
  C   C488      1.0  0.63629  0.21905  0.02434  1.0000
  H   H819      1.0  0.82020  0.02633  0.09443  1.0000
  H   H820      1.0  0.69662  0.21870  0.07033  1.0000
  H   H821      1.0  0.72907  0.24065  0.06088  1.0000
  H   H822      1.0  0.69784  0.19575  0.01965  1.0000
  H   H823      1.0  0.70415  0.18319  0.04297  1.0000
  H   H824      1.0  0.65239  0.20225  0.05148  1.0000
  H   H825      1.0  0.64198  0.24298  0.05051  1.0000
  H   H826      1.0  0.67667  0.28028  0.03270  1.0000
  H   H827      1.0  0.71843  0.27323  0.03252  1.0000
  C   C489      1.0  0.75579  0.99994  0.09891  1.0000
  C   C490      1.0  0.67000  0.47210  0.31029  1.0000
  C   C491      1.0  0.54215  0.25722  0.13020  1.0000
  H   H828      1.0  0.87226  0.05106  0.08390  1.0000
  C   C492      1.0  0.55991  0.47250  0.25147  1.0000
  H   H829      1.0  0.61509  0.42641  0.26736  1.0000
  H   H830      1.0  0.52447  0.33216  0.09630  1.0000
  H   H831      1.0  0.61183  0.21092  0.02807  1.0000
  H   H832      1.0  0.64648  0.20021  0.01526  1.0000
  H   H833      1.0  0.70011  0.27019  0.08522  1.0000
  H   H834      1.0  0.95517  0.09350  0.28876  1.0000
  H   H835      1.0  0.51012  0.17065  0.09068  1.0000
  H   H836      1.0  0.57163  0.24793  0.15541  1.0000
  H   H837      1.0  0.64627  0.05879  0.11798  1.0000
  H   H838      1.0  0.63356  0.24156  0.01629  1.0000
  H   H839      1.0  0.52444  0.07249  0.14980  1.0000
  H   H840      1.0  0.65974  0.00763  0.15136  1.0000
  N   N38       1.0  0.88678  0.00789  0.09846  1.0000
  H   H841      1.0  0.75272  0.18775  0.02175  1.0000
  C   C493      1.0  0.60639  0.43996  0.31805  1.0000
  H   H842      1.0  0.66499  0.27193  0.07124  1.0000
  C   C494      1.0  0.62229  0.05615  0.14477  1.0000
  C   C495      1.0  0.87199  0.01427  0.11755  1.0000
  H   H843      1.0  0.58926  0.39297  0.26951  1.0000
  C   C496      1.0  0.69122  0.26991  0.07037  1.0000
  H   H844      1.0  0.53665  0.22206  0.15348  1.0000
  C   C497      1.0  0.57696  0.99591  0.12579  1.0000
  H   H845      1.0  0.56115  0.31062  0.14505  1.0000
  C   C498      1.0  0.94014  0.01430  0.08047  1.0000
  H   H846      1.0  0.60835  0.03943  0.15367  1.0000
  C   C499      1.0  0.83945  0.99971  0.25812  1.0000
  C   C500      1.0  0.86700  0.04957  0.12283  1.0000
  H   H847      1.0  0.92189  0.47858  0.12603  1.0000
  C   C501      1.0  0.50399  0.05294  0.09762  1.0000
  H   H848      1.0  0.77982  0.45452  0.12587  1.0000
  H   H849      1.0  0.81910  0.44814  0.11704  1.0000
  C   C502      1.0  0.86907  0.02480  0.08284  1.0000
  S   S145      1.0  0.89095  0.01267  0.28226  1.0000
  H   H850      1.0  0.60584  0.04794  0.11623  1.0000
  H   H851      1.0  0.60741  0.37915  0.30007  1.0000
  H   H852      1.0  0.63414  0.00232  0.07381  1.0000
  H   H853      1.0  0.88693  0.00392  0.12903  1.0000
  H   H854      1.0  0.82470  0.01236  0.26814  1.0000
  H   H855      1.0  0.93826  0.03510  0.07080  1.0000
  C   C503      1.0  0.60052  0.41271  0.27764  1.0000
  H   H856      1.0  0.67480  0.39433  0.31503  1.0000
  H   H857      1.0  0.98228  0.08559  0.31946  1.0000
  H   H858      1.0  0.52435  0.32975  0.14926  1.0000
  H   H859      1.0  0.68987  0.46223  0.31885  1.0000
  H   H860      1.0  0.85086  0.06205  0.11284  1.0000
  H   H861      1.0  0.58104  0.42791  0.28305  1.0000
  H   H862      1.0  0.49837  0.04703  0.08306  1.0000
  C   C504      1.0  0.99029  0.07111  0.30714  1.0000
  C   C505      1.0  0.73819  0.09334  0.99324  1.0000
  H   H863      1.0  0.62164  0.48091  0.19482  1.0000
  H   H864      1.0  0.49590  0.25376  0.15791  1.0000
  H   H865      1.0  0.83963  0.48540  0.09172  1.0000
  H   H866      1.0  0.65291  0.48475  0.31956  1.0000
  H   H867      1.0  0.63087  0.47435  0.22841  1.0000
  H   H868      1.0  0.49434  0.39144  0.11067  1.0000
  H   H869      1.0  0.96564  0.01056  0.08422  1.0000
  H   H870      1.0  0.97787  0.28638  0.31942  1.0000
  C   C506      1.0  0.96213  0.06904  0.29306  1.0000
  H   H871      1.0  0.53508  0.27145  0.17437  1.0000
  H   H872      1.0  0.96848  0.05600  0.27996  1.0000
  H   H873      1.0  0.51995  0.31089  0.17927  1.0000
  S   S146      1.0  0.82129  0.04017  0.32058  1.0000
  H   H874      1.0  0.64694  0.48910  0.17463  1.0000
  H   H875      1.0  0.82793  0.99209  0.07959  1.0000
  H   H876      1.0  0.93277  0.99276  0.07256  1.0000
  C   C507      1.0  0.65411  0.40548  0.32236  1.0000
  C   C508      1.0  0.85984  0.26453  0.35232  1.0000
  H   H877      1.0  0.84364  0.21247  0.39964  1.0000
  H   H878      1.0  0.73389  0.40896  0.43580  1.0000
  H   H879      1.0  0.70249  0.99312  0.39971  1.0000
  C   C509      1.0  0.58472  0.40821  0.61546  1.0000
  Fe  Fe74      1.0  0.90122  0.07092  0.34392  1.0000
  H   H880      1.0  0.91625  0.26298  0.38594  1.0000
  S   S147      1.0  0.94516  0.09986  0.35269  1.0000
  H   H881      1.0  0.72178  0.47913  0.58703  1.0000
  H   H882      1.0  0.65705  0.36860  0.34374  1.0000
  S   S148      1.0  0.85400  0.07387  0.35896  1.0000
  Fe  Fe75      1.0  0.75659  0.35030  0.39181  1.0000
  S   S149      1.0  0.78796  0.36841  0.41529  1.0000
  S   S150      1.0  0.73724  0.38982  0.37262  1.0000
  Fe  Fe76      1.0  0.77270  0.28101  0.40111  1.0000
  S   S151      1.0  0.80432  0.29547  0.42549  1.0000
  S   S152      1.0  0.77194  0.22682  0.39802  1.0000
  Fe  Fe77      1.0  0.76582  0.33007  0.43333  1.0000
  S   S153      1.0  0.75654  0.34574  0.46396  1.0000
  Fe  Fe78      1.0  0.82381  0.33230  0.40557  1.0000
  S   S154      1.0  0.87748  0.34214  0.40617  1.0000
  S   S155      1.0  0.73222  0.31355  0.41027  1.0000
  S   S156      1.0  0.79430  0.31632  0.38080  1.0000
  C   C510      1.0  0.65899  0.39263  0.46868  1.0000
  H   H883      1.0  0.54216  0.20107  0.59256  1.0000
  H   H884      1.0  0.94885  0.20143  0.37495  1.0000
  H   H885      1.0  0.60709  0.40830  0.60722  1.0000
  S   S157      1.0  0.54509  0.03678  0.62462  1.0000
  C   C511      1.0  0.70119  0.09378  0.40817  1.0000
  H   H886      1.0  0.84344  0.28487  0.34988  1.0000
  Fe  Fe79      1.0  0.64158  0.28176  0.59423  1.0000
  S   S158      1.0  0.60649  0.28768  0.57043  1.0000
  S   S159      1.0  0.65618  0.23207  0.60434  1.0000
  Fe  Fe80      1.0  0.65544  0.35358  0.59602  1.0000
  S   S160      1.0  0.62103  0.36364  0.57212  1.0000
  S   S161      1.0  0.67502  0.39719  0.61200  1.0000
  Fe  Fe81      1.0  0.58786  0.32954  0.58693  1.0000
  S   S162      1.0  0.53432  0.34069  0.58749  1.0000
  Fe  Fe82      1.0  0.64257  0.32123  0.55744  1.0000
  S   S163      1.0  0.64764  0.31668  0.52504  1.0000
  S   S164      1.0  0.62076  0.32160  0.61167  1.0000
  S   S165      1.0  0.67916  0.31310  0.58045  1.0000
  C   C512      1.0  0.59396  0.15334  0.63112  1.0000
  C   C513      1.0  0.62276  0.14584  0.62227  1.0000
  C   C514      1.0  0.64139  0.17019  0.61400  1.0000
  C   C515      1.0  0.63106  0.20208  0.61403  1.0000
  C   C516      1.0  0.60196  0.20942  0.62261  1.0000
  C   C517      1.0  0.58380  0.18524  0.63133  1.0000
  H   H887      1.0  0.63092  0.12143  0.62201  1.0000
  H   H888      1.0  0.66395  0.16433  0.60747  1.0000
  H   H889      1.0  0.59394  0.23387  0.62294  1.0000
  H   H890      1.0  0.49989  0.20309  0.59011  1.0000
  H   H891      1.0  0.86326  0.27686  0.38167  1.0000
  C   C518      1.0  0.75574  0.07462  0.35552  1.0000
  H   H892      1.0  0.72369  0.48446  0.55207  1.0000
  C   C519      1.0  0.50977  0.35184  0.60682  1.0000
  C   C520      1.0  0.52008  0.34957  0.62565  1.0000
  H   H893      1.0  0.61595  0.35259  0.45102  1.0000
  H   H894      1.0  0.69484  0.11938  0.40945  1.0000
  H   H895      1.0  0.66983  0.41624  0.47145  1.0000
  H   H896      1.0  0.54325  0.33955  0.62878  1.0000
  H   H897      1.0  0.84235  0.43741  0.42084  1.0000
  C   C521      1.0  0.77874  0.43168  0.62056  1.0000
  C   C522      1.0  0.77228  0.40516  0.60898  1.0000
  C   C523      1.0  0.74078  0.39398  0.60637  1.0000
  C   C524      1.0  0.71535  0.40922  0.61535  1.0000
  C   C525      1.0  0.72187  0.43550  0.62713  1.0000
  C   C526      1.0  0.75336  0.44658  0.62981  1.0000
  H   H898      1.0  0.79171  0.39337  0.60179  1.0000
  H   H899      1.0  0.73616  0.37371  0.59728  1.0000
  H   H900      1.0  0.70240  0.44737  0.63422  1.0000
  H   H901      1.0  0.75792  0.46679  0.63890  1.0000
  C   C527      1.0  0.72778  0.33469  0.48134  1.0000
  C   C528      1.0  0.70275  0.31357  0.47742  1.0000
  C   C529      1.0  0.67880  0.30796  0.49109  1.0000
  C   C530      1.0  0.68002  0.32257  0.50905  1.0000
  C   C531      1.0  0.70559  0.34296  0.51316  1.0000
  C   C532      1.0  0.72913  0.34914  0.49933  1.0000
  H   H902      1.0  0.70153  0.30200  0.46375  1.0000
  H   H903      1.0  0.65918  0.29209  0.48776  1.0000
  H   H904      1.0  0.70684  0.35448  0.52685  1.0000
  H   H905      1.0  0.74843  0.36543  0.50257  1.0000
  C   C533      1.0  0.79681  0.16060  0.34815  1.0000
  C   C534      1.0  0.78678  0.19202  0.34463  1.0000
  C   C535      1.0  0.77990  0.21297  0.35970  1.0000
  C   C536      1.0  0.78213  0.20236  0.37846  1.0000
  C   C537      1.0  0.79204  0.17093  0.38196  1.0000
  C   C538      1.0  0.79980  0.15032  0.36692  1.0000
  C   C539      1.0  0.88295  0.16653  0.37277  1.0000
  H   H906      1.0  0.77200  0.23698  0.35679  1.0000
  H   H907      1.0  0.79383  0.16252  0.39641  1.0000
  H   H908      1.0  0.80766  0.12638  0.36985  1.0000
  C   C540      1.0  0.95041  0.35631  0.35819  1.0000
  C   C541      1.0  0.91982  0.34412  0.35414  1.0000
  C   C542      1.0  0.89709  0.33989  0.36860  1.0000
  C   C543      1.0  0.90500  0.34712  0.38736  1.0000
  C   C544      1.0  0.93581  0.35866  0.39147  1.0000
  C   C545      1.0  0.95837  0.36345  0.37695  1.0000
  H   H909      1.0  0.91349  0.33851  0.33964  1.0000
  H   H910      1.0  0.87344  0.33123  0.36522  1.0000
  H   H911      1.0  0.94217  0.36426  0.40597  1.0000
  H   H912      1.0  0.67890  0.08116  0.40415  1.0000
  H   H913      1.0  0.96250  0.04209  0.37385  1.0000
  C   C546      1.0  0.64058  0.44222  0.37389  1.0000
  C   C547      1.0  0.64379  0.41212  0.38246  1.0000
  C   C548      1.0  0.67338  0.39618  0.38272  1.0000
  C   C549      1.0  0.70014  0.41010  0.37424  1.0000
  C   C550      1.0  0.69697  0.44026  0.36572  1.0000
  C   C551      1.0  0.66744  0.45635  0.36565  1.0000
  H   H914      1.0  0.62300  0.40076  0.38853  1.0000
  H   H915      1.0  0.67523  0.37267  0.38887  1.0000
  H   H916      1.0  0.71739  0.45119  0.35898  1.0000
  N   N39       1.0  0.56604  0.43861  0.61295  1.0000
  C   C552      1.0  0.87586  0.24371  0.41481  1.0000
  C   C553      1.0  0.76611  0.06053  0.37478  1.0000
  H   H917      1.0  0.88403  0.27262  0.34818  1.0000
  C   C554      1.0  0.87423  0.20035  0.36596  1.0000
  H   H918      1.0  0.72621  0.01553  0.37409  1.0000
  H   H919      1.0  0.75064  0.10048  0.35645  1.0000
  S   S166      1.0  0.56970  0.12425  0.64239  1.0000
  H   H920      1.0  0.88735  0.20443  0.35246  1.0000
  H   H921      1.0  0.58059  0.46991  0.63565  1.0000
  H   H922      1.0  0.60940  0.40712  0.47497  1.0000
  H   H923      1.0  0.80661  0.39905  0.37836  1.0000
  C   C555      1.0  0.63982  0.33914  0.42553  1.0000
  H   H924      1.0  0.88152  0.19655  0.40432  1.0000
  H   H925      1.0  0.70959  0.08621  0.42235  1.0000
  C   C556      1.0  0.93948  0.21693  0.38639  1.0000
  H   H926      1.0  0.51950  0.09980  0.61542  1.0000
  C   C557      1.0  0.85808  0.25485  0.37343  1.0000
  C   C558      1.0  0.91349  0.23950  0.37872  1.0000
  H   H927      1.0  0.62463  0.35338  0.41586  1.0000
  H   H928      1.0  0.84863  0.19878  0.36189  1.0000
  H   H929      1.0  0.83696  0.39161  0.33879  1.0000
  C   C559      1.0  0.62815  0.39105  0.48052  1.0000
  H   H930      1.0  0.51847  0.20251  0.61340  1.0000
  H   H931      1.0  0.92036  0.24479  0.36384  1.0000
  H   H932      1.0  0.62070  0.39009  0.34456  1.0000
  H   H933      1.0  0.84796  0.40291  0.40652  1.0000
  H   H934      1.0  0.49259  0.45869  0.63377  1.0000
  C   C560      1.0  0.63327  0.40913  0.43809  1.0000
  C   C561      1.0  0.64099  0.35308  0.44579  1.0000
  H   H935      1.0  0.52060  0.14915  0.58330  1.0000
  C   C562      1.0  0.86957  0.21850  0.39934  1.0000
  H   H936      1.0  0.94887  0.25659  0.32483  1.0000
  C   C563      1.0  0.82988  0.45697  0.35689  1.0000
  C   C564      1.0  0.83669  0.44672  0.39063  1.0000
  H   H937      1.0  0.84432  0.47213  0.39167  1.0000
  N   N40       1.0  0.87949  0.22775  0.37953  1.0000
  H   H938      1.0  0.89026  0.45525  0.37301  1.0000
  C   C565      1.0  0.81805  0.38965  0.34956  1.0000
  S   S167      1.0  0.81858  0.44600  0.62243  1.0000
  H   H939      1.0  0.79167  0.48340  0.37126  1.0000
  H   H940      1.0  0.68541  0.38790  0.42275  1.0000
  H   H941      1.0  0.65419  0.33566  0.45472  1.0000
  H   H942      1.0  0.88672  0.99448  0.60819  1.0000
  H   H943      1.0  0.86647  0.23473  0.42853  1.0000
  H   H944      1.0  0.62909  0.31493  0.42617  1.0000
  H   H945      1.0  0.84471  0.38251  0.37540  1.0000
  C   C566      1.0  0.58418  0.44751  0.57822  1.0000
  C   C567      1.0  0.55684  0.44195  0.59236  1.0000
  H   H946      1.0  0.90783  0.16436  0.37776  1.0000
  H   H947      1.0  0.66391  0.33627  0.41933  1.0000
  H   H948      1.0  0.78422  0.20015  0.33015  1.0000
  H   H949      1.0  0.88958  0.41391  0.37853  1.0000
  H   H950      1.0  0.51192  0.15708  0.63384  1.0000
  C   C568      1.0  0.98026  0.08775  0.36478  1.0000
  H   H951      1.0  0.78093  0.00120  0.59793  1.0000
  H   H952      1.0  0.57886  0.39443  0.32337  1.0000
  C   C569      1.0  0.51872  0.15591  0.59849  1.0000
  H   H953      1.0  0.69869  0.04732  0.37227  1.0000
  H   H954      1.0  0.90172  0.24831  0.41681  1.0000
  H   H955      1.0  0.73557  0.44587  0.55976  1.0000
  H   H956      1.0  0.63197  0.40394  0.42269  1.0000
  N   N41       1.0  0.74030  0.05756  0.38961  1.0000
  S   S168      1.0  0.80443  0.13476  0.32879  1.0000
  C   C570      1.0  0.87916  0.43210  0.36886  1.0000
  H   H957      1.0  0.76134  0.46523  0.58798  1.0000
  H   H958      1.0  0.54135  0.14770  0.60521  1.0000
  H   H959      1.0  0.77578  0.07240  0.34539  1.0000
  H   H960      1.0  0.71538  0.09963  0.37962  1.0000
  H   H961      1.0  0.60812  0.40600  0.44280  1.0000
  H   H962      1.0  0.57305  0.38917  0.64370  1.0000
  C   C571      1.0  0.89206  0.42399  0.34905  1.0000
  H   H963      1.0  0.59515  0.47135  0.58018  1.0000
  C   C572      1.0  0.68780  0.38566  0.43839  1.0000
  C   C573      1.0  0.72686  0.09044  0.39274  1.0000
  H   H964      1.0  0.84374  0.47968  0.35720  1.0000
  H   H965      1.0  0.60261  0.42879  0.57886  1.0000
  H   H966      1.0  0.69988  0.36240  0.44094  1.0000
  H   H967      1.0  0.83259  0.24910  0.37639  1.0000
  S   S169      1.0  0.89363  0.01987  0.33544  1.0000
  H   H968      1.0  0.54334  0.42042  0.58754  1.0000
  H   H969      1.0  0.86627  0.15801  0.38388  1.0000
  H   H970      1.0  0.51876  0.09716  0.57971  1.0000
  S   S170      1.0  0.60243  0.46062  0.37354  1.0000
  C   C574      1.0  0.75615  0.04618  0.40760  1.0000
  C   C575      1.0  0.77380  0.01408  0.40614  1.0000
  H   H971      1.0  0.88409  0.44086  0.33794  1.0000
  H   H972      1.0  0.72028  0.40691  0.45958  1.0000
  H   H973      1.0  0.65789  0.45176  0.42745  1.0000
  H   H974      1.0  0.63344  0.46109  0.62963  1.0000
  H   H975      1.0  0.85163  0.24518  0.34276  1.0000
  H   H976      1.0  0.78633  0.07532  0.38016  1.0000
  H   H977      1.0  0.50221  0.06256  0.59040  1.0000
  H   H978      1.0  0.57118  0.38763  0.60954  1.0000
  H   H979      1.0  0.91856  0.42548  0.34945  1.0000
  H   H980      1.0  0.66943  0.01500  0.39146  1.0000
  H   H981      1.0  0.56180  0.19140  0.63837  1.0000
  C   C576      1.0  0.85252  0.42881  0.40725  1.0000
  Fe  Fe83      1.0  0.83440  0.08972  0.33098  1.0000
  H   H982      1.0  0.88024  0.14977  0.36067  1.0000
  H   H983      1.0  0.61262  0.38112  0.63592  1.0000
  C   C577      1.0  0.64173  0.44481  0.43923  1.0000
  H   H984      1.0  0.49944  0.46420  0.60922  1.0000
  H   H985      1.0  0.77386  0.06417  0.41267  1.0000
  H   H986      1.0  0.54059  0.46246  0.59018  1.0000
  C   C578      1.0  0.53549  0.43496  0.62409  1.0000
  H   H987      1.0  0.98187  0.37267  0.38028  1.0000
  H   H988      1.0  0.95807  0.28621  0.34217  1.0000
  H   H989      1.0  0.67601  0.37545  0.47513  1.0000
  H   H990      1.0  0.61537  0.45149  0.33126  1.0000
  H   H991      1.0  0.76920  0.99655  0.34293  1.0000
  C   C579      1.0  0.82846  0.40092  0.36949  1.0000
  C   C580      1.0  0.49838  0.08849  0.58826  1.0000
  H   H992      1.0  0.73511  0.06178  0.34927  1.0000
  H   H993      1.0  0.93156  0.20187  0.39833  1.0000
  C   C581      1.0  0.59370  0.39959  0.63606  1.0000
  C   C582      1.0  0.71226  0.41106  0.44478  1.0000
  N   N42       1.0  0.84334  0.43369  0.37107  1.0000
  H   H994      1.0  0.81060  0.44646  0.39367  1.0000
  H   H995      1.0  0.73908  0.04373  0.41944  1.0000
  C   C583      1.0  0.79442  0.46568  0.35972  1.0000
  C   C584      1.0  0.71492  0.03495  0.38238  1.0000
  H   H996      1.0  0.80989  0.47321  0.57385  1.0000
  H   H997      1.0  0.66443  0.42256  0.33263  1.0000
  C   C585      1.0  0.51928  0.19272  0.59883  1.0000
  N   N43       1.0  0.65540  0.38596  0.44777  1.0000
  H   H998      1.0  0.88650  0.39917  0.34504  1.0000
  H   H999      1.0  0.79661  0.40259  0.34453  1.0000
  Fe  Fe84      1.0  0.84432  0.02439  0.34776  1.0000
  H   H1000     1.0  0.57424  0.44693  0.56361  1.0000
  H   H1001     1.0  0.76548  0.47309  0.55199  1.0000
  H   H1002     1.0  0.86349  0.26645  0.41195  1.0000
  H   H1003     1.0  0.65218  0.45219  0.45291  1.0000
  H   H1004     1.0  0.77662  0.03690  0.37148  1.0000
  H   H1005     1.0  0.87862  0.43326  0.40789  1.0000
  C   C586      1.0  0.49669  0.10471  0.60784  1.0000
  H   H1006     1.0  0.83229  0.44809  0.34216  1.0000
  H   H1007     1.0  0.61947  0.45896  0.43788  1.0000
  Fe  Fe85      1.0  0.50956  0.02637  0.64756  1.0000
  H   H1008     1.0  0.70351  0.43566  0.44323  1.0000
  Fe  Fe86      1.0  0.56882  0.06996  0.64547  1.0000
  H   H1009     1.0  0.95947  0.23128  0.39229  1.0000
  H   H1010     1.0  0.74642  0.10760  0.39622  1.0000
  H   H1011     1.0  0.60317  0.42015  0.64412  1.0000
  H   H1012     1.0  0.81111  0.36415  0.35033  1.0000
  Fe  Fe87      1.0  0.57540  0.99820  0.63828  1.0000
  C   C587      1.0  0.69393  0.01785  0.39730  1.0000
  C   C588      1.0  0.98646  0.99260  0.33558  1.0000
  C   C589      1.0  0.62033  0.46867  0.61670  1.0000
  C   C590      1.0  0.74265  0.47143  0.55980  1.0000
  H   H1013     1.0  0.52223  0.41355  0.61927  1.0000
  C   C591      1.0  0.51171  0.46293  0.62314  1.0000
  C   C592      1.0  0.98267  0.05823  0.37385  1.0000
  C   C593      1.0  0.57623  0.42054  0.32342  1.0000
  H   H1014     1.0  0.66535  0.47951  0.35904  1.0000
  S   S171      1.0  0.97763  0.36162  0.33927  1.0000
  H   H1015     1.0  0.50920  0.36007  0.65490  1.0000
  C   C594      1.0  0.74570  0.48259  0.58055  1.0000
  C   C595      1.0  0.63836  0.37964  0.33469  1.0000
  H   H1016     1.0  0.69143  0.03020  0.41101  1.0000
  H   H1017     1.0  0.62901  0.45483  0.60448  1.0000
  C   C596      1.0  0.58377  0.46765  0.62003  1.0000
  H   H1018     1.0  0.77947  0.44459  0.36302  1.0000
  H   H1019     1.0  0.63369  0.39874  0.49524  1.0000
  H   H1020     1.0  0.79707  0.01696  0.39885  1.0000
  H   H1021     1.0  0.61893  0.36632  0.48170  1.0000
  H   H1022     1.0  0.98217  0.23247  0.34920  1.0000
  C   C597      1.0  0.96859  0.27104  0.33098  1.0000
  H   H1023     1.0  0.57339  0.48964  0.61372  1.0000
  H   H1024     1.0  0.96549  0.03919  0.33474  1.0000
  C   C598      1.0  0.50069  0.36116  0.64042  1.0000
  H   H1025     1.0  0.82692  0.99274  0.61951  1.0000
  H   H1026     1.0  0.77918  0.00504  0.42059  1.0000
  C   C599      1.0  0.97696  0.02280  0.32441  1.0000
  H   H1027     1.0  0.62755  0.36014  0.32628  1.0000
  H   H1028     1.0  0.56886  0.42714  0.33803  1.0000
  H   H1029     1.0  0.52294  0.48612  0.62663  1.0000
  H   H1030     1.0  0.78489  0.47672  0.34657  1.0000
  H   H1031     1.0  0.54049  0.43126  0.63942  1.0000
  H   H1032     1.0  0.75949  0.99561  0.39878  1.0000
  H   H1033     1.0  0.86774  0.22214  0.87946  1.0000
  C   C600      1.0  0.90827  0.01029  0.78271  1.0000
  Fe  Fe88      1.0  0.84091  0.43407  0.84152  1.0000
  S   S172      1.0  0.81051  0.41364  0.81812  1.0000
  Fe  Fe89      1.0  0.89694  0.38835  0.83392  1.0000
  S   S173      1.0  0.86974  0.36534  0.80996  1.0000
  S   S174      1.0  0.94614  0.36540  0.83755  1.0000
  Fe  Fe90      1.0  0.85549  0.41460  0.80059  1.0000
  S   S175      1.0  0.86461  0.42787  0.76936  1.0000
  Fe  Fe91      1.0  0.82760  0.36599  0.82941  1.0000
  S   S176      1.0  0.79414  0.32303  0.83142  1.0000
  S   S177      1.0  0.88531  0.43764  0.82343  1.0000
  S   S178      1.0  0.85509  0.38640  0.85394  1.0000
  Fe  Fe92      1.0  0.74951  0.09845  0.88472  1.0000
  S   S179      1.0  0.77718  0.06846  0.90526  1.0000
  S   S180      1.0  0.70665  0.08016  0.86760  1.0000
  Fe  Fe93      1.0  0.78665  0.15936  0.89467  1.0000
  S   S181      1.0  0.81564  0.13286  0.91647  1.0000
  S   S182      1.0  0.80263  0.21167  0.89312  1.0000
  Fe  Fe94      1.0  0.82060  0.09466  0.89447  1.0000
  S   S183      1.0  0.87052  0.07284  0.89345  1.0000
  Fe  Fe95      1.0  0.77022  0.10910  0.92574  1.0000
  S   S184      1.0  0.76140  0.09487  0.95679  1.0000
  S   S185      1.0  0.79361  0.12196  0.87216  1.0000
  S   S186      1.0  0.74049  0.13830  0.90566  1.0000
  H   H1034     1.0  0.85697  0.16682  0.88454  1.0000
  Fe  Fe96      1.0  0.56296  0.02067  0.67863  1.0000
  H   H1035     1.0  0.68440  0.41855  0.88388  1.0000
  C   C601      1.0  0.88643  0.17933  0.85104  1.0000
  C   C602      1.0  0.73563  0.10783  0.97529  1.0000
  C   C603      1.0  0.71203  0.13085  0.97248  1.0000
  H   H1036     1.0  0.84195  0.39342  0.72352  1.0000
  H   H1037     1.0  0.70968  0.14217  0.95878  1.0000
  H   H1038     1.0  0.67275  0.15651  0.98497  1.0000
  C   C604      1.0  0.85031  0.45405  0.75136  1.0000
  C   C605      1.0  0.76118  0.48071  0.85428  1.0000
  H   H1039     1.0  0.88129  0.39692  0.66454  1.0000
  C   C606      1.0  0.82101  0.46975  0.75265  1.0000
  C   C607      1.0  0.94535  0.14367  0.86802  1.0000
  H   H1040     1.0  0.80576  0.46534  0.76470  1.0000
  C   C608      1.0  0.97731  0.39231  0.86872  1.0000
  C   C609      1.0  0.79847  0.29118  0.84789  1.0000
  C   C610      1.0  0.77963  0.26358  0.84579  1.0000
  C   C611      1.0  0.78098  0.23865  0.85923  1.0000
  C   C612      1.0  0.80067  0.24145  0.87519  1.0000
  C   C613      1.0  0.81940  0.26912  0.87730  1.0000
  C   C614      1.0  0.81871  0.29360  0.86362  1.0000
  H   H1041     1.0  0.76382  0.26147  0.83371  1.0000
  H   H1042     1.0  0.76638  0.21757  0.85741  1.0000
  H   H1043     1.0  0.83465  0.27162  0.88960  1.0000
  H   H1044     1.0  0.83336  0.31462  0.86548  1.0000
  C   C615      1.0  0.94459  0.06111  0.84570  1.0000
  C   C616      1.0  0.91330  0.07096  0.84136  1.0000
  C   C617      1.0  0.89039  0.07514  0.85577  1.0000
  C   C618      1.0  0.89842  0.06895  0.87467  1.0000
  C   C619      1.0  0.92970  0.05917  0.87898  1.0000
  C   C620      1.0  0.95274  0.05549  0.86463  1.0000
  H   H1045     1.0  0.90672  0.07531  0.82676  1.0000
  H   H1046     1.0  0.86641  0.08256  0.85224  1.0000
  H   H1047     1.0  0.93614  0.05430  0.89356  1.0000
  H   H1048     1.0  0.66758  0.16138  0.68028  1.0000
  H   H1049     1.0  0.76223  0.39159  0.67964  1.0000
  H   H1050     1.0  0.90408  0.22144  0.89195  1.0000
  H   H1051     1.0  0.93896  0.12921  0.88062  1.0000
  C   C621      1.0  0.66309  0.03539  0.85519  1.0000
  C   C622      1.0  0.69114  0.04069  0.86579  1.0000
  C   C623      1.0  0.70549  0.01477  0.87488  1.0000
  H   H1052     1.0  0.72768  0.01304  0.95527  1.0000
  H   H1053     1.0  0.65178  0.05523  0.84810  1.0000
  H   H1054     1.0  0.72717  0.01837  0.88296  1.0000
  H   H1055     1.0  0.95750  0.40866  0.86970  1.0000
  H   H1056     1.0  0.97172  0.14255  0.86662  1.0000
  H   H1057     1.0  0.64559  0.04582  0.89723  1.0000
  N   N44       1.0  0.62602  0.11652  0.69928  1.0000
  C   C624      1.0  0.65169  0.09322  0.70493  1.0000
  C   C625      1.0  0.62983  0.14596  0.71133  1.0000
  C   C626      1.0  0.62866  0.12584  0.67872  1.0000
  C   C627      1.0  0.59396  0.10100  0.70218  1.0000
  H   H1058     1.0  0.65841  0.06782  0.67767  1.0000
  C   C628      1.0  0.62031  0.14231  0.73234  1.0000
  H   H1059     1.0  0.98634  0.06950  0.76640  1.0000
  C   C629      1.0  0.56450  0.12222  0.69856  1.0000
  H   H1060     1.0  0.67563  0.10477  0.70494  1.0000
  H   H1061     1.0  0.64801  0.08490  0.71974  1.0000
  C   C630      1.0  0.85159  0.18989  0.84771  1.0000
  H   H1062     1.0  0.80519  0.44409  0.66385  1.0000
  H   H1063     1.0  0.88995  0.02930  0.78172  1.0000
  H   H1064     1.0  0.61064  0.14435  0.67512  1.0000
  H   H1065     1.0  0.59106  0.08049  0.69236  1.0000
  H   H1066     1.0  0.59183  0.08981  0.71645  1.0000
  H   H1067     1.0  0.62780  0.00111  0.84559  1.0000
  H   H1068     1.0  0.85130  0.38267  0.69214  1.0000
  H   H1069     1.0  0.78973  0.39076  0.66117  1.0000
  H   H1070     1.0  0.74339  0.46857  0.94089  1.0000
  H   H1071     1.0  0.97663  0.04779  0.86819  1.0000
  H   H1072     1.0  0.87952  0.17907  0.91330  1.0000
  H   H1073     1.0  0.69726  0.00805  0.91560  1.0000
  C   C631      1.0  0.79326  0.35178  0.68124  1.0000
  C   C632      1.0  0.88295  0.16172  0.88401  1.0000
  H   H1074     1.0  0.55804  0.12240  0.68331  1.0000
  H   H1075     1.0  0.56764  0.14709  0.70329  1.0000
  H   H1076     1.0  0.54402  0.11275  0.70682  1.0000
  H   H1077     1.0  0.75593  0.35387  0.90568  1.0000
  H   H1078     1.0  0.65510  0.15424  0.71131  1.0000
  N   N45       1.0  0.89957  0.18444  0.87075  1.0000
  C   C633      1.0  0.81637  0.38721  0.72144  1.0000
  H   H1079     1.0  0.90023  0.26804  0.87101  1.0000
  H   H1080     1.0  0.62268  0.10545  0.66925  1.0000
  H   H1081     1.0  0.80531  0.38838  0.73573  1.0000
  S   S187      1.0  0.57203  0.02155  0.71083  1.0000
  H   H1082     1.0  0.88373  0.13680  0.87872  1.0000
  C   C634      1.0  0.85908  0.47962  0.72047  1.0000
  H   H1083     1.0  0.80537  0.43505  0.71461  1.0000
  C   C635      1.0  0.90726  0.24467  0.86496  1.0000
  H   H1084     1.0  0.58316  0.02192  0.75105  1.0000
  H   H1085     1.0  0.65486  0.07837  0.97760  1.0000
  H   H1086     1.0  0.73849  0.31721  0.89730  1.0000
  C   C636      1.0  0.85533  0.40219  0.66443  1.0000
  H   H1087     1.0  0.89771  0.24392  0.85031  1.0000
  H   H1088     1.0  0.93505  0.13270  0.85511  1.0000
  H   H1089     1.0  0.71023  0.48463  0.85023  1.0000
  H   H1090     1.0  0.98869  0.04234  0.74654  1.0000
  H   H1091     1.0  0.62543  0.16500  0.73987  1.0000
  H   H1092     1.0  0.50187  0.99381  0.77781  1.0000
  H   H1093     1.0  0.83458  0.17791  0.85736  1.0000
  H   H1094     1.0  0.59444  0.13750  0.73402  1.0000
  H   H1095     1.0  0.90675  0.00065  0.79734  1.0000
  H   H1096     1.0  0.89184  0.13802  0.91101  1.0000
  H   H1097     1.0  0.84034  0.48662  0.79589  1.0000
  H   H1098     1.0  0.61626  0.16639  0.70535  1.0000
  H   H1099     1.0  0.69407  0.36720  0.83784  1.0000
  H   H1100     1.0  0.91962  0.16884  0.90667  1.0000
  H   H1101     1.0  0.88746  0.15365  0.84716  1.0000
  C   C637      1.0  0.89366  0.21786  0.87757  1.0000
  H   H1102     1.0  0.97349  0.99272  0.80531  1.0000
  H   H1103     1.0  0.52008  0.00130  0.81028  1.0000
  H   H1104     1.0  0.93371  0.24424  0.86461  1.0000
  H   H1105     1.0  0.94628  0.19199  0.85834  1.0000
  H   H1106     1.0  0.84437  0.18339  0.83306  1.0000
  H   H1107     1.0  0.84876  0.21604  0.84891  1.0000
  H   H1108     1.0  0.85770  0.42407  0.69213  1.0000
  H   H1109     1.0  0.67849  0.40741  0.85938  1.0000
  H   H1110     1.0  0.78111  0.32346  0.89712  1.0000
  S   S188      1.0  0.53228  0.06043  0.66790  1.0000
  C   C638      1.0  0.93510  0.17869  0.87027  1.0000
  C   C639      1.0  0.89425  0.16230  0.90487  1.0000
  H   H1111     1.0  0.63416  0.12343  0.73960  1.0000
  N   N46       1.0  0.67426  0.04262  0.93394  1.0000
  C   C640      1.0  0.63668  0.02647  0.90652  1.0000
  C   C641      1.0  0.72814  0.01373  0.93956  1.0000
  C   C642      1.0  0.67482  0.05018  0.95486  1.0000
  C   C643      1.0  0.68898  0.06925  0.92251  1.0000
  H   H1112     1.0  0.77351  0.40821  0.71023  1.0000
  C   C644      1.0  0.57877  0.99745  0.74702  1.0000
  C   C645      1.0  0.65014  0.07425  0.96228  1.0000
  C   C646      1.0  0.66929  0.09998  0.91972  1.0000
  H   H1113     1.0  0.65450  0.39010  0.87757  1.0000
  C   C647      1.0  0.69115  0.13896  0.98739  1.0000
  H   H1114     1.0  0.62364  0.05386  0.93075  1.0000
  C   C648      1.0  0.78795  0.38731  0.67681  1.0000
  C   C649      1.0  0.66129  0.13928  0.67253  1.0000
  H   H1115     1.0  0.69862  0.05959  0.95912  1.0000
  H   H1116     1.0  0.71200  0.07689  0.92894  1.0000
  H   H1117     1.0  0.69606  0.06083  0.90816  1.0000
  H   H1118     1.0  0.90131  0.19172  0.84025  1.0000
  H   H1119     1.0  0.81417  0.36238  0.71645  1.0000
  S   S189      1.0  0.97226  0.05554  0.82696  1.0000
  C   C650      1.0  0.86903  0.45884  0.73506  1.0000
  H   H1120     1.0  0.81845  0.34556  0.68394  1.0000
  H   H1121     1.0  0.78960  0.46886  0.92034  1.0000
  H   H1122     1.0  0.62539  0.06499  0.96132  1.0000
  H   H1123     1.0  0.77839  0.34406  0.69343  1.0000
  H   H1124     1.0  0.93825  0.04132  0.76664  1.0000
  H   H1125     1.0  0.67851  0.11921  0.92907  1.0000
  H   H1126     1.0  0.64343  0.09759  0.92207  1.0000
  H   H1127     1.0  0.67182  0.10824  0.90482  1.0000
  N   N47       1.0  0.73646  0.37748  0.87117  1.0000
  C   C651      1.0  0.73852  0.38644  0.85048  1.0000
  C   C652      1.0  0.74901  0.40497  0.88280  1.0000
  C   C653      1.0  0.70256  0.37066  0.87694  1.0000
  C   C654      1.0  0.75598  0.34784  0.87426  1.0000
  C   C655      1.0  0.72028  0.36473  0.83647  1.0000
  C   C656      1.0  0.78529  0.41063  0.88177  1.0000
  C   C657      1.0  0.67899  0.39848  0.87415  1.0000
  C   C658      1.0  0.75763  0.33509  0.89478  1.0000
  H   H1128     1.0  0.72996  0.41116  0.84801  1.0000
  H   H1129     1.0  0.76383  0.38655  0.84575  1.0000
  H   H1130     1.0  0.74248  0.40253  0.89799  1.0000
  H   H1131     1.0  0.73766  0.42771  0.87829  1.0000
  H   H1132     1.0  0.69302  0.34942  0.86934  1.0000
  H   H1133     1.0  0.70141  0.36413  0.89221  1.0000
  H   H1134     1.0  0.74646  0.32777  0.86565  1.0000
  H   H1135     1.0  0.78075  0.35074  0.86885  1.0000
  H   H1136     1.0  0.72654  0.37187  0.82177  1.0000
  H   H1137     1.0  0.72683  0.33932  0.83789  1.0000
  H   H1138     1.0  0.94716  0.18831  0.88312  1.0000
  H   H1139     1.0  0.79892  0.39108  0.88856  1.0000
  H   H1140     1.0  0.79336  0.41388  0.86697  1.0000
  H   H1141     1.0  0.79141  0.43287  0.88950  1.0000
  H   H1142     1.0  0.65212  0.09776  0.95537  1.0000
  H   H1143     1.0  0.67119  0.02804  0.96332  1.0000
  H   H1144     1.0  0.74211  0.03467  0.93489  1.0000
  N   N48       1.0  0.80831  0.41094  0.68749  1.0000
  H   H1145     1.0  0.78639  0.33744  0.66863  1.0000
  C   C659      1.0  0.64072  0.03454  0.92772  1.0000
  H   H1146     1.0  0.77611  0.48803  0.95179  1.0000
  C   C660      1.0  0.79969  0.41142  0.70830  1.0000
  H   H1147     1.0  0.76221  0.45958  0.69810  1.0000
  H   H1148     1.0  0.76346  0.45995  0.84535  1.0000
  N   N49       1.0  0.96821  0.00170  0.77524  1.0000
  C   C661      1.0  0.69419  0.01308  0.93096  1.0000
  H   H1149     1.0  0.87400  0.48326  0.70817  1.0000
  H   H1150     1.0  0.64841  0.00371  0.90280  1.0000
  C   C662      1.0  0.76768  0.45680  0.68283  1.0000
  C   C663      1.0  0.65408  0.06276  0.69285  1.0000
  H   H1151     1.0  0.70321  0.47670  0.92010  1.0000
  H   H1152     1.0  0.68065  0.12153  0.67404  1.0000
  C   C664      1.0  0.64943  0.00469  0.85373  1.0000
  S   S190      1.0  0.82681  0.47672  0.85995  1.0000
  C   C665      1.0  0.84355  0.40489  0.68506  1.0000
  H   H1153     1.0  0.61091  0.02331  0.90328  1.0000
  C   C666      1.0  0.97736  0.36900  0.85457  1.0000
  C   C667      1.0  0.80158  0.44360  0.67944  1.0000
  H   H1154     1.0  0.81861  0.46141  0.68537  1.0000
  H   H1155     1.0  0.63266  0.04747  0.69449  1.0000
  S   S191      1.0  0.60182  0.03243  0.65753  1.0000
  H   H1156     1.0  0.63144  0.01391  0.93602  1.0000
  H   H1157     1.0  0.74905  0.44223  0.67576  1.0000
  H   H1158     1.0  0.67460  0.04841  0.69797  1.0000
  C   C668      1.0  0.94147  0.02495  0.77890  1.0000
  H   H1159     1.0  0.89163  0.44662  0.73381  1.0000
  H   H1160     1.0  0.76623  0.48104  0.67660  1.0000
  H   H1161     1.0  0.74133  0.99227  0.93481  1.0000
  H   H1162     1.0  0.94729  0.04059  0.79118  1.0000
  H   H1163     1.0  0.94800  0.99941  0.74682  1.0000
  H   H1164     1.0  0.78242  0.48219  0.79959  1.0000
  H   H1165     1.0  0.68203  0.99168  0.93694  1.0000
  H   H1166     1.0  0.70341  0.48886  0.95990  1.0000
  H   H1167     1.0  0.49373  0.46765  0.79023  1.0000
  C   C669      1.0  0.75767  0.49096  0.94056  1.0000
  H   H1168     1.0  0.49545  0.44022  0.82050  1.0000
  H   H1169     1.0  0.75271  0.48789  0.98031  1.0000
  H   H1170     1.0  0.90189  0.99158  0.77229  1.0000
  H   H1171     1.0  0.85245  0.42470  0.65649  1.0000
  C   C670      1.0  0.81127  0.49098  0.73821  1.0000
  H   H1172     1.0  0.66000  0.14566  0.65727  1.0000
  H   H1173     1.0  0.84340  0.38255  0.65664  1.0000
  H   H1174     1.0  0.93431  0.95612  0.10147  1.0000
  C   C671      1.0  0.90938  0.95212  0.10616  1.0000
  Fe  Fe97      1.0  0.77850  0.61349  0.05757  1.0000
  S   S192      1.0  0.74827  0.63067  0.08201  1.0000
  S   S193      1.0  0.76918  0.61924  0.02547  1.0000
  Fe  Fe98      1.0  0.83732  0.60294  0.08428  1.0000
  S   S194      1.0  0.81103  0.62016  0.10992  1.0000
  S   S195      1.0  0.88925  0.58629  0.08274  1.0000
  Fe  Fe99      1.0  0.77006  0.59002  0.09868  1.0000
  S   S196      1.0  0.74973  0.55475  0.12046  1.0000
  Fe  Fe100     1.0  0.79155  0.65918  0.09131  1.0000
  S   S197      1.0  0.78957  0.71361  0.09404  1.0000
  S   S198      1.0  0.79765  0.57115  0.07368  1.0000
  S   S199      1.0  0.82058  0.64369  0.06629  1.0000
  C   C672      1.0  0.90560  0.81229  0.12650  1.0000
  Fe  Fe101     1.0  0.83692  0.86730  0.15610  1.0000
  S   S200      1.0  0.85775  0.89080  0.13033  1.0000
  S   S201      1.0  0.82612  0.81391  0.15883  1.0000
  Fe  Fe102     1.0  0.84201  0.92921  0.18031  1.0000
  S   S202      1.0  0.86356  0.95652  0.15592  1.0000
  S   S203      1.0  0.82521  0.95204  0.20826  1.0000
  Fe  Fe103     1.0  0.82613  0.93269  0.13781  1.0000
  Fe  Fe104     1.0  0.89335  0.91253  0.15038  1.0000
  S   S204      1.0  0.94772  0.91403  0.14659  1.0000
  S   S205      1.0  0.80287  0.90738  0.16224  1.0000
  S   S206      1.0  0.87426  0.88708  0.17609  1.0000
  H   H1175     1.0  0.76382  0.75469  0.06065  1.0000
  C   C673      1.0  0.71323  0.53286  0.12098  1.0000
  C   C674      1.0  0.68863  0.53805  0.10791  1.0000
  C   C675      1.0  0.65542  0.49738  0.12340  1.0000
  H   H1176     1.0  0.85692  0.54802  0.11237  1.0000
  H   H1177     1.0  0.80399  0.74801  0.03994  1.0000
  H   H1178     1.0  0.90388  0.83468  0.11822  1.0000
  H   H1179     1.0  0.69164  0.55570  0.09688  1.0000
  C   C676      1.0  0.72154  0.70010  0.01672  1.0000
  H   H1180     1.0  0.77063  0.86398  0.31148  1.0000
  C   C677      1.0  0.83859  0.91371  0.27102  1.0000
  C   C678      1.0  0.91746  0.58021  0.10127  1.0000
  C   C679      1.0  0.94756  0.56753  0.09680  1.0000
  C   C680      1.0  0.97017  0.56078  0.11111  1.0000
  C   C681      1.0  0.96277  0.56637  0.13013  1.0000
  C   C682      1.0  0.93283  0.57951  0.13458  1.0000
  C   C683      1.0  0.91042  0.58671  0.12025  1.0000
  H   H1181     1.0  0.95330  0.56248  0.08217  1.0000
  H   H1182     1.0  0.81730  0.53498  0.10957  1.0000
  H   H1183     1.0  0.80231  0.71045  0.05285  1.0000
  H   H1184     1.0  0.88758  0.59688  0.12390  1.0000
  C   C684      1.0  0.80184  0.74069  0.11207  1.0000
  C   C685      1.0  0.80956  0.73076  0.13045  1.0000
  C   C686      1.0  0.81709  0.75348  0.14453  1.0000
  C   C687      1.0  0.81750  0.78629  0.14037  1.0000
  C   C688      1.0  0.81069  0.79613  0.12187  1.0000
  C   C689      1.0  0.80266  0.77347  0.10787  1.0000
  H   H1185     1.0  0.80883  0.70568  0.13393  1.0000
  H   H1186     1.0  0.82213  0.74558  0.15882  1.0000
  H   H1187     1.0  0.81083  0.82125  0.11845  1.0000
  H   H1188     1.0  0.79668  0.78145  0.09374  1.0000
  H   H1189     1.0  0.83400  0.57548  0.15916  1.0000
  C   C690      1.0  0.61511  0.59650  0.19793  1.0000
  H   H1190     1.0  0.64101  0.52485  0.09903  1.0000
  C   C691      1.0  0.84441  0.96986  0.22828  1.0000
  H   H1191     1.0  0.57445  0.58608  0.17999  1.0000
  H   H1192     1.0  0.90417  0.75054  0.13041  1.0000
  H   H1193     1.0  0.72560  0.73867  0.99542  1.0000
  N   N50       1.0  0.84408  0.50800  0.13045  1.0000
  H   H1194     1.0  0.72446  0.67376  0.01631  1.0000
  N   N51       1.0  0.80503  0.92756  0.30045  1.0000
  H   H1195     1.0  0.78179  0.68471  0.02209  1.0000
  C   C692      1.0  0.76170  0.88873  0.31301  1.0000
  H   H1196     1.0  0.75656  0.98541  0.08627  1.0000
  H   H1197     1.0  0.55181  0.53112  0.15217  1.0000
  C   C693      1.0  0.73957  0.61035  0.00798  1.0000
  C   C694      1.0  0.71328  0.59070  0.01162  1.0000
  C   C695      1.0  0.91281  0.82043  0.14733  1.0000
  H   H1198     1.0  0.71040  0.58023  0.02553  1.0000
  H   H1199     1.0  0.61543  0.96221  0.12297  1.0000
  C   C696      1.0  0.90481  0.49763  0.12993  1.0000
  H   H1200     1.0  0.75276  0.70466  0.06141  1.0000
  H   H1201     1.0  0.74529  0.67089  0.04767  1.0000
  H   H1202     1.0  0.74793  0.89491  0.30016  1.0000
  C   C697      1.0  0.90197  0.81011  0.19152  1.0000
  H   H1203     1.0  0.66250  0.49152  0.19803  1.0000
  C   C698      1.0  0.85216  0.50831  0.09377  1.0000
  H   H1204     1.0  0.64504  0.50721  0.25648  1.0000
  H   H1205     1.0  0.90402  0.92655  0.10371  1.0000
  H   H1206     1.0  0.81928  0.96755  0.31795  1.0000
  H   H1207     1.0  0.92481  0.79868  0.11958  1.0000
  H   H1208     1.0  0.69199  0.71929  0.05694  1.0000
  C   C699      1.0  0.97366  0.89498  0.13014  1.0000
  H   H1209     1.0  0.82287  0.92565  0.26056  1.0000
  C   C700      1.0  0.77362  0.99076  0.11495  1.0000
  C   C701      1.0  0.80362  0.72170  0.03870  1.0000
  C   C702      1.0  0.62116  0.49759  0.25514  1.0000
  H   H1210     1.0  0.85853  0.92983  0.27494  1.0000
  H   H1211     1.0  0.78157  0.72324  0.01170  1.0000
  H   H1212     1.0  0.92693  0.58403  0.14925  1.0000
  C   C703      1.0  0.96227  0.87902  0.11408  1.0000
  S   S207      1.0  0.79795  0.95617  0.11370  1.0000
  C   C704      1.0  0.68013  0.49200  0.13638  1.0000
  C   C705      1.0  0.74404  0.76573  0.05266  1.0000
  H   H1213     1.0  0.83897  0.96613  0.29588  1.0000
  H   H1214     1.0  0.72283  0.76744  0.06201  1.0000
  N   N52       1.0  0.92774  0.79473  0.15933  1.0000
  H   H1215     1.0  0.98034  0.79342  0.10251  1.0000
  H   H1216     1.0  0.93126  0.72773  0.14508  1.0000
  C   C706      1.0  0.90630  0.76573  0.16068  1.0000
  C   C707      1.0  0.82990  0.95076  0.30755  1.0000
  H   H1217     1.0  0.65786  0.97738  0.10209  1.0000
  H   H1218     1.0  0.89203  0.95494  0.22145  1.0000
  C   C708      1.0  0.90823  0.74069  0.14470  1.0000
  C   C709      1.0  0.72596  0.71232  0.99626  1.0000
  C   C710      1.0  0.96016  0.78539  0.15204  1.0000
  H   H1219     1.0  0.87260  0.54516  0.14362  1.0000
  H   H1220     1.0  0.93699  0.87869  0.11110  1.0000
  H   H1221     1.0  0.88087  0.77302  0.16187  1.0000
  H   H1222     1.0  0.91171  0.75206  0.17384  1.0000
  H   H1223     1.0  0.90676  0.82584  0.20387  1.0000
  H   H1224     1.0  0.89522  0.78642  0.19724  1.0000
  S   S208      1.0  0.98901  0.55556  0.14890  1.0000
  H   H1225     1.0  0.90771  0.95637  0.12160  1.0000
  H   H1226     1.0  0.85467  0.51842  0.15997  1.0000
  C   C711      1.0  0.70874  0.50977  0.13523  1.0000
  C   C712      1.0  0.77711  0.71027  0.02517  1.0000
  C   C713      1.0  0.68399  0.97254  0.13499  1.0000
  H   H1227     1.0  0.70893  0.75307  0.03192  1.0000
  C   C714      1.0  0.50702  0.93965  0.28460  1.0000
  H   H1228     1.0  0.67080  0.56866  0.00010  1.0000
  H   H1229     1.0  0.90716  0.51698  0.11937  1.0000
  C   C715      1.0  0.93223  0.80820  0.17907  1.0000
  H   H1230     1.0  0.60812  0.58710  0.21195  1.0000
  H   H1231     1.0  0.60179  0.50453  0.16039  1.0000
  H   H1232     1.0  0.63361  0.53838  0.20574  1.0000
  C   C716      1.0  0.89102  0.98083  0.24805  1.0000
  H   H1233     1.0  0.57237  0.56854  0.14773  1.0000
  H   H1234     1.0  0.91642  0.97860  0.25041  1.0000
  H   H1235     1.0  0.84665  0.52339  0.08127  1.0000
  C   C717      1.0  0.60251  0.53096  0.16100  1.0000
  H   H1236     1.0  0.51719  0.91876  0.27713  1.0000
  H   H1237     1.0  0.88971  0.82782  0.15341  1.0000
  H   H1238     1.0  0.97175  0.75234  0.09864  1.0000
  H   H1239     1.0  0.69598  0.70410  0.02020  1.0000
  H   H1240     1.0  0.69895  0.97117  0.12205  1.0000
  C   C718      1.0  0.99064  0.77077  0.09723  1.0000
  H   H1241     1.0  0.97073  0.76672  0.16136  1.0000
  S   S209      1.0  0.61080  0.52641  0.28971  1.0000
  H   H1242     1.0  0.60544  0.98400  0.08883  1.0000
  C   C719      1.0  0.82424  0.55624  0.15000  1.0000
  C   C720      1.0  0.87726  0.96740  0.23156  1.0000
  H   H1243     1.0  0.49787  0.95805  0.25697  1.0000
  H   H1244     1.0  0.87826  0.50430  0.09331  1.0000
  H   H1245     1.0  0.97462  0.85150  0.08931  1.0000
  N   N53       1.0  0.74310  0.71464  0.03162  1.0000
  C   C721      1.0  0.74274  0.62373  0.98975  1.0000
  C   C722      1.0  0.63290  0.53208  0.19048  1.0000
  H   H1246     1.0  0.55054  0.49486  0.27860  1.0000
  H   H1247     1.0  0.74644  0.76356  0.02203  1.0000
  H   H1248     1.0  0.68822  0.67859  0.04861  1.0000
  N   N54       1.0  0.60203  0.54241  0.18128  1.0000
  C   C723      1.0  0.59981  0.57839  0.18109  1.0000
  C   C724      1.0  0.57341  0.52774  0.19090  1.0000
  H   H1249     1.0  0.82708  0.71472  0.03273  1.0000
  C   C725      1.0  0.56766  0.53739  0.21162  1.0000
  H   H1250     1.0  0.61325  0.98135  0.14517  1.0000
  H   H1251     1.0  0.70304  0.68667  0.07184  1.0000
  H   H1252     1.0  0.88246  0.79951  0.12517  1.0000
  H   H1253     1.0  0.55105  0.53395  0.18330  1.0000
  H   H1254     1.0  0.57464  0.50135  0.19043  1.0000
  H   H1255     1.0  0.94217  0.83285  0.17847  1.0000
  H   H1256     1.0  0.98882  0.82539  0.16391  1.0000
  C   C726      1.0  0.98374  0.86366  0.10171  1.0000
  C   C727      1.0  0.59877  0.50348  0.26958  1.0000
  C   C728      1.0  0.75859  0.96787  0.29962  1.0000
  H   H1257     1.0  0.57973  0.53452  0.13340  1.0000
  H   H1258     1.0  0.54740  0.52318  0.21731  1.0000
  H   H1259     1.0  0.83548  0.88625  0.29695  1.0000
  H   H1260     1.0  0.77183  0.98572  0.30812  1.0000
  C   C729      1.0  0.73513  0.74953  0.03362  1.0000
  H   H1261     1.0  0.76633  0.92960  0.27975  1.0000
  H   H1262     1.0  0.66730  0.95202  0.13555  1.0000
  H   H1263     1.0  0.88856  0.96675  0.07960  1.0000
  C   C730      1.0  0.73776  0.69604  0.04962  1.0000
  H   H1264     1.0  0.74208  0.95423  0.30885  1.0000
  H   H1265     1.0  0.79372  0.96110  0.27808  1.0000
  H   H1266     1.0  0.64156  0.59627  0.19692  1.0000
  H   H1267     1.0  0.91242  0.50690  0.14399  1.0000
  C   C731      1.0  0.70311  0.69542  0.05697  1.0000
  H   H1268     1.0  0.70073  0.97039  0.14717  1.0000
  H   H1269     1.0  0.84924  0.89294  0.26367  1.0000
  C   C732      1.0  0.78123  0.94579  0.28860  1.0000
  H   H1270     1.0  0.80076  0.88565  0.28279  1.0000
  H   H1271     1.0  0.92680  0.84302  0.14772  1.0000
  H   H1272     1.0  0.65337  0.54498  0.18388  1.0000
  H   H1273     1.0  0.60767  0.62186  0.19736  1.0000
  H   H1274     1.0  0.49456  0.93155  0.29753  1.0000
  C   C733      1.0  0.84201  0.52611  0.11195  1.0000
  C   C734      1.0  0.98473  0.81268  0.15036  1.0000
  H   H1275     1.0  0.56093  0.56280  0.21279  1.0000
  H   H1276     1.0  0.88917  0.72262  0.14698  1.0000
  C   C735      1.0  0.69081  0.58422  0.99715  1.0000
  H   H1277     1.0  0.86128  0.96281  0.09826  1.0000
  C   C736      1.0  0.65990  0.52051  0.10919  1.0000
  C   C737      1.0  0.82566  0.98613  0.24169  1.0000
  C   C738      1.0  0.81962  0.90190  0.28838  1.0000
  H   H1278     1.0  0.94990  0.79394  0.18729  1.0000
  H   H1279     1.0  0.88122  0.82003  0.18388  1.0000
  C   C739      1.0  0.64095  0.49631  0.18930  1.0000
  H   H1280     1.0  0.80360  0.54576  0.15763  1.0000
  H   H1281     1.0  0.61188  0.58842  0.16832  1.0000
  H   H1282     1.0  0.58840  0.53240  0.22086  1.0000
  Fe  Fe105     1.0  0.58686  0.53637  0.31851  1.0000
  H   H1283     1.0  0.81581  0.56749  0.13673  1.0000
  H   H1284     1.0  0.87299  0.92026  0.30808  1.0000
  C   C740      1.0  0.85046  0.53126  0.14636  1.0000
  C   C741      1.0  0.88537  0.97245  0.09487  1.0000
  H   H1285     1.0  0.62523  0.53818  0.15395  1.0000
  C   C742      1.0  0.57482  0.54230  0.14816  1.0000
  H   H1286     1.0  0.75144  0.79072  0.04986  1.0000
  H   H1287     1.0  0.95862  0.77441  0.13781  1.0000
  H   H1288     1.0  0.56092  0.97550  0.12902  1.0000
  H   H1289     1.0  0.79307  0.50868  0.13583  1.0000
  H   H1290     1.0  0.72758  0.50547  0.14540  1.0000
  H   H1291     1.0  0.71811  0.50225  0.99222  1.0000
  H   H1292     1.0  0.52705  0.95453  0.28999  1.0000
  H   H1293     1.0  0.97754  0.82984  0.13927  1.0000
  H   H1294     1.0  0.74359  0.98123  0.28935  1.0000
  C   C743      1.0  0.78947  0.91196  0.31731  1.0000
  C   C744      1.0  0.61192  0.98597  0.12964  1.0000
  H   H1295     1.0  0.74821  0.70293  0.98989  1.0000
  C   C745      1.0  0.85918  0.93608  0.31753  1.0000
  C   C746      1.0  0.81295  0.49136  0.13474  1.0000
  H   H1296     1.0  0.80026  0.98832  0.23929  1.0000
  H   H1297     1.0  0.87561  0.95562  0.32174  1.0000
  Fe  Fe106     1.0  0.65916  0.80469  0.38505  1.0000
  S   S210      1.0  0.63139  0.81032  0.41201  1.0000
  S   S211      1.0  0.67058  0.75782  0.37009  1.0000
  Fe  Fe107     1.0  0.67012  0.87728  0.38102  1.0000
  S   S212      1.0  0.64181  0.88754  0.40743  1.0000
  S   S213      1.0  0.68899  0.91726  0.36196  1.0000
  Fe  Fe108     1.0  0.66886  0.84644  0.42058  1.0000
  S   S214      1.0  0.69844  0.85371  0.44793  1.0000
  Fe  Fe109     1.0  0.60690  0.85075  0.39643  1.0000
  S   S215      1.0  0.55225  0.85075  0.39664  1.0000
  S   S216      1.0  0.69859  0.83805  0.39436  1.0000
  S   S217      1.0  0.63326  0.84324  0.36925  1.0000
  Fe  Fe110     1.0  0.58840  0.57968  0.35433  1.0000
  S   S218      1.0  0.55743  0.54488  0.37050  1.0000
  S   S219      1.0  0.59648  0.62455  0.37251  1.0000
  Fe  Fe111     1.0  0.52750  0.54305  0.34419  1.0000
  S   S220      1.0  0.80062  0.52609  0.64998  1.0000
  C   C747      1.0  0.49243  0.76080  0.35425  1.0000
  H   H1298     1.0  0.78649  0.52207  0.55827  1.0000
  C   C748      1.0  0.65126  0.85676  0.54091  1.0000
  H   H1299     1.0  0.80218  0.64384  0.64632  1.0000
  Fe  Fe112     1.0  0.75643  0.81547  0.55773  1.0000
  S   S221      1.0  0.73124  0.81306  0.58608  1.0000
  S   S222      1.0  0.72396  0.80240  0.53243  1.0000
  Fe  Fe113     1.0  0.82010  0.83517  0.57692  1.0000
  S   S223      1.0  0.79833  0.83482  0.60576  1.0000
  S   S224      1.0  0.87275  0.84814  0.57235  1.0000
  Fe  Fe114     1.0  0.77571  0.78837  0.59677  1.0000
  S   S225      1.0  0.77816  0.74908  0.61929  1.0000
  Fe  Fe115     1.0  0.75598  0.85935  0.59254  1.0000
  S   S226      1.0  0.73760  0.90606  0.60531  1.0000
  S   S227      1.0  0.79932  0.78759  0.56822  1.0000
  S   S228      1.0  0.77934  0.86294  0.56387  1.0000
  H   H1300     1.0  0.96658  0.64100  0.58881  1.0000
  S   S229      1.0  0.86169  0.53042  0.62117  1.0000
  C   C749      1.0  0.71503  0.92087  0.55153  1.0000
  C   C750      1.0  0.89157  0.63911  0.59649  1.0000
  S   S230      1.0  0.62076  0.54052  0.34356  1.0000
  H   H1301     1.0  0.58573  0.75906  0.34069  1.0000
  H   H1302     1.0  0.78120  0.92979  0.32779  1.0000
  H   H1303     1.0  0.64655  0.80897  0.55251  1.0000
  H   H1304     1.0  0.97476  0.83017  0.65085  1.0000
  H   H1305     1.0  0.86317  0.66494  0.62854  1.0000
  C   C751      1.0  0.69812  0.91879  0.61081  1.0000
  C   C752      1.0  0.69346  0.94996  0.61762  1.0000
  C   C753      1.0  0.66256  0.96160  0.62149  1.0000
  C   C754      1.0  0.63579  0.94225  0.61846  1.0000
  C   C755      1.0  0.64050  0.91092  0.61191  1.0000
  C   C756      1.0  0.67143  0.89917  0.60821  1.0000
  H   H1306     1.0  0.71382  0.96537  0.61980  1.0000
  C   C757      1.0  0.76149  0.52150  0.60452  1.0000
  H   H1307     1.0  0.61999  0.89568  0.60960  1.0000
  H   H1308     1.0  0.67456  0.87501  0.60328  1.0000
  C   C758      1.0  0.90104  0.85963  0.58997  1.0000
  C   C759      1.0  0.93054  0.87256  0.58430  1.0000
  C   C760      1.0  0.95282  0.88388  0.59777  1.0000
  C   C761      1.0  0.94582  0.88250  0.61713  1.0000
  C   C762      1.0  0.91671  0.86874  0.62282  1.0000
  C   C763      1.0  0.89463  0.85702  0.60936  1.0000
  H   H1309     1.0  0.93582  0.87466  0.56935  1.0000
  H   H1310     1.0  0.97641  0.78818  0.64810  1.0000
  H   H1311     1.0  0.91095  0.86766  0.63775  1.0000
  H   H1312     1.0  0.87237  0.84654  0.61398  1.0000
  C   C764      1.0  0.78744  0.70789  0.61739  1.0000
  C   C765      1.0  0.79173  0.68997  0.63407  1.0000
  C   C766      1.0  0.79901  0.65720  0.63335  1.0000
  C   C767      1.0  0.80195  0.64190  0.61585  1.0000
  C   C768      1.0  0.79751  0.65974  0.59915  1.0000
  C   C769      1.0  0.79048  0.69257  0.59989  1.0000
  H   H1313     1.0  0.53503  0.67744  0.36686  1.0000
  C   C770      1.0  0.69512  0.88985  0.55313  1.0000
  H   H1314     1.0  0.79959  0.64816  0.58553  1.0000
  H   H1315     1.0  0.78710  0.70599  0.58695  1.0000
  C   C771      1.0  0.70516  0.83865  0.47131  1.0000
  C   C772      1.0  0.68575  0.81530  0.47957  1.0000
  C   C773      1.0  0.69219  0.80431  0.49813  1.0000
  C   C774      1.0  0.71791  0.81659  0.50881  1.0000
  C   C775      1.0  0.73735  0.83989  0.50055  1.0000
  C   C776      1.0  0.73098  0.85079  0.48196  1.0000
  H   H1316     1.0  0.66558  0.80596  0.47176  1.0000
  H   H1317     1.0  0.67689  0.78636  0.50436  1.0000
  H   H1318     1.0  0.75726  0.84957  0.50848  1.0000
  H   H1319     1.0  0.74621  0.86885  0.47577  1.0000
  C   C777      1.0  0.72716  0.93547  0.36341  1.0000
  C   C778      1.0  0.73415  0.96139  0.35145  1.0000
  C   C779      1.0  0.76425  0.97649  0.35207  1.0000
  C   C780      1.0  0.78776  0.96555  0.36455  1.0000
  C   C781      1.0  0.78077  0.93966  0.37649  1.0000
  C   C782      1.0  0.75061  0.92472  0.37598  1.0000
  H   H1320     1.0  0.71606  0.96991  0.34175  1.0000
  H   H1321     1.0  0.66576  0.94148  0.57401  1.0000
  H   H1322     1.0  0.79875  0.93112  0.38627  1.0000
  H   H1323     1.0  0.74553  0.90484  0.38527  1.0000
  C   C783      1.0  0.52627  0.86979  0.38013  1.0000
  H   H1324     1.0  0.70126  0.94302  0.54984  1.0000
  H   H1325     1.0  0.61343  0.90138  0.55435  1.0000
  H   H1326     1.0  0.66469  0.93470  0.52907  1.0000
  C   C784      1.0  0.51587  0.90594  0.35378  1.0000
  C   C785      1.0  0.53752  0.89061  0.36615  1.0000
  H   H1327     1.0  0.89124  0.58681  0.59853  1.0000
  C   C786      1.0  0.67898  0.89724  0.51047  1.0000
  H   H1328     1.0  0.56283  0.89545  0.36512  1.0000
  C   C787      1.0  0.64788  0.72194  0.37001  1.0000
  C   C788      1.0  0.62501  0.71544  0.38388  1.0000
  C   C789      1.0  0.60945  0.68561  0.38427  1.0000
  C   C790      1.0  0.61597  0.66213  0.37058  1.0000
  C   C791      1.0  0.63834  0.66889  0.35646  1.0000
  C   C792      1.0  0.65443  0.69850  0.35632  1.0000
  H   H1329     1.0  0.61976  0.73312  0.39453  1.0000
  H   H1330     1.0  0.59225  0.68057  0.39529  1.0000
  H   H1331     1.0  0.64374  0.65106  0.34590  1.0000
  H   H1332     1.0  0.67220  0.70319  0.34557  1.0000
  N   N55       1.0  0.71084  0.74010  0.42782  1.0000
  C   C793      1.0  0.72854  0.73485  0.40944  1.0000
  C   C794      1.0  0.71632  0.77432  0.43348  1.0000
  C   C795      1.0  0.67585  0.73493  0.42377  1.0000
  C   C796      1.0  0.72289  0.71673  0.44243  1.0000
  C   C797      1.0  0.72370  0.70209  0.39989  1.0000
  C   C798      1.0  0.75153  0.78444  0.43588  1.0000
  C   C799      1.0  0.65249  0.74087  0.44017  1.0000
  C   C800      1.0  0.71861  0.72594  0.46354  1.0000
  H   H1333     1.0  0.72189  0.75337  0.39879  1.0000
  H   H1334     1.0  0.75474  0.73737  0.41155  1.0000
  H   H1335     1.0  0.70415  0.78047  0.44682  1.0000
  H   H1336     1.0  0.70543  0.79059  0.42287  1.0000
  H   H1337     1.0  0.66821  0.75029  0.41173  1.0000
  H   H1338     1.0  0.67108  0.71002  0.41922  1.0000
  H   H1339     1.0  0.71157  0.69295  0.44029  1.0000
  H   H1340     1.0  0.74901  0.71301  0.44054  1.0000
  H   H1341     1.0  0.72820  0.68202  0.40972  1.0000
  H   H1342     1.0  0.69956  0.69977  0.39354  1.0000
  H   H1343     1.0  0.74075  0.69987  0.38794  1.0000
  H   H1344     1.0  0.76306  0.78819  0.42191  1.0000
  H   H1345     1.0  0.75260  0.80768  0.44339  1.0000
  H   H1346     1.0  0.76548  0.76715  0.44433  1.0000
  H   H1347     1.0  0.65424  0.76529  0.44600  1.0000
  H   H1348     1.0  0.65521  0.72277  0.45149  1.0000
  H   H1349     1.0  0.62774  0.73825  0.43466  1.0000
  H   H1350     1.0  0.71452  0.70393  0.47195  1.0000
  H   H1351     1.0  0.69840  0.74189  0.46666  1.0000
  H   H1352     1.0  0.74092  0.73652  0.46934  1.0000
  H   H1353     1.0  0.72937  0.92385  0.56469  1.0000
  C   C801      1.0  0.81931  0.93199  0.62973  1.0000
  H   H1354     1.0  0.73275  0.91889  0.53992  1.0000
  H   H1355     1.0  0.97479  0.89497  0.59313  1.0000
  H   H1356     1.0  0.50286  0.75325  0.39036  1.0000
  H   H1357     1.0  0.88340  0.92282  0.61678  1.0000
  H   H1358     1.0  0.86972  0.92069  0.57548  1.0000
  C   C802      1.0  0.74140  0.57483  0.57755  1.0000
  C   C803      1.0  0.90901  0.62402  0.62883  1.0000
  H   H1359     1.0  0.88469  0.61438  0.63171  1.0000
  C   C804      1.0  0.93893  0.66603  0.61071  1.0000
  H   H1360     1.0  0.52481  0.92253  0.34333  1.0000
  H   H1361     1.0  0.70412  0.89322  0.51463  1.0000
  C   C805      1.0  0.58147  0.77889  0.35077  1.0000
  H   H1362     1.0  0.57129  0.78060  0.39137  1.0000
  H   H1363     1.0  0.89697  0.68752  0.63554  1.0000
  H   H1364     1.0  0.84285  0.89672  0.60045  1.0000
  H   H1365     1.0  0.80590  0.91308  0.59526  1.0000
  H   H1366     1.0  0.62835  0.83857  0.56696  1.0000
  C   C806      1.0  0.55204  0.76440  0.39605  1.0000
  C   C807      1.0  0.94625  0.76908  0.60497  1.0000
  H   H1367     1.0  0.67893  0.91527  0.49894  1.0000
  H   H1368     1.0  0.54630  0.77134  0.41084  1.0000
  H   H1369     1.0  0.66800  0.84547  0.53077  1.0000
  H   H1370     1.0  0.62747  0.85639  0.53379  1.0000
  Fe  Fe116     1.0  0.82941  0.56508  0.63604  1.0000
  Fe  Fe117     1.0  0.58746  0.50598  0.35765  1.0000
  H   H1371     1.0  0.85730  0.90561  0.64506  1.0000
  H   H1372     1.0  0.75396  0.58047  0.59095  1.0000
  C   C808      1.0  0.64938  0.83368  0.55792  1.0000
  H   H1373     1.0  0.73618  0.52632  0.63126  1.0000
  H   H1374     1.0  0.53676  0.78970  0.33839  1.0000
  N   N56       1.0  0.75748  0.51622  0.58351  1.0000
  C   C809      1.0  0.96259  0.54975  0.60855  1.0000
  H   H1375     1.0  0.62374  0.94503  0.57571  1.0000
  C   C810      1.0  0.78763  0.97661  0.60212  1.0000
  H   H1376     1.0  0.69497  0.88277  0.56836  1.0000
  H   H1377     1.0  0.67141  0.83399  0.56660  1.0000
  H   H1378     1.0  0.63934  0.88959  0.57302  1.0000
  C   C811      1.0  0.65858  0.90928  0.52714  1.0000
  H   H1379     1.0  0.63328  0.90949  0.52221  1.0000
  H   H1380     1.0  0.91795  0.96577  0.60929  1.0000
  H   H1381     1.0  0.92727  0.60276  0.58804  1.0000
  C   C812      1.0  0.87180  0.94653  0.61732  1.0000
  Fe  Fe118     1.0  0.89308  0.53440  0.64672  1.0000
  H   H1382     1.0  0.85258  0.92342  0.33075  1.0000
  H   H1383     1.0  0.56048  0.73945  0.39651  1.0000
  C   C813      1.0  0.53921  0.72771  0.35994  1.0000
  H   H1384     1.0  0.92334  0.78148  0.60201  1.0000
  S   S231      1.0  0.55750  0.57865  0.32811  1.0000
  H   H1385     1.0  0.93668  0.68412  0.59929  1.0000
  C   C814      1.0  0.98377  0.55739  0.59370  1.0000
  H   H1386     1.0  0.56384  0.72607  0.36562  1.0000
  N   N57       1.0  0.90696  0.65080  0.61462  1.0000
  H   H1387     1.0  0.54135  0.72277  0.34447  1.0000
  H   H1388     1.0  0.77483  0.50146  0.61106  1.0000
  N   N58       1.0  0.66151  0.89051  0.54531  1.0000
  H   H1389     1.0  0.73157  0.53532  0.55955  1.0000
  H   H1390     1.0  0.94527  0.74659  0.59674  1.0000
  S   S232      1.0  0.94685  0.54387  0.64672  1.0000
  C   C815      1.0  0.87536  0.70329  0.60971  1.0000
  H   H1391     1.0  0.65939  0.98576  0.62642  1.0000
  H   H1392     1.0  0.83023  0.91514  0.56608  1.0000
  H   H1393     1.0  0.78211  0.96094  0.58990  1.0000
  H   H1394     1.0  0.89079  0.60204  0.57500  1.0000
  H   H1395     1.0  0.82035  0.49684  0.59431  1.0000
  H   H1396     1.0  0.66893  0.87507  0.50427  1.0000
  H   H1397     1.0  0.54321  0.80912  0.36029  1.0000
  H   H1398     1.0  0.86516  0.63788  0.59812  1.0000
  H   H1399     1.0  0.92239  0.60332  0.62335  1.0000
  H   H1400     1.0  0.96448  0.81463  0.59551  1.0000
  H   H1401     1.0  0.75626  0.58371  0.56564  1.0000
  C   C816      1.0  0.90122  0.60582  0.58931  1.0000
  C   C817      1.0  0.89250  0.96919  0.60526  1.0000
  H   H1402     1.0  0.86081  0.69473  0.59759  1.0000
  H   H1403     1.0  0.83285  0.88109  0.62969  1.0000
  H   H1404     1.0  0.85998  0.72008  0.61772  1.0000
  H   H1405     1.0  0.98030  0.78099  0.58357  1.0000
  N   N59       1.0  0.52535  0.76045  0.36304  1.0000
  C   C818      1.0  0.73033  0.52529  0.61592  1.0000
  C   C819      1.0  0.73364  0.53901  0.57511  1.0000
  H   H1406     1.0  0.79395  0.92633  0.62638  1.0000
  H   H1407     1.0  0.89591  0.65618  0.58469  1.0000
  C   C820      1.0  0.96628  0.64397  0.60444  1.0000
  H   H1408     1.0  0.71886  0.58865  0.57806  1.0000
  H   H1409     1.0  0.93936  0.53974  0.60542  1.0000
  H   H1410     1.0  0.94631  0.76355  0.62026  1.0000
  S   S233      1.0  0.55450  0.50085  0.33252  1.0000
  H   H1411     1.0  0.96583  0.62036  0.61126  1.0000
  H   H1412     1.0  0.78926  0.70156  0.64768  1.0000
  H   H1413     1.0  0.64208  0.95552  0.55393  1.0000
  H   H1414     1.0  0.79880  0.54569  0.57768  1.0000
  S   S234      1.0  0.97043  0.90142  0.63440  1.0000
  H   H1415     1.0  0.94756  0.68016  0.62307  1.0000
  N   N60       1.0  0.83678  0.94373  0.61234  1.0000
  S   S235      1.0  0.81157  0.60080  0.61394  1.0000
  C   C821      1.0  0.84443  0.92813  0.57692  1.0000
  H   H1416     1.0  0.77670  0.54261  0.60757  1.0000
  H   H1417     1.0  0.70927  0.87111  0.54578  1.0000
  C   C822      1.0  0.78916  0.52170  0.57396  1.0000
  C   C823      1.0  0.97185  0.55441  0.62741  1.0000
  C   C824      1.0  0.64330  0.93845  0.56585  1.0000
  C   C825      1.0  0.83152  0.91973  0.59674  1.0000
  H   H1418     1.0  0.89598  0.71715  0.60445  1.0000
  S   S236      1.0  0.59604  0.95672  0.62097  1.0000
  C   C826      1.0  0.63842  0.90360  0.55968  1.0000
  H   H1419     1.0  0.94970  0.81243  0.63355  1.0000
  C   C827      1.0  0.97410  0.79023  0.59790  1.0000
  H   H1420     1.0  0.59380  0.77366  0.36426  1.0000
  H   H1421     1.0  0.89076  0.96453  0.58991  1.0000
  H   H1422     1.0  0.96473  0.98256  0.34236  1.0000
  H   H1423     1.0  0.71805  0.54791  0.61242  1.0000
  H   H1424     1.0  0.97660  0.55320  0.57917  1.0000
  H   H1425     1.0  0.98950  0.65442  0.60891  1.0000
  H   H1426     1.0  0.71379  0.50495  0.61388  1.0000
  H   H1427     1.0  0.87488  0.95501  0.63219  1.0000
  C   C828      1.0  0.88552  0.67594  0.62307  1.0000
  H   H1428     1.0  0.70901  0.53426  0.58032  1.0000
  C   C829      1.0  0.54543  0.78557  0.35314  1.0000
  C   C830      1.0  0.82337  0.97600  0.60742  1.0000
  H   H1429     1.0  0.84195  0.95347  0.57308  1.0000
  C   C831      1.0  0.83292  0.90183  0.63932  1.0000
  H   H1430     1.0  0.94929  0.64147  0.64630  1.0000
  C   C832      1.0  0.52190  0.76812  0.38381  1.0000
  H   H1431     1.0  0.51396  0.79316  0.38577  1.0000
  C   C833      1.0  0.49323  0.86392  0.38123  1.0000
  C   C834      1.0  0.97362  0.81074  0.64016  1.0000
  H   H1432     1.0  0.51707  0.70239  0.38419  1.0000
  H   H1433     1.0  0.59312  0.80028  0.34460  1.0000
  S   S237      1.0  0.82590  0.98375  0.36604  1.0000
  H   H1434     1.0  0.49761  0.69519  0.36152  1.0000
  C   C835      1.0  0.92456  0.63252  0.64801  1.0000
  H   H1435     1.0  0.77225  0.97014  0.61429  1.0000
  C   C836      1.0  0.52075  0.69951  0.36875  1.0000
  H   H1436     1.0  0.80719  0.89786  0.32550  1.0000
  Fe  Fe119     1.0  0.83483  0.49204  0.63679  1.0000
  H   H1437     1.0  0.81861  0.95087  0.64083  1.0000
  H   H1438     1.0  0.83811  0.50496  0.57192  1.0000
  H   H1439     1.0  0.81745  0.89536  0.65150  1.0000
  H   H1440     1.0  0.83616  0.98726  0.59544  1.0000
  H   H1441     1.0  0.49357  0.75333  0.33910  1.0000
  C   C837      1.0  0.81556  0.49757  0.57891  1.0000
  H   H1442     1.0  0.62774  0.49374  0.61420  1.0000
  H   H1443     1.0  0.74425  0.88945  0.32486  1.0000
  Fe  Fe120     1.0  0.66760  0.57924  0.88898  1.0000
  S   S238      1.0  0.63319  0.56294  0.91155  1.0000
  S   S239      1.0  0.68887  0.53879  0.87112  1.0000
  Fe  Fe121     1.0  0.65409  0.64972  0.89749  1.0000
  S   S240      1.0  0.62017  0.63697  0.92089  1.0000
  S   S241      1.0  0.66172  0.70338  0.89354  1.0000
  Fe  Fe122     1.0  0.65631  0.60060  0.92992  1.0000
  S   S242      1.0  0.66558  0.58705  0.96105  1.0000
  Fe  Fe123     1.0  0.60013  0.60076  0.90044  1.0000
  S   S243      1.0  0.54562  0.60245  0.89748  1.0000
  S   S244      1.0  0.69214  0.61527  0.90781  1.0000
  S   S245      1.0  0.63275  0.61511  0.87665  1.0000
  Fe  Fe124     1.0  0.58223  0.85124  0.83581  1.0000
  S   S246      1.0  0.57184  0.88455  0.85995  1.0000
  S   S247      1.0  0.58835  0.79688  0.83685  1.0000
  Fe  Fe125     1.0  0.57547  0.90564  0.80566  1.0000
  S   S248      1.0  0.56543  0.94234  0.82811  1.0000
  S   S249      1.0  0.57236  0.91019  0.77320  1.0000
  Fe  Fe126     1.0  0.60504  0.91908  0.84491  1.0000
  Fe  Fe127     1.0  0.53323  0.90487  0.84123  1.0000
  S   S250      1.0  0.61710  0.88439  0.82148  1.0000
  S   S251      1.0  0.54155  0.86951  0.81806  1.0000
  H   H1444     1.0  0.60760  0.80350  0.87686  1.0000
  Fe  Fe128     1.0  0.83645  0.52813  0.67400  1.0000
  H   H1445     1.0  0.55244  0.68188  0.82912  1.0000
  H   H1446     1.0  0.50984  0.66061  0.88683  1.0000
  H   H1447     1.0  0.50946  0.90984  0.79073  1.0000
  H   H1448     1.0  0.90629  0.54458  0.82485  1.0000
  C   C838      1.0  0.71993  0.61775  0.97538  1.0000
  H   H1449     1.0  0.52109  0.65486  0.83656  1.0000
  C   C839      1.0  0.57930  0.97342  0.76107  1.0000
  C   C840      1.0  0.57373  0.94161  0.75612  1.0000
  C   C841      1.0  0.78493  0.52111  0.87421  1.0000
  N   N61       1.0  0.53171  0.69600  0.86875  1.0000
  C   C842      1.0  0.55317  0.67148  0.85967  1.0000
  C   C843      1.0  0.56719  0.95829  0.72292  1.0000
  C   C844      1.0  0.56776  0.93428  0.73695  1.0000
  H   H1450     1.0  0.57890  0.70376  0.90988  1.0000
  H   H1451     1.0  0.49628  0.76515  0.85026  1.0000
  H   H1452     1.0  0.56345  0.90979  0.73290  1.0000
  H   H1453     1.0  0.52754  0.96276  0.78556  1.0000
  C   C845      1.0  0.73105  0.49481  0.85705  1.0000
  H   H1454     1.0  0.54558  0.73283  0.84895  1.0000
  C   C846      1.0  0.89727  0.51223  0.78909  1.0000
  H   H1455     1.0  0.72275  0.62825  0.96148  1.0000
  H   H1456     1.0  0.74776  0.53006  0.98508  1.0000
  C   C847      1.0  0.57271  0.99009  0.72786  1.0000
  H   H1457     1.0  0.94530  0.96336  0.75969  1.0000
  H   H1458     1.0  0.69929  0.54765  0.93208  1.0000
  C   C848      1.0  0.72760  0.52218  0.86837  1.0000
  C   C849      1.0  0.75478  0.53534  0.87691  1.0000
  H   H1459     1.0  0.82689  0.57994  0.77399  1.0000
  H   H1460     1.0  0.86366  0.50281  0.82503  1.0000
  H   H1461     1.0  0.58446  0.67403  0.89232  1.0000
  H   H1462     1.0  0.75260  0.55664  0.88541  1.0000
  C   C850      1.0  0.51777  0.57889  0.88442  1.0000
  C   C851      1.0  0.50290  0.97232  0.78695  1.0000
  C   C852      1.0  0.85628  0.52809  0.82376  1.0000
  H   H1463     1.0  0.92186  0.52098  0.78634  1.0000
  C   C853      1.0  0.79538  0.50171  0.80697  1.0000
  C   C854      1.0  0.52687  0.55236  0.87374  1.0000
  C   C855      1.0  0.83025  0.49610  0.72204  1.0000
  C   C856      1.0  0.82633  0.50915  0.79607  1.0000
  H   H1464     1.0  0.54870  0.67415  0.90671  1.0000
  H   H1465     1.0  0.55171  0.54551  0.87329  1.0000
  C   C857      1.0  0.60778  0.77116  0.85324  1.0000
  C   C858      1.0  0.61577  0.74019  0.84739  1.0000
  C   C859      1.0  0.63134  0.71888  0.85977  1.0000
  C   C860      1.0  0.63922  0.72831  0.87820  1.0000
  C   C861      1.0  0.63097  0.75919  0.88414  1.0000
  C   C862      1.0  0.61480  0.78029  0.87187  1.0000
  H   H1466     1.0  0.61027  0.73274  0.83307  1.0000
  H   H1467     1.0  0.63799  0.69540  0.85489  1.0000
  H   H1468     1.0  0.63688  0.76671  0.89839  1.0000
  N   N62       1.0  0.69386  0.84310  0.85803  1.0000
  C   C863      1.0  0.65994  0.85228  0.86254  1.0000
  C   C864      1.0  0.69697  0.84315  0.83672  1.0000
  C   C865      1.0  0.71548  0.86810  0.86670  1.0000
  C   C866      1.0  0.69990  0.81073  0.86657  1.0000
  C   C867      1.0  0.65211  0.85729  0.88373  1.0000
  C   C868      1.0  0.67707  0.81782  0.82606  1.0000
  C   C869      1.0  0.74914  0.87195  0.85820  1.0000
  C   C870      1.0  0.73182  0.79450  0.86181  1.0000
  H   H1469     1.0  0.65359  0.87476  0.85518  1.0000
  H   H1470     1.0  0.64275  0.83431  0.85715  1.0000
  H   H1471     1.0  0.72192  0.83958  0.83208  1.0000
  H   H1472     1.0  0.69031  0.86696  0.83092  1.0000
  H   H1473     1.0  0.70444  0.89222  0.86551  1.0000
  H   H1474     1.0  0.71861  0.86376  0.88216  1.0000
  H   H1475     1.0  0.69921  0.81196  0.88230  1.0000
  H   H1476     1.0  0.68030  0.79370  0.86312  1.0000
  H   H1477     1.0  0.66605  0.87714  0.89003  1.0000
  H   H1478     1.0  0.62662  0.86407  0.88499  1.0000
  H   H1479     1.0  0.65523  0.83528  0.89218  1.0000
  H   H1480     1.0  0.65113  0.82199  0.82736  1.0000
  H   H1481     1.0  0.68256  0.81930  0.81070  1.0000
  H   H1482     1.0  0.68275  0.79324  0.83069  1.0000
  H   H1483     1.0  0.76327  0.88832  0.86734  1.0000
  H   H1484     1.0  0.74801  0.88327  0.84398  1.0000
  H   H1485     1.0  0.76239  0.84933  0.85735  1.0000
  H   H1486     1.0  0.75062  0.80138  0.87216  1.0000
  H   H1487     1.0  0.74028  0.79911  0.84726  1.0000
  H   H1488     1.0  0.72849  0.76824  0.86252  1.0000
  C   C871      1.0  0.50225  0.74892  0.86219  1.0000
  C   C872      1.0  0.96969  0.97914  0.79189  1.0000
  H   H1489     1.0  0.74432  0.58473  0.92815  1.0000
  H   H1490     1.0  0.98816  0.93393  0.78084  1.0000
  C   C873      1.0  0.87437  0.54086  0.79092  1.0000
  H   H1491     1.0  0.87738  0.57447  0.83182  1.0000
  C   C874      1.0  0.82730  0.56672  0.80445  1.0000
  H   H1492     1.0  0.80066  0.49309  0.82147  1.0000
  H   H1493     1.0  0.77941  0.54164  0.95652  1.0000
  H   H1494     1.0  0.51085  0.51349  0.85599  1.0000
  H   H1495     1.0  0.51098  0.71208  0.84200  1.0000
  H   H1496     1.0  0.72691  0.53296  0.91542  1.0000
  C   C875      1.0  0.99028  0.97141  0.74573  1.0000
  S   S252      1.0  0.86202  0.57067  0.66128  1.0000
  H   H1497     1.0  0.86629  0.54588  0.77620  1.0000
  H   H1498     1.0  0.88845  0.56244  0.79478  1.0000
  H   H1499     1.0  0.50038  0.96625  0.81814  1.0000
  C   C876      1.0  0.56617  0.68925  0.89906  1.0000
  H   H1500     1.0  0.78338  0.58871  0.93784  1.0000
  H   H1501     1.0  0.77902  0.52234  0.80766  1.0000
  C   C877      1.0  0.69392  0.59765  0.97894  1.0000
  S   S253      1.0  0.86967  0.49238  0.66122  1.0000
  H   H1502     1.0  0.58413  0.97953  0.77568  1.0000
  N   N63       1.0  0.84611  0.53615  0.80380  1.0000
  H   H1503     1.0  0.98159  0.95681  0.73364  1.0000
  N   N64       1.0  0.73677  0.51932  0.94466  1.0000
  H   H1504     1.0  0.77584  0.55885  0.92036  1.0000
  C   C878      1.0  0.71404  0.52641  0.92858  1.0000
  H   H1505     1.0  0.56255  0.95214  0.70828  1.0000
  C   C879      1.0  0.78831  0.49373  0.86290  1.0000
  H   H1506     1.0  0.74417  0.56406  0.95947  1.0000
  H   H1507     1.0  0.56134  0.64159  0.83508  1.0000
  H   H1508     1.0  0.57837  0.67991  0.85961  1.0000
  C   C880      1.0  0.50262  0.68032  0.87721  1.0000
  H   H1509     1.0  0.69851  0.53004  0.96426  1.0000
  H   H1510     1.0  0.84308  0.58704  0.80836  1.0000
  C   C881      1.0  0.75681  0.54843  0.94924  1.0000
  H   H1511     1.0  0.94676  0.96617  0.79371  1.0000
  H   H1512     1.0  0.70306  0.96427  0.88060  1.0000
  H   H1513     1.0  0.76298  0.63893  0.98673  1.0000
  C   C882      1.0  0.52336  0.72172  0.85465  1.0000
  H   H1514     1.0  0.67807  0.50617  0.90989  1.0000
  C   C883      1.0  0.55004  0.71177  0.88467  1.0000
  H   H1515     1.0  0.67222  0.49578  0.93408  1.0000
  H   H1516     1.0  0.80580  0.53151  0.88085  1.0000
  H   H1517     1.0  0.92613  0.61058  0.65678  1.0000
  H   H1518     1.0  0.55335  0.64904  0.86809  1.0000
  C   C884      1.0  0.88327  0.54878  0.83214  1.0000
  H   H1519     1.0  0.56917  0.72741  0.87891  1.0000
  H   H1520     1.0  0.53434  0.72761  0.89314  1.0000
  H   H1521     1.0  0.81996  0.51360  0.78102  1.0000
  C   C885      1.0  0.81013  0.57642  0.78593  1.0000
  H   H1522     1.0  0.79800  0.59959  0.78822  1.0000
  H   H1523     1.0  0.79128  0.55916  0.78182  1.0000
  S   S254      1.0  0.64695  0.93971  0.86220  1.0000
  C   C886      1.0  0.71693  0.51146  0.96191  1.0000
  H   H1524     1.0  0.80886  0.56589  0.81579  1.0000
  S   S255      1.0  0.81668  0.52278  0.70411  1.0000
  C   C887      1.0  0.96133  0.98406  0.75698  1.0000
  H   H1525     1.0  0.83576  0.53014  0.83369  1.0000
  C   C888      1.0  0.66365  0.97881  0.86290  1.0000
  C   C889      1.0  0.76554  0.57101  0.93276  1.0000
  H   H1526     1.0  0.88681  0.54199  0.84723  1.0000
  C   C890      1.0  0.54610  0.66219  0.83894  1.0000
  C   C891      1.0  0.50362  0.53427  0.86391  1.0000
  H   H1527     1.0  0.91007  0.64969  0.65620  1.0000
  C   C892      1.0  0.49959  0.98520  0.80726  1.0000
  H   H1528     1.0  0.70602  0.70319  0.98735  1.0000
  C   C893      1.0  0.69178  0.98407  0.87346  1.0000
  H   H1529     1.0  0.51500  0.76367  0.87284  1.0000
  S   S256      1.0  0.53756  0.98527  0.65997  1.0000
  H   H1530     1.0  0.89897  0.49771  0.80210  1.0000
  H   H1531     1.0  0.50904  0.92719  0.75893  1.0000
  C   C894      1.0  0.73543  0.50778  0.98077  1.0000
  H   H1532     1.0  0.79321  0.51091  0.92083  1.0000
  H   H1533     1.0  0.50773  0.98218  0.74756  1.0000
  C   C895      1.0  0.69081  0.49935  0.92311  1.0000
  H   H1534     1.0  0.78870  0.50322  0.73946  1.0000
  H   H1535     1.0  0.88982  0.49639  0.77725  1.0000
  C   C896      1.0  0.77570  0.49124  0.92159  1.0000
  H   H1536     1.0  0.75931  0.49189  0.90925  1.0000
