data_image0
_chemical_formula_structural       FeS2FeS2FeSFeS3FeS2FeS2FeHFeS3HFeS2FeHSH4C6H7CHC2H3C6H4C6SH3C6HCH2CHCNH3C2HFeHCH2CHC2HCH2CH2C3HCH5CH8C2H2C2HC4H10CHCHCH4CH8C2HSH2CH5SH3NC3NCH2C2HC2H4NH7CH6CHCH2CH2CHFeSFeS2FeS2FeSFeS3FeS2FeSHFeCFeS3C6HNH2C6H9C6H4CHSC2H4CH2CH10SH6CH8CH4C2H2N2C4HCH10C2HCH5CHC2H2CHCH4CHCH2C2H2CNCHC2H3C3H2CH3CH3C2HCH4NC8H14NHCH3CHCH7CH2CH2C2H2CHFeS2FeS2FeSFeS3FeS2FeSCFe3S3HFeHSFeS2C2H2C6H7CHC2HCHC6H5C5H4C2H2C2HCH4C2H7C3H4NC8H20CH2C3HCHCH3CH3S2H2CH2NCSH2NC5HC2H12CHCH2CHSH4C4H2NHCH17SFeS2FeS2FeSFeS3FeS2FeSHFeHFeS3C6HCH2C6H8SC6H4C6NHC3NC7H4CH8CH2NC7H17NC8H7CH8C3HCH4C2H4CH2SH7CH3CH3CH2CH3CH5CH10CH8NC3FeH9CH3CH3CH3FeS2FeS2FeCFeS3HCHSCH6C6H5CH4C2H3SHFeSCFeS2FeS2FeSFeS3C2H2CH4CH2C6H9CH7CH5CH2C3HC2H3C2HFeCNCHCH2C2H3NH5C2H2CHC2HC2HC2NHCHC4H4NH2C2H3C2H5SH4CHC2H2CNC3H3C2HCHCH3CHC2NH7NH2CNC3H11CHC2HC2H2SH2CH2CH2SH2CH3C2HCHCHFeCH4FeS2H2FeS2HFeS2FeSHFeSFeS2HC2H3CHNHC2H3C4HCH3SCH2C2H4FeS2FeCFeSHSFeS2FeS2FeHFeS3C6H2SC6H2CHCHCH2C4H3CHC2HSCH4CSHCH3CHSCH3CSH5CHC3H5CNC4HC3H8CSC2H8C8H3NCH2CHCH5FeH2CHSH5SH5CH2NCHC2HCH4CSH2FeS2FeS2FeHFeS3HCFeSH3CHCHC6H4CH5C2H3SHFeSCFeS2FeS2FeCFeS3H4CHNC2H3C6H5NHC3HCHCHCH14CH4CH2SH3C2H3C2H6CHCH2NC2H2CH2C3HC3SHC3H2C2H4CN2HC2H5CH4CHCH3CH3C3HC2HCH7SH2NH2C2H9CH3C2HCH3C4FeS2FeSFeS2CFeS2FeSCFeSFeHSHCHCH2CH2C4H2C6H7C2H3CFeS2FeSFeSHSFeS2FeS2FeCFeS3C6H3C6H2SHCNCH2SC2H4C4H2C2NC2H3C2H3CNH3CHCHCHSH4NH2CH2CH11CH3CH2C2H2C2H7CH5CH2CH2CH4C2HCHCSHC2H4CH2SCHCHC2H3CHCH7SH2FeCSH2CSFeSHFeS2FeSFeHS2FeS2FeS2FeSFeS3C2HCH2CH2C4H2SHC6H8CH2CH4C6H4C6H6CHCH5NH7CHCH6NCHCH8SH3NC5SHC3H6C2H4CHNH2CH4C2HNC8H19CH2C3FeHCSC2SH3CHC2H2CH2C3H2SH4CH2C2FeS2FeS2FeSFeS3FeS2FeSCFeSFeS3CSC2H4C6H4C3HC2H4C6H4C2HC4H2C2H4CH2CHCNHC2HCH2CH11CH2CH3CH3C2HCH5SH6CH4CHC2H2CH6CNC2H4NC8H20C2NH3CH7CH6C2HCHFeH3CHCNH2CHCHCHSHC2H4CHCH2FeCSHCHSFeSHFeS2FeSFeS3FeS2FeS2FeSFeS3C2H3CH2C4H5C6H4NH3CH2FeH3C7H4C6H3SCHCHCNCH6NC8H12CH8SCFeHC2H2CH2CHCHC2H2C2H8C2H2CH4CH2CSH6SHCHCHC3H2CHNC5H6CH4CH7C2H12SH3CNHCH2CHCHC2HSCHNCFeS2FeS2FeSFeS3FeS2FeSCFeSFeS3HSHCH4C6H2CHC6H4C6H8C3H7CHNC8H15CH4CH2C2H5C2NH2CH2CH3C2HCHNCNCHCH3CH3C2H3CH3NHCH5C2SH3CHC3H2CHFeHCH4CH3CH2NH4CH3CH6CH2CH2CH2CH3CH2CHC2HCHNH3C
_chemical_formula_sum              "Fe128 S256 H1536 C896 N64"
_cell_length_a       46.2108
_cell_length_b       46.4816
_cell_length_c       38.2972
_cell_angle_alpha    89.9323
_cell_angle_beta     90.3295
_cell_angle_gamma    90.0365

_space_group_name_H-M_alt    "P 1"
_space_group_IT_number       1

loop_
  _space_group_symop_operation_xyz
  'x, y, z'

loop_
  _atom_site_type_symbol
  _atom_site_label
  _atom_site_symmetry_multiplicity
  _atom_site_fract_x
  _atom_site_fract_y
  _atom_site_fract_z
  _atom_site_occupancy
  Fe  Fe1       1.0  0.20062  0.36171  0.24183  1.0000
  S   S1        1.0  0.16530  0.34184  0.27415  1.0000
  S   S2        1.0  0.23846  0.38868  0.26195  1.0000
  Fe  Fe2       1.0  0.17239  0.34273  0.17167  1.0000
  S   S3        1.0  0.13510  0.32107  0.19867  1.0000
  S   S4        1.0  0.18528  0.34266  0.11414  1.0000
  Fe  Fe3       1.0  0.13426  0.35970  0.23412  1.0000
  S   S5        1.0  0.09412  0.38583  0.24737  1.0000
  Fe  Fe4       1.0  0.16887  0.30492  0.23650  1.0000
  S   S6        1.0  0.16939  0.25831  0.25287  1.0000
  S   S7        1.0  0.16937  0.38279  0.20439  1.0000
  S   S8        1.0  0.20623  0.32350  0.20692  1.0000
  Fe  Fe5       1.0  0.05720  0.07781  0.41438  1.0000
  S   S9        1.0  0.09135  0.05715  0.38083  1.0000
  S   S10       1.0  0.04558  0.06764  0.47120  1.0000
  Fe  Fe6       1.0  0.02809  0.10777  0.35033  1.0000
  S   S11       1.0  0.06021  0.08965  0.31250  1.0000
  S   S12       1.0  0.30937  0.09226  0.19236  1.0000
  Fe  Fe7       1.0  0.05483  0.04891  0.34311  1.0000
  H   H1        1.0  0.10190  0.17561  0.34793  1.0000
  Fe  Fe8       1.0  0.09404  0.09985  0.35304  1.0000
  S   S13       1.0  0.13485  0.12443  0.33830  1.0000
  S   S14       1.0  0.02049  0.06615  0.37824  1.0000
  S   S15       1.0  0.06225  0.12147  0.38924  1.0000
  H   H2        1.0  0.08199  0.15517  0.29250  1.0000
  Fe  Fe9       1.0  0.27565  0.10997  0.22851  1.0000
  S   S16       1.0  0.30846  0.13272  0.26208  1.0000
  S   S17       1.0  0.24220  0.07879  0.25011  1.0000
  Fe  Fe10      1.0  0.30174  0.16934  0.22452  1.0000
  H   H3        1.0  0.19324  0.43850  0.26138  1.0000
  S   S18       1.0  0.26659  0.14771  0.19346  1.0000
  H   H4        1.0  0.25580  0.27884  0.15497  1.0000
  H   H5        1.0  0.12622  0.27773  0.13872  1.0000
  H   H6        1.0  0.10005  0.45140  0.36572  1.0000
  H   H7        1.0  0.10852  0.06155  0.47943  1.0000
  C   C1        1.0  0.16375  0.11126  0.31253  1.0000
  C   C2        1.0  0.18548  0.13051  0.30191  1.0000
  C   C3        1.0  0.20932  0.12091  0.28233  1.0000
  C   C4        1.0  0.21181  0.09184  0.27342  1.0000
  C   C5        1.0  0.18996  0.07258  0.28378  1.0000
  C   C6        1.0  0.16593  0.08225  0.30310  1.0000
  H   H8        1.0  0.18408  0.15295  0.30917  1.0000
  H   H9        1.0  0.22601  0.13593  0.27467  1.0000
  H   H10       1.0  0.19176  0.05008  0.27706  1.0000
  H   H11       1.0  0.14938  0.06725  0.31124  1.0000
  H   H12       1.0  0.03784  0.44843  0.44034  1.0000
  H   H13       1.0  0.15256  0.47321  0.34297  1.0000
  H   H14       1.0  0.15983  0.20604  0.15272  1.0000
  C   C7        1.0  0.16511  0.33062  0.07746  1.0000
  H   H15       1.0  0.13911  0.43129  0.25486  1.0000
  C   C8        1.0  0.14106  0.99962  0.23898  1.0000
  C   C9        1.0  0.13622  0.32201  0.08009  1.0000
  H   H16       1.0  0.28030  0.18878  0.03443  1.0000
  H   H17       1.0  0.29271  0.06389  0.30753  1.0000
  H   H18       1.0  0.12545  0.32301  0.10505  1.0000
  C   C10       1.0  0.20520  0.24579  0.25584  1.0000
  C   C11       1.0  0.22815  0.26534  0.25758  1.0000
  C   C12       1.0  0.25671  0.25575  0.25405  1.0000
  C   C13       1.0  0.26254  0.22645  0.24964  1.0000
  C   C14       1.0  0.23972  0.20664  0.25028  1.0000
  C   C15       1.0  0.21104  0.21629  0.25334  1.0000
  H   H19       1.0  0.22392  0.28795  0.26136  1.0000
  H   H20       1.0  0.27418  0.27118  0.25396  1.0000
  H   H21       1.0  0.24411  0.18390  0.24812  1.0000
  H   H22       1.0  0.19345  0.20093  0.25272  1.0000
  C   C16       1.0  0.03306  0.46252  0.41764  1.0000
  C   C17       1.0  0.01818  0.38421  0.30068  1.0000
  C   C18       1.0  0.04236  0.39310  0.28118  1.0000
  C   C19       1.0  0.06457  0.37363  0.27289  1.0000
  C   C20       1.0  0.06249  0.34517  0.28460  1.0000
  C   C21       1.0  0.03813  0.33623  0.30389  1.0000
  S   S19       1.0  0.29640  0.12770  0.10123  1.0000
  H   H23       1.0  0.04361  0.41510  0.27213  1.0000
  H   H24       1.0  0.07940  0.32998  0.27839  1.0000
  H   H25       1.0  0.07724  0.00618  0.44861  1.0000
  C   C22       1.0  0.26704  0.37666  0.28948  1.0000
  C   C23       1.0  0.29152  0.39432  0.29391  1.0000
  C   C24       1.0  0.31463  0.38588  0.31579  1.0000
  C   C25       1.0  0.31331  0.35981  0.33394  1.0000
  C   C26       1.0  0.28879  0.34216  0.32973  1.0000
  C   C27       1.0  0.26583  0.35043  0.30743  1.0000
  H   H26       1.0  0.29263  0.41465  0.28019  1.0000
  C   C28       1.0  0.01312  0.99643  0.31296  1.0000
  H   H27       1.0  0.28753  0.32193  0.34363  1.0000
  H   H28       1.0  0.24709  0.33666  0.30435  1.0000
  C   C29       1.0  0.32150  0.32574  0.24570  1.0000
  H   H29       1.0  0.14598  0.20398  0.29220  1.0000
  C   C30       1.0  0.13403  0.20614  0.36366  1.0000
  N   N1        1.0  0.12704  0.45643  0.30004  1.0000
  H   H30       1.0  0.23657  0.22993  0.15428  1.0000
  H   H31       1.0  0.08717  0.20815  0.36279  1.0000
  H   H32       1.0  0.01617  0.45233  0.40113  1.0000
  C   C31       1.0  0.09867  0.06042  0.50495  1.0000
  C   C32       1.0  0.99827  0.47943  0.48121  1.0000
  H   H33       1.0  0.12888  0.04473  0.24824  1.0000
  Fe  Fe11      1.0  0.30313  0.13210  0.15993  1.0000
  H   H34       1.0  0.11182  0.01291  0.29889  1.0000
  C   C33       1.0  0.20095  0.18738  0.16393  1.0000
  H   H35       1.0  0.18914  0.16899  0.17577  1.0000
  H   H36       1.0  0.14429  0.42540  0.33722  1.0000
  C   C34       1.0  0.17869  0.32960  0.04470  1.0000
  H   H37       1.0  0.17677  0.22016  0.19068  1.0000
  C   C35       1.0  0.10471  0.19934  0.34612  1.0000
  C   C36       1.0  0.13866  0.25731  0.13884  1.0000
  H   H38       1.0  0.13641  0.24763  0.11256  1.0000
  C   C37       1.0  0.29734  0.01257  0.26916  1.0000
  H   H39       1.0  0.07812  0.42778  0.33856  1.0000
  H   H40       1.0  0.32626  0.41194  0.43856  1.0000
  C   C38       1.0  0.11954  0.19635  0.24700  1.0000
  H   H41       1.0  0.19944  0.27695  0.08620  1.0000
  H   H42       1.0  0.11969  0.41052  0.30663  1.0000
  C   C39       1.0  0.30698  0.33948  0.47692  1.0000
  C   C40       1.0  0.12383  0.43000  0.32280  1.0000
  C   C41       1.0  0.19181  0.25574  0.07704  1.0000
  H   H43       1.0  0.05330  0.16351  0.32219  1.0000
  C   C42       1.0  0.29610  0.33573  0.43899  1.0000
  H   H44       1.0  0.30227  0.31915  0.49129  1.0000
  H   H45       1.0  0.17084  0.26994  0.17672  1.0000
  H   H46       1.0  0.29252  0.35554  0.48905  1.0000
  H   H47       1.0  0.21922  0.25247  0.18517  1.0000
  H   H48       1.0  0.22255  0.29357  0.14001  1.0000
  C   C43       1.0  0.01719  0.47644  0.32881  1.0000
  H   H49       1.0  0.29912  0.35554  0.42324  1.0000
  H   H50       1.0  0.08149  0.46692  0.30432  1.0000
  H   H51       1.0  0.20546  0.25004  0.05430  1.0000
  H   H52       1.0  0.03398  0.46028  0.32939  1.0000
  H   H53       1.0  0.32881  0.07727  0.11900  1.0000
  H   H54       1.0  0.28277  0.01867  0.29096  1.0000
  H   H55       1.0  0.12834  0.24319  0.15859  1.0000
  H   H56       1.0  0.17654  0.28362  0.13472  1.0000
  C   C44       1.0  0.17046  0.26372  0.14864  1.0000
  C   C45       1.0  0.14810  0.44887  0.27151  1.0000
  H   H57       1.0  0.06376  0.25798  0.32455  1.0000
  H   H58       1.0  0.15212  0.19495  0.35044  1.0000
  C   C46       1.0  0.12182  0.02624  0.23186  1.0000
  C   C47       1.0  0.01581  0.35568  0.31194  1.0000
  H   H59       1.0  0.31642  0.00438  0.33228  1.0000
  C   C48       1.0  0.12106  0.31262  0.05016  1.0000
  C   C49       1.0  0.06335  0.16960  0.29692  1.0000
  C   C50       1.0  0.10585  0.24138  0.30576  1.0000
  C   C51       1.0  0.06012  0.99855  0.43032  1.0000
  H   H60       1.0  0.10136  0.24876  0.27863  1.0000
  H   H61       1.0  0.27251  0.33115  0.43927  1.0000
  H   H62       1.0  0.32808  0.48459  0.34071  1.0000
  H   H63       1.0  0.06017  0.39344  0.02849  1.0000
  H   H64       1.0  0.20104  0.33627  0.04244  1.0000
  H   H65       1.0  0.10295  0.41306  0.36935  1.0000
  H   H66       1.0  0.30571  0.39710  0.47261  1.0000
  H   H67       1.0  0.03647  0.31412  0.31248  1.0000
  H   H68       1.0  0.01855  0.48450  0.49579  1.0000
  H   H69       1.0  0.22012  0.19116  0.18082  1.0000
  C   C52       1.0  0.31382  0.13359  0.03337  1.0000
  H   H70       1.0  0.10049  0.18353  0.23858  1.0000
  C   C53       1.0  0.31876  0.14199  0.06815  1.0000
  H   H71       1.0  0.12887  0.24731  0.31065  1.0000
  C   C54       1.0  0.06867  0.06324  0.50809  1.0000
  H   H72       1.0  0.04765  0.16496  0.27557  1.0000
  H   H73       1.0  0.09856  0.02246  0.23674  1.0000
  H   H74       1.0  0.30654  0.31732  0.42567  1.0000
  H   H75       1.0  0.32787  0.49231  0.29589  1.0000
  C   C55       1.0  0.09787  0.46274  0.28391  1.0000
  H   H76       1.0  0.16265  0.00853  0.24606  1.0000
  H   H77       1.0  0.13843  0.22956  0.36490  1.0000
  H   H78       1.0  0.13875  0.18700  0.23392  1.0000
  H   H79       1.0  0.12340  0.03238  0.20390  1.0000
  H   H80       1.0  0.32915  0.04271  0.09937  1.0000
  H   H81       1.0  0.11092  0.48750  0.23706  1.0000
  H   H82       1.0  0.32822  0.06074  0.26014  1.0000
  H   H83       1.0  0.20790  0.18064  0.13753  1.0000
  C   C56       1.0  0.13715  0.48115  0.32265  1.0000
  C   C57       1.0  0.17829  0.43893  0.28401  1.0000
  H   H84       1.0  0.11737  0.21882  0.23768  1.0000
  S   S20       1.0  0.04973  0.00606  0.31691  1.0000
  H   H85       1.0  0.08988  0.44372  0.26912  1.0000
  H   H86       1.0  0.13365  0.19799  0.39094  1.0000
  C   C58       1.0  0.09979  0.43107  0.35062  1.0000
  H   H87       1.0  0.32274  0.01511  0.20509  1.0000
  H   H88       1.0  0.09260  0.28332  0.32478  1.0000
  H   H89       1.0  0.09186  0.25641  0.35788  1.0000
  H   H90       1.0  0.09864  0.30618  0.05238  1.0000
  H   H91       1.0  0.05496  0.21237  0.31363  1.0000
  S   S21       1.0  0.29828  0.21532  0.24208  1.0000
  H   H92       1.0  0.17532  0.21624  0.09748  1.0000
  H   H93       1.0  0.29073  0.22228  0.05215  1.0000
  H   H94       1.0  0.12648  0.17162  0.29381  1.0000
  N   N2        1.0  0.19152  0.23952  0.14231  1.0000
  C   C59       1.0  0.18093  0.21394  0.16307  1.0000
  C   C60       1.0  0.19343  0.23109  0.10430  1.0000
  C   C61       1.0  0.12416  0.19469  0.28686  1.0000
  N   N3        1.0  0.10148  0.20929  0.30885  1.0000
  C   C62       1.0  0.22081  0.24786  0.15673  1.0000
  H   H95       1.0  0.21371  0.21880  0.09949  1.0000
  H   H96       1.0  0.24293  0.26879  0.11280  1.0000
  C   C63       1.0  0.08723  0.26038  0.32986  1.0000
  C   C64       1.0  0.23589  0.27382  0.13973  1.0000
  H   H97       1.0  0.06656  0.21103  0.27032  1.0000
  C   C65       1.0  0.07132  0.20193  0.29664  1.0000
  C   C66       1.0  0.32818  0.40091  0.46425  1.0000
  H   H98       1.0  0.07365  0.48971  0.24817  1.0000
  H   H99       1.0  0.18777  0.45348  0.30389  1.0000
  H   H100      1.0  0.16950  0.25792  0.06635  1.0000
  H   H101      1.0  0.04840  0.01790  0.42111  1.0000
  N   N4        1.0  0.32859  0.01678  0.27966  1.0000
  H   H102      1.0  0.29072  0.02775  0.24799  1.0000
  H   H103      1.0  0.29656  0.11859  0.02746  1.0000
  H   H104      1.0  0.05302  0.46355  0.40167  1.0000
  H   H105      1.0  0.31860  0.34936  0.24282  1.0000
  H   H106      1.0  0.00316  0.00772  0.40361  1.0000
  H   H107      1.0  0.11862  0.49043  0.33729  1.0000
  H   H108      1.0  0.17760  0.41662  0.29439  1.0000
  C   C67       1.0  0.28846  0.21043  0.02711  1.0000
  H   H109      1.0  0.00108  0.39926  0.30649  1.0000
  H   H110      1.0  0.15158  0.46684  0.25308  1.0000
  H   H111      1.0  0.31997  0.05348  0.33960  1.0000
  H   H112      1.0  0.31453  0.27921  0.29208  1.0000
  H   H113      1.0  0.30319  0.31789  0.26158  1.0000
  H   H114      1.0  0.14915  0.00785  0.30613  1.0000
  C   C68       1.0  0.09587  0.48888  0.25937  1.0000
  H   H115      1.0  0.32337  0.08613  0.31574  1.0000
  C   C69       1.0  0.31622  0.06337  0.31365  1.0000
  H   H116      1.0  0.32881  0.26890  0.23433  1.0000
  H   H117      1.0  0.31999  0.31637  0.21916  1.0000
  C   C70       1.0  0.02504  0.49335  0.42921  1.0000
  H   H118      1.0  0.32702  0.24604  0.33851  1.0000
  H   H119      1.0  0.99945  0.45593  0.47563  1.0000
  C   C71       1.0  0.12873  0.99589  0.30075  1.0000
  H   H120      1.0  0.17424  0.31953  0.98973  1.0000
  Fe  Fe12      1.0  0.32175  0.17309  0.86397  1.0000
  S   S22       1.0  0.27382  0.17509  0.85405  1.0000
  Fe  Fe13      1.0  0.17390  0.29975  0.86679  1.0000
  S   S23       1.0  0.15200  0.26432  0.89691  1.0000
  S   S24       1.0  0.22201  0.30052  0.85798  1.0000
  Fe  Fe14      1.0  0.11927  0.33408  0.85473  1.0000
  S   S25       1.0  0.09323  0.30096  0.88354  1.0000
  S   S26       1.0  0.09259  0.37201  0.83495  1.0000
  Fe  Fe15      1.0  0.12891  0.30065  0.92363  1.0000
  S   S27       1.0  0.11423  0.30062  0.98042  1.0000
  Fe  Fe16      1.0  0.11839  0.26747  0.85429  1.0000
  S   S28       1.0  0.09193  0.23058  0.83135  1.0000
  S   S29       1.0  0.15337  0.33602  0.89668  1.0000
  S   S30       1.0  0.14185  0.30068  0.82232  1.0000
  Fe  Fe17      1.0  0.11918  0.08181  0.73260  1.0000
  S   S31       1.0  0.14681  0.05133  0.70190  1.0000
  S   S32       1.0  0.14404  0.11980  0.75563  1.0000
  Fe  Fe18      1.0  0.06663  0.04513  0.71930  1.0000
  S   S33       1.0  0.08979  0.01197  0.68713  1.0000
  H   H121      1.0  0.24629  0.02271  0.70775  1.0000
  Fe  Fe19      1.0  0.12382  0.01521  0.72909  1.0000
  C   C72       1.0  0.11599  0.05607  0.53497  1.0000
  Fe  Fe20      1.0  0.11107  0.05005  0.66190  1.0000
  S   S34       1.0  0.12631  0.04893  0.60535  1.0000
  S   S35       1.0  0.09907  0.04568  0.76336  1.0000
  S   S36       1.0  0.08498  0.08333  0.69055  1.0000
  C   C73       1.0  0.10665  0.40317  0.81433  1.0000
  C   C74       1.0  0.08730  0.42383  0.80095  1.0000
  C   C75       1.0  0.09757  0.44916  0.78498  1.0000
  C   C76       1.0  0.12734  0.45417  0.78243  1.0000
  C   C77       1.0  0.14668  0.43353  0.79594  1.0000
  C   C78       1.0  0.13641  0.40812  0.81179  1.0000
  H   H122      1.0  0.06423  0.42038  0.80304  1.0000
  N   N5        1.0  0.01181  0.34118  0.78366  1.0000
  H   H123      1.0  0.16973  0.43728  0.79416  1.0000
  H   H124      1.0  0.15148  0.39249  0.82223  1.0000
  C   C79       1.0  0.10683  0.20002  0.81019  1.0000
  C   C80       1.0  0.08829  0.17767  0.79934  1.0000
  C   C81       1.0  0.09925  0.15306  0.78241  1.0000
  C   C82       1.0  0.12892  0.15064  0.77598  1.0000
  C   C83       1.0  0.14742  0.17311  0.78658  1.0000
  C   C84       1.0  0.13650  0.19760  0.80375  1.0000
  H   H125      1.0  0.06533  0.17942  0.80416  1.0000
  H   H126      1.0  0.08480  0.13595  0.77443  1.0000
  H   H127      1.0  0.17034  0.17166  0.78141  1.0000
  H   H128      1.0  0.15100  0.21467  0.81176  1.0000
  H   H129      1.0  0.00304  0.04986  0.80440  1.0000
  H   H130      1.0  0.10213  0.37841  0.00727  1.0000
  H   H131      1.0  0.23753  0.03952  0.65538  1.0000
  H   H132      1.0  0.02158  0.44336  0.75241  1.0000
  H   H133      1.0  0.24289  0.05364  0.79260  1.0000
  C   C85       1.0  0.25979  0.21008  0.85045  1.0000
  C   C86       1.0  0.27809  0.23406  0.85133  1.0000
  C   C87       1.0  0.26639  0.26189  0.85264  1.0000
  C   C88       1.0  0.23634  0.26582  0.85269  1.0000
  C   C89       1.0  0.21808  0.24190  0.85000  1.0000
  C   C90       1.0  0.22977  0.21407  0.84904  1.0000
  H   H134      1.0  0.30124  0.23124  0.85127  1.0000
  H   H135      1.0  0.28065  0.28029  0.85416  1.0000
  H   H136      1.0  0.19491  0.24477  0.84891  1.0000
  H   H137      1.0  0.21544  0.19566  0.84804  1.0000
  C   C91       1.0  0.27280  0.38322  0.75537  1.0000
  H   H138      1.0  0.24029  0.27775  0.93647  1.0000
  S   S37       1.0  0.01889  0.04277  0.73003  1.0000
  C   C92       1.0  0.07356  0.05753  0.57154  1.0000
  C   C93       1.0  0.10358  0.05471  0.56841  1.0000
  H   H139      1.0  0.03310  0.06413  0.54421  1.0000
  H   H140      1.0  0.04047  0.41078  0.95449  1.0000
  H   H141      1.0  0.06376  0.05667  0.59710  1.0000
  H   H142      1.0  0.18018  0.12895  0.81920  1.0000
  C   C94       1.0  0.05845  0.40799  0.97343  1.0000
  H   H143      1.0  0.19158  0.04543  0.59804  1.0000
  H   H144      1.0  0.06878  0.32233  0.78837  1.0000
  C   C95       1.0  0.00659  0.00747  0.73685  1.0000
  H   H145      1.0  0.27951  0.39650  0.82495  1.0000
  H   H146      1.0  0.27558  0.42643  0.73388  1.0000
  H   H147      1.0  0.09607  0.35200  0.93487  1.0000
  H   H148      1.0  0.20384  0.06471  0.75260  1.0000
  H   H149      1.0  0.26460  0.24882  0.01305  1.0000
  H   H150      1.0  0.26155  0.29897  0.74276  1.0000
  H   H151      1.0  0.04254  0.33453  0.92942  1.0000
  H   H152      1.0  0.06460  0.43035  0.98098  1.0000
  H   H153      1.0  0.19298  0.03679  0.78176  1.0000
  H   H154      1.0  0.27674  0.15145  0.95184  1.0000
  S   S38       1.0  0.14129  0.48600  0.76316  1.0000
  H   H155      1.0  0.24787  0.42291  0.76588  1.0000
  H   H156      1.0  0.22631  0.02916  0.58887  1.0000
  H   H157      1.0  0.15316  0.38306  0.99504  1.0000
  H   H158      1.0  0.20666  0.25974  0.94053  1.0000
  H   H159      1.0  0.11105  0.41453  0.99601  1.0000
  H   H160      1.0  0.22402  0.06524  0.60506  1.0000
  C   C96       1.0  0.99893  0.10644  0.77667  1.0000
  H   H161      1.0  0.10898  0.39518  0.90968  1.0000
  H   H162      1.0  0.27593  0.33059  0.72306  1.0000
  H   H163      1.0  0.32736  0.29762  0.80252  1.0000
  H   H164      1.0  0.17475  0.09333  0.83745  1.0000
  H   H165      1.0  0.03043  0.13536  0.75353  1.0000
  H   H166      1.0  0.16403  0.01084  0.64873  1.0000
  H   H167      1.0  0.17912  0.12381  0.86507  1.0000
  H   H168      1.0  0.04784  0.37123  0.78074  1.0000
  C   C97       1.0  0.07732  0.36198  0.94826  1.0000
  H   H169      1.0  0.28737  0.33266  0.84517  1.0000
  H   H170      1.0  0.29672  0.36380  0.86973  1.0000
  H   H171      1.0  0.29575  0.37839  0.74870  1.0000
  H   H172      1.0  0.13713  0.35951  0.96398  1.0000
  C   C98       1.0  0.00610  0.46083  0.75282  1.0000
  C   C99       1.0  0.01589  0.48940  0.75213  1.0000
  H   H173      1.0  0.01594  0.38343  0.75998  1.0000
  H   H174      1.0  0.30659  0.37324  0.80828  1.0000
  N   N6        1.0  0.08404  0.39278  0.95759  1.0000
  N   N7        1.0  0.27190  0.22599  0.96462  1.0000
  C   C100      1.0  0.24352  0.23097  0.94571  1.0000
  C   C101      1.0  0.28382  0.19769  0.95179  1.0000
  C   C102      1.0  0.29224  0.24987  0.95415  1.0000
  C   C103      1.0  0.26633  0.22628  0.00345  1.0000
  H   H175      1.0  0.08247  0.46489  0.77482  1.0000
  C   C104      1.0  0.09489  0.40914  0.92607  1.0000
  H   H176      1.0  0.01717  0.09301  0.78652  1.0000
  H   H177      1.0  0.25943  0.35628  0.86172  1.0000
  H   H178      1.0  0.24631  0.22831  0.91713  1.0000
  H   H179      1.0  0.00114  0.06132  0.65000  1.0000
  H   H180      1.0  0.30496  0.19234  0.96384  1.0000
  H   H181      1.0  0.28847  0.19904  0.92333  1.0000
  H   H182      1.0  0.29455  0.25044  0.92516  1.0000
  H   H183      1.0  0.28348  0.27123  0.96170  1.0000
  H   H184      1.0  0.06207  0.28479  0.78048  1.0000
  H   H185      1.0  0.27007  0.00647  0.65226  1.0000
  C   C105      1.0  0.01141  0.13691  0.77107  1.0000
  C   C106      1.0  0.07204  0.42247  0.90138  1.0000
  H   H186      1.0  0.03633  0.34662  0.83170  1.0000
  C   C107      1.0  0.17988  0.99563  0.63711  1.0000
  H   H187      1.0  0.01915  0.14678  0.79572  1.0000
  H   H188      1.0  0.05758  0.35741  0.89625  1.0000
  H   H189      1.0  0.20048  0.04632  0.66029  1.0000
  H   H190      1.0  0.31547  0.05190  0.76471  1.0000
  H   H191      1.0  0.13918  0.05395  0.53226  1.0000
  C   C108      1.0  0.10785  0.39259  0.98487  1.0000
  H   H192      1.0  0.17900  0.07217  0.78748  1.0000
  C   C109      1.0  0.13781  0.38218  0.97261  1.0000
  C   C110      1.0  0.32292  0.24910  0.97000  1.0000
  H   H193      1.0  0.22738  0.26644  0.97919  1.0000
  H   H194      1.0  0.10879  0.42756  0.93436  1.0000
  C   C111      1.0  0.27017  0.41616  0.75925  1.0000
  H   H195      1.0  0.03263  0.37096  0.92847  1.0000
  C   C112      1.0  0.02921  0.36378  0.76456  1.0000
  H   H196      1.0  0.00212  0.09962  0.84515  1.0000
  H   H197      1.0  0.22711  0.21464  0.95339  1.0000
  H   H198      1.0  0.19288  0.00815  0.70266  1.0000
  H   H199      1.0  0.29109  0.32798  0.78317  1.0000
  C   C113      1.0  0.04240  0.35522  0.72909  1.0000
  H   H200      1.0  0.05178  0.37475  0.71675  1.0000
  C   C114      1.0  0.21440  0.04338  0.60697  1.0000
  H   H201      1.0  0.00705  0.04971  0.60649  1.0000
  H   H202      1.0  0.24586  0.17136  0.93798  1.0000
  C   C115      1.0  0.22903  0.26053  0.95126  1.0000
  C   C116      1.0  0.01351  0.34713  0.82240  1.0000
  H   H203      1.0  0.25562  0.16979  0.98396  1.0000
  H   H204      1.0  0.02641  0.34629  0.71051  1.0000
  C   C117      1.0  0.28126  0.35537  0.84993  1.0000
  N   N8        1.0  0.26372  0.36565  0.78662  1.0000
  C   C118      1.0  0.21607  0.03299  0.64522  1.0000
  H   H205      1.0  0.05204  0.30009  0.82126  1.0000
  C   C119      1.0  0.26797  0.33395  0.77949  1.0000
  C   C120      1.0  0.23302  0.37169  0.79758  1.0000
  H   H206      1.0  0.07476  0.34832  0.97195  1.0000
  H   H207      1.0  0.00992  0.39469  0.81879  1.0000
  H   H208      1.0  0.24502  0.21603  0.00902  1.0000
  C   C121      1.0  0.20903  0.36775  0.76985  1.0000
  C   C122      1.0  0.16357  0.32013  0.01479  1.0000
  C   C123      1.0  0.28350  0.37395  0.81656  1.0000
  H   H209      1.0  0.21548  0.37399  0.74320  1.0000
  H   H210      1.0  0.28587  0.42485  0.77856  1.0000
  C   C124      1.0  0.23832  0.00031  0.70989  1.0000
  H   H211      1.0  0.25571  0.32062  0.79852  1.0000
  H   H212      1.0  0.22674  0.35729  0.81950  1.0000
  H   H213      1.0  0.23077  0.39359  0.80903  1.0000
  C   C125      1.0  0.26408  0.17130  0.95702  1.0000
  H   H214      1.0  0.14701  0.39587  0.95170  1.0000
  H   H215      1.0  0.02341  0.30557  0.74956  1.0000
  H   H216      1.0  0.31047  0.20845  0.01641  1.0000
  C   C126      1.0  0.05112  0.35644  0.92408  1.0000
  C   C127      1.0  0.05323  0.30454  0.79282  1.0000
  H   H217      1.0  0.06043  0.33971  0.73238  1.0000
  C   C128      1.0  0.26013  0.32284  0.74270  1.0000
  H   H218      1.0  0.19066  0.38223  0.77608  1.0000
  H   H219      1.0  0.20092  0.34523  0.76983  1.0000
  H   H220      1.0  0.05616  0.40662  0.89156  1.0000
  H   H221      1.0  0.26047  0.37746  0.73152  1.0000
  N   N9        1.0  0.23357  0.09732  0.80993  1.0000
  C   C129      1.0  0.26596  0.09820  0.81551  1.0000
  C   C130      1.0  0.22681  0.11492  0.77774  1.0000
  C   C131      1.0  0.22485  0.06615  0.80446  1.0000
  C   C132      1.0  0.21943  0.10953  0.84210  1.0000
  C   C133      1.0  0.27767  0.08005  0.84635  1.0000
  C   C134      1.0  0.23499  0.14710  0.77917  1.0000
  C   C135      1.0  0.19862  0.06002  0.78030  1.0000
  C   C136      1.0  0.18651  0.11393  0.84028  1.0000
  H   H222      1.0  0.27743  0.09105  0.79149  1.0000
  H   H223      1.0  0.27360  0.12046  0.82054  1.0000
  H   H224      1.0  0.20342  0.11442  0.77138  1.0000
  H   H225      1.0  0.23793  0.32850  0.73445  1.0000
  H   H226      1.0  0.23779  0.10552  0.75457  1.0000
  H   H227      1.0  0.22049  0.05539  0.82991  1.0000
  H   H228      1.0  0.22332  0.09543  0.86511  1.0000
  H   H229      1.0  0.22925  0.13063  0.84908  1.0000
  H   H230      1.0  0.27072  0.08886  0.87186  1.0000
  H   H231      1.0  0.27162  0.05703  0.84437  1.0000
  H   H232      1.0  0.30168  0.08105  0.84646  1.0000
  H   H233      1.0  0.25872  0.15054  0.77987  1.0000
  H   H234      1.0  0.22689  0.15778  0.75505  1.0000
  H   H235      1.0  0.22468  0.15834  0.80134  1.0000
  N   N10       1.0  0.21007  0.00141  0.65094  1.0000
  H   H236      1.0  0.00969  0.44947  0.64369  1.0000
  C   C137      1.0  0.05624  0.06167  0.54152  1.0000
  H   H237      1.0  0.17864  0.99940  0.60843  1.0000
  H   H238      1.0  0.06068  0.44078  0.91384  1.0000
  H   H239      1.0  0.08322  0.43141  0.87815  1.0000
  C   C138      1.0  0.13459  0.31177  0.01736  1.0000
  H   H240      1.0  0.32257  0.25358  0.99842  1.0000
  C   C139      1.0  0.02283  0.31102  0.77773  1.0000
  H   H241      1.0  0.26862  0.00108  0.60559  1.0000
  H   H242      1.0  0.00817  0.38027  0.86196  1.0000
  H   H243      1.0  0.01828  0.01213  0.64854  1.0000
  H   H244      1.0  0.02568  0.40568  0.01387  1.0000
  H   H245      1.0  0.03880  0.49379  0.75217  1.0000
  H   H246      1.0  0.32710  0.13769  0.97954  1.0000
  H   H247      1.0  0.00210  0.33000  0.83741  1.0000
  C   C140      1.0  0.00146  0.37648  0.83447  1.0000
  H   H248      1.0  0.00777  0.29495  0.78939  1.0000
  H   H249      1.0  0.23424  0.99644  0.73809  1.0000
  C   C141      1.0  0.04514  0.39339  0.00581  1.0000
  H   H250      1.0  0.03790  0.37110  0.00021  1.0000
  H   H251      1.0  0.00485  0.01731  0.53979  1.0000
  C   C142      1.0  0.33106  0.14441  0.00616  1.0000
  C   C143      1.0  0.32563  0.36936  0.54154  1.0000
  H   H252      1.0  0.30448  0.35857  0.54546  1.0000
  H   H253      1.0  0.32246  0.39135  0.53135  1.0000
  C   C144      1.0  0.20992  0.99516  0.68962  1.0000
  H   H254      1.0  0.02089  0.49380  0.62802  1.0000
  Fe  Fe21      1.0  0.21254  0.86871  0.23040  1.0000
  S   S39       1.0  0.18289  0.84540  0.26712  1.0000
  S   S40       1.0  0.25323  0.89403  0.24517  1.0000
  Fe  Fe22      1.0  0.17446  0.85422  0.16568  1.0000
  S   S41       1.0  0.14185  0.82965  0.19759  1.0000
  S   S42       1.0  0.17367  0.86438  0.10733  1.0000
  Fe  Fe23      1.0  0.14585  0.86525  0.23715  1.0000
  S   S43       1.0  0.10976  0.88876  0.26589  1.0000
  Fe  Fe24      1.0  0.18115  0.81187  0.22507  1.0000
  S   S44       1.0  0.18433  0.76496  0.23876  1.0000
  S   S45       1.0  0.17571  0.89150  0.20333  1.0000
  S   S46       1.0  0.21345  0.83356  0.19020  1.0000
  Fe  Fe25      1.0  0.06124  0.60361  0.42103  1.0000
  S   S47       1.0  0.09748  0.57915  0.39552  1.0000
  S   S48       1.0  0.05308  0.61193  0.47898  1.0000
  Fe  Fe26      1.0  0.03261  0.61914  0.35013  1.0000
  S   S49       1.0  0.06692  0.59637  0.31935  1.0000
  C   C145      1.0  0.30892  0.55764  0.29092  1.0000
  Fe  Fe27      1.0  0.06238  0.56201  0.36009  1.0000
  Fe  Fe28      1.0  0.30739  0.64354  0.15698  1.0000
  Fe  Fe29      1.0  0.09925  0.61559  0.35663  1.0000
  S   S50       1.0  0.13945  0.64054  0.34010  1.0000
  S   S51       1.0  0.02590  0.58338  0.38868  1.0000
  S   S52       1.0  0.06522  0.64146  0.38453  1.0000
  H   H255      1.0  0.31514  0.55529  0.09629  1.0000
  Fe  Fe30      1.0  0.28227  0.62316  0.22767  1.0000
  H   H256      1.0  0.30133  0.54346  0.31226  1.0000
  S   S53       1.0  0.24572  0.59546  0.24916  1.0000
  Fe  Fe31      1.0  0.31371  0.67966  0.22232  1.0000
  S   S54       1.0  0.31428  0.72555  0.24033  1.0000
  S   S55       1.0  0.27489  0.66200  0.19403  1.0000
  C   C146      1.0  0.30953  0.64584  0.02974  1.0000
  C   C147      1.0  0.28791  0.98196  0.25847  1.0000
  H   H257      1.0  0.03561  0.91134  0.40772  1.0000
  H   H258      1.0  0.09294  0.56319  0.48406  1.0000
  C   C148      1.0  0.16862  0.62753  0.31451  1.0000
  C   C149      1.0  0.19159  0.64625  0.30639  1.0000
  C   C150      1.0  0.21507  0.63692  0.28598  1.0000
  C   C151      1.0  0.21608  0.60856  0.27386  1.0000
  C   C152      1.0  0.19318  0.58978  0.28209  1.0000
  C   C153      1.0  0.16949  0.59923  0.30215  1.0000
  H   H259      1.0  0.19140  0.66807  0.31613  1.0000
  H   H260      1.0  0.23259  0.65154  0.28006  1.0000
  H   H261      1.0  0.19378  0.56781  0.27288  1.0000
  H   H262      1.0  0.15201  0.58461  0.30821  1.0000
  H   H263      1.0  0.01941  0.53272  0.50166  1.0000
  H   H264      1.0  0.00298  0.94780  0.37994  1.0000
  H   H265      1.0  0.02236  0.95170  0.30354  1.0000
  C   C154      1.0  0.16626  0.84117  0.07154  1.0000
  H   H266      1.0  0.29170  0.55764  0.27060  1.0000
  C   C155      1.0  0.16743  0.85238  0.03743  1.0000
  C   C156      1.0  0.15958  0.81204  0.07609  1.0000
  H   H267      1.0  0.14821  0.50895  0.27612  1.0000
  C   C157      1.0  0.32364  0.86536  0.32347  1.0000
  H   H268      1.0  0.15816  0.80328  0.10218  1.0000
  C   C158      1.0  0.22051  0.75483  0.24539  1.0000
  C   C159      1.0  0.24273  0.77513  0.24249  1.0000
  C   C160      1.0  0.27170  0.76627  0.24244  1.0000
  C   C161      1.0  0.27851  0.73710  0.24587  1.0000
  C   C162      1.0  0.25641  0.71705  0.25139  1.0000
  C   C163      1.0  0.22741  0.72590  0.25114  1.0000
  H   H269      1.0  0.23767  0.79764  0.23979  1.0000
  H   H270      1.0  0.28863  0.78195  0.23836  1.0000
  H   H271      1.0  0.26162  0.69464  0.25547  1.0000
  H   H272      1.0  0.21040  0.71015  0.25430  1.0000
  H   H273      1.0  0.27068  0.76234  0.16427  1.0000
  C   C164      1.0  0.02819  0.88136  0.30483  1.0000
  C   C165      1.0  0.05570  0.89185  0.29535  1.0000
  C   C166      1.0  0.07540  0.87439  0.27721  1.0000
  C   C167      1.0  0.06732  0.84625  0.26866  1.0000
  C   C168      1.0  0.03980  0.83573  0.27819  1.0000
  H   H274      1.0  0.00536  0.95782  0.50469  1.0000
  H   H275      1.0  0.06169  0.91363  0.30204  1.0000
  H   H276      1.0  0.08223  0.83272  0.25454  1.0000
  H   H277      1.0  0.03366  0.81401  0.27130  1.0000
  C   C169      1.0  0.28025  0.88183  0.27480  1.0000
  C   C170      1.0  0.30633  0.89729  0.27752  1.0000
  H   H278      1.0  0.19404  0.97508  0.26181  1.0000
  H   H279      1.0  0.23846  0.74081  0.05110  1.0000
  C   C171      1.0  0.29772  0.84964  0.32050  1.0000
  C   C172      1.0  0.27616  0.85773  0.29617  1.0000
  H   H280      1.0  0.30980  0.91568  0.26076  1.0000
  C   C173      1.0  0.06665  0.59164  0.51471  1.0000
  H   H281      1.0  0.29417  0.83117  0.33713  1.0000
  H   H282      1.0  0.25622  0.84559  0.29427  1.0000
  H   H283      1.0  0.00311  0.60194  0.25847  1.0000
  H   H284      1.0  0.17667  0.50479  0.30826  1.0000
  C   C174      1.0  0.04420  0.93083  0.39468  1.0000
  C   C175      1.0  0.10104  0.96743  0.25818  1.0000
  H   H285      1.0  0.17898  0.69764  0.14716  1.0000
  H   H286      1.0  0.23237  0.78843  0.08521  1.0000
  H   H287      1.0  0.11318  0.93954  0.21370  1.0000
  H   H288      1.0  0.99848  0.49752  0.16939  1.0000
  H   H289      1.0  0.03561  0.54613  0.46170  1.0000
  H   H290      1.0  0.00736  0.54864  0.33472  1.0000
  H   H291      1.0  0.28168  0.72521  0.16768  1.0000
  C   C176      1.0  0.12148  0.97784  0.33339  1.0000
  C   C177      1.0  0.02008  0.85321  0.29629  1.0000
  C   C178      1.0  0.02415  0.50551  0.33342  1.0000
  H   H292      1.0  0.20370  0.75849  0.05786  1.0000
  H   H293      1.0  0.28089  0.96927  0.28153  1.0000
  H   H294      1.0  0.01324  0.89509  0.31861  1.0000
  H   H295      1.0  0.07538  0.94562  0.21859  1.0000
  N   N11       1.0  0.11129  0.72335  0.29321  1.0000
  C   C179      1.0  0.14039  0.70976  0.28618  1.0000
  C   C180      1.0  0.11358  0.73816  0.32816  1.0000
  C   C181      1.0  0.10617  0.74559  0.26511  1.0000
  C   C182      1.0  0.08837  0.70014  0.29230  1.0000
  C   C183      1.0  0.14380  0.69461  0.25058  1.0000
  C   C184      1.0  0.12114  0.71846  0.35942  1.0000
  C   C185      1.0  0.07802  0.76313  0.26730  1.0000
  C   C186      1.0  0.05981  0.70617  0.31201  1.0000
  H   H296      1.0  0.15810  0.72596  0.28854  1.0000
  H   H297      1.0  0.14543  0.69311  0.30599  1.0000
  H   H298      1.0  0.09346  0.74963  0.33508  1.0000
  H   H299      1.0  0.13039  0.75539  0.32721  1.0000
  H   H300      1.0  0.12443  0.76131  0.26456  1.0000
  H   H301      1.0  0.10557  0.73547  0.23885  1.0000
  H   H302      1.0  0.08256  0.69476  0.26481  1.0000
  H   H303      1.0  0.09714  0.67986  0.30382  1.0000
  H   H304      1.0  0.16453  0.68252  0.25066  1.0000
  H   H305      1.0  0.12643  0.67869  0.24553  1.0000
  H   H306      1.0  0.14513  0.71033  0.22886  1.0000
  H   H307      1.0  0.10791  0.69858  0.35997  1.0000
  H   H308      1.0  0.14440  0.71248  0.35946  1.0000
  H   H309      1.0  0.11714  0.73023  0.38415  1.0000
  H   H310      1.0  0.05870  0.74944  0.26285  1.0000
  H   H311      1.0  0.07799  0.77930  0.24589  1.0000
  H   H312      1.0  0.07614  0.77542  0.29195  1.0000
  H   H313      1.0  0.04146  0.69680  0.29694  1.0000
  H   H314      1.0  0.05455  0.72905  0.31623  1.0000
  H   H315      1.0  0.05960  0.69469  0.33744  1.0000
  C   C187      1.0  0.15289  0.50636  0.30423  1.0000
  H   H316      1.0  0.08368  0.98344  0.26280  1.0000
  H   H317      1.0  0.06511  0.93705  0.40679  1.0000
  C   C188      1.0  0.27921  0.74370  0.14952  1.0000
  C   C189      1.0  0.15432  0.79438  0.04678  1.0000
  C   C190      1.0  0.15140  0.95455  0.26994  1.0000
  H   H318      1.0  0.13891  0.96234  0.33995  1.0000
  C   C191      1.0  0.00564  0.96756  0.30789  1.0000
  H   H319      1.0  0.31542  0.86959  0.41845  1.0000
  C   C192      1.0  0.03993  0.97758  0.44975  1.0000
  H   H320      1.0  0.10063  0.96624  0.33046  1.0000
  H   H321      1.0  0.14309  0.93790  0.28824  1.0000
  H   H322      1.0  0.15341  0.94325  0.24452  1.0000
  C   C193      1.0  0.33050  0.86924  0.47370  1.0000
  H   H323      1.0  0.09553  0.94929  0.27591  1.0000
  H   H324      1.0  0.31090  0.58013  0.30032  1.0000
  H   H325      1.0  0.04885  0.92471  0.36723  1.0000
  S   S56       1.0  0.31932  0.64200  0.25866  1.0000
  S   S57       1.0  0.29630  0.64034  0.09909  1.0000
  H   H326      1.0  0.30832  0.86608  0.48439  1.0000
  H   H327      1.0  0.14905  0.77193  0.05053  1.0000
  C   C194      1.0  0.09696  0.95609  0.22063  1.0000
  H   H328      1.0  0.19500  0.94163  0.28431  1.0000
  H   H329      1.0  0.05318  0.95899  0.45877  1.0000
  N   N12       1.0  0.13057  0.97942  0.26696  1.0000
  C   C195      1.0  0.31615  0.65497  0.06385  1.0000
  S   S58       1.0  0.31206  0.60293  0.18841  1.0000
  H   H330      1.0  0.25254  0.79586  0.12461  1.0000
  H   H331      1.0  0.21752  0.81089  0.11784  1.0000
  N   N13       1.0  0.22768  0.73591  0.12485  1.0000
  C   C196      1.0  0.22223  0.71669  0.15594  1.0000
  C   C197      1.0  0.25982  0.73554  0.11805  1.0000
  C   C198      1.0  0.21201  0.72273  0.09407  1.0000
  C   C199      1.0  0.21624  0.76568  0.13270  1.0000
  C   C200      1.0  0.19026  0.71201  0.16590  1.0000
  H   H332      1.0  0.23199  0.69503  0.15183  1.0000
  C   C201      1.0  0.21557  0.73780  0.05855  1.0000
  C   C202      1.0  0.23075  0.79123  0.11372  1.0000
  H   H333      1.0  0.03129  0.97307  0.37776  1.0000
  H   H334      1.0  0.23283  0.72554  0.17971  1.0000
  H   H335      1.0  0.26577  0.75018  0.09638  1.0000
  H   H336      1.0  0.26680  0.71371  0.10932  1.0000
  H   H337      1.0  0.21883  0.69987  0.09064  1.0000
  H   H338      1.0  0.18825  0.72222  0.09855  1.0000
  H   H339      1.0  0.19263  0.76690  0.12691  1.0000
  H   H340      1.0  0.21798  0.77063  0.16115  1.0000
  H   H341      1.0  0.18953  0.70104  0.19167  1.0000
  H   H342      1.0  0.17832  0.73257  0.16860  1.0000
  H   H343      1.0  0.14640  0.52689  0.31685  1.0000
  H   H344      1.0  0.30126  0.74924  0.14028  1.0000
  C   C203      1.0  0.08596  0.56885  0.51008  1.0000
  H   H345      1.0  0.30452  0.96983  0.24404  1.0000
  C   C204      1.0  0.18255  0.96200  0.28160  1.0000
  H   H346      1.0  0.32867  0.78270  0.27846  1.0000
  H   H347      1.0  0.32213  0.82490  0.51778  1.0000
  C   C205      1.0  0.32797  0.88909  0.30163  1.0000
  H   H348      1.0  0.17246  0.87491  0.03365  1.0000
  S   S59       1.0  0.05991  0.51564  0.34327  1.0000
  H   H349      1.0  0.01606  0.56890  0.24123  1.0000
  H   H350      1.0  0.14513  0.98817  0.21395  1.0000
  H   H351      1.0  0.02543  0.50738  0.40567  1.0000
  H   H352      1.0  0.32727  0.82618  0.25292  1.0000
  C   C206      1.0  0.32699  0.88350  0.43745  1.0000
  C   C207      1.0  0.02218  0.95576  0.39443  1.0000
  C   C208      1.0  0.01512  0.54350  0.47635  1.0000
  C   C209      1.0  0.99876  0.94424  0.45010  1.0000
  H   H353      1.0  0.00751  0.56561  0.48238  1.0000
  H   H354      1.0  0.31389  0.90339  0.44023  1.0000
  N   N14       1.0  0.01368  0.96757  0.42956  1.0000
  H   H355      1.0  0.03334  0.98901  0.47398  1.0000
  C   C210      1.0  0.00214  0.52613  0.33249  1.0000
  H   H356      1.0  0.09884  0.50930  0.27395  1.0000
  H   H357      1.0  0.09733  0.97379  0.20120  1.0000
  H   H358      1.0  0.11913  0.99252  0.35606  1.0000
  H   H359      1.0  0.18331  0.97285  0.30731  1.0000
  H   H360      1.0  0.32753  0.77612  0.43343  1.0000
  H   H361      1.0  0.32075  0.78244  0.47862  1.0000
  H   H362      1.0  0.32712  0.95680  0.29900  1.0000
  H   H363      1.0  0.30963  0.82517  0.44614  1.0000
  H   H364      1.0  0.26931  0.98349  0.24001  1.0000
  H   H365      1.0  0.20543  0.72417  0.03801  1.0000
  H   H366      1.0  0.00123  0.54873  0.18633  1.0000
  H   H367      1.0  0.04338  0.50072  0.44590  1.0000
  H   H368      1.0  0.32229  0.75426  0.32994  1.0000
  H   H369      1.0  0.01364  0.92591  0.45516  1.0000
  H   H370      1.0  0.07120  0.98827  0.40798  1.0000
  H   H371      1.0  0.16299  0.84376  0.98210  1.0000
  H   H372      1.0  0.04098  0.54152  0.63180  1.0000
  S   S60       1.0  0.27292  0.67015  0.83724  1.0000
  Fe  Fe32      1.0  0.18027  0.79798  0.85201  1.0000
  S   S61       1.0  0.16038  0.76144  0.88158  1.0000
  S   S62       1.0  0.22549  0.79640  0.83084  1.0000
  Fe  Fe33      1.0  0.12841  0.83653  0.85965  1.0000
  S   S63       1.0  0.10395  0.80266  0.88989  1.0000
  S   S64       1.0  0.10638  0.87945  0.84860  1.0000
  Fe  Fe34      1.0  0.14572  0.79544  0.91935  1.0000
  S   S65       1.0  0.15045  0.78213  0.97663  1.0000
  Fe  Fe35      1.0  0.12073  0.77133  0.84988  1.0000
  S   S66       1.0  0.09078  0.73729  0.82660  1.0000
  S   S67       1.0  0.16899  0.83141  0.89200  1.0000
  S   S68       1.0  0.14171  0.80584  0.81745  1.0000
  Fe  Fe36      1.0  0.10866  0.58650  0.73086  1.0000
  S   S69       1.0  0.13423  0.55259  0.70274  1.0000
  S   S70       1.0  0.13496  0.62667  0.74385  1.0000
  Fe  Fe37      1.0  0.05501  0.54927  0.72871  1.0000
  S   S71       1.0  0.07641  0.51301  0.69989  1.0000
  H   H373      1.0  0.17654  0.59716  0.66016  1.0000
  Fe  Fe38      1.0  0.11283  0.52034  0.73796  1.0000
  H   H374      1.0  0.27189  0.56207  0.81712  1.0000
  Fe  Fe39      1.0  0.09570  0.54822  0.66713  1.0000
  S   S72       1.0  0.10306  0.54153  0.60895  1.0000
  S   S73       1.0  0.09023  0.55462  0.76898  1.0000
  S   S74       1.0  0.07134  0.58407  0.69284  1.0000
  C   C211      1.0  0.11903  0.90577  0.81878  1.0000
  C   C212      1.0  0.10331  0.93146  0.81466  1.0000
  C   C213      1.0  0.11263  0.95299  0.79138  1.0000
  C   C214      1.0  0.13808  0.94924  0.77237  1.0000
  C   C215      1.0  0.15374  0.92347  0.77624  1.0000
  C   C216      1.0  0.14414  0.90171  0.79914  1.0000
  H   H375      1.0  0.08397  0.93492  0.82986  1.0000
  C   C217      1.0  0.16200  0.83479  0.00814  1.0000
  H   H376      1.0  0.17329  0.92031  0.76138  1.0000
  H   H377      1.0  0.15616  0.88188  0.80174  1.0000
  C   C218      1.0  0.10362  0.70625  0.80458  1.0000
  C   C219      1.0  0.08387  0.68461  0.79481  1.0000
  C   C220      1.0  0.09313  0.65990  0.77668  1.0000
  C   C221      1.0  0.12229  0.65675  0.76784  1.0000
  C   C222      1.0  0.14204  0.67840  0.77755  1.0000
  C   C223      1.0  0.13281  0.70294  0.79599  1.0000
  H   H378      1.0  0.06129  0.68703  0.80142  1.0000
  H   H379      1.0  0.07770  0.64344  0.76936  1.0000
  H   H380      1.0  0.16460  0.67631  0.77076  1.0000
  H   H381      1.0  0.14821  0.71945  0.80322  1.0000
  H   H382      1.0  0.01887  0.83485  0.84467  1.0000
  H   H383      1.0  0.08978  0.64280  0.61802  1.0000
  H   H384      1.0  0.16205  0.96128  0.67060  1.0000
  H   H385      1.0  0.03061  0.93826  0.73779  1.0000
  S   S75       1.0  0.00784  0.54753  0.74307  1.0000
  C   C224      1.0  0.25947  0.70471  0.82869  1.0000
  C   C225      1.0  0.27843  0.72784  0.82413  1.0000
  C   C226      1.0  0.26768  0.75602  0.82250  1.0000
  C   C227      1.0  0.23797  0.76106  0.82542  1.0000
  C   C228      1.0  0.21884  0.73775  0.82698  1.0000
  C   C229      1.0  0.22959  0.70956  0.82876  1.0000
  H   H386      1.0  0.30144  0.72410  0.82258  1.0000
  H   H387      1.0  0.28252  0.77394  0.82057  1.0000
  H   H388      1.0  0.19581  0.74142  0.82760  1.0000
  H   H389      1.0  0.21476  0.69170  0.83155  1.0000
  C   C230      1.0  0.32551  0.65589  0.00099  1.0000
  C   C231      1.0  0.28559  0.71570  0.95521  1.0000
  C   C232      1.0  0.12816  0.63187  0.56476  1.0000
  C   C233      1.0  0.06858  0.58355  0.57796  1.0000
  C   C234      1.0  0.08811  0.56091  0.57329  1.0000
  C   C235      1.0  0.27234  0.58411  0.82810  1.0000
  N   N15       1.0  0.03202  0.85537  0.79595  1.0000
  H   H390      1.0  0.06188  0.58944  0.60399  1.0000
  C   C236      1.0  0.04208  0.80309  0.81585  1.0000
  C   C237      1.0  0.02879  0.88577  0.80940  1.0000
  C   C238      1.0  0.13534  0.61473  0.64080  1.0000
  N   N16       1.0  0.25010  0.75875  0.94437  1.0000
  C   C239      1.0  0.22606  0.77394  0.96366  1.0000
  C   C240      1.0  0.23588  0.74132  0.91584  1.0000
  C   C241      1.0  0.26889  0.78153  0.92789  1.0000
  C   C242      1.0  0.26702  0.74060  0.97007  1.0000
  C   C243      1.0  0.21547  0.71711  0.92813  1.0000
  C   C244      1.0  0.01713  0.53959  0.62897  1.0000
  C   C245      1.0  0.01884  0.95520  0.64700  1.0000
  H   H391      1.0  0.25171  0.73140  0.89803  1.0000
  H   H392      1.0  0.22298  0.75568  0.89842  1.0000
  H   H393      1.0  0.25593  0.79459  0.90894  1.0000
  H   H394      1.0  0.27722  0.79685  0.94777  1.0000
  C   C246      1.0  0.15478  0.66364  0.65344  1.0000
  H   H395      1.0  0.25207  0.73054  0.98926  1.0000
  H   H396      1.0  0.19514  0.72584  0.93919  1.0000
  H   H397      1.0  0.20906  0.70393  0.90515  1.0000
  H   H398      1.0  0.22593  0.70248  0.94722  1.0000
  H   H399      1.0  0.21632  0.80104  0.00837  1.0000
  H   H400      1.0  0.15719  0.57420  0.63035  1.0000
  H   H401      1.0  0.14856  0.68679  0.65178  1.0000
  H   H402      1.0  0.19689  0.64119  0.64725  1.0000
  C   C247      1.0  0.16319  0.59691  0.63594  1.0000
  H   H403      1.0  0.10349  0.67853  0.61831  1.0000
  H   H404      1.0  0.28482  0.58305  0.85296  1.0000
  N   N17       1.0  0.22102  0.59721  0.80506  1.0000
  C   C248      1.0  0.24171  0.59584  0.83577  1.0000
  C   C249      1.0  0.19523  0.61468  0.81643  1.0000
  C   C250      1.0  0.23626  0.61218  0.77529  1.0000
  C   C251      1.0  0.21315  0.56670  0.79542  1.0000
  C   C252      1.0  0.17728  0.60177  0.84641  1.0000
  C   C253      1.0  0.21718  0.62585  0.74652  1.0000
  C   C254      1.0  0.18903  0.56235  0.76797  1.0000
  H   H405      1.0  0.24466  0.61752  0.84760  1.0000
  H   H406      1.0  0.23286  0.58216  0.85705  1.0000
  H   H407      1.0  0.17978  0.61855  0.79478  1.0000
  H   H408      1.0  0.20227  0.63667  0.82452  1.0000
  H   H409      1.0  0.24983  0.63023  0.78540  1.0000
  H   H410      1.0  0.25152  0.59721  0.76213  1.0000
  H   H411      1.0  0.23234  0.55521  0.78495  1.0000
  H   H412      1.0  0.20732  0.55373  0.81884  1.0000
  H   H413      1.0  0.24299  0.81609  0.98071  1.0000
  H   H414      1.0  0.16860  0.58022  0.83965  1.0000
  H   H415      1.0  0.18973  0.60077  0.87121  1.0000
  H   H416      1.0  0.23118  0.63271  0.72456  1.0000
  H   H417      1.0  0.20633  0.64556  0.75626  1.0000
  H   H418      1.0  0.20078  0.61100  0.73574  1.0000
  H   H419      1.0  0.19803  0.56196  0.74115  1.0000
  H   H420      1.0  0.27351  0.88752  0.86750  1.0000
  H   H421      1.0  0.17142  0.57831  0.76942  1.0000
  N   N18       1.0  0.25827  0.88001  0.79460  1.0000
  C   C255      1.0  0.27696  0.86218  0.81867  1.0000
  C   C256      1.0  0.24501  0.86045  0.76750  1.0000
  C   C257      1.0  0.23419  0.89461  0.81428  1.0000
  C   C258      1.0  0.27689  0.90285  0.77795  1.0000
  C   C259      1.0  0.15548  0.80565  0.01267  1.0000
  C   C260      1.0  0.26647  0.84526  0.74289  1.0000
  C   C261      1.0  0.21525  0.87489  0.83721  1.0000
  C   C262      1.0  0.26258  0.92039  0.74827  1.0000
  H   H422      1.0  0.26496  0.84317  0.82862  1.0000
  H   H423      1.0  0.29558  0.85295  0.80433  1.0000
  H   H424      1.0  0.22890  0.87220  0.75115  1.0000
  H   H425      1.0  0.23252  0.84288  0.78015  1.0000
  H   H426      1.0  0.24277  0.91212  0.83122  1.0000
  H   H427      1.0  0.21898  0.90544  0.79591  1.0000
  H   H428      1.0  0.05043  0.89524  0.81516  1.0000
  C   C263      1.0  0.29616  0.77103  0.90886  1.0000
  H   H429      1.0  0.06549  0.89967  0.75763  1.0000
  H   H430      1.0  0.28058  0.86048  0.72862  1.0000
  H   H431      1.0  0.28004  0.82937  0.75711  1.0000
  H   H432      1.0  0.25404  0.83295  0.72300  1.0000
  H   H433      1.0  0.19856  0.88819  0.85034  1.0000
  H   H434      1.0  0.22778  0.86398  0.85812  1.0000
  H   H435      1.0  0.20343  0.85860  0.82155  1.0000
  H   H436      1.0  0.28179  0.75443  0.98585  1.0000
  C   C264      1.0  0.00183  0.64963  0.80008  1.0000
  C   C265      1.0  0.03703  0.83482  0.82593  1.0000
  C   C266      1.0  0.09659  0.55358  0.53924  1.0000
  H   H437      1.0  0.03194  0.95430  0.62288  1.0000
  C   C267      1.0  0.01157  0.89007  0.84338  1.0000
  H   H438      1.0  0.14431  0.67244  0.58423  1.0000
  H   H439      1.0  0.16842  0.64345  0.58834  1.0000
  H   H440      1.0  0.02364  0.88146  0.86628  1.0000
  H   H441      1.0  0.32120  0.80401  0.79381  1.0000
  C   C268      1.0  0.05788  0.59878  0.54876  1.0000
  C   C269      1.0  0.02600  0.98439  0.73783  1.0000
  H   H442      1.0  0.24259  0.93142  0.75682  1.0000
  H   H443      1.0  0.06257  0.80012  0.80133  1.0000
  H   H444      1.0  0.05613  0.84186  0.84165  1.0000
  H   H445      1.0  0.13012  0.61314  0.66899  1.0000
  C   C270      1.0  0.01556  0.95603  0.73848  1.0000
  H   H446      1.0  0.31246  0.76239  0.92748  1.0000
  H   H447      1.0  0.04425  0.79007  0.84009  1.0000
  S   S76       1.0  0.15147  0.97653  0.74436  1.0000
  H   H448      1.0  0.32004  0.54298  0.77929  1.0000
  H   H449      1.0  0.05976  0.83359  0.75866  1.0000
  H   H450      1.0  0.07870  0.85521  0.78925  1.0000
  H   H451      1.0  0.17655  0.60342  0.61352  1.0000
  H   H452      1.0  0.10443  0.67933  0.68306  1.0000
  H   H453      1.0  0.29139  0.75495  0.88848  1.0000
  H   H454      1.0  0.04218  0.87986  0.72801  1.0000
  C   C271      1.0  0.14544  0.64934  0.59204  1.0000
  H   H455      1.0  0.08037  0.87381  0.72871  1.0000
  H   H456      1.0  0.27794  0.93739  0.73970  1.0000
  H   H457      1.0  0.07006  0.66766  0.66711  1.0000
  C   C272      1.0  0.29018  0.87816  0.85023  1.0000
  H   H458      1.0  0.29719  0.89343  0.76746  1.0000
  H   H459      1.0  0.28467  0.59862  0.81059  1.0000
  H   H460      1.0  0.21173  0.75816  0.97696  1.0000
  C   C273      1.0  0.09327  0.66162  0.66895  1.0000
  H   H461      1.0  0.21171  0.78588  0.94508  1.0000
  H   H462      1.0  0.14734  0.96276  0.62777  1.0000
  C   C274      1.0  0.06136  0.87841  0.74541  1.0000
  H   H463      1.0  0.19352  0.67442  0.62269  1.0000
  H   H464      1.0  0.01502  0.66232  0.78140  1.0000
  H   H465      1.0  0.00302  0.86272  0.75236  1.0000
  C   C275      1.0  0.00635  0.84687  0.77372  1.0000
  H   H466      1.0  0.19860  0.67495  0.66880  1.0000
  H   H467      1.0  0.13765  0.63546  0.53851  1.0000
  H   H468      1.0  0.25785  0.90690  0.72508  1.0000
  H   H469      1.0  0.11727  0.60273  0.62808  1.0000
  H   H470      1.0  0.28759  0.71497  0.92657  1.0000
  C   C276      1.0  0.23542  0.79553  0.99224  1.0000
  H   H471      1.0  0.27709  0.69457  0.96411  1.0000
  H   H472      1.0  0.01591  0.63208  0.80998  1.0000
  H   H473      1.0  0.09450  0.64185  0.68493  1.0000
  H   H474      1.0  0.32045  0.64838  0.97493  1.0000
  H   H475      1.0  0.00887  0.91353  0.84794  1.0000
  H   H476      1.0  0.15834  0.61595  0.85116  1.0000
  H   H477      1.0  0.01907  0.93332  0.65875  1.0000
  H   H478      1.0  0.10040  0.97273  0.78871  1.0000
  H   H479      1.0  0.28422  0.91882  0.79773  1.0000
  H   H480      1.0  0.15139  0.65730  0.68118  1.0000
  C   C277      1.0  0.10533  0.65729  0.63172  1.0000
  H   H481      1.0  0.30274  0.86251  0.86617  1.0000
  H   H482      1.0  0.17817  0.54137  0.77279  1.0000
  H   H483      1.0  0.22434  0.97959  0.60433  1.0000
  H   H484      1.0  0.20432  0.97229  0.69478  1.0000
  H   H485      1.0  0.18278  0.94807  0.63373  1.0000
  H   H486      1.0  0.04290  0.61636  0.55253  1.0000
  H   H487      1.0  0.25201  0.78671  0.01025  1.0000
  H   H488      1.0  0.01879  0.89989  0.78911  1.0000
  N   N19       1.0  0.13590  0.64580  0.62942  1.0000
  C   C278      1.0  0.18772  0.66309  0.64721  1.0000
  C   C279      1.0  0.16781  0.96503  0.64289  1.0000
  C   C280      1.0  0.05860  0.85432  0.77309  1.0000
  Fe  Fe40      1.0  0.31993  0.67157  0.85255  1.0000
  H   H489      1.0  0.23041  0.95992  0.64348  1.0000
  H   H490      1.0  0.02944  0.96946  0.66636  1.0000
  H   H491      1.0  0.12936  0.60842  0.56990  1.0000
  H   H492      1.0  0.04903  0.98832  0.73725  1.0000
  H   H493      1.0  0.01568  0.50846  0.67039  1.0000
  H   H494      1.0  0.30562  0.89508  0.84190  1.0000
  H   H495      1.0  0.30799  0.71721  0.96580  1.0000
  H   H496      1.0  0.27726  0.97226  0.63393  1.0000
  H   H497      1.0  0.01214  0.54243  0.60084  1.0000
  C   C281      1.0  0.23107  0.98201  0.63218  1.0000
  H   H498      1.0  0.10526  0.63881  0.56299  1.0000
  H   H499      1.0  0.02365  0.79401  0.80085  1.0000
  H   H500      1.0  0.30641  0.78958  0.89541  1.0000
  C   C282      1.0  0.26321  0.99158  0.63137  1.0000
  H   H501      1.0  0.11176  0.53615  0.53540  1.0000
  H   H502      1.0  0.02127  0.99495  0.58931  1.0000
  H   H503      1.0  0.25532  0.98476  0.70219  1.0000
  C   C283      1.0  0.00788  0.50977  0.64279  1.0000
  H   H504      1.0  0.01030  0.82647  0.75934  1.0000
  H   H505      1.0  0.00771  0.55743  0.64439  1.0000
  H   H506      1.0  0.29217  0.63057  0.02555  1.0000
  Fe  Fe41      1.0  0.44981  0.36944  0.35017  1.0000
  S   S77       1.0  0.41176  0.38981  0.32276  1.0000
  S   S78       1.0  0.48205  0.34319  0.31864  1.0000
  Fe  Fe42      1.0  0.42918  0.38923  0.42295  1.0000
  S   S79       1.0  0.39012  0.41183  0.40099  1.0000
  S   S80       1.0  0.44327  0.38551  0.47995  1.0000
  Fe  Fe43      1.0  0.38452  0.37291  0.36663  1.0000
  C   C284      1.0  0.65830  0.07575  0.43701  1.0000
  Fe  Fe44      1.0  0.42044  0.42672  0.35897  1.0000
  S   S81       1.0  0.42086  0.47215  0.33927  1.0000
  S   S82       1.0  0.42182  0.34905  0.39130  1.0000
  S   S83       1.0  0.46013  0.40761  0.38371  1.0000
  H   H507      1.0  0.55278  0.43121  0.18232  1.0000
  C   C285      1.0  0.58475  0.06180  0.49451  1.0000
  H   H508      1.0  0.63596  0.07008  0.44459  1.0000
  S   S84       1.0  0.38246  0.09287  0.23729  1.0000
  C   C286      1.0  0.52452  0.00104  0.31161  1.0000
  H   H509      1.0  0.43106  0.04932  0.38261  1.0000
  H   H510      1.0  0.35702  0.05309  0.28968  1.0000
  H   H511      1.0  0.62570  0.25224  0.28000  1.0000
  H   H512      1.0  0.43533  0.02070  0.43492  1.0000
  H   H513      1.0  0.50449  0.01590  0.38310  1.0000
  H   H514      1.0  0.54798  0.19114  0.32752  1.0000
  C   C287      1.0  0.46467  0.12922  0.28961  1.0000
  C   C288      1.0  0.44239  0.14791  0.27884  1.0000
  C   C289      1.0  0.41688  0.13713  0.26319  1.0000
  C   C290      1.0  0.41360  0.10754  0.25788  1.0000
  C   C291      1.0  0.43590  0.08888  0.26850  1.0000
  C   C292      1.0  0.46123  0.09963  0.28448  1.0000
  H   H515      1.0  0.44486  0.17083  0.28272  1.0000
  H   H516      1.0  0.39990  0.15173  0.25509  1.0000
  H   H517      1.0  0.43362  0.06596  0.26438  1.0000
  H   H518      1.0  0.47822  0.08507  0.29251  1.0000
  H   H519      1.0  0.51183  0.46914  0.38834  1.0000
  C   C293      1.0  0.39922  0.41563  0.51244  1.0000
  H   H520      1.0  0.64509  0.28018  0.05054  1.0000
  H   H521      1.0  0.39393  0.42430  0.48697  1.0000
  H   H522      1.0  0.36539  0.29896  0.19880  1.0000
  H   H523      1.0  0.54328  0.99991  0.42398  1.0000
  C   C294      1.0  0.50264  0.02157  0.30763  1.0000
  C   C295      1.0  0.47663  0.45999  0.31975  1.0000
  H   H524      1.0  0.45661  0.02932  0.30702  1.0000
  H   H525      1.0  0.50821  0.04400  0.30483  1.0000
  H   H526      1.0  0.47046  0.43758  0.32019  1.0000
  S   S85       1.0  0.63279  0.33289  0.20222  1.0000
  H   H527      1.0  0.39039  0.15172  0.12973  1.0000
  Fe  Fe45      1.0  0.64080  0.36649  0.24337  1.0000
  S   S86       1.0  0.60758  0.38920  0.27752  1.0000
  C   C296      1.0  0.56242  0.43379  0.20890  1.0000
  Fe  Fe46      1.0  0.55638  0.09364  0.40322  1.0000
  S   S87       1.0  0.59426  0.07190  0.37786  1.0000
  S   S88       1.0  0.54414  0.09623  0.46069  1.0000
  Fe  Fe47      1.0  0.53145  0.11513  0.33262  1.0000
  S   S89       1.0  0.56757  0.09536  0.30173  1.0000
  S   S90       1.0  0.49664  0.14368  0.30863  1.0000
  Fe  Fe48      1.0  0.56149  0.05762  0.33766  1.0000
  S   S91       1.0  0.56051  0.01190  0.31853  1.0000
  Fe  Fe49      1.0  0.59739  0.11142  0.34396  1.0000
  S   S92       1.0  0.63784  0.13806  0.33405  1.0000
  S   S93       1.0  0.52329  0.07622  0.36568  1.0000
  S   S94       1.0  0.56176  0.13447  0.37233  1.0000
  C   C297      1.0  0.56252  0.08201  0.49762  1.0000
  C   C298      1.0  0.60471  0.15204  0.47339  1.0000
  H   H528      1.0  0.59057  0.05380  0.46901  1.0000
  H   H529      1.0  0.46566  0.48195  0.52310  1.0000
  C   C299      1.0  0.50547  0.46760  0.31313  1.0000
  H   H530      1.0  0.52155  0.45099  0.30991  1.0000
  H   H531      1.0  0.60859  0.44414  0.36249  1.0000
  H   H532      1.0  0.35888  0.11405  0.12978  1.0000
  H   H533      1.0  0.42286  0.06884  0.05061  1.0000
  C   C300      1.0  0.35219  0.26945  0.24147  1.0000
  H   H534      1.0  0.39508  0.26348  0.28665  1.0000
  H   H535      1.0  0.36933  0.37995  0.46590  1.0000
  C   C301      1.0  0.51723  0.35588  0.30818  1.0000
  C   C302      1.0  0.52802  0.38173  0.32168  1.0000
  C   C303      1.0  0.55609  0.39108  0.31295  1.0000
  C   C304      1.0  0.57344  0.37509  0.29000  1.0000
  C   C305      1.0  0.56273  0.34919  0.27655  1.0000
  C   C306      1.0  0.53482  0.33959  0.28577  1.0000
  H   H536      1.0  0.51465  0.39452  0.33871  1.0000
  H   H537      1.0  0.56414  0.41117  0.32336  1.0000
  H   H538      1.0  0.57582  0.33669  0.25885  1.0000
  H   H539      1.0  0.52667  0.31957  0.27523  1.0000
  H   H540      1.0  0.53439  0.40169  0.23294  1.0000
  H   H541      1.0  0.36484  0.24852  0.33016  1.0000
  H   H542      1.0  0.39924  0.30468  0.46088  1.0000
  H   H543      1.0  0.33862  0.41610  0.48278  1.0000
  H   H544      1.0  0.60678  0.12512  0.42776  1.0000
  C   C307      1.0  0.65931  0.11211  0.50966  1.0000
  H   H545      1.0  0.34737  0.36851  0.43156  1.0000
  H   H546      1.0  0.51163  0.41301  0.43088  1.0000
  H   H547      1.0  0.34049  0.23231  0.29851  1.0000
  H   H548      1.0  0.37565  0.18719  0.05419  1.0000
  H   H549      1.0  0.36815  0.32884  0.24592  1.0000
  H   H550      1.0  0.37051  0.04914  0.13938  1.0000
  H   H551      1.0  0.48243  0.03578  0.50439  1.0000
  C   C308      1.0  0.59233  0.46990  0.18086  1.0000
  H   H552      1.0  0.65820  0.16363  0.24330  1.0000
  H   H553      1.0  0.61027  0.44945  0.40882  1.0000
  H   H554      1.0  0.40017  0.13834  0.17244  1.0000
  H   H555      1.0  0.63712  0.48047  0.25722  1.0000
  H   H556      1.0  0.57750  0.47156  0.48812  1.0000
  C   C309      1.0  0.53181  0.41887  0.41691  1.0000
  H   H557      1.0  0.45573  0.04874  0.47328  1.0000
  H   H558      1.0  0.65306  0.38588  0.03806  1.0000
  C   C310      1.0  0.39708  0.30267  0.31712  1.0000
  C   C311      1.0  0.57078  0.49214  0.43678  1.0000
  C   C312      1.0  0.59394  0.46323  0.24602  1.0000
  H   H559      1.0  0.62992  0.45715  0.15049  1.0000
  C   C313      1.0  0.36938  0.27676  0.20819  1.0000
  C   C314      1.0  0.58600  0.19026  0.29387  1.0000
  H   H560      1.0  0.41042  0.05181  0.17194  1.0000
  H   H561      1.0  0.35338  0.32009  0.43837  1.0000
  H   H562      1.0  0.57941  0.41686  0.21106  1.0000
  C   C315      1.0  0.34076  0.06363  0.10032  1.0000
  C   C316      1.0  0.35111  0.31983  0.26321  1.0000
  H   H563      1.0  0.60122  0.49196  0.18057  1.0000
  Fe  Fe50      1.0  0.34172  0.11798  0.22343  1.0000
  C   C317      1.0  0.55495  0.20046  0.30219  1.0000
  N   N20       1.0  0.35735  0.28886  0.27237  1.0000
  C   C318      1.0  0.47910  0.04653  0.47878  1.0000
  H   H564      1.0  0.46725  0.04262  0.36992  1.0000
  C   C319      1.0  0.55062  0.48458  0.21684  1.0000
  H   H565      1.0  0.65008  0.31093  0.10342  1.0000
  H   H566      1.0  0.51785  0.43631  0.22918  1.0000
  C   C320      1.0  0.42262  0.39683  0.51620  1.0000
  C   C321      1.0  0.59962  0.05209  0.52452  1.0000
  H   H567      1.0  0.36809  0.36097  0.52189  1.0000
  H   H568      1.0  0.36016  0.00837  0.19704  1.0000
  H   H569      1.0  0.45993  0.06349  0.40864  1.0000
  N   N21       1.0  0.33852  0.34730  0.48091  1.0000
  H   H570      1.0  0.53951  0.19332  0.28157  1.0000
  H   H571      1.0  0.60145  0.17126  0.45660  1.0000
  H   H572      1.0  0.59802  0.22809  0.34691  1.0000
  H   H573      1.0  0.42653  0.08688  0.17803  1.0000
  H   H574      1.0  0.49905  0.47863  0.45245  1.0000
  C   C322      1.0  0.49595  0.03093  0.44980  1.0000
  C   C323      1.0  0.42666  0.06716  0.16171  1.0000
  H   H575      1.0  0.42770  0.05443  0.10789  1.0000
  H   H576      1.0  0.48718  0.06901  0.48090  1.0000
  C   C324      1.0  0.34671  0.37350  0.45994  1.0000
  H   H577      1.0  0.36234  0.26197  0.18699  1.0000
  C   C325      1.0  0.34320  0.24995  0.31768  1.0000
  C   C326      1.0  0.61799  0.44953  0.17385  1.0000
  H   H578      1.0  0.62081  0.25879  0.34161  1.0000
  C   C327      1.0  0.45309  0.04463  0.39290  1.0000
  C   C328      1.0  0.53858  0.42519  0.23496  1.0000
  H   H579      1.0  0.39890  0.34287  0.46388  1.0000
  C   C329      1.0  0.42189  0.07421  0.12265  1.0000
  C   C330      1.0  0.61496  0.48876  0.25198  1.0000
  N   N22       1.0  0.65086  0.13064  0.44599  1.0000
  H   H580      1.0  0.61074  0.42727  0.16799  1.0000
  C   C331      1.0  0.56963  0.46401  0.38304  1.0000
  H   H581      1.0  0.54551  0.39924  0.41634  1.0000
  C   C332      1.0  0.65463  0.15856  0.42620  1.0000
  C   C333      1.0  0.38862  0.28641  0.28344  1.0000
  C   C334      1.0  0.65007  0.32059  0.07773  1.0000
  C   C335      1.0  0.54765  0.44335  0.43664  1.0000
  H   H582      1.0  0.61396  0.10730  0.46705  1.0000
  H   H583      1.0  0.64355  0.19158  0.29393  1.0000
  H   H584      1.0  0.56839  0.43456  0.44701  1.0000
  H   H585      1.0  0.53475  0.44792  0.46034  1.0000
  N   N23       1.0  0.39187  0.08431  0.11272  1.0000
  H   H586      1.0  0.50439  0.04750  0.43146  1.0000
  H   H587      1.0  0.62316  0.15239  0.25647  1.0000
  C   C336      1.0  0.39285  0.09842  0.07731  1.0000
  C   C337      1.0  0.38046  0.10599  0.13834  1.0000
  H   H588      1.0  0.39293  0.27329  0.21200  1.0000
  H   H589      1.0  0.60740  0.44344  0.24695  1.0000
  H   H590      1.0  0.35780  0.24680  0.24799  1.0000
  C   C338      1.0  0.39949  0.13303  0.14414  1.0000
  C   C339      1.0  0.47346  0.01320  0.30838  1.0000
  H   H591      1.0  0.58288  0.14515  0.48212  1.0000
  H   H592      1.0  0.43872  0.09009  0.11496  1.0000
  H   H593      1.0  0.35963  0.47615  0.31552  1.0000
  H   H594      1.0  0.64934  0.21369  0.25734  1.0000
  H   H595      1.0  0.40854  0.11662  0.07731  1.0000
  S   S95       1.0  0.34208  0.34821  0.36144  1.0000
  H   H596      1.0  0.37601  0.09587  0.16407  1.0000
  H   H597      1.0  0.44674  0.00161  0.49306  1.0000
  H   H598      1.0  0.61709  0.03677  0.52189  1.0000
  H   H599      1.0  0.34478  0.16834  0.10213  1.0000
  C   C340      1.0  0.63528  0.17069  0.24510  1.0000
  H   H600      1.0  0.65480  0.08034  0.31157  1.0000
  C   C341      1.0  0.66085  0.10655  0.42259  1.0000
  C   C342      1.0  0.45604  0.48136  0.32638  1.0000
  H   H601      1.0  0.39406  0.32100  0.50250  1.0000
  H   H602      1.0  0.42224  0.13050  0.13603  1.0000
  C   C343      1.0  0.33508  0.00223  0.31420  1.0000
  N   N24       1.0  0.60441  0.21095  0.27333  1.0000
  C   C344      1.0  0.63393  0.19777  0.26836  1.0000
  C   C345      1.0  0.60828  0.23917  0.29231  1.0000
  C   C346      1.0  0.58968  0.21663  0.23883  1.0000
  H   H603      1.0  0.65357  0.01030  0.29720  1.0000
  H   H604      1.0  0.55537  0.45480  0.36237  1.0000
  H   H605      1.0  0.55302  0.22404  0.30516  1.0000
  C   C347      1.0  0.60670  0.23569  0.21308  1.0000
  C   C348      1.0  0.64712  0.30324  0.04770  1.0000
  H   H606      1.0  0.54511  0.42967  0.26216  1.0000
  C   C349      1.0  0.35586  0.32216  0.46722  1.0000
  H   H607      1.0  0.58866  0.25294  0.29008  1.0000
  C   C350      1.0  0.34622  0.35113  0.51904  1.0000
  H   H608      1.0  0.58407  0.19612  0.22540  1.0000
  H   H609      1.0  0.56851  0.22753  0.24290  1.0000
  H   H610      1.0  0.58326  0.16966  0.27949  1.0000
  C   C351      1.0  0.37215  0.05841  0.11266  1.0000
  H   H611      1.0  0.44830  0.05715  0.16527  1.0000
  C   C352      1.0  0.61621  0.23688  0.33139  1.0000
  C   C353      1.0  0.35846  0.17209  0.04832  1.0000
  N   N25       1.0  0.48044  0.00710  0.43059  1.0000
  H   H612      1.0  0.37176  0.10857  0.07061  1.0000
  H   H613      1.0  0.40311  0.29504  0.26282  1.0000
  H   H614      1.0  0.59382  0.23829  0.18870  1.0000
  H   H615      1.0  0.62769  0.22602  0.20563  1.0000
  H   H616      1.0  0.61045  0.25759  0.22368  1.0000
  H   H617      1.0  0.38116  0.04079  0.09636  1.0000
  H   H618      1.0  0.39417  0.32621  0.31423  1.0000
  N   N26       1.0  0.57532  0.46353  0.21348  1.0000
  H   H619      1.0  0.52594  0.42400  0.38960  1.0000
  H   H620      1.0  0.61840  0.01115  0.27673  1.0000
  C   C354      1.0  0.38880  0.32310  0.47431  1.0000
  N   N27       1.0  0.55311  0.47048  0.41608  1.0000
  C   C355      1.0  0.63820  0.99793  0.28060  1.0000
  C   C356      1.0  0.65151  0.36277  0.04088  1.0000
  C   C357      1.0  0.33734  0.27980  0.30137  1.0000
  H   H621      1.0  0.37099  0.49006  0.25997  1.0000
  H   H622      1.0  0.35376  0.01290  0.32754  1.0000
  H   H623      1.0  0.57792  0.48441  0.37140  1.0000
  H   H624      1.0  0.58853  0.42089  0.39029  1.0000
  H   H625      1.0  0.37217  0.01145  0.26032  1.0000
  H   H626      1.0  0.51593  0.02267  0.46266  1.0000
  H   H627      1.0  0.58026  0.46151  0.26976  1.0000
  H   H628      1.0  0.33748  0.29578  0.32292  1.0000
  H   H629      1.0  0.62779  0.17485  0.21805  1.0000
  H   H630      1.0  0.61725  0.15805  0.49700  1.0000
  H   H631      1.0  0.38501  0.29507  0.34029  1.0000
  C   C358      1.0  0.56786  0.49141  0.47693  1.0000
  H   H632      1.0  0.59678  0.18348  0.31859  1.0000
  C   C359      1.0  0.65225  0.35050  0.07450  1.0000
  C   C360      1.0  0.59572  0.44348  0.38691  1.0000
  H   H633      1.0  0.33338  0.39964  0.31871  1.0000
  C   C361      1.0  0.61891  0.12731  0.45283  1.0000
  C   C362      1.0  0.40121  0.07862  0.04674  1.0000
  H   H634      1.0  0.63590  0.22375  0.33583  1.0000
  H   H635      1.0  0.33935  0.07306  0.07378  1.0000
  S   S96       1.0  0.33781  0.15669  0.18835  1.0000
  H   H636      1.0  0.53451  0.48100  0.19550  1.0000
  H   H637      1.0  0.63351  0.44921  0.19598  1.0000
  C   C363      1.0  0.34109  0.16139  0.07554  1.0000
  H   H638      1.0  0.34994  0.04234  0.21413  1.0000
  H   H639      1.0  0.35188  0.33351  0.28697  1.0000
  C   C364      1.0  0.34492  0.01907  0.21519  1.0000
  H   H640      1.0  0.42045  0.29908  0.32264  1.0000
  H   H641      1.0  0.38482  0.06159  0.04216  1.0000
  S   S97       1.0  0.65530  0.37336  0.11161  1.0000
  H   H642      1.0  0.53881  0.48099  0.24172  1.0000
  H   H643      1.0  0.64884  0.10716  0.39731  1.0000
  C   C365      1.0  0.49938  0.99763  0.40070  1.0000
  H   H644      1.0  0.64737  0.09246  0.50219  1.0000
  H   H645      1.0  0.64932  0.17733  0.44300  1.0000
  H   H646      1.0  0.44270  0.99945  0.39803  1.0000
  C   C366      1.0  0.33366  0.04867  0.28437  1.0000
  C   C367      1.0  0.52501  0.48414  0.40447  1.0000
  H   H647      1.0  0.57782  0.46915  0.15750  1.0000
  C   C368      1.0  0.34946  0.00655  0.25215  1.0000
  H   H648      1.0  0.59436  0.48996  0.43188  1.0000
  C   C369      1.0  0.45201  0.01679  0.41485  1.0000
  H   H649      1.0  0.34787  0.30148  0.47840  1.0000
  Fe  Fe51      1.0  0.66272  0.35849  0.16778  1.0000
  C   C370      1.0  0.34211  0.49220  0.31912  1.0000
  H   H650      1.0  0.63921  0.15974  0.40375  1.0000
  H   H651      1.0  0.66450  0.06042  0.41610  1.0000
  H   H652      1.0  0.64948  0.99530  0.25548  1.0000
  H   H653      1.0  0.54522  0.49359  0.48573  1.0000
  Fe  Fe52      1.0  0.38080  0.19873  0.85092  1.0000
  S   S98       1.0  0.34358  0.48892  0.75722  1.0000
  S   S99       1.0  0.40925  0.23263  0.82519  1.0000
  H   H654      1.0  0.43175  0.27453  0.91823  1.0000
  H   H655      1.0  0.44345  0.47507  0.73764  1.0000
  Fe  Fe53      1.0  0.37285  0.13319  0.85706  1.0000
  S   S100      1.0  0.39322  0.09099  0.84004  1.0000
  S   S101      1.0  0.40240  0.16489  0.88397  1.0000
  H   H656      1.0  0.50059  0.42191  0.64189  1.0000
  Fe  Fe54      1.0  0.37817  0.41647  0.66804  1.0000
  S   S102      1.0  0.40480  0.38222  0.69448  1.0000
  S   S103      1.0  0.36648  0.42098  0.61040  1.0000
  Fe  Fe55      1.0  0.36856  0.45018  0.73682  1.0000
  S   S104      1.0  0.39460  0.41861  0.76862  1.0000
  H   H657      1.0  0.46699  0.15116  0.81848  1.0000
  Fe  Fe56      1.0  0.42504  0.41943  0.72310  1.0000
  S   S105      1.0  0.47346  0.42108  0.72896  1.0000
  Fe  Fe57      1.0  0.37208  0.38383  0.73786  1.0000
  S   S106      1.0  0.34950  0.34598  0.76421  1.0000
  S   S107      1.0  0.40080  0.45360  0.69355  1.0000
  H   H658      1.0  0.56604  0.00140  0.61105  1.0000
  C   C371      1.0  0.48564  0.45679  0.72935  1.0000
  C   C372      1.0  0.47752  0.08585  0.82866  1.0000
  H   H659      1.0  0.56259  0.34695  0.81596  1.0000
  H   H660      1.0  0.45193  0.03447  0.72369  1.0000
  H   H661      1.0  0.55912  0.26633  0.94374  1.0000
  C   C373      1.0  0.37680  0.06541  0.81189  1.0000
  H   H662      1.0  0.52667  0.33596  0.81081  1.0000
  N   N28       1.0  0.46550  0.11990  0.77672  1.0000
  H   H663      1.0  0.47961  0.40851  0.60491  1.0000
  C   C374      1.0  0.37938  0.01878  0.78244  1.0000
  C   C375      1.0  0.39180  0.03992  0.80417  1.0000
  H   H664      1.0  0.54186  0.29221  0.91640  1.0000
  H   H665      1.0  0.45661  0.44997  0.66128  1.0000
  H   H666      1.0  0.41307  0.03635  0.81529  1.0000
  C   C376      1.0  0.39264  0.26417  0.80835  1.0000
  C   C377      1.0  0.40936  0.28476  0.79056  1.0000
  C   C378      1.0  0.39659  0.31008  0.77716  1.0000
  C   C379      1.0  0.36690  0.31490  0.78126  1.0000
  H   H667      1.0  0.43460  0.13094  0.81678  1.0000
  C   C380      1.0  0.36304  0.26909  0.81257  1.0000
  H   H668      1.0  0.43216  0.28100  0.78666  1.0000
  H   H669      1.0  0.40959  0.32568  0.76331  1.0000
  H   H670      1.0  0.59532  0.39641  0.71620  1.0000
  S   S108      1.0  0.35400  0.16650  0.82101  1.0000
  C   C381      1.0  0.41820  0.10869  0.74237  1.0000
  H   H671      1.0  0.42466  0.12068  0.71867  1.0000
  H   H672      1.0  0.44933  0.18725  0.78417  1.0000
  C   C382      1.0  0.41327  0.39421  0.57898  1.0000
  C   C383      1.0  0.38935  0.41236  0.57502  1.0000
  H   H673      1.0  0.47354  0.35571  0.74196  1.0000
  H   H674      1.0  0.41855  0.38554  0.60446  1.0000
  H   H675      1.0  0.46201  0.09757  0.84543  1.0000
  H   H676      1.0  0.49627  0.07964  0.84531  1.0000
  Fe  Fe58      1.0  0.62539  0.34320  0.85657  1.0000
  S   S109      1.0  0.59942  0.31120  0.88799  1.0000
  S   S110      1.0  0.60427  0.38644  0.84441  1.0000
  Fe  Fe59      1.0  0.64033  0.30423  0.91917  1.0000
  C   C384      1.0  0.52457  0.49135  0.72218  1.0000
  Fe  Fe60      1.0  0.61594  0.27766  0.85058  1.0000
  S   S111      1.0  0.58566  0.24258  0.82991  1.0000
  H   H677      1.0  0.52300  0.27701  0.95344  1.0000
  S   S112      1.0  0.63822  0.31027  0.81657  1.0000
  Fe  Fe61      1.0  0.60944  0.10024  0.71543  1.0000
  S   S113      1.0  0.63795  0.06651  0.69109  1.0000
  S   S114      1.0  0.63300  0.14101  0.73312  1.0000
  Fe  Fe62      1.0  0.55704  0.06144  0.70827  1.0000
  S   S115      1.0  0.58159  0.02503  0.68390  1.0000
  S   S116      1.0  0.50907  0.05851  0.71758  1.0000
  Fe  Fe63      1.0  0.61489  0.03456  0.72522  1.0000
  H   H678      1.0  0.40344  0.12164  0.75884  1.0000
  Fe  Fe64      1.0  0.60217  0.05988  0.65172  1.0000
  S   S117      1.0  0.61226  0.05005  0.59466  1.0000
  S   S118      1.0  0.58873  0.06871  0.75208  1.0000
  S   S119      1.0  0.57527  0.09595  0.67337  1.0000
  C   C385      1.0  0.61675  0.41265  0.81422  1.0000
  C   C386      1.0  0.60164  0.43879  0.81102  1.0000
  C   C387      1.0  0.61017  0.45980  0.78656  1.0000
  C   C388      1.0  0.63407  0.45494  0.76513  1.0000
  C   C389      1.0  0.64859  0.34542  0.01081  1.0000
  C   C390      1.0  0.64047  0.40763  0.79253  1.0000
  H   H679      1.0  0.58319  0.44287  0.82756  1.0000
  H   H680      1.0  0.54066  0.00487  0.57631  1.0000
  S   S120      1.0  0.37522  0.17840  0.98003  1.0000
  C   C391      1.0  0.59923  0.21407  0.80362  1.0000
  C   C392      1.0  0.58064  0.19161  0.79321  1.0000
  C   C393      1.0  0.59072  0.16890  0.77205  1.0000
  C   C394      1.0  0.61944  0.16857  0.76073  1.0000
  C   C395      1.0  0.63804  0.19098  0.77122  1.0000
  C   C396      1.0  0.62805  0.21354  0.79260  1.0000
  H   H681      1.0  0.55834  0.19174  0.80139  1.0000
  H   H682      1.0  0.57629  0.15178  0.76416  1.0000
  C   C397      1.0  0.46593  0.47943  0.73240  1.0000
  H   H683      1.0  0.64259  0.23067  0.80025  1.0000
  C   C398      1.0  0.51506  0.46278  0.72476  1.0000
  H   H684      1.0  0.47102  0.26152  0.82427  1.0000
  C   C399      1.0  0.49720  0.02314  0.72488  1.0000
  H   H685      1.0  0.53043  0.44543  0.72237  1.0000
  H   H686      1.0  0.47127  0.29877  0.83740  1.0000
  C   C400      1.0  0.64913  0.42874  0.76822  1.0000
  C   C401      1.0  0.56932  0.08166  0.56110  1.0000
  C   C402      1.0  0.59214  0.06212  0.55792  1.0000
  C   C403      1.0  0.41702  0.49058  0.60694  1.0000
  H   H687      1.0  0.48988  0.32107  0.73995  1.0000
  H   H688      1.0  0.56333  0.08952  0.58663  1.0000
  H   H689      1.0  0.40537  0.08982  0.73340  1.0000
  C   C404      1.0  0.34941  0.06986  0.79709  1.0000
  H   H690      1.0  0.33454  0.22877  0.96474  1.0000
  C   C405      1.0  0.48012  0.00763  0.62524  1.0000
  C   C406      1.0  0.57405  0.39672  0.72959  1.0000
  H   H691      1.0  0.55168  0.39920  0.80525  1.0000
  S   S121      1.0  0.33829  0.13712  0.89793  1.0000
  C   C407      1.0  0.48045  0.13341  0.74583  1.0000
  H   H692      1.0  0.57904  0.31255  0.77086  1.0000
  H   H693      1.0  0.42929  0.16423  0.75456  1.0000
  H   H694      1.0  0.49622  0.28501  0.80557  1.0000
  H   H695      1.0  0.53721  0.02627  0.61579  1.0000
  C   C408      1.0  0.45894  0.44451  0.63314  1.0000
  S   S122      1.0  0.65479  0.26826  0.88398  1.0000
  H   H696      1.0  0.43451  0.08561  0.78561  1.0000
  C   C409      1.0  0.48841  0.10427  0.79778  1.0000
  H   H697      1.0  0.33599  0.26648  0.95788  1.0000
  H   H698      1.0  0.41571  0.17255  0.79637  1.0000
  H   H699      1.0  0.55701  0.39768  0.70915  1.0000
  C   C410      1.0  0.52090  0.35691  0.74101  1.0000
  H   H700      1.0  0.53992  0.00497  0.72881  1.0000
  S   S123      1.0  0.34699  0.20781  0.89125  1.0000
  C   C411      1.0  0.43587  0.16752  0.78200  1.0000
  H   H701      1.0  0.66364  0.11498  0.83297  1.0000
  H   H702      1.0  0.50792  0.37488  0.83245  1.0000
  H   H703      1.0  0.54189  0.30359  0.75956  1.0000
  C   C412      1.0  0.35165  0.02281  0.76844  1.0000
  S   S124      1.0  0.64628  0.48113  0.73480  1.0000
  H   H704      1.0  0.44881  0.45202  0.56649  1.0000
  H   H705      1.0  0.48860  0.34023  0.78034  1.0000
  H   H706      1.0  0.43720  0.43732  0.62420  1.0000
  H   H707      1.0  0.34757  0.32980  0.53231  1.0000
  H   H708      1.0  0.34989  0.25343  0.82608  1.0000
  C   C413      1.0  0.49198  0.34269  0.75205  1.0000
  H   H709      1.0  0.55651  0.29506  0.80160  1.0000
  C   C414      1.0  0.53802  0.27236  0.93167  1.0000
  C   C415      1.0  0.49916  0.47800  0.62582  1.0000
  C   C416      1.0  0.51703  0.00057  0.72794  1.0000
  H   H710      1.0  0.45558  0.08134  0.74754  1.0000
  H   H711      1.0  0.65201  0.38745  0.79439  1.0000
  H   H712      1.0  0.48558  0.01184  0.65316  1.0000
  H   H713      1.0  0.53228  0.20352  0.86016  1.0000
  H   H714      1.0  0.50374  0.41209  0.82343  1.0000
  C   C417      1.0  0.44425  0.09768  0.76367  1.0000
  N   N29       1.0  0.50017  0.25274  0.88730  1.0000
  C   C418      1.0  0.52722  0.24716  0.90873  1.0000
  C   C419      1.0  0.49045  0.22418  0.87261  1.0000
  C   C420      1.0  0.47738  0.26464  0.91148  1.0000
  C   C421      1.0  0.50783  0.27418  0.85920  1.0000
  H   H715      1.0  0.51565  0.46399  0.61329  1.0000
  C   C422      1.0  0.51168  0.20971  0.84719  1.0000
  C   C423      1.0  0.44552  0.26271  0.89939  1.0000
  C   C424      1.0  0.48504  0.28007  0.83047  1.0000
  H   H716      1.0  0.52406  0.22844  0.92657  1.0000
  H   H717      1.0  0.54576  0.24127  0.89172  1.0000
  H   H718      1.0  0.46949  0.22572  0.85853  1.0000
  H   H719      1.0  0.48612  0.20869  0.89423  1.0000
  H   H720      1.0  0.47810  0.25317  0.93708  1.0000
  H   H721      1.0  0.48177  0.28770  0.91740  1.0000
  H   H722      1.0  0.51283  0.29551  0.87087  1.0000
  H   H723      1.0  0.52842  0.26824  0.84605  1.0000
  C   C425      1.0  0.35028  0.29428  0.79910  1.0000
  S   S125      1.0  0.34351  0.41537  0.70910  1.0000
  C   C426      1.0  0.64622  0.31553  0.01408  1.0000
  C   C427      1.0  0.42986  0.38656  0.54968  1.0000
  H   H724      1.0  0.50179  0.18956  0.83721  1.0000
  H   H725      1.0  0.51627  0.22350  0.82422  1.0000
  H   H726      1.0  0.43759  0.24014  0.89936  1.0000
  H   H727      1.0  0.44162  0.27256  0.87355  1.0000
  H   H728      1.0  0.46759  0.06544  0.81944  1.0000
  H   H729      1.0  0.49025  0.11647  0.72908  1.0000
  H   H730      1.0  0.52437  0.14368  0.76443  1.0000
  H   H731      1.0  0.52965  0.40934  0.76907  1.0000
  C   C428      1.0  0.47853  0.41765  0.63159  1.0000
  C   C429      1.0  0.53368  0.39169  0.78809  1.0000
  C   C430      1.0  0.54644  0.34047  0.79572  1.0000
  C   C431      1.0  0.35345  0.16375  0.01351  1.0000
  C   C432      1.0  0.46937  0.46269  0.57471  1.0000
  C   C433      1.0  0.45094  0.14167  0.80002  1.0000
  C   C434      1.0  0.50476  0.15499  0.75477  1.0000
  C   C435      1.0  0.50637  0.39070  0.81090  1.0000
  H   H732      1.0  0.50135  0.08978  0.78077  1.0000
  H   H733      1.0  0.51536  0.37640  0.72551  1.0000
  H   H734      1.0  0.57380  0.41671  0.74542  1.0000
  N   N30       1.0  0.54230  0.36440  0.76951  1.0000
  C   C436      1.0  0.57143  0.36964  0.75277  1.0000
  H   H735      1.0  0.58877  0.37121  0.77297  1.0000
  H   H736      1.0  0.53096  0.34213  0.72169  1.0000
  C   C437      1.0  0.46750  0.01721  0.72583  1.0000
  H   H737      1.0  0.51122  0.16658  0.73065  1.0000
  C   C438      1.0  0.55649  0.31145  0.78053  1.0000
  H   H738      1.0  0.64643  0.12430  0.52909  1.0000
  H   H739      1.0  0.46514  0.14456  0.72813  1.0000
  H   H740      1.0  0.48650  0.38742  0.79509  1.0000
  H   H741      1.0  0.59834  0.47981  0.78444  1.0000
  H   H742      1.0  0.49794  0.17127  0.77410  1.0000
  Fe  Fe65      1.0  0.36616  0.17133  0.92218  1.0000
  H   H743      1.0  0.57776  0.35121  0.73596  1.0000
  H   H744      1.0  0.50419  0.11972  0.80925  1.0000
  C   C439      1.0  0.54271  0.00478  0.60513  1.0000
  H   H745      1.0  0.66030  0.19101  0.76260  1.0000
  S   S126      1.0  0.64093  0.00302  0.75844  1.0000
  H   H746      1.0  0.50114  0.47374  0.65436  1.0000
  H   H747      1.0  0.64678  0.08055  0.83512  1.0000
  H   H748      1.0  0.48595  0.44591  0.56965  1.0000
  H   H749      1.0  0.48927  0.02604  0.61035  1.0000
  H   H750      1.0  0.36424  0.43746  0.53852  1.0000
  S   S127      1.0  0.64189  0.29255  0.97727  1.0000
  H   H751      1.0  0.53731  0.10705  0.53374  1.0000
  H   H752      1.0  0.44804  0.37211  0.55283  1.0000
  H   H753      1.0  0.46901  0.40071  0.64853  1.0000
  H   H754      1.0  0.49973  0.48930  0.54460  1.0000
  H   H755      1.0  0.43990  0.03086  0.63325  1.0000
  C   C440      1.0  0.44821  0.49463  0.62078  1.0000
  H   H756      1.0  0.41624  0.48833  0.57813  1.0000
  H   H757      1.0  0.40586  0.47211  0.61916  1.0000
  N   N31       1.0  0.46906  0.47052  0.61291  1.0000
  C   C441      1.0  0.55461  0.09154  0.53106  1.0000
  H   H758      1.0  0.33799  0.08968  0.80221  1.0000
  C   C442      1.0  0.38257  0.42319  0.54170  1.0000
  C   C443      1.0  0.47604  0.48707  0.54861  1.0000
  H   H759      1.0  0.39110  0.99917  0.77695  1.0000
  C   C444      1.0  0.33679  0.04851  0.77572  1.0000
  H   H760      1.0  0.64789  0.35521  0.98518  1.0000
  H   H761      1.0  0.65756  0.09090  0.77426  1.0000
  H   H762      1.0  0.40215  0.09171  0.02243  1.0000
  H   H763      1.0  0.44004  0.01072  0.59361  1.0000
  C   C445      1.0  0.44691  0.01021  0.62139  1.0000
  S   S128      1.0  0.33476  0.99603  0.74240  1.0000
  H   H764      1.0  0.33542  0.37186  0.56797  1.0000
  H   H765      1.0  0.49489  0.99608  0.56080  1.0000
  Fe  Fe66      1.0  0.45903  0.87322  0.34891  1.0000
  S   S129      1.0  0.42291  0.89101  0.31557  1.0000
  S   S130      1.0  0.49484  0.84292  0.33146  1.0000
  Fe  Fe67      1.0  0.43418  0.89934  0.41687  1.0000
  S   S131      1.0  0.39683  0.92003  0.38875  1.0000
  S   S132      1.0  0.44623  0.90245  0.47454  1.0000
  Fe  Fe68      1.0  0.39306  0.87838  0.35916  1.0000
  H   H766      1.0  0.34805  0.89017  0.42639  1.0000
  Fe  Fe69      1.0  0.42954  0.93098  0.34755  1.0000
  S   S133      1.0  0.43029  0.97475  0.32272  1.0000
  S   S134      1.0  0.42853  0.85676  0.38995  1.0000
  S   S135      1.0  0.46745  0.91416  0.37829  1.0000
  H   H767      1.0  0.34380  0.68209  0.09506  1.0000
  C   C446      1.0  0.59914  0.58069  0.50297  1.0000
  Fe  Fe70      1.0  0.34858  0.62533  0.21646  1.0000
  S   S136      1.0  0.39041  0.59982  0.22281  1.0000
  H   H768      1.0  0.43770  0.79793  0.27637  1.0000
  H   H769      1.0  0.37193  0.70012  0.04428  1.0000
  H   H770      1.0  0.35194  0.57864  0.33254  1.0000
  C   C447      1.0  0.60991  0.66740  0.25019  1.0000
  H   H771      1.0  0.56601  0.51450  0.42791  1.0000
  C   C448      1.0  0.46618  0.98426  0.31313  1.0000
  H   H772      1.0  0.40462  0.52245  0.29810  1.0000
  C   C449      1.0  0.46325  0.62541  0.29974  1.0000
  C   C450      1.0  0.43854  0.64283  0.29590  1.0000
  C   C451      1.0  0.41611  0.63528  0.27251  1.0000
  C   C452      1.0  0.41832  0.61033  0.25231  1.0000
  C   C453      1.0  0.44305  0.59291  0.25603  1.0000
  C   C454      1.0  0.46531  0.60028  0.27978  1.0000
  H   H773      1.0  0.43676  0.66230  0.31119  1.0000
  H   H774      1.0  0.39721  0.64886  0.27002  1.0000
  H   H775      1.0  0.44502  0.57355  0.24060  1.0000
  H   H776      1.0  0.48422  0.58673  0.28237  1.0000
  C   C455      1.0  0.35212  0.57975  0.07837  1.0000
  H   H777      1.0  0.54010  0.97768  0.38643  1.0000
  H   H778      1.0  0.40123  0.76191  0.20309  1.0000
  H   H779      1.0  0.38693  0.92424  0.47775  1.0000
  H   H780      1.0  0.59357  0.89887  0.34138  1.0000
  H   H781      1.0  0.60447  0.98794  0.22621  1.0000
  C   C456      1.0  0.49258  0.51790  0.31659  1.0000
  C   C457      1.0  0.48807  0.96346  0.31365  1.0000
  H   H782      1.0  0.44831  0.52700  0.32916  1.0000
  H   H783      1.0  0.49844  0.54031  0.31452  1.0000
  H   H784      1.0  0.48259  0.94093  0.31536  1.0000
  S   S137      1.0  0.63881  0.81014  0.17915  1.0000
  H   H785      1.0  0.38519  0.55012  0.14347  1.0000
  Fe  Fe71      1.0  0.63563  0.85022  0.21201  1.0000
  S   S138      1.0  0.59334  0.87434  0.22137  1.0000
  C   C458      1.0  0.38342  0.50890  0.25093  1.0000
  Fe  Fe72      1.0  0.55918  0.57826  0.40879  1.0000
  S   S139      1.0  0.59281  0.55735  0.37472  1.0000
  S   S140      1.0  0.54924  0.56638  0.46553  1.0000
  Fe  Fe73      1.0  0.52896  0.60741  0.34497  1.0000
  S   S141      1.0  0.56091  0.58956  0.30672  1.0000
  S   S142      1.0  0.49119  0.63625  0.32900  1.0000
  Fe  Fe74      1.0  0.55615  0.54877  0.33737  1.0000
  C   C459      1.0  0.42248  0.90952  0.50958  1.0000
  Fe  Fe75      1.0  0.59496  0.60004  0.34691  1.0000
  S   S143      1.0  0.63631  0.62368  0.33241  1.0000
  S   S144      1.0  0.52225  0.56587  0.37332  1.0000
  S   S145      1.0  0.56338  0.62181  0.38328  1.0000
  H   H786      1.0  0.34794  0.90117  0.30336  1.0000
  H   H787      1.0  0.34012  0.80261  0.31551  1.0000
  H   H788      1.0  0.60835  0.58746  0.47839  1.0000
  H   H789      1.0  0.39391  0.82750  0.25346  1.0000
  C   C460      1.0  0.51724  0.97184  0.31314  1.0000
  H   H790      1.0  0.53400  0.95576  0.31559  1.0000
  N   N32       1.0  0.62181  0.94437  0.27621  1.0000
  C   C461      1.0  0.39853  0.78857  0.30816  1.0000
  C   C462      1.0  0.61866  0.82053  0.03001  1.0000
  H   H791      1.0  0.37589  0.63009  0.05530  1.0000
  H   H792      1.0  0.58017  0.50976  0.48820  1.0000
  H   H793      1.0  0.57133  0.52340  0.23913  1.0000
  C   C463      1.0  0.52244  0.85243  0.30148  1.0000
  C   C464      1.0  0.52020  0.87683  0.28024  1.0000
  C   C465      1.0  0.54186  0.88292  0.25554  1.0000
  C   C466      1.0  0.56634  0.86515  0.25233  1.0000
  C   C467      1.0  0.56882  0.84097  0.27393  1.0000
  C   C468      1.0  0.54683  0.83452  0.29815  1.0000
  H   H794      1.0  0.50148  0.89068  0.28232  1.0000
  H   H795      1.0  0.53947  0.90146  0.23868  1.0000
  H   H796      1.0  0.58751  0.82710  0.27174  1.0000
  H   H797      1.0  0.54871  0.81559  0.31444  1.0000
  H   H798      1.0  0.59537  0.81946  0.03246  1.0000
  N   N33       1.0  0.60944  0.70835  0.29625  1.0000
  H   H799      1.0  0.42387  0.61912  0.12760  1.0000
  C   C469      1.0  0.59438  0.72954  0.27242  1.0000
  C   C470      1.0  0.62689  0.68777  0.27439  1.0000
  C   C471      1.0  0.58889  0.69244  0.32003  1.0000
  H   H800      1.0  0.42186  0.83138  0.46206  1.0000
  C   C472      1.0  0.57742  0.75370  0.29086  1.0000
  H   H801      1.0  0.61672  0.50420  0.23026  1.0000
  C   C473      1.0  0.55928  0.68317  0.30445  1.0000
  H   H802      1.0  0.53753  0.52924  0.21880  1.0000
  C   C474      1.0  0.47590  0.98131  0.45407  1.0000
  H   H803      1.0  0.57915  0.71891  0.25418  1.0000
  H   H804      1.0  0.40480  0.50080  0.24219  1.0000
  H   H805      1.0  0.35408  0.56631  0.05452  1.0000
  H   H806      1.0  0.40106  0.63829  0.15708  1.0000
  H   H807      1.0  0.59943  0.67279  0.33074  1.0000
  H   H808      1.0  0.58373  0.70588  0.34324  1.0000
  H   H809      1.0  0.39539  0.80568  0.44895  1.0000
  H   H810      1.0  0.39941  0.54976  0.26648  1.0000
  H   H811      1.0  0.35114  0.84956  0.23037  1.0000
  H   H812      1.0  0.59227  0.77007  0.30212  1.0000
  H   H813      1.0  0.56371  0.76513  0.27136  1.0000
  H   H814      1.0  0.56296  0.74537  0.31151  1.0000
  H   H815      1.0  0.40118  0.81425  0.49491  1.0000
  H   H816      1.0  0.56806  0.52398  0.19161  1.0000
  C   C475      1.0  0.63085  0.96932  0.29895  1.0000
  H   H817      1.0  0.55370  0.66146  0.31458  1.0000
  H   H818      1.0  0.55820  0.68160  0.27574  1.0000
  H   H819      1.0  0.54171  0.69748  0.31381  1.0000
  H   H820      1.0  0.44294  0.79911  0.32232  1.0000
  C   C476      1.0  0.40332  0.56951  0.09495  1.0000
  H   H821      1.0  0.33149  0.52705  0.25974  1.0000
  H   H822      1.0  0.64595  0.56649  0.30270  1.0000
  S   S146      1.0  0.35031  0.85443  0.35428  1.0000
  H   H823      1.0  0.35977  0.76740  0.23486  1.0000
  H   H824      1.0  0.51471  0.51438  0.44675  1.0000
  H   H825      1.0  0.34400  0.96160  0.34051  1.0000
  C   C477      1.0  0.33857  0.67478  0.06896  1.0000
  C   C478      1.0  0.34307  0.96999  0.31335  1.0000
  H   H826      1.0  0.40392  0.76561  0.31352  1.0000
  H   H827      1.0  0.52650  0.96451  0.42679  1.0000
  H   H828      1.0  0.48465  0.50318  0.42109  1.0000
  C   C479      1.0  0.59283  0.96726  0.22444  1.0000
  C   C480      1.0  0.57087  0.56996  0.50384  1.0000
  H   H829      1.0  0.60180  0.95413  0.20282  1.0000
  H   H830      1.0  0.37136  0.83664  0.28826  1.0000
  H   H831      1.0  0.37128  0.58780  0.29430  1.0000
  H   H832      1.0  0.57007  0.97228  0.21717  1.0000
  H   H833      1.0  0.64419  0.73958  0.30203  1.0000
  H   H834      1.0  0.42540  0.57727  0.08811  1.0000
  C   C481      1.0  0.34517  0.82949  0.51128  1.0000
  H   H835      1.0  0.63822  0.91506  0.31600  1.0000
  C   C482      1.0  0.39067  0.61143  0.05861  1.0000
  H   H836      1.0  0.59603  0.67900  0.23120  1.0000
  H   H837      1.0  0.40006  0.59455  0.34778  1.0000
  N   N34       1.0  0.38092  0.59268  0.08860  1.0000
  C   C483      1.0  0.34881  0.82722  0.24031  1.0000
  C   C484      1.0  0.63046  0.72535  0.31853  1.0000
  H   H838      1.0  0.42456  0.82800  0.30158  1.0000
  H   H839      1.0  0.34096  0.88575  0.49053  1.0000
  C   C485      1.0  0.44916  0.98155  0.47801  1.0000
  H   H840      1.0  0.39939  0.55084  0.07734  1.0000
  H   H841      1.0  0.64704  0.95462  0.22976  1.0000
  C   C486      1.0  0.37358  0.82103  0.26646  1.0000
  C   C487      1.0  0.38835  0.53155  0.27972  1.0000
  C   C488      1.0  0.40310  0.63087  0.12964  1.0000
  H   H842      1.0  0.58188  0.92961  0.25246  1.0000
  C   C489      1.0  0.39443  0.91991  0.50404  1.0000
  C   C490      1.0  0.39777  0.57255  0.33674  1.0000
  C   C491      1.0  0.35472  0.52192  0.32882  1.0000
  S   S147      1.0  0.55023  0.50612  0.31054  1.0000
  H   H843      1.0  0.63667  0.91841  0.23309  1.0000
  C   C492      1.0  0.34639  0.78455  0.29811  1.0000
  C   C493      1.0  0.33755  0.56002  0.10532  1.0000
  C   C494      1.0  0.33330  0.82087  0.44869  1.0000
  H   H844      1.0  0.40391  0.65037  0.11288  1.0000
  H   H845      1.0  0.34940  0.81265  0.21744  1.0000
  C   C495      1.0  0.61858  0.91827  0.29951  1.0000
  C   C496      1.0  0.55803  0.51691  0.21636  1.0000
  H   H846      1.0  0.61042  0.74023  0.25499  1.0000
  H   H847      1.0  0.48783  0.98151  0.38421  1.0000
  H   H848      1.0  0.64011  0.67332  0.29104  1.0000
  H   H849      1.0  0.42084  0.53878  0.13253  1.0000
  C   C497      1.0  0.63603  0.82252  0.06037  1.0000
  N   N35       1.0  0.36214  0.54212  0.29930  1.0000
  N   N36       1.0  0.34722  0.84131  0.47462  1.0000
  H   H850      1.0  0.41244  0.62079  0.06390  1.0000
  C   C498      1.0  0.36950  0.57107  0.31504  1.0000
  C   C499      1.0  0.35446  0.68496  0.04015  1.0000
  H   H851      1.0  0.34886  0.53905  0.10728  1.0000
  H   H852      1.0  0.38042  0.74675  0.26358  1.0000
  H   H853      1.0  0.41222  0.79404  0.22310  1.0000
  H   H854      1.0  0.45113  0.96379  0.49726  1.0000
  H   H855      1.0  0.59719  0.65157  0.26547  1.0000
  C   C500      1.0  0.59288  0.95018  0.25899  1.0000
  H   H856      1.0  0.63995  0.69054  0.35674  1.0000
  H   H857      1.0  0.39784  0.55728  0.35897  1.0000
  H   H858      1.0  0.38669  0.86585  0.48025  1.0000
  H   H859      1.0  0.66022  0.74758  0.12393  1.0000
  C   C501      1.0  0.64414  0.93708  0.24902  1.0000
  H   H860      1.0  0.61335  0.97474  0.31762  1.0000
  C   C502      1.0  0.65122  0.70767  0.34193  1.0000
  H   H861      1.0  0.39081  0.79772  0.33339  1.0000
  H   H862      1.0  0.35648  0.80854  0.51386  1.0000
  H   H863      1.0  0.42476  0.76006  0.24070  1.0000
  C   C503      1.0  0.33720  0.54681  0.27436  1.0000
  H   H864      1.0  0.61654  0.89830  0.28363  1.0000
  H   H865      1.0  0.37431  0.51725  0.34488  1.0000
  H   H866      1.0  0.61870  0.74002  0.33648  1.0000
  C   C504      1.0  0.40603  0.77162  0.22899  1.0000
  C   C505      1.0  0.33519  0.78833  0.45666  1.0000
  C   C506      1.0  0.59258  0.91846  0.32476  1.0000
  H   H867      1.0  0.57811  0.96154  0.27722  1.0000
  C   C507      1.0  0.40598  0.55755  0.13256  1.0000
  C   C508      1.0  0.37676  0.61197  0.11984  1.0000
  H   H868      1.0  0.37082  0.59964  0.14355  1.0000
  C   C509      1.0  0.46395  0.51033  0.32402  1.0000
  H   H869      1.0  0.35902  0.75802  0.34381  1.0000
  H   H870      1.0  0.36497  0.96667  0.30221  1.0000
  H   H871      1.0  0.57161  0.91741  0.31057  1.0000
  H   H872      1.0  0.49516  0.97784  0.47115  1.0000
  H   H873      1.0  0.34343  0.56255  0.25371  1.0000
  H   H874      1.0  0.62608  0.82294  0.08587  1.0000
  H   H875      1.0  0.35815  0.62677  0.11541  1.0000
  S   S148      1.0  0.34575  0.66470  0.18234  1.0000
  H   H876      1.0  0.34897  0.98287  0.24901  1.0000
  H   H877      1.0  0.33640  0.59705  0.07159  1.0000
  N   N37       1.0  0.37501  0.79077  0.28069  1.0000
  H   H878      1.0  0.33553  0.57005  0.13130  1.0000
  H   H879      1.0  0.34982  0.73725  0.30523  1.0000
  C   C510      1.0  0.42733  0.80432  0.30104  1.0000
  C   C511      1.0  0.37908  0.76874  0.25226  1.0000
  H   H880      1.0  0.47373  0.96122  0.43828  1.0000
  H   H881      1.0  0.41717  0.56899  0.32042  1.0000
  H   H882      1.0  0.59273  0.93730  0.34244  1.0000
  H   H883      1.0  0.60836  0.50107  0.27550  1.0000
  H   H884      1.0  0.64264  0.69979  0.25801  1.0000
  H   H885      1.0  0.41554  0.57358  0.15073  1.0000
  H   H886      1.0  0.42908  0.97727  0.46276  1.0000
  H   H887      1.0  0.37916  0.85512  0.43697  1.0000
  H   H888      1.0  0.64931  0.96357  0.31640  1.0000
  C   C512      1.0  0.37804  0.84776  0.46453  1.0000
  H   H889      1.0  0.62565  0.65466  0.23477  1.0000
  H   H890      1.0  0.35735  0.78087  0.46268  1.0000
  H   H891      1.0  0.37271  0.51862  0.22772  1.0000
  C   C513      1.0  0.52886  0.98423  0.41074  1.0000
  C   C514      1.0  0.39990  0.82298  0.46803  1.0000
  H   H892      1.0  0.66165  0.72223  0.36124  1.0000
  C   C515      1.0  0.34482  0.75686  0.32042  1.0000
  H   H893      1.0  0.33982  0.53214  0.34789  1.0000
  H   H894      1.0  0.52944  0.50272  0.38685  1.0000
  H   H895      1.0  0.34217  0.82430  0.42199  1.0000
  C   C516      1.0  0.51358  0.49659  0.31262  1.0000
  C   C517      1.0  0.66449  0.60882  0.30692  1.0000
  C   C518      1.0  0.66399  0.58016  0.29575  1.0000
  C   C519      1.0  0.50509  0.49548  0.43339  1.0000
  Fe  Fe76      1.0  0.37661  0.70235  0.84130  1.0000
  S   S149      1.0  0.64187  0.77338  0.87985  1.0000
  S   S150      1.0  0.40269  0.73738  0.81403  1.0000
  Fe  Fe77      1.0  0.36151  0.67708  0.91361  1.0000
  S   S151      1.0  0.36955  0.68786  0.97093  1.0000
  Fe  Fe78      1.0  0.37465  0.63647  0.85222  1.0000
  S   S152      1.0  0.39912  0.59549  0.83874  1.0000
  S   S153      1.0  0.39983  0.67225  0.87800  1.0000
  C   C520      1.0  0.50949  0.50937  0.62131  1.0000
  Fe  Fe79      1.0  0.37306  0.92105  0.65911  1.0000
  S   S154      1.0  0.39977  0.88847  0.68863  1.0000
  S   S155      1.0  0.36027  0.92173  0.60153  1.0000
  Fe  Fe80      1.0  0.36063  0.95692  0.72508  1.0000
  S   S156      1.0  0.38612  0.92732  0.76003  1.0000
  C   C521      1.0  0.52913  0.94962  0.81953  1.0000
  Fe  Fe81      1.0  0.41812  0.92722  0.71619  1.0000
  S   S157      1.0  0.46570  0.93029  0.72782  1.0000
  Fe  Fe82      1.0  0.36574  0.89073  0.73034  1.0000
  H   H896      1.0  0.34427  0.86848  0.54451  1.0000
  S   S158      1.0  0.39439  0.95962  0.68324  1.0000
  H   H897      1.0  0.43483  0.98440  0.72956  1.0000
  C   C522      1.0  0.47761  0.96609  0.72947  1.0000
  H   H898      1.0  0.50721  0.51744  0.59430  1.0000
  C   C523      1.0  0.64278  0.72420  0.73249  1.0000
  H   H899      1.0  0.45983  0.52526  0.73056  1.0000
  H   H900      1.0  0.44536  0.94235  0.84280  1.0000
  C   C524      1.0  0.38342  0.56624  0.81555  1.0000
  H   H901      1.0  0.44381  0.91413  0.81142  1.0000
  H   H902      1.0  0.54165  0.86979  0.83507  1.0000
  C   C525      1.0  0.35971  0.51865  0.77898  1.0000
  C   C526      1.0  0.38888  0.51860  0.78901  1.0000
  C   C527      1.0  0.40058  0.54220  0.80740  1.0000
  C   C528      1.0  0.55931  0.56115  0.53608  1.0000
  H   H903      1.0  0.47651  0.88798  0.78264  1.0000
  H   H904      1.0  0.42298  0.54158  0.81566  1.0000
  C   C529      1.0  0.38623  0.76969  0.79903  1.0000
  C   C530      1.0  0.40325  0.79074  0.78248  1.0000
  C   C531      1.0  0.39076  0.81652  0.76998  1.0000
  C   C532      1.0  0.36108  0.82146  0.77393  1.0000
  C   C533      1.0  0.34258  0.54275  0.78700  1.0000
  C   C534      1.0  0.35662  0.77477  0.80322  1.0000
  H   H905      1.0  0.42614  0.78701  0.77899  1.0000
  H   H906      1.0  0.40402  0.83245  0.75705  1.0000
  H   H907      1.0  0.50785  0.91908  0.62006  1.0000
  H   H908      1.0  0.45853  0.94786  0.61939  1.0000
  H   H909      1.0  0.53284  0.51068  0.62828  1.0000
  H   H910      1.0  0.64443  0.69234  0.67452  1.0000
  H   H911      1.0  0.45376  0.89642  0.54841  1.0000
  C   C535      1.0  0.41361  0.90899  0.57253  1.0000
  C   C536      1.0  0.38525  0.91846  0.56691  1.0000
  H   H912      1.0  0.51738  0.74335  0.78412  1.0000
  H   H913      1.0  0.42099  0.90430  0.59880  1.0000
  H   H914      1.0  0.49637  0.70444  0.81408  1.0000
  C   C537      1.0  0.35742  0.84879  0.54067  1.0000
  Fe  Fe83      1.0  0.61530  0.84231  0.82964  1.0000
  S   S159      1.0  0.58608  0.81427  0.86200  1.0000
  S   S160      1.0  0.59418  0.87755  0.79673  1.0000
  Fe  Fe84      1.0  0.62207  0.81357  0.90212  1.0000
  S   S161      1.0  0.60829  0.81722  0.95912  1.0000
  Fe  Fe85      1.0  0.60821  0.77639  0.83734  1.0000
  S   S162      1.0  0.58066  0.74049  0.81401  1.0000
  H   H915      1.0  0.47102  0.71970  0.89746  1.0000
  S   S163      1.0  0.63467  0.80435  0.80206  1.0000
  Fe  Fe86      1.0  0.61555  0.58661  0.73589  1.0000
  S   S164      1.0  0.64528  0.56078  0.70178  1.0000
  S   S165      1.0  0.63589  0.61989  0.77209  1.0000
  Fe  Fe87      1.0  0.56385  0.55258  0.71126  1.0000
  S   S166      1.0  0.58915  0.52402  0.67526  1.0000
  S   S167      1.0  0.51570  0.54959  0.71735  1.0000
  Fe  Fe88      1.0  0.62084  0.52169  0.72024  1.0000
  C   C538      1.0  0.54322  0.89995  0.87609  1.0000
  Fe  Fe89      1.0  0.61117  0.56516  0.65975  1.0000
  S   S168      1.0  0.62551  0.57732  0.60479  1.0000
  S   S169      1.0  0.59361  0.54724  0.75738  1.0000
  S   S170      1.0  0.58342  0.59410  0.69269  1.0000
  C   C539      1.0  0.60847  0.91185  0.78556  1.0000
  C   C540      1.0  0.59341  0.92896  0.76117  1.0000
  C   C541      1.0  0.60295  0.95692  0.75289  1.0000
  C   C542      1.0  0.62806  0.96795  0.76843  1.0000
  C   C543      1.0  0.64348  0.95066  0.79233  1.0000
  C   C544      1.0  0.63368  0.92279  0.80102  1.0000
  H   H916      1.0  0.57424  0.92057  0.74845  1.0000
  H   H917      1.0  0.63342  0.73923  0.75197  1.0000
  H   H918      1.0  0.40461  0.61117  0.00443  1.0000
  C   C545      1.0  0.59578  0.70673  0.80308  1.0000
  C   C546      1.0  0.57996  0.68750  0.78196  1.0000
  C   C547      1.0  0.59178  0.66068  0.77232  1.0000
  C   C548      1.0  0.61934  0.65278  0.78423  1.0000
  C   C549      1.0  0.63480  0.67184  0.80583  1.0000
  C   C550      1.0  0.62323  0.69873  0.81502  1.0000
  H   H919      1.0  0.55872  0.69356  0.77252  1.0000
  H   H920      1.0  0.57969  0.64623  0.75559  1.0000
  S   S171      1.0  0.34028  0.70990  0.87876  1.0000
  H   H921      1.0  0.63550  0.71323  0.83149  1.0000
  C   C551      1.0  0.50729  0.97206  0.72962  1.0000
  N   N38       1.0  0.50554  0.89867  0.82555  1.0000
  C   C552      1.0  0.50459  0.51392  0.72352  1.0000
  H   H922      1.0  0.52286  0.95468  0.73037  1.0000
  H   H923      1.0  0.34325  0.75879  0.81585  1.0000
  S   S172      1.0  0.35475  0.66614  0.81245  1.0000
  C   C553      1.0  0.57571  0.56323  0.56718  1.0000
  C   C554      1.0  0.60395  0.57411  0.56635  1.0000
  H   H924      1.0  0.55554  0.88492  0.89321  1.0000
  H   H925      1.0  0.51272  0.86598  0.86503  1.0000
  H   H926      1.0  0.56651  0.55654  0.59179  1.0000
  H   H927      1.0  0.59101  0.96984  0.73425  1.0000
  C   C555      1.0  0.39283  0.59670  0.02262  1.0000
  C   C556      1.0  0.63114  0.81996  0.99657  1.0000
  C   C557      1.0  0.42812  0.58527  0.72452  1.0000
  C   C558      1.0  0.48205  0.75568  0.82045  1.0000
  H   H928      1.0  0.47703  0.86210  0.81678  1.0000
  H   H929      1.0  0.52805  0.98278  0.65136  1.0000
  C   C559      1.0  0.45715  0.64040  0.79166  1.0000
  C   C560      1.0  0.50726  0.64398  0.74580  1.0000
  N   N39       1.0  0.46031  0.61691  0.76478  1.0000
  C   C561      1.0  0.52528  0.88218  0.84989  1.0000
  C   C562      1.0  0.49647  0.92845  0.64262  1.0000
  H   H930      1.0  0.51697  0.58980  0.78235  1.0000
  H   H931      1.0  0.51455  0.96627  0.80830  1.0000
  H   H932      1.0  0.52973  0.91334  0.89347  1.0000
  C   C563      1.0  0.52504  0.98049  0.62256  1.0000
  C   C564      1.0  0.46946  0.58955  0.78304  1.0000
  H   H933      1.0  0.64542  0.90993  0.81989  1.0000
  H   H934      1.0  0.40779  0.58693  0.70902  1.0000
  H   H935      1.0  0.47259  0.77677  0.82788  1.0000
  C   C565      1.0  0.66127  0.82152  0.99383  1.0000
  N   N40       1.0  0.49316  0.97944  0.61365  1.0000
  H   H936      1.0  0.52756  0.87136  0.76472  1.0000
  H   H937      1.0  0.52157  0.77860  0.80347  1.0000
  H   H938      1.0  0.50151  0.60772  0.82043  1.0000
  C   C566      1.0  0.50265  0.68434  0.86324  1.0000
  H   H939      1.0  0.55969  0.91321  0.86250  1.0000
  C   C567      1.0  0.50565  0.71121  0.83972  1.0000
  H   H940      1.0  0.47831  0.64655  0.80314  1.0000
  C   C568      1.0  0.52237  0.91972  0.80356  1.0000
  H   H941      1.0  0.46838  0.94395  0.80552  1.0000
  S   S173      1.0  0.34401  0.85332  0.75847  1.0000
  H   H942      1.0  0.52636  0.95115  0.55951  1.0000
  H   H943      1.0  0.42364  0.63049  0.73299  1.0000
  H   H944      1.0  0.42640  0.56512  0.73998  1.0000
  H   H945      1.0  0.50142  0.56955  0.81668  1.0000
  N   N41       1.0  0.49191  0.73897  0.85222  1.0000
  H   H946      1.0  0.34098  0.58488  0.81104  1.0000
  H   H947      1.0  0.47069  0.57127  0.76445  1.0000
  C   C569      1.0  0.48117  0.62469  0.73597  1.0000
  H   H948      1.0  0.44598  0.68574  0.79794  1.0000
  H   H949      1.0  0.46195  0.77314  0.90399  1.0000
  C   C570      1.0  0.49909  0.58986  0.80157  1.0000
  H   H950      1.0  0.45303  0.58323  0.80276  1.0000
  H   H951      1.0  0.41861  0.66532  0.77651  1.0000
  H   H952      1.0  0.49399  0.92985  0.56740  1.0000
  H   H953      1.0  0.64019  0.73474  0.70669  1.0000
  H   H954      1.0  0.51996  0.63581  0.76822  1.0000
  H   H955      1.0  0.45089  0.67551  0.75309  1.0000
  H   H956      1.0  0.43802  0.77117  0.86612  1.0000
  H   H957      1.0  0.44640  0.58363  0.70598  1.0000
  H   H958      1.0  0.49530  0.77268  0.77003  1.0000
  H   H959      1.0  0.45000  0.71905  0.85877  1.0000
  H   H960      1.0  0.41411  0.60908  0.76945  1.0000
  C   C571      1.0  0.52495  0.74494  0.90653  1.0000
  H   H961      1.0  0.37108  0.59333  0.01082  1.0000
  H   H962      1.0  0.55128  0.95618  0.81157  1.0000
  H   H963      1.0  0.46991  0.63611  0.71421  1.0000
  C   C572      1.0  0.43211  0.90454  0.54394  1.0000
  H   H964      1.0  0.43049  0.75090  0.90420  1.0000
  H   H965      1.0  0.53756  0.72500  0.90238  1.0000
  C   C573      1.0  0.50569  0.76271  0.79331  1.0000
  C   C574      1.0  0.43077  0.61164  0.74880  1.0000
  H   H966      1.0  0.43513  0.99291  0.63526  1.0000
  H   H967      1.0  0.52913  0.71428  0.83480  1.0000
  C   C575      1.0  0.51359  0.75721  0.87178  1.0000
  C   C576      1.0  0.46549  0.73258  0.87396  1.0000
  H   H968      1.0  0.49004  0.60492  0.72370  1.0000
  H   H969      1.0  0.50455  0.77893  0.87712  1.0000
  H   H970      1.0  0.46452  0.74380  0.80647  1.0000
  H   H971      1.0  0.52226  0.64493  0.72323  1.0000
  H   H972      1.0  0.51056  0.92400  0.77877  1.0000
  H   H973      1.0  0.65451  0.52522  0.80109  1.0000
  H   H974      1.0  0.51656  0.66690  0.85277  1.0000
  C   C577      1.0  0.34416  0.80049  0.79071  1.0000
  H   H975      1.0  0.49721  0.95077  0.52890  1.0000
  H   H976      1.0  0.49832  0.84668  0.75933  1.0000
  H   H977      1.0  0.46436  0.97416  0.56922  1.0000
  H   H978      1.0  0.48004  0.67617  0.86304  1.0000
  H   H979      1.0  0.49812  0.52398  0.63964  1.0000
  C   C578      1.0  0.48193  0.91282  0.84647  1.0000
  H   H980      1.0  0.50049  0.66639  0.75126  1.0000
  H   H981      1.0  0.53314  0.76113  0.85570  1.0000
  C   C579      1.0  0.35438  0.56651  0.80502  1.0000
  H   H982      1.0  0.47031  0.89646  0.86244  1.0000
  H   H983      1.0  0.54321  0.91004  0.79569  1.0000
  C   C580      1.0  0.44242  0.66826  0.77864  1.0000
  H   H984      1.0  0.50743  0.74126  0.92566  1.0000
  H   H985      1.0  0.51246  0.93338  0.66356  1.0000
  H   H986      1.0  0.63737  0.59114  0.53314  1.0000
  H   H987      1.0  0.50953  0.68817  0.89054  1.0000
  C   C581      1.0  0.49111  0.87703  0.80164  1.0000
  C   C582      1.0  0.44844  0.75880  0.88753  1.0000
  H   H988      1.0  0.54010  0.76078  0.91845  1.0000
  C   C583      1.0  0.51145  0.85833  0.77918  1.0000
  H   H989      1.0  0.46690  0.50811  0.55610  1.0000
  C   C584      1.0  0.45879  0.92916  0.82496  1.0000
  S   S174      1.0  0.64970  0.84457  0.87145  1.0000
  H   H990      1.0  0.44424  0.63258  0.81427  1.0000
  C   C585      1.0  0.48791  0.97635  0.57493  1.0000
  C   C586      1.0  0.50245  0.95046  0.55722  1.0000
  H   H991      1.0  0.48189  0.91156  0.65318  1.0000
  H   H992      1.0  0.52271  0.84167  0.79495  1.0000
  H   H993      1.0  0.53612  0.96013  0.61564  1.0000
  H   H994      1.0  0.47027  0.96310  0.65909  1.0000
  C   C587      1.0  0.34818  0.67539  0.00609  1.0000
  H   H995      1.0  0.45558  0.51550  0.61003  1.0000
  H   H996      1.0  0.49067  0.92819  0.86587  1.0000
  S   S175      1.0  0.33722  0.92042  0.69873  1.0000
  C   C588      1.0  0.37588  0.92421  0.53261  1.0000
  H   H997      1.0  0.65595  0.66591  0.81540  1.0000
  C   C589      1.0  0.61555  0.58274  0.53407  1.0000
  H   H998      1.0  0.52871  0.95078  0.84827  1.0000
  C   C590      1.0  0.47531  0.50793  0.72896  1.0000
  C   C591      1.0  0.47832  0.95536  0.63346  1.0000
  H   H999      1.0  0.65537  0.66685  0.71946  1.0000
  H   H1000     1.0  0.53748  0.55282  0.53702  1.0000
  H   H1001     1.0  0.62973  0.70427  0.73382  1.0000
  C   C592      1.0  0.45775  0.98875  0.72857  1.0000
  H   H1002     1.0  0.35663  0.83682  0.56578  1.0000
  C   C593      1.0  0.66410  0.69766  0.65963  1.0000
  H   H1003     1.0  0.65820  0.71578  0.64203  1.0000
  H   H1004     1.0  0.40228  0.50017  0.78314  1.0000
  H   H1005     1.0  0.38039  0.85469  0.53644  1.0000
  H   H1006     1.0  0.44704  0.49824  0.64956  1.0000
  H   H1007     1.0  0.35403  0.93178  0.52814  1.0000
  H   H1008     1.0  0.54729  0.49583  0.71870  1.0000
  H   H1009     1.0  0.66295  0.95900  0.80445  1.0000
  S   S176      1.0  0.33802  0.63915  0.89054  1.0000
  H   H1010     1.0  0.40480  0.57606  0.02386  1.0000
  H   H1011     1.0  0.40411  0.50995  0.61362  1.0000
  Fe  Fe90      1.0  0.70652  0.36979  0.22773  1.0000
  C   C594      1.0  0.73577  0.26667  0.13026  1.0000
  S   S177      1.0  0.74850  0.39487  0.23642  1.0000
  H   H1012     1.0  0.74788  0.35345  0.29392  1.0000
  H   H1013     1.0  0.69161  0.47174  0.13888  1.0000
  C   C595      1.0  0.88537  0.08378  0.03154  1.0000
  S   S178      1.0  0.70335  0.33626  0.18550  1.0000
  Fe  Fe91      1.0  0.95036  0.37427  0.35462  1.0000
  S   S179      1.0  0.91621  0.39381  0.31977  1.0000
  H   H1014     1.0  0.68040  0.19197  0.17215  1.0000
  Fe  Fe92      1.0  0.92730  0.40447  0.42113  1.0000
  S   S180      1.0  0.89186  0.42674  0.39103  1.0000
  S   S181      1.0  0.94063  0.41581  0.47718  1.0000
  Fe  Fe93      1.0  0.88521  0.38449  0.36338  1.0000
  S   S182      1.0  0.84056  0.36447  0.35579  1.0000
  Fe  Fe94      1.0  0.92545  0.43420  0.34991  1.0000
  H   H1015     1.0  0.71518  0.43854  0.20261  1.0000
  S   S183      1.0  0.91861  0.36129  0.39642  1.0000
  S   S184      1.0  0.96158  0.41539  0.38166  1.0000
  Fe  Fe95      1.0  0.80240  0.14631  0.16532  1.0000
  S   S185      1.0  0.84015  0.17022  0.18838  1.0000
  S   S186      1.0  0.78497  0.14714  0.10948  1.0000
  Fe  Fe96      1.0  0.78451  0.12111  0.23677  1.0000
  S   S187      1.0  0.82101  0.14292  0.26558  1.0000
  S   S188      1.0  0.75205  0.09059  0.26140  1.0000
  Fe  Fe97      1.0  0.80959  0.18101  0.23197  1.0000
  S   S189      1.0  0.80699  0.22668  0.25114  1.0000
  Fe  Fe98      1.0  0.84875  0.13022  0.22010  1.0000
  S   S190      1.0  0.89257  0.10805  0.22335  1.0000
  S   S191      1.0  0.77114  0.16011  0.20663  1.0000
  S   S192      1.0  0.81310  0.10515  0.19351  1.0000
  C   C596      1.0  0.80442  0.15807  0.07209  1.0000
  C   C597      1.0  0.82935  0.17499  0.07470  1.0000
  H   H1016     1.0  0.77551  0.13604  0.03670  1.0000
  C   C598      1.0  0.75894  0.22328  0.15583  1.0000
  H   H1017     1.0  0.83669  0.18239  0.10000  1.0000
  H   H1018     1.0  0.68959  0.15108  0.38830  1.0000
  C   C599      1.0  0.80868  0.02956  0.23613  1.0000
  H   H1019     1.0  0.73508  0.19618  0.10027  1.0000
  H   H1020     1.0  0.75904  0.21531  0.04936  1.0000
  C   C600      1.0  0.71696  0.13340  0.28846  1.0000
  C   C601      1.0  0.72007  0.10416  0.28076  1.0000
  C   C602      1.0  0.69753  0.08511  0.28935  1.0000
  C   C603      1.0  0.97296  0.48319  0.50657  1.0000
  H   H1021     1.0  0.76429  0.20058  0.14924  1.0000
  H   H1022     1.0  0.73423  0.14822  0.28226  1.0000
  S   S193      1.0  0.66768  0.39387  0.20750  1.0000
  H   H1023     1.0  0.94577  0.02408  0.32541  1.0000
  C   C604      1.0  0.96373  0.12875  0.30448  1.0000
  C   C605      1.0  0.93910  0.14640  0.30158  1.0000
  C   C606      1.0  0.91698  0.14017  0.27720  1.0000
  C   C607      1.0  0.91955  0.11648  0.25496  1.0000
  C   C608      1.0  0.94421  0.09886  0.25774  1.0000
  C   C609      1.0  0.96605  0.10476  0.28260  1.0000
  H   H1024     1.0  0.93712  0.16499  0.31837  1.0000
  H   H1025     1.0  0.89813  0.15390  0.27539  1.0000
  H   H1026     1.0  0.94641  0.08044  0.24074  1.0000
  H   H1027     1.0  0.82554  0.48198  0.27289  1.0000
  H   H1028     1.0  0.79630  0.49341  0.32604  1.0000
  H   H1029     1.0  0.68982  0.16600  0.31121  1.0000
  H   H1030     1.0  0.76216  0.45266  0.20671  1.0000
  H   H1031     1.0  0.88076  0.39702  0.48791  1.0000
  C   C610      1.0  0.78757  0.24048  0.15619  1.0000
  H   H1032     1.0  0.69025  0.43410  0.14781  1.0000
  H   H1033     1.0  0.80084  0.00723  0.23981  1.0000
  C   C611      1.0  0.84484  0.18234  0.04442  1.0000
  H   H1034     1.0  0.78911  0.04338  0.23436  1.0000
  H   H1035     1.0  0.83533  0.45798  0.32483  1.0000
  H   H1036     1.0  0.90193  0.13437  0.15243  1.0000
  H   H1037     1.0  0.68752  0.23164  0.13238  1.0000
  C   C612      1.0  0.71317  0.25609  0.24352  1.0000
  C   C613      1.0  0.73563  0.27626  0.24170  1.0000
  C   C614      1.0  0.76448  0.26741  0.24578  1.0000
  C   C615      1.0  0.77091  0.23839  0.25177  1.0000
  C   C616      1.0  0.74837  0.21855  0.25553  1.0000
  C   C617      1.0  0.71956  0.22731  0.25106  1.0000
  H   H1038     1.0  0.73087  0.29863  0.23664  1.0000
  H   H1039     1.0  0.78181  0.28291  0.24320  1.0000
  H   H1040     1.0  0.75316  0.19637  0.26159  1.0000
  H   H1041     1.0  0.70236  0.21162  0.25294  1.0000
  C   C618      1.0  0.77398  0.38609  0.26962  1.0000
  C   C619      1.0  0.80054  0.40093  0.27110  1.0000
  C   C620      1.0  0.82120  0.39462  0.29729  1.0000
  C   C621      1.0  0.81528  0.37365  0.32252  1.0000
  C   C622      1.0  0.78869  0.35897  0.32108  1.0000
  C   C623      1.0  0.76822  0.36499  0.29467  1.0000
  H   H1042     1.0  0.80523  0.41721  0.25175  1.0000
  H   H1043     1.0  0.84167  0.40590  0.29795  1.0000
  H   H1044     1.0  0.78384  0.34279  0.34054  1.0000
  H   H1045     1.0  0.75249  0.45958  0.26433  1.0000
  H   H1046     1.0  0.89888  0.13375  0.07173  1.0000
  H   H1047     1.0  0.76157  0.47117  0.16649  1.0000
  C   C624      1.0  0.70723  0.45915  0.19136  1.0000
  H   H1048     1.0  0.68536  0.46178  0.20283  1.0000
  C   C625      1.0  0.83101  0.46992  0.34929  1.0000
  H   H1049     1.0  0.88358  0.05293  0.07365  1.0000
  H   H1050     1.0  0.92876  0.09065  0.14925  1.0000
  H   H1051     1.0  0.76339  0.25008  0.06852  1.0000
  H   H1052     1.0  0.83966  0.28945  0.37419  1.0000
  H   H1053     1.0  0.87401  0.09411  0.15305  1.0000
  N   N42       1.0  0.73454  0.23427  0.13288  1.0000
  H   H1054     1.0  0.71531  0.44742  0.26160  1.0000
  H   H1055     1.0  0.88897  0.07082  0.33266  1.0000
  H   H1056     1.0  0.73588  0.27627  0.15699  1.0000
  H   H1057     1.0  0.81109  0.08746  0.07191  1.0000
  H   H1058     1.0  0.86421  0.19534  0.04664  1.0000
  H   H1059     1.0  0.84417  0.25391  0.35609  1.0000
  H   H1060     1.0  0.83692  0.06024  0.08052  1.0000
  C   C626      1.0  0.66875  0.13189  0.47912  1.0000
  H   H1061     1.0  0.68410  0.10901  0.41589  1.0000
  C   C627      1.0  0.87515  0.02823  0.24319  1.0000
  H   H1062     1.0  0.68996  0.27912  0.12361  1.0000
  H   H1063     1.0  0.71548  0.22539  0.08217  1.0000
  H   H1064     1.0  0.80316  0.48512  0.20185  1.0000
  H   H1065     1.0  0.75612  0.27410  0.11796  1.0000
  H   H1066     1.0  0.80428  0.22782  0.17045  1.0000
  H   H1067     1.0  0.91379  0.01358  0.27308  1.0000
  N   N43       1.0  0.72709  0.48359  0.20147  1.0000
  C   C628      1.0  0.70342  0.45388  0.15183  1.0000
  H   H1068     1.0  0.66848  0.15415  0.48992  1.0000
  C   C629      1.0  0.99133  0.01691  0.31768  1.0000
  H   H1069     1.0  0.98291  0.44556  0.32135  1.0000
  H   H1070     1.0  0.86797  0.08083  0.29519  1.0000
  H   H1071     1.0  0.79616  0.24512  0.12994  1.0000
  H   H1072     1.0  0.80912  0.26998  0.35796  1.0000
  H   H1073     1.0  0.99198  0.00641  0.44756  1.0000
  H   H1074     1.0  0.98488  0.09101  0.28451  1.0000
  H   H1075     1.0  0.95199  0.00605  0.40265  1.0000
  H   H1076     1.0  0.78183  0.21867  0.08648  1.0000
  S   S194      1.0  0.92973  0.47789  0.32516  1.0000
  H   H1077     1.0  0.87784  0.05145  0.23726  1.0000
  H   H1078     1.0  0.72439  0.45024  0.13868  1.0000
  H   H1079     1.0  0.95213  0.47668  0.49462  1.0000
  N   N44       1.0  0.88259  0.09550  0.09746  1.0000
  C   C630      1.0  0.90202  0.12161  0.09655  1.0000
  C   C631      1.0  0.89249  0.07491  0.06951  1.0000
  C   C632      1.0  0.88398  0.08061  0.13238  1.0000
  C   C633      1.0  0.85189  0.10508  0.09121  1.0000
  C   C634      1.0  0.91918  0.41075  0.51515  1.0000
  S   S195      1.0  0.68016  0.34524  0.26686  1.0000
  H   H1080     1.0  0.92525  0.11525  0.09674  1.0000
  C   C635      1.0  0.82874  0.08108  0.09019  1.0000
  C   C636      1.0  0.75783  0.47417  0.19492  1.0000
  C   C637      1.0  0.70614  0.22650  0.14986  1.0000
  H   H1081     1.0  0.69187  0.12713  0.47342  1.0000
  H   H1082     1.0  0.91639  0.07191  0.07083  1.0000
  H   H1083     1.0  0.99677  0.03941  0.31983  1.0000
  H   H1084     1.0  0.87072  0.06061  0.13205  1.0000
  H   H1085     1.0  0.84483  0.11993  0.11224  1.0000
  H   H1086     1.0  0.84994  0.11826  0.06704  1.0000
  C   C638      1.0  0.86827  0.03418  0.30739  1.0000
  C   C639      1.0  0.72241  0.49071  0.23940  1.0000
  H   H1087     1.0  0.85152  0.47230  0.36390  1.0000
  H   H1088     1.0  0.78503  0.26099  0.17071  1.0000
  H   H1089     1.0  0.90280  0.06350  0.29038  1.0000
  H   H1090     1.0  0.88463  0.01887  0.31791  1.0000
  C   C640      1.0  0.79480  0.14915  0.03892  1.0000
  H   H1091     1.0  0.91386  0.16135  0.12285  1.0000
  N   N45       1.0  0.85516  0.02349  0.27360  1.0000
  H   H1092     1.0  0.81930  0.07773  0.11651  1.0000
  H   H1093     1.0  0.67889  0.10476  0.52409  1.0000
  C   C641      1.0  0.98821  0.46800  0.32476  1.0000
  H   H1094     1.0  0.69977  0.06246  0.28351  1.0000
  H   H1095     1.0  0.83235  0.06312  0.26178  1.0000
  H   H1096     1.0  0.81990  0.03161  0.21077  1.0000
  H   H1097     1.0  0.92494  0.05653  0.12667  1.0000
  C   C642      1.0  0.73526  0.22002  0.09753  1.0000
  C   C643      1.0  0.76156  0.22684  0.07457  1.0000
  H   H1098     1.0  0.75228  0.22295  0.18367  1.0000
  N   N46       1.0  0.86603  0.29195  0.30275  1.0000
  C   C644      1.0  0.86663  0.31840  0.27974  1.0000
  C   C645      1.0  0.88736  0.29671  0.33220  1.0000
  C   C646      1.0  0.83569  0.28856  0.31699  1.0000
  C   C647      1.0  0.87418  0.26648  0.28052  1.0000
  C   C648      1.0  0.84265  0.32046  0.25147  1.0000
  C   C649      1.0  0.91901  0.30236  0.32154  1.0000
  C   C650      1.0  0.83240  0.27446  0.35330  1.0000
  C   C651      1.0  0.87669  0.23731  0.29930  1.0000
  H   H1099     1.0  0.86514  0.33828  0.29583  1.0000
  H   H1100     1.0  0.88755  0.32009  0.26562  1.0000
  H   H1101     1.0  0.88802  0.27814  0.35039  1.0000
  H   H1102     1.0  0.88043  0.31536  0.34840  1.0000
  H   H1103     1.0  0.82519  0.30991  0.32011  1.0000
  H   H1104     1.0  0.82165  0.27653  0.29829  1.0000
  H   H1105     1.0  0.85808  0.26319  0.25925  1.0000
  H   H1106     1.0  0.89508  0.27043  0.26708  1.0000
  H   H1107     1.0  0.84571  0.34071  0.23651  1.0000
  H   H1108     1.0  0.84361  0.30252  0.23251  1.0000
  H   H1109     1.0  0.82064  0.32164  0.26280  1.0000
  H   H1110     1.0  0.93246  0.30413  0.34561  1.0000
  H   H1111     1.0  0.92824  0.28451  0.30605  1.0000
  H   H1112     1.0  0.92155  0.32308  0.30749  1.0000
  H   H1113     1.0  0.71792  0.18785  0.18082  1.0000
  H   H1114     1.0  0.89310  0.23754  0.32049  1.0000
  H   H1115     1.0  0.88368  0.22080  0.28015  1.0000
  H   H1116     1.0  0.85545  0.23006  0.30926  1.0000
  H   H1117     1.0  0.70291  0.23955  0.17385  1.0000
  C   C652      1.0  0.70221  0.19464  0.16050  1.0000
  H   H1118     1.0  0.68623  0.18726  0.40257  1.0000
  H   H1119     1.0  0.97941  0.48556  0.39631  1.0000
  C   C653      1.0  0.88264  0.06409  0.30586  1.0000
  C   C654      1.0  0.96613  0.48851  0.32572  1.0000
  C   C655      1.0  0.89792  0.14367  0.12620  1.0000
  Fe  Fe99      1.0  0.67406  0.31354  0.22324  1.0000
  H   H1120     1.0  0.87625  0.15374  0.12535  1.0000
  C   C656      1.0  0.68513  0.16455  0.41160  1.0000
  S   S196      1.0  0.67735  0.26613  0.23403  1.0000
  C   C657      1.0  0.82755  0.04003  0.26698  1.0000
  C   C658      1.0  0.91451  0.07178  0.14490  1.0000
  S   S197      1.0  0.99141  0.13804  0.33484  1.0000
  H   H1121     1.0  0.81355  0.04023  0.29056  1.0000
  H   H1122     1.0  0.92131  0.02734  0.23134  1.0000
  H   H1123     1.0  0.96921  0.46128  0.42956  1.0000
  C   C659      1.0  0.69172  0.14341  0.30493  1.0000
  H   H1124     1.0  0.70886  0.27309  0.08270  1.0000
  C   C660      1.0  0.71089  0.28121  0.10980  1.0000
  C   C661      1.0  0.66910  0.12441  0.31323  1.0000
  H   H1125     1.0  0.71532  0.30467  0.10795  1.0000
  H   H1126     1.0  0.72566  0.47428  0.29247  1.0000
  C   C662      1.0  0.89040  0.40158  0.51312  1.0000
  H   H1127     1.0  0.91264  0.06069  0.17052  1.0000
  H   H1128     1.0  0.81665  0.45597  0.36522  1.0000
  C   C663      1.0  0.96234  0.00826  0.32012  1.0000
  C   C664      1.0  0.90539  0.01425  0.24609  1.0000
  C   C665      1.0  0.72953  0.46640  0.26553  1.0000
  H   H1129     1.0  0.92757  0.48623  0.40884  1.0000
  H   H1130     1.0  0.86147  0.48308  0.25546  1.0000
  S   S198      1.0  0.98502  0.34342  0.33521  1.0000
  H   H1131     1.0  0.86552  0.01941  0.21881  1.0000
  H   H1132     1.0  0.85158  0.03532  0.32820  1.0000
  H   H1133     1.0  0.70338  0.17981  0.13793  1.0000
  H   H1134     1.0  0.70235  0.16148  0.43151  1.0000
  C   C666      1.0  0.97289  0.48451  0.42418  1.0000
  H   H1135     1.0  0.94380  0.49099  0.23815  1.0000
  H   H1136     1.0  0.67360  0.07208  0.45897  1.0000
  C   C667      1.0  0.67204  0.09520  0.30528  1.0000
  C   C668      1.0  0.78178  0.49472  0.20799  1.0000
  Fe  Fe100     1.0  0.86461  0.19518  0.84492  1.0000
  S   S199      1.0  0.84205  0.15951  0.81592  1.0000
  S   S200      1.0  0.88968  0.22928  0.81508  1.0000
  Fe  Fe101     1.0  0.84829  0.17071  0.91717  1.0000
  S   S201      1.0  0.82397  0.13333  0.89386  1.0000
  S   S202      1.0  0.85622  0.18252  0.97429  1.0000
  Fe  Fe102     1.0  0.86101  0.12948  0.85598  1.0000
  S   S203      1.0  0.88530  0.08788  0.84413  1.0000
  Fe  Fe103     1.0  0.80709  0.16612  0.85545  1.0000
  S   S204      1.0  0.76041  0.16796  0.83850  1.0000
  S   S205      1.0  0.88677  0.16473  0.88205  1.0000
  S   S206      1.0  0.82826  0.20385  0.88184  1.0000
  Fe  Fe104     1.0  0.87518  0.40843  0.67163  1.0000
  S   S207      1.0  0.89847  0.37782  0.70780  1.0000
  S   S208      1.0  0.86424  0.39912  0.61458  1.0000
  Fe  Fe105     1.0  0.86081  0.45067  0.73138  1.0000
  S   S209      1.0  0.88312  0.42365  0.77196  1.0000
  C   C669      1.0  0.95955  0.10891  0.86577  1.0000
  Fe  Fe106     1.0  0.91733  0.41811  0.73122  1.0000
  S   S210      1.0  0.96447  0.41948  0.74592  1.0000
  Fe  Fe107     1.0  0.86245  0.38552  0.74574  1.0000
  S   S211      1.0  0.83801  0.35262  0.77816  1.0000
  S   S212      1.0  0.89684  0.44824  0.69226  1.0000
  S   S213      1.0  0.83726  0.41291  0.70798  1.0000
  C   C670      1.0  0.78561  0.44145  0.78359  1.0000
  S   S214      1.0  0.72119  0.29770  0.83096  1.0000
  C   C671      1.0  0.80544  0.25034  0.98747  1.0000
  C   C672      1.0  0.80991  0.43790  0.81112  1.0000
  H   H1137     1.0  0.79543  0.25965  0.01116  1.0000
  H   H1138     1.0  0.97038  0.05329  0.62367  1.0000
  H   H1139     1.0  0.96168  0.01991  0.73850  1.0000
  H   H1140     1.0  0.89582  0.06840  0.01335  1.0000
  C   C673      1.0  0.74933  0.20369  0.83219  1.0000
  C   C674      1.0  0.76979  0.22559  0.82806  1.0000
  C   C675      1.0  0.76096  0.25443  0.82693  1.0000
  C   C676      1.0  0.73159  0.26142  0.82908  1.0000
  C   C677      1.0  0.71102  0.23941  0.83089  1.0000
  C   C678      1.0  0.71986  0.21057  0.83272  1.0000
  H   H1141     1.0  0.79248  0.22036  0.82609  1.0000
  H   H1142     1.0  0.77693  0.27138  0.82528  1.0000
  H   H1143     1.0  0.68828  0.24453  0.83099  1.0000
  H   H1144     1.0  0.70386  0.19369  0.83522  1.0000
  C   C679      1.0  0.87310  0.06009  0.81577  1.0000
  C   C680      1.0  0.84719  0.06234  0.79688  1.0000
  C   C681      1.0  0.83840  0.03985  0.77449  1.0000
  H   H1145     1.0  0.99364  0.09754  0.75044  1.0000
  C   C682      1.0  0.88149  0.01287  0.78917  1.0000
  C   C683      1.0  0.89007  0.03517  0.81192  1.0000
  H   H1146     1.0  0.83393  0.08136  0.79958  1.0000
  H   H1147     1.0  0.81827  0.04168  0.76012  1.0000
  H   H1148     1.0  0.70978  0.40555  0.84901  1.0000
  H   H1149     1.0  0.90985  0.03288  0.82687  1.0000
  C   C684      1.0  0.87571  0.26411  0.80685  1.0000
  C   C685      1.0  0.89150  0.28312  0.78564  1.0000
  C   C686      1.0  0.88050  0.31053  0.77717  1.0000
  C   C687      1.0  0.85366  0.31923  0.79010  1.0000
  C   C688      1.0  0.83808  0.30043  0.81179  1.0000
  C   C689      1.0  0.84898  0.27294  0.82004  1.0000
  H   H1150     1.0  0.91216  0.27642  0.77529  1.0000
  H   H1151     1.0  0.89264  0.32477  0.76038  1.0000
  H   H1152     1.0  0.81737  0.30708  0.82202  1.0000
  H   H1153     1.0  0.83666  0.25856  0.83645  1.0000
  C   C690      1.0  0.94937  0.12450  0.78946  1.0000
  C   C691      1.0  0.93647  0.49020  0.59435  1.0000
  H   H1154     1.0  0.80321  0.14881  0.98333  1.0000
  C   C692      1.0  0.85552  0.01505  0.77043  1.0000
  C   C693      1.0  0.91486  0.41323  0.57897  1.0000
  C   C694      1.0  0.88605  0.40402  0.57689  1.0000
  C   C695      1.0  0.77271  0.39062  0.78428  1.0000
  H   H1155     1.0  0.92450  0.41743  0.60424  1.0000
  H   H1156     1.0  0.74377  0.14349  0.76101  1.0000
  C   C696      1.0  0.97158  0.47491  0.65986  1.0000
  C   C697      1.0  0.74408  0.26293  0.97460  1.0000
  H   H1157     1.0  0.98414  0.01533  0.66928  1.0000
  H   H1158     1.0  0.95366  0.42320  0.55017  1.0000
  H   H1159     1.0  0.80156  0.43755  0.83816  1.0000
  H   H1160     1.0  0.98295  0.48731  0.58799  1.0000
  C   C698      1.0  0.95019  0.99624  0.61715  1.0000
  H   H1161     1.0  0.82513  0.23866  0.99645  1.0000
  H   H1162     1.0  0.94907  0.33535  0.73182  1.0000
  C   C699      1.0  0.98025  0.34244  0.77335  1.0000
  H   H1163     1.0  0.78769  0.38644  0.80653  1.0000
  C   C700      1.0  0.73670  0.21599  0.94792  1.0000
  N   N47       1.0  0.76048  0.42068  0.78610  1.0000
  H   H1164     1.0  0.78586  0.38804  0.76014  1.0000
  C   C701      1.0  0.81043  0.15633  0.00865  1.0000
  C   C702      1.0  0.74519  0.42564  0.82033  1.0000
  H   H1165     1.0  0.98201  0.31653  0.72467  1.0000
  C   C703      1.0  0.71334  0.41539  0.82291  1.0000
  H   H1166     1.0  0.72291  0.41089  0.75329  1.0000
  H   H1167     1.0  0.93649  0.47814  0.56935  1.0000
  C   C704      1.0  0.70223  0.12989  0.78461  1.0000
  H   H1168     1.0  0.67697  0.06049  0.78991  1.0000
  H   H1169     1.0  0.75745  0.41533  0.84213  1.0000
  H   H1170     1.0  0.74488  0.44907  0.82650  1.0000
  H   H1171     1.0  0.81297  0.26763  0.96998  1.0000
  H   H1172     1.0  0.98004  0.42904  0.65967  1.0000
  H   H1173     1.0  0.70800  0.13524  0.81213  1.0000
  H   H1174     1.0  0.79600  0.44008  0.75745  1.0000
  H   H1175     1.0  0.71196  0.14984  0.73388  1.0000
  H   H1176     1.0  0.70653  0.39912  0.80360  1.0000
  H   H1177     1.0  0.69828  0.43399  0.82154  1.0000
  H   H1178     1.0  0.92139  0.13735  0.74648  1.0000
  C   C705      1.0  0.99286  0.04651  0.62943  1.0000
  H   H1179     1.0  0.96743  0.32683  0.78913  1.0000
  H   H1180     1.0  0.76717  0.11271  0.80027  1.0000
  C   C706      1.0  0.97640  0.45491  0.75220  1.0000
  H   H1181     1.0  0.85177  0.39104  0.54189  1.0000
  H   H1182     1.0  0.96964  0.11335  0.89160  1.0000
  H   H1183     1.0  0.72850  0.04936  0.74178  1.0000
  C   C707      1.0  0.97296  0.33694  0.73468  1.0000
  H   H1184     1.0  0.98003  0.47682  0.68689  1.0000
  H   H1185     1.0  0.97112  0.02919  0.81145  1.0000
  H   H1186     1.0  0.94469  0.01685  0.60424  1.0000
  C   C708      1.0  0.71627  0.27675  0.95965  1.0000
  C   C709      1.0  0.93131  0.41653  0.54825  1.0000
  H   H1187     1.0  0.70844  0.29335  0.97820  1.0000
  C   C710      1.0  0.75100  0.36549  0.78543  1.0000
  H   H1188     1.0  0.72012  0.28786  0.93444  1.0000
  H   H1189     1.0  0.74534  0.47247  0.74374  1.0000
  H   H1190     1.0  0.95027  0.08695  0.86707  1.0000
  H   H1191     1.0  0.68655  0.10008  0.72603  1.0000
  H   H1192     1.0  0.94017  0.07245  0.81144  1.0000
  S   S215      1.0  0.83498  0.49151  0.74148  1.0000
  H   H1193     1.0  0.69845  0.26094  0.95662  1.0000
  H   H1194     1.0  0.68947  0.04650  0.73748  1.0000
  H   H1195     1.0  0.74024  0.36398  0.81118  1.0000
  H   H1196     1.0  0.71928  0.17191  0.77081  1.0000
  H   H1197     1.0  0.77924  0.21283  0.98988  1.0000
  H   H1198     1.0  0.76221  0.09463  0.75891  1.0000
  C   C711      1.0  0.74877  0.18780  0.93237  1.0000
  H   H1199     1.0  0.73487  0.36617  0.76396  1.0000
  H   H1200     1.0  0.72699  0.06093  0.80041  1.0000
  H   H1201     1.0  0.77458  0.07492  0.79508  1.0000
  H   H1202     1.0  0.82312  0.41841  0.80614  1.0000
  C   C712      1.0  0.96184  0.07390  0.79918  1.0000
  H   H1203     1.0  0.75892  0.28098  0.98066  1.0000
  C   C713      1.0  0.78506  0.22871  0.96925  1.0000
  C   C714      1.0  0.76451  0.25175  0.91579  1.0000
  H   H1204     1.0  0.72753  0.09149  0.82687  1.0000
  H   H1205     1.0  0.68367  0.08380  0.84844  1.0000
  C   C715      1.0  0.78343  0.27899  0.91285  1.0000
  H   H1206     1.0  0.82497  0.45650  0.80914  1.0000
  H   H1207     1.0  0.95581  0.14735  0.79351  1.0000
  H   H1208     1.0  0.79842  0.21653  0.95017  1.0000
  H   H1209     1.0  0.77574  0.23516  0.90019  1.0000
  H   H1210     1.0  0.97756  0.44385  0.61677  1.0000
  H   H1211     1.0  0.76315  0.34502  0.78244  1.0000
  C   C716      1.0  0.75965  0.09261  0.78744  1.0000
  N   N48       1.0  0.75807  0.24048  0.95185  1.0000
  C   C717      1.0  0.72862  0.45660  0.75153  1.0000
  C   C718      1.0  0.87399  0.39823  0.54380  1.0000
  H   H1212     1.0  0.74426  0.25560  0.90061  1.0000
  H   H1213     1.0  0.80662  0.27315  0.91003  1.0000
  H   H1214     1.0  0.78092  0.29431  0.93458  1.0000
  H   H1215     1.0  0.77674  0.29128  0.88922  1.0000
  N   N49       1.0  0.78665  0.27159  0.72205  1.0000
  C   C719      1.0  0.75598  0.27419  0.73534  1.0000
  C   C720      1.0  0.80060  0.30067  0.72715  1.0000
  C   C721      1.0  0.80216  0.24976  0.74457  1.0000
  C   C722      1.0  0.78563  0.26215  0.68438  1.0000
  C   C723      1.0  0.73771  0.24633  0.73578  1.0000
  C   C724      1.0  0.78764  0.32558  0.70547  1.0000
  C   C725      1.0  0.83373  0.24280  0.73513  1.0000
  C   C726      1.0  0.81295  0.26779  0.66202  1.0000
  H   H1216     1.0  0.75578  0.28309  0.76235  1.0000
  H   H1217     1.0  0.74338  0.28975  0.71927  1.0000
  H   H1218     1.0  0.82413  0.30046  0.72203  1.0000
  H   H1219     1.0  0.79915  0.30714  0.75507  1.0000
  H   H1220     1.0  0.80214  0.25682  0.77231  1.0000
  H   H1221     1.0  0.79098  0.22861  0.74396  1.0000
  H   H1222     1.0  0.78081  0.23870  0.68279  1.0000
  H   H1223     1.0  0.76731  0.27291  0.67051  1.0000
  H   H1224     1.0  0.74501  0.23111  0.75633  1.0000
  H   H1225     1.0  0.71502  0.25195  0.74248  1.0000
  H   H1226     1.0  0.73715  0.23544  0.71007  1.0000
  H   H1227     1.0  0.76593  0.33186  0.71496  1.0000
  H   H1228     1.0  0.80175  0.34482  0.70855  1.0000
  H   H1229     1.0  0.78656  0.32069  0.67722  1.0000
  H   H1230     1.0  0.83520  0.23141  0.70981  1.0000
  H   H1231     1.0  0.84262  0.22779  0.75513  1.0000
  H   H1232     1.0  0.84799  0.26192  0.73543  1.0000
  H   H1233     1.0  0.81916  0.24769  0.64827  1.0000
  H   H1234     1.0  0.83232  0.27509  0.67650  1.0000
  H   H1235     1.0  0.80817  0.28383  0.64123  1.0000
  C   C727      1.0  0.98270  0.11222  0.83711  1.0000
  C   C728      1.0  0.67612  0.08440  0.79130  1.0000
  N   N50       1.0  0.70396  0.09776  0.77847  1.0000
  H   H1236     1.0  0.76324  0.17646  0.95105  1.0000
  H   H1237     1.0  0.92988  0.12147  0.80601  1.0000
  H   H1238     1.0  0.73053  0.17298  0.92638  1.0000
  C   C729      1.0  0.72064  0.14949  0.76098  1.0000
  H   H1239     1.0  0.92764  0.47478  0.61349  1.0000
  H   H1240     1.0  0.71812  0.22234  0.93089  1.0000
  H   H1241     1.0  0.88083  0.49284  0.79435  1.0000
  H   H1242     1.0  0.92870  0.09973  0.74696  1.0000
  H   H1243     1.0  0.72710  0.21018  0.97364  1.0000
  H   H1244     1.0  0.76050  0.19135  0.90769  1.0000
  H   H1245     1.0  0.97653  0.03133  0.56584  1.0000
  C   C730      1.0  0.70881  0.05922  0.73020  1.0000
  H   H1246     1.0  0.71082  0.05739  0.70139  1.0000
  H   H1247     1.0  0.71185  0.45683  0.73058  1.0000
  H   H1248     1.0  0.73860  0.25354  0.00052  1.0000
  H   H1249     1.0  0.94851  0.46951  0.66298  1.0000
  H   H1250     1.0  0.97966  0.35543  0.71825  1.0000
  H   H1251     1.0  0.93355  0.47315  0.75346  1.0000
  C   C731      1.0  0.74139  0.42599  0.75463  1.0000
  C   C732      1.0  0.72868  0.08482  0.79902  1.0000
  H   H1252     1.0  0.98962  0.13512  0.83825  1.0000
  C   C733      1.0  0.93861  0.12116  0.75147  1.0000
  H   H1253     1.0  0.75367  0.42179  0.73015  1.0000
  Fe  Fe108     1.0  0.67618  0.30280  0.85237  1.0000
  H   H1254     1.0  0.95591  0.12509  0.73213  1.0000
  H   H1255     1.0  0.67964  0.13770  0.78108  1.0000
  H   H1256     1.0  0.77817  0.46412  0.78601  1.0000
  C   C734      1.0  0.95653  0.47759  0.75332  1.0000
  H   H1257     1.0  0.95835  0.06703  0.77164  1.0000
  C   C735      1.0  0.83562  0.17287  0.01131  1.0000
  N   N51       1.0  0.97322  0.10429  0.80064  1.0000
  H   H1258     1.0  0.71797  0.46375  0.77585  1.0000
  H   H1259     1.0  0.72446  0.10228  0.72750  1.0000
  C   C736      1.0  0.70590  0.09131  0.73994  1.0000
  H   H1260     1.0  0.94175  0.12469  0.86244  1.0000
  C   C737      1.0  0.98575  0.44812  0.64355  1.0000
  H   H1261     1.0  0.98309  0.05320  0.84473  1.0000
  C   C738      1.0  0.98118  0.05058  0.81607  1.0000
  H   H1262     1.0  0.97090  0.36394  0.77898  1.0000
  S   S216      1.0  0.66532  0.33821  0.89014  1.0000
  H   H1263     1.0  0.97095  0.99976  0.53929  1.0000
  C   C739      1.0  0.98641  0.01110  0.55674  1.0000
  C   C740      1.0  0.97682  0.00217  0.73883  1.0000
  H   H1264     1.0  0.94014  0.99788  0.64351  1.0000
  H   H1265     1.0  0.66744  0.42467  0.75151  1.0000
  H   H1266     1.0  0.97745  0.37679  0.83401  1.0000
  H   H1267     1.0  0.97653  0.46852  0.52905  1.0000
  C   C741      1.0  0.99486  0.01552  0.64335  1.0000
  H   H1268     1.0  0.99568  0.15147  0.75811  1.0000
  C   C742      1.0  0.66750  0.09164  0.82919  1.0000
  H   H1269     1.0  0.86177  0.08288  0.02610  1.0000
  H   H1270     1.0  0.89365  0.10553  0.02506  1.0000
  Fe  Fe109     1.0  0.70160  0.85485  0.22237  1.0000
  C   C743      1.0  0.81805  0.88462  0.42487  1.0000
  S   S217      1.0  0.73834  0.88241  0.24481  1.0000
  H   H1271     1.0  0.75121  0.82768  0.28034  1.0000
  C   C744      1.0  0.84955  0.99166  0.27675  1.0000
  H   H1272     1.0  0.83621  0.88087  0.40679  1.0000
  S   S218      1.0  0.70945  0.81575  0.18985  1.0000
  Fe  Fe110     1.0  0.95146  0.86532  0.33594  1.0000
  S   S219      1.0  0.91367  0.88519  0.30740  1.0000
  H   H1273     1.0  0.82529  0.95897  0.30467  1.0000
  Fe  Fe111     1.0  0.92882  0.88409  0.40826  1.0000
  S   S220      1.0  0.88980  0.90603  0.38542  1.0000
  S   S221      1.0  0.94269  0.88063  0.46533  1.0000
  Fe  Fe112     1.0  0.88565  0.86748  0.35011  1.0000
  S   S222      1.0  0.84377  0.84212  0.34252  1.0000
  Fe  Fe113     1.0  0.92063  0.92190  0.34449  1.0000
  S   S223      1.0  0.91969  0.96783  0.32665  1.0000
  S   S224      1.0  0.92288  0.84415  0.37582  1.0000
  S   S225      1.0  0.96020  0.90335  0.37022  1.0000
  Fe  Fe114     1.0  0.81844  0.61364  0.16570  1.0000
  S   S226      1.0  0.84762  0.64150  0.19863  1.0000
  S   S227      1.0  0.82732  0.60027  0.10958  1.0000
  Fe  Fe115     1.0  0.77748  0.60052  0.22703  1.0000
  S   S228      1.0  0.80308  0.62760  0.26462  1.0000
  S   S229      1.0  0.73950  0.57197  0.24219  1.0000
  Fe  Fe116     1.0  0.80572  0.65868  0.21984  1.0000
  S   S230      1.0  0.80147  0.70626  0.22761  1.0000
  Fe  Fe117     1.0  0.84287  0.60822  0.24073  1.0000
  S   S231      1.0  0.87752  0.58821  0.27554  1.0000
  S   S232      1.0  0.77679  0.63340  0.18382  1.0000
  S   S233      1.0  0.81707  0.57847  0.20627  1.0000
  C   C745      1.0  0.82510  0.62344  0.07265  1.0000
  C   C746      1.0  0.81917  0.65285  0.07589  1.0000
  H   H1274     1.0  0.68392  0.94731  0.27901  1.0000
  H   H1275     1.0  0.97162  0.50538  0.51697  1.0000
  H   H1276     1.0  0.81589  0.66202  0.10150  1.0000
  C   C747      1.0  0.86685  0.84286  0.44838  1.0000
  H   H1277     1.0  0.87001  0.97997  0.28269  1.0000
  H   H1278     1.0  0.87762  0.79846  0.46887  1.0000
  C   C748      1.0  0.68814  0.62629  0.29786  1.0000
  C   C749      1.0  0.71111  0.61530  0.27790  1.0000
  C   C750      1.0  0.71074  0.58662  0.26694  1.0000
  C   C751      1.0  0.68710  0.56909  0.27598  1.0000
  H   H1279     1.0  0.75122  0.68286  0.07833  1.0000
  H   H1280     1.0  0.89816  0.57916  0.16813  1.0000
  H   H1281     1.0  0.72918  0.62902  0.27122  1.0000
  H   H1282     1.0  0.69791  0.68344  0.15448  1.0000
  H   H1283     1.0  0.76176  0.70327  0.04147  1.0000
  C   C752      1.0  0.96363  0.62925  0.30991  1.0000
  C   C753      1.0  0.94510  0.64412  0.28686  1.0000
  C   C754      1.0  0.91826  0.63224  0.27664  1.0000
  C   C755      1.0  0.90972  0.60543  0.28961  1.0000
  C   C756      1.0  0.92794  0.59089  0.31320  1.0000
  C   C757      1.0  0.95483  0.60263  0.32320  1.0000
  H   H1284     1.0  0.95173  0.66474  0.27649  1.0000
  H   H1285     1.0  0.90444  0.64358  0.25836  1.0000
  H   H1286     1.0  0.92128  0.57029  0.32357  1.0000
  H   H1287     1.0  0.96877  0.59108  0.34112  1.0000
  N   N52       1.0  0.95967  0.55250  0.21209  1.0000
  H   H1288     1.0  0.73302  0.76467  0.16130  1.0000
  H   H1289     1.0  0.80939  0.77947  0.42136  1.0000
  H   H1290     1.0  0.89086  0.91618  0.47424  1.0000
  C   C758      1.0  0.95509  0.97911  0.31746  1.0000
  H   H1291     1.0  0.79792  0.87573  0.41313  1.0000
  H   H1292     1.0  0.91605  0.59709  0.20313  1.0000
  Fe  Fe118     1.0  0.67208  0.79672  0.21894  1.0000
  H   H1293     1.0  0.95618  0.53354  0.32994  1.0000
  H   H1294     1.0  0.86651  0.84327  0.41930  1.0000
  H   H1295     1.0  0.84286  0.80931  0.50312  1.0000
  C   C759      1.0  0.81320  0.54168  0.30438  1.0000
  C   C760      1.0  0.70875  0.73776  0.23979  1.0000
  C   C761      1.0  0.73185  0.75714  0.24032  1.0000
  C   C762      1.0  0.76030  0.74719  0.23745  1.0000
  C   C763      1.0  0.76588  0.71771  0.23498  1.0000
  C   C764      1.0  0.74294  0.69805  0.23673  1.0000
  C   C765      1.0  0.71431  0.70811  0.23909  1.0000
  H   H1296     1.0  0.72786  0.77989  0.24289  1.0000
  H   H1297     1.0  0.77789  0.76249  0.23643  1.0000
  H   H1298     1.0  0.74716  0.67521  0.23529  1.0000
  H   H1299     1.0  0.69654  0.69294  0.23917  1.0000
  C   C766      1.0  0.76800  0.87015  0.27081  1.0000
  C   C767      1.0  0.79108  0.88912  0.27783  1.0000
  C   C768      1.0  0.81464  0.88068  0.29912  1.0000
  C   C769      1.0  0.81520  0.85323  0.31415  1.0000
  C   C770      1.0  0.79214  0.83423  0.30718  1.0000
  C   C771      1.0  0.76881  0.84251  0.28539  1.0000
  H   H1300     1.0  0.79070  0.91052  0.26671  1.0000
  H   H1301     1.0  0.83216  0.89555  0.30423  1.0000
  H   H1302     1.0  0.79221  0.81300  0.31876  1.0000
  S   S234      1.0  0.67309  0.75063  0.23732  1.0000
  C   C772      1.0  0.67460  0.92971  0.26301  1.0000
  H   H1303     1.0  0.81498  0.90825  0.42709  1.0000
  C   C773      1.0  0.83490  0.83157  0.49983  1.0000
  H   H1304     1.0  0.85842  0.56004  0.33962  1.0000
  C   C774      1.0  0.81737  0.82276  0.43994  1.0000
  N   N53       1.0  0.83635  0.84173  0.46241  1.0000
  C   C775      1.0  0.73657  0.70950  0.14364  1.0000
  H   H1305     1.0  0.92975  0.55290  0.25582  1.0000
  H   H1306     1.0  0.97108  0.93645  0.30702  1.0000
  H   H1307     1.0  0.75922  0.70145  0.14589  1.0000
  H   H1308     1.0  0.72874  0.66329  0.14269  1.0000
  H   H1309     1.0  0.79202  0.76498  0.12545  1.0000
  H   H1310     1.0  0.83487  0.75711  0.25056  1.0000
  N   N54       1.0  0.88895  0.76587  0.28647  1.0000
  C   C776      1.0  0.89712  0.73501  0.27921  1.0000
  C   C777      1.0  0.85826  0.76750  0.30005  1.0000
  C   C778      1.0  0.90836  0.77645  0.31566  1.0000
  C   C779      1.0  0.89342  0.78371  0.25409  1.0000
  C   C780      1.0  0.87652  0.71796  0.25527  1.0000
  C   C781      1.0  0.83382  0.77203  0.27293  1.0000
  C   C782      1.0  0.94122  0.77557  0.30871  1.0000
  C   C783      1.0  0.89032  0.81653  0.25908  1.0000
  H   H1311     1.0  0.91881  0.73380  0.26678  1.0000
  H   H1312     1.0  0.89892  0.72256  0.30406  1.0000
  H   H1313     1.0  0.85565  0.78547  0.31896  1.0000
  H   H1314     1.0  0.85295  0.74796  0.31566  1.0000
  H   H1315     1.0  0.90298  0.79899  0.32298  1.0000
  H   H1316     1.0  0.90449  0.76371  0.33990  1.0000
  H   H1317     1.0  0.91524  0.77980  0.24290  1.0000
  H   H1318     1.0  0.87888  0.77701  0.23239  1.0000
  H   H1319     1.0  0.87307  0.72864  0.22970  1.0000
  H   H1320     1.0  0.88614  0.69654  0.24982  1.0000
  H   H1321     1.0  0.85552  0.71378  0.26820  1.0000
  H   H1322     1.0  0.83361  0.79445  0.26295  1.0000
  C   C784      1.0  0.82596  0.79086  0.43733  1.0000
  H   H1323     1.0  0.81265  0.76842  0.28582  1.0000
  H   H1324     1.0  0.94741  0.78861  0.28569  1.0000
  H   H1325     1.0  0.94942  0.75329  0.30598  1.0000
  H   H1326     1.0  0.95273  0.78509  0.33150  1.0000
  H   H1327     1.0  0.91166  0.82653  0.26491  1.0000
  H   H1328     1.0  0.87519  0.82210  0.28035  1.0000
  H   H1329     1.0  0.88115  0.82642  0.23503  1.0000
  H   H1330     1.0  0.81390  0.69326  0.04871  1.0000
  S   S235      1.0  0.67081  0.87336  0.18216  1.0000
  C   C785      1.0  0.68253  0.74824  0.13488  1.0000
  Fe  Fe119     1.0  0.67583  0.83198  0.15199  1.0000
  H   H1331     1.0  0.90179  0.81266  0.43765  1.0000
  C   C786      1.0  0.79054  0.55853  0.32562  1.0000
  C   C787      1.0  0.69001  0.52241  0.18246  1.0000
  H   H1332     1.0  0.88203  0.54344  0.39141  1.0000
  H   H1333     1.0  0.91791  0.50893  0.20966  1.0000
  C   C788      1.0  0.72107  0.51019  0.18011  1.0000
  H   H1334     1.0  0.70887  0.68101  0.10933  1.0000
  H   H1335     1.0  0.87418  0.85410  0.51873  1.0000
  C   C789      1.0  0.82784  0.98275  0.30521  1.0000
  H   H1336     1.0  0.97087  0.53204  0.46769  1.0000
  C   C790      1.0  0.92367  0.89286  0.50256  1.0000
  H   H1337     1.0  0.99013  0.53984  0.42899  1.0000
  C   C791      1.0  0.85592  0.51100  0.30061  1.0000
  C   C792      1.0  0.71667  0.68331  0.13644  1.0000
  H   H1338     1.0  0.96279  0.97131  0.38815  1.0000
  H   H1339     1.0  0.87066  0.52858  0.29202  1.0000
  C   C793      1.0  0.88784  0.81861  0.45999  1.0000
  C   C794      1.0  0.89871  0.90971  0.49973  1.0000
  H   H1340     1.0  0.77856  0.54457  0.34405  1.0000
  H   H1341     1.0  0.68884  0.64842  0.30650  1.0000
  H   H1342     1.0  0.96106  0.53291  0.26312  1.0000
  H   H1343     1.0  0.68596  0.77050  0.14432  1.0000
  H   H1344     1.0  0.78392  0.74168  0.16228  1.0000
  H   H1345     1.0  0.73495  0.51012  0.24721  1.0000
  H   H1346     1.0  0.82568  0.55773  0.28897  1.0000
  H   H1347     1.0  0.93120  0.53884  0.16951  1.0000
  C   C795      1.0  0.81792  0.67049  0.04589  1.0000
  C   C796      1.0  0.82964  0.61196  0.03914  1.0000
  H   H1348     1.0  0.89762  0.56312  0.21037  1.0000
  H   H1349     1.0  0.68368  0.53179  0.15685  1.0000
  C   C797      1.0  0.82376  0.87176  0.46147  1.0000
  H   H1350     1.0  0.87755  0.86332  0.45631  1.0000
  H   H1351     1.0  0.68898  0.53961  0.20256  1.0000
  H   H1352     1.0  0.73550  0.52810  0.18836  1.0000
  H   H1353     1.0  0.69944  0.49671  0.24404  1.0000
  C   C798      1.0  0.94294  0.49924  0.42474  1.0000
  H   H1354     1.0  0.80280  0.87258  0.47575  1.0000
  H   H1355     1.0  0.80060  0.57682  0.33981  1.0000
  C   C799      1.0  0.84803  0.54108  0.35233  1.0000
  S   S236      1.0  0.98569  0.83899  0.30782  1.0000
  H   H1356     1.0  0.82665  0.77989  0.46299  1.0000
  H   H1357     1.0  0.83205  0.55003  0.37100  1.0000
  H   H1358     1.0  0.97935  0.59421  0.20230  1.0000
  H   H1359     1.0  0.97263  0.97196  0.48490  1.0000
  H   H1360     1.0  0.81195  0.83059  0.50861  1.0000
  H   H1361     1.0  0.97479  0.93506  0.49747  1.0000
  S   S237      1.0  0.68924  0.82552  0.09495  1.0000
  H   H1362     1.0  0.77440  0.56812  0.30741  1.0000
  C   C800      1.0  0.97145  0.58106  0.22468  1.0000
  H   H1363     1.0  0.69490  0.72254  0.09110  1.0000
  C   C801      1.0  0.93895  0.55874  0.18240  1.0000
  H   H1364     1.0  0.91141  0.50719  0.25473  1.0000
  C   C802      1.0  0.97664  0.95888  0.31024  1.0000
  C   C803      1.0  0.92895  0.50965  0.23528  1.0000
  C   C804      1.0  0.91136  0.57554  0.19211  1.0000
  H   H1365     1.0  0.80608  0.99216  0.30081  1.0000
  H   H1366     1.0  0.81702  0.83045  0.41240  1.0000
  C   C805      1.0  0.97316  0.51762  0.32914  1.0000
  H   H1367     1.0  0.83763  0.51274  0.24769  1.0000
  N   N55       1.0  0.73482  0.73444  0.11840  1.0000
  C   C806      1.0  0.74540  0.76122  0.13687  1.0000
  C   C807      1.0  0.70437  0.74062  0.10599  1.0000
  C   C808      1.0  0.75406  0.72953  0.08729  1.0000
  C   C809      1.0  0.77755  0.76150  0.14808  1.0000
  C   C810      1.0  0.74697  0.70331  0.06422  1.0000
  H   H1368     1.0  0.74157  0.78080  0.12055  1.0000
  H   H1369     1.0  0.90305  0.82657  0.48040  1.0000
  H   H1370     1.0  0.70433  0.75897  0.08715  1.0000
  H   H1371     1.0  0.75409  0.74896  0.07017  1.0000
  H   H1372     1.0  0.77690  0.72613  0.09568  1.0000
  H   H1373     1.0  0.78121  0.77984  0.16620  1.0000
  C   C811      1.0  0.94499  0.53810  0.24248  1.0000
  H   H1374     1.0  0.80065  0.52904  0.28484  1.0000
  H   H1375     1.0  0.83829  0.88726  0.47518  1.0000
  H   H1376     1.0  0.98043  0.93482  0.43496  1.0000
  H   H1377     1.0  0.93374  0.50094  0.45122  1.0000
  C   C812      1.0  0.96294  0.98586  0.41091  1.0000
  H   H1378     1.0  0.98987  0.56919  0.27626  1.0000
  H   H1379     1.0  0.83585  0.98845  0.33168  1.0000
  H   H1380     1.0  0.88870  0.51637  0.35994  1.0000
  H   H1381     1.0  0.94960  0.97614  0.43178  1.0000
  H   H1382     1.0  0.97267  0.51939  0.14705  1.0000
  H   H1383     1.0  0.84674  0.78829  0.42330  1.0000
  H   H1384     1.0  0.84205  0.98245  0.25145  1.0000
  C   C813      1.0  0.84412  0.49633  0.26734  1.0000
  C   C814      1.0  0.98735  0.95323  0.48626  1.0000
  H   H1385     1.0  0.95425  0.59409  0.23718  1.0000
  H   H1386     1.0  0.68668  0.54685  0.26790  1.0000
  H   H1387     1.0  0.72469  0.70372  0.05348  1.0000
  H   H1388     1.0  0.80672  0.50642  0.36753  1.0000
  H   H1389     1.0  0.94387  0.52087  0.41244  1.0000
  H   H1390     1.0  0.66901  0.69813  0.32640  1.0000
  H   H1391     1.0  0.73084  0.71697  0.17024  1.0000
  H   H1392     1.0  0.79452  0.82368  0.44907  1.0000
  H   H1393     1.0  0.95018  0.57100  0.16141  1.0000
  H   H1394     1.0  0.68342  0.73324  0.15736  1.0000
  H   H1395     1.0  0.78103  0.51594  0.19477  1.0000
  H   H1396     1.0  0.83432  0.58928  0.03635  1.0000
  S   S238      1.0  0.99779  0.64430  0.32076  1.0000
  H   H1397     1.0  0.67344  0.50606  0.18865  1.0000
  H   H1398     1.0  0.67482  0.90921  0.27787  1.0000
  H   H1399     1.0  0.72674  0.50708  0.15214  1.0000
  C   C815      1.0  0.98496  0.53473  0.19949  1.0000
  N   N56       1.0  0.83333  0.52248  0.32521  1.0000
  H   H1400     1.0  0.68931  0.92652  0.24048  1.0000
  C   C816      1.0  0.87132  0.52663  0.37528  1.0000
  H   H1401     1.0  0.86160  0.51116  0.39387  1.0000
  H   H1402     1.0  0.87040  0.49528  0.31367  1.0000
  C   C817      1.0  0.97852  0.51048  0.17308  1.0000
  H   H1403     1.0  0.78112  0.49773  0.23664  1.0000
  C   C818      1.0  0.81567  0.49891  0.34218  1.0000
  H   H1404     1.0  0.99656  0.52466  0.22202  1.0000
  C   C819      1.0  0.99391  0.99300  0.42360  1.0000
  C   C820      1.0  0.99174  0.52810  0.45434  1.0000
  H   H1405     1.0  0.90516  0.99194  0.23573  1.0000
  S   S239      1.0  0.66601  0.83487  0.25425  1.0000
  C   C821      1.0  0.66617  0.82388  0.05762  1.0000
  H   H1406     1.0  0.96151  0.49550  0.18187  1.0000
  N   N57       1.0  0.99649  0.49646  0.44776  1.0000
  C   C822      1.0  0.99651  0.57965  0.25159  1.0000
  Fe  Fe120     1.0  0.85618  0.69473  0.85097  1.0000
  S   S240      1.0  0.83741  0.65978  0.81704  1.0000
  S   S241      1.0  0.88554  0.72992  0.82917  1.0000
  Fe  Fe121     1.0  0.82907  0.66940  0.91874  1.0000
  S   S242      1.0  0.80799  0.63298  0.88945  1.0000
  S   S243      1.0  0.81967  0.68202  0.97538  1.0000
  Fe  Fe122     1.0  0.85002  0.62941  0.86022  1.0000
  S   S244      1.0  0.87353  0.58699  0.85172  1.0000
  Fe  Fe123     1.0  0.79728  0.66624  0.84885  1.0000
  S   S245      1.0  0.75232  0.66897  0.82626  1.0000
  S   S246      1.0  0.87218  0.66381  0.89237  1.0000
  S   S247      1.0  0.81514  0.70308  0.87980  1.0000
  Fe  Fe124     1.0  0.88326  0.91389  0.65852  1.0000
  S   S248      1.0  0.90617  0.87848  0.68799  1.0000
  S   S249      1.0  0.87267  0.91922  0.60038  1.0000
  Fe  Fe125     1.0  0.86937  0.94774  0.72619  1.0000
  S   S250      1.0  0.89096  0.91500  0.76096  1.0000
  C   C823      1.0  0.73188  0.77787  0.92249  1.0000
  Fe  Fe126     1.0  0.92537  0.91480  0.71959  1.0000
  S   S251      1.0  0.97287  0.91541  0.73340  1.0000
  Fe  Fe127     1.0  0.87012  0.88093  0.72736  1.0000
  S   S252      1.0  0.84324  0.84358  0.74915  1.0000
  S   S253      1.0  0.90538  0.94996  0.68713  1.0000
  S   S254      1.0  0.84559  0.91382  0.69553  1.0000
  H   H1407     1.0  0.77278  0.57427  0.79794  1.0000
  S   S255      1.0  0.71380  0.79910  0.83301  1.0000
  H   H1408     1.0  0.71118  0.72281  0.90882  1.0000
  C   C824      1.0  0.72205  0.69701  0.73272  1.0000
  H   H1409     1.0  0.91146  0.98002  0.59081  1.0000
  H   H1410     1.0  0.98966  0.88064  0.84240  1.0000
  H   H1411     1.0  0.95086  0.52352  0.75236  1.0000
  H   H1412     1.0  0.94339  0.96995  0.74086  1.0000
  C   C825      1.0  0.74137  0.70508  0.82604  1.0000
  C   C826      1.0  0.76179  0.72705  0.82242  1.0000
  C   C827      1.0  0.75313  0.75592  0.82370  1.0000
  C   C828      1.0  0.72394  0.76292  0.82830  1.0000
  C   C829      1.0  0.70337  0.74092  0.83063  1.0000
  C   C830      1.0  0.71210  0.71202  0.82961  1.0000
  H   H1413     1.0  0.78429  0.72179  0.81834  1.0000
  H   H1414     1.0  0.76916  0.77276  0.82138  1.0000
  C   C831      1.0  0.69374  0.64322  0.70679  1.0000
  H   H1415     1.0  0.69624  0.69509  0.83230  1.0000
  C   C832      1.0  0.86273  0.56092  0.82050  1.0000
  C   C833      1.0  0.84023  0.56610  0.79674  1.0000
  C   C834      1.0  0.83215  0.54474  0.77246  1.0000
  C   C835      1.0  0.84668  0.51818  0.77144  1.0000
  C   C836      1.0  0.86949  0.51319  0.79481  1.0000
  C   C837      1.0  0.87734  0.53441  0.81933  1.0000
  H   H1416     1.0  0.82904  0.58653  0.79718  1.0000
  H   H1417     1.0  0.81460  0.54882  0.75432  1.0000
  H   H1418     1.0  0.94669  0.60510  0.72844  1.0000
  H   H1419     1.0  0.89466  0.53013  0.83773  1.0000
  C   C838      1.0  0.87334  0.76164  0.80746  1.0000
  C   C839      1.0  0.89378  0.78187  0.79567  1.0000
  C   C840      1.0  0.88501  0.80711  0.77797  1.0000
  C   C841      1.0  0.85561  0.81238  0.77177  1.0000
  C   C842      1.0  0.83515  0.79222  0.78371  1.0000
  C   C843      1.0  0.84392  0.76704  0.80148  1.0000
  H   H1420     1.0  0.91657  0.77795  0.80019  1.0000
  H   H1421     1.0  0.90099  0.82240  0.76898  1.0000
  H   H1422     1.0  0.81237  0.79598  0.77900  1.0000
  H   H1423     1.0  0.82797  0.75174  0.81037  1.0000
  H   H1424     1.0  0.78828  0.78028  0.91750  1.0000
  H   H1425     1.0  0.92128  0.50857  0.59152  1.0000
  H   H1426     1.0  0.83169  0.62040  0.98356  1.0000
  H   H1427     1.0  0.86421  0.93077  0.52764  1.0000
  C   C844      1.0  0.91887  0.89346  0.56627  1.0000
  C   C845      1.0  0.89350  0.90968  0.56341  1.0000
  C   C846      1.0  0.67489  0.71932  0.74162  1.0000
  H   H1428     1.0  0.92661  0.88687  0.59177  1.0000
  H   H1429     1.0  0.77282  0.71770  0.93914  1.0000
  H   H1430     1.0  0.78006  0.82259  0.83112  1.0000
  H   H1431     1.0  0.91926  0.54105  0.68150  1.0000
  H   H1432     1.0  0.96190  0.64020  0.85324  1.0000
  H   H1433     1.0  0.70936  0.81901  0.92182  1.0000
  H   H1434     1.0  0.77974  0.79556  0.95878  1.0000
  C   C847      1.0  0.71676  0.58585  0.77722  1.0000
  H   H1435     1.0  0.69842  0.77409  0.98207  1.0000
  N   N58       1.0  0.76403  0.88679  0.78686  1.0000
  C   C848      1.0  0.74299  0.89971  0.81243  1.0000
  C   C849      1.0  0.79291  0.90151  0.79178  1.0000
  C   C850      1.0  0.76780  0.85497  0.79298  1.0000
  C   C851      1.0  0.75234  0.89111  0.75043  1.0000
  C   C852      1.0  0.71306  0.88504  0.81485  1.0000
  C   C853      1.0  0.79499  0.93258  0.77791  1.0000
  C   C854      1.0  0.77790  0.84635  0.82998  1.0000
  C   C855      1.0  0.77167  0.88011  0.72048  1.0000
  H   H1436     1.0  0.75233  0.90012  0.83929  1.0000
  H   H1437     1.0  0.73871  0.92265  0.80587  1.0000
  H   H1438     1.0  0.81077  0.88904  0.77974  1.0000
  H   H1439     1.0  0.79893  0.90244  0.81995  1.0000
  H   H1440     1.0  0.74754  0.84296  0.78691  1.0000
  H   H1441     1.0  0.78408  0.84597  0.77468  1.0000
  H   H1442     1.0  0.73140  0.87960  0.74710  1.0000
  H   H1443     1.0  0.74663  0.91403  0.74534  1.0000
  H   H1444     1.0  0.70508  0.74765  0.01460  1.0000
  H   H1445     1.0  0.69997  0.89641  0.83478  1.0000
  H   H1446     1.0  0.70068  0.88636  0.79002  1.0000
  H   H1447     1.0  0.81627  0.94172  0.78581  1.0000
  H   H1448     1.0  0.67485  0.53940  0.76610  1.0000
  H   H1449     1.0  0.77808  0.94679  0.78880  1.0000
  H   H1450     1.0  0.93364  0.56213  0.81473  1.0000
  C   C856      1.0  0.97675  0.84449  0.79185  1.0000
  H   H1451     1.0  0.74770  0.82243  0.92504  1.0000
  H   H1452     1.0  0.76639  0.85743  0.71387  1.0000
  H   H1453     1.0  0.79503  0.88129  0.72650  1.0000
  H   H1454     1.0  0.76847  0.89381  0.69698  1.0000
  C   C857      1.0  0.76773  0.56101  0.82117  1.0000
  H   H1455     1.0  0.76201  0.85248  0.85021  1.0000
  H   H1456     1.0  0.95844  0.54625  0.64143  1.0000
  C   C858      1.0  0.93365  0.59397  0.74858  1.0000
  C   C859      1.0  0.96641  0.97385  0.73967  1.0000
  H   H1457     1.0  0.76517  0.73517  0.89867  1.0000
  H   H1458     1.0  0.73918  0.77847  0.89493  1.0000
  H   H1459     1.0  0.89476  0.99383  0.78651  1.0000
  H   H1460     1.0  0.94828  0.68256  0.81434  1.0000
  H   H1461     1.0  0.69378  0.73003  0.67914  1.0000
  C   C860      1.0  0.93368  0.97239  0.59717  1.0000
  C   C861      1.0  0.70918  0.75319  0.98685  1.0000
  N   N59       1.0  0.71342  0.57248  0.81296  1.0000
  H   H1462     1.0  0.66930  0.67936  0.64209  1.0000
  H   H1463     1.0  0.69833  0.73674  0.97065  1.0000
  C   C862      1.0  0.97496  0.63784  0.78067  1.0000
  H   H1464     1.0  0.92663  0.62599  0.84786  1.0000
  H   H1465     1.0  0.91257  0.58826  0.73630  1.0000
  C   C863      1.0  0.67867  0.82333  0.02418  1.0000
  H   H1466     1.0  0.68481  0.74104  0.73979  1.0000
  H   H1467     1.0  0.74946  0.56845  0.74142  1.0000
  H   H1468     1.0  0.72311  0.68852  0.75989  1.0000
  C   C864      1.0  0.92796  0.61351  0.78036  1.0000
  C   C865      1.0  0.94984  0.57125  0.83303  1.0000
  H   H1469     1.0  0.97189  0.53415  0.68239  1.0000
  C   C866      1.0  0.80645  0.75824  0.96206  1.0000
  H   H1470     1.0  0.70975  0.76862  0.92139  1.0000
  N   N60       1.0  0.75230  0.75959  0.94385  1.0000
  C   C867      1.0  0.75655  0.73127  0.92536  1.0000
  N   N61       1.0  0.95404  0.62077  0.80253  1.0000
  C   C868      1.0  0.96917  0.59398  0.81534  1.0000
  H   H1471     1.0  0.79953  0.85535  0.83631  1.0000
  C   C869      1.0  0.69398  0.62033  0.83842  1.0000
  H   H1472     1.0  0.72377  0.70193  0.94646  1.0000
  H   H1473     1.0  0.68005  0.62362  0.70889  1.0000
  H   H1474     1.0  0.70007  0.63720  0.85765  1.0000
  C   C870      1.0  0.71646  0.59585  0.84018  1.0000
  H   H1475     1.0  0.93091  0.95287  0.61353  1.0000
  H   H1476     1.0  0.73333  0.60331  0.77826  1.0000
  H   H1477     1.0  0.98087  0.58313  0.79377  1.0000
  C   C871      1.0  0.94407  0.63772  0.83381  1.0000
  C   C872      1.0  0.72898  0.80950  0.93417  1.0000
  H   H1478     1.0  0.73212  0.54025  0.84710  1.0000
  H   H1479     1.0  0.78265  0.54226  0.82118  1.0000
  H   H1480     1.0  0.71457  0.57240  0.72279  1.0000
  C   C873      1.0  0.67637  0.53325  0.79398  1.0000
  H   H1481     1.0  0.96389  0.65623  0.76759  1.0000
  H   H1482     1.0  0.73537  0.53181  0.80261  1.0000
  H   H1483     1.0  0.73562  0.69361  0.90371  1.0000
  N   N62       1.0  0.97592  0.50291  0.64070  1.0000
  H   H1484     1.0  0.72704  0.81170  0.96286  1.0000
  C   C874      1.0  0.72984  0.71180  0.92118  1.0000
  H   H1485     1.0  0.73528  0.68196  0.71688  1.0000
  H   H1486     1.0  0.68034  0.55257  0.84476  1.0000
  H   H1487     1.0  0.74991  0.77279  0.99822  1.0000
  H   H1488     1.0  0.94419  0.96628  0.57237  1.0000
  H   H1489     1.0  0.82470  0.77329  0.96699  1.0000
  C   C875      1.0  0.74220  0.75507  0.98091  1.0000
  C   C876      1.0  0.72606  0.56574  0.74707  1.0000
  S   S256      1.0  0.84320  0.98713  0.74240  1.0000
  H   H1490     1.0  0.69624  0.59656  0.76905  1.0000
  H   H1491     1.0  0.95321  0.87216  0.53840  1.0000
  H   H1492     1.0  0.71460  0.86235  0.82350  1.0000
  C   C877      1.0  0.73864  0.72587  0.73239  1.0000
  H   H1493     1.0  0.91416  0.51288  0.65070  1.0000
  C   C878      1.0  0.98572  0.95073  0.73830  1.0000
  C   C879      1.0  0.98710  0.96383  0.63965  1.0000
  C   C880      1.0  0.93387  0.88513  0.53596  1.0000
  H   H1494     1.0  0.71488  0.63792  0.71905  1.0000
  H   H1495     1.0  0.92550  0.67823  0.85108  1.0000
  C   C881      1.0  0.93199  0.66806  0.82610  1.0000
  H   H1496     1.0  0.96567  0.86571  0.79231  1.0000
  Fe  Fe128     1.0  0.66672  0.80429  0.84606  1.0000
  H   H1497     1.0  0.76183  0.72165  0.73842  1.0000
  C   C882      1.0  0.99767  0.99072  0.58583  1.0000
  H   H1498     1.0  0.91243  0.66746  0.80923  1.0000
  H   H1499     1.0  0.97786  0.83547  0.81850  1.0000
  H   H1500     1.0  0.67104  0.82152  0.96829  1.0000
  H   H1501     1.0  0.71567  0.58660  0.86704  1.0000
  C   C883      1.0  0.78125  0.77475  0.94455  1.0000
  H   H1502     1.0  0.77278  0.57347  0.84517  1.0000
  H   H1503     1.0  0.79420  0.93334  0.74896  1.0000
  H   H1504     1.0  0.92875  0.50548  0.69363  1.0000
  C   C884      1.0  0.95981  0.52699  0.65867  1.0000
  H   H1505     1.0  0.96358  0.55302  0.84190  1.0000
  H   H1506     1.0  0.68076  0.74611  0.83341  1.0000
  N   N63       1.0  0.69109  0.69774  0.71973  1.0000
  H   H1507     1.0  0.91780  0.63337  0.76973  1.0000
  H   H1508     1.0  0.73786  0.60674  0.83816  1.0000
  H   H1509     1.0  0.70193  0.82463  0.02178  1.0000
  H   H1510     1.0  0.94431  0.57354  0.75589  1.0000
  C   C885      1.0  0.73617  0.55011  0.82102  1.0000
  H   H1511     1.0  0.75196  0.73512  0.99195  1.0000
  H   H1512     1.0  0.85221  0.83891  0.55218  1.0000
  H   H1513     1.0  0.91076  0.60326  0.79629  1.0000
  C   C886      1.0  0.68375  0.55933  0.81714  1.0000
  H   H1514     1.0  0.93879  0.57988  0.85639  1.0000
  H   H1515     1.0  0.73770  0.73668  0.70661  1.0000
  H   H1516     1.0  0.96927  0.52229  0.58994  1.0000
  H   H1517     1.0  0.72120  0.54269  0.75068  1.0000
  H   H1518     1.0  0.81501  0.74128  0.94458  1.0000
  H   H1519     1.0  0.70996  0.69665  0.66822  1.0000
  C   C887      1.0  0.99605  0.51209  0.75073  1.0000
  H   H1520     1.0  0.67600  0.71314  0.76970  1.0000
  H   H1521     1.0  0.67194  0.61300  0.84550  1.0000
  C   C888      1.0  0.92880  0.52077  0.67142  1.0000
  H   H1522     1.0  0.98355  0.62439  0.75903  1.0000
  H   H1523     1.0  0.67964  0.66295  0.75443  1.0000
  C   C889      1.0  0.69098  0.70631  0.68169  1.0000
  H   H1524     1.0  0.80039  0.74857  0.98746  1.0000
  H   H1525     1.0  0.96286  0.82919  0.77705  1.0000
  C   C890      1.0  0.96638  0.50616  0.75274  1.0000
  H   H1526     1.0  0.99616  0.66432  0.82176  1.0000
  H   H1527     1.0  0.73097  0.74065  0.75307  1.0000
  H   H1528     1.0  0.69677  0.64763  0.67864  1.0000
  C   C891      1.0  0.96741  0.50089  0.60274  1.0000
  H   H1529     1.0  0.69134  0.51490  0.79765  1.0000
  H   H1530     1.0  0.69365  0.63082  0.81242  1.0000
  C   C892      1.0  0.67868  0.66817  0.72604  1.0000
  H   H1531     1.0  0.98629  0.59949  0.83476  1.0000
  C   C893      1.0  0.82231  0.65896  0.01235  1.0000
  C   C894      1.0  0.82821  0.62957  0.00914  1.0000
  H   H1532     1.0  0.97551  0.96385  0.66512  1.0000
  C   C895      1.0  0.88371  0.91802  0.53003  1.0000
  H   H1533     1.0  0.97783  0.94552  0.62462  1.0000
  N   N64       1.0  0.98247  0.99199  0.62060  1.0000
  H   H1534     1.0  0.66654  0.57534  0.81124  1.0000
  H   H1535     1.0  0.99584  0.96858  0.57485  1.0000
  H   H1536     1.0  0.84054  0.87106  0.53118  1.0000
  C   C896      1.0  0.85152  0.85019  0.52659  1.0000
