data_image0
_chemical_formula_structural       FeSH3C2H2FeCSH4CHC2H2NH2NH2CNCHSH2C2HC2H5C3H2CH3SHCH2CH2CHFeC3HC2HCH4SHSH2SH4CSHC5SCH2CH2CH3SC2H3C2HSHCHC2HC3H3SH4SH3SC2HCH2C2H7CSCH2NH4NH2CH4CH2FeCFeSCFeSHFeSFeS3HS2FeSHFeSFeS2H2CH3C9H5C5H2CHCH2CH2CHC2H2CH2C2H7CHCH3CHC2H6C3HCHCH2CHSCHCH3CHCHCH3CH4C2H3FeH2NC4NCH3CH2CH7Fe2CH2CFeHCH3CHCHC3H5SC2HNHS2CH2CH2SCH2CHCH2SH4CHCH5NHCHCHCH2CH2NHNH5CHSHC5HSFeHSFeSFeSH3SH2FeC5H7NC4NC2H4CH2SC2SCHSCHC3H6CHSC2HFeSH2C2H6SHCHC2HCH2C2H2CSHCH2CHSCFeC2H3CHCHSH9C2HC3H4C2HNH2CH5C2H2CHC2H2CH2C2H2C2NHSHCHCH2CH7CH3CSH4FeH3SH2CFeH3CFeHSCH3C3H2CH4C2HNH2CHSH2NH6C2SH3CH2CHCHFeSHFeS4HFeSHFeSHCSFe2C2HC3H2SHNSCH6C2HCHSC2H5SH3FeSHCSC2H2SCH2CHCH2CH3FeHCH2FeH2CHCH2CH2C7HCFeHSHCH2NH6C2H2CH3CH3CH2C2HC2H4CH4C2H4CNCHCHFeH4NCSCHC2HCHSH2SHC2H4CHC2HC2S2CFeH2C3HCH2CHFeH2C3H3CH2CHSHCSHNCH2CH3CH2CFeS2CH2FeSCH2FeS2FeS2FeHFeSHSFeSCFeSHFeSFeS3H3C2H2C7H5C2HC2HCH2CSH2CH4C3H4C3H3CH5CH3CH4SH6C2HCH3CH2SHSHC3HCH2CHCH4C4H4NCNC6HCH5FeH2C3H2CH4C4H5CH3CH4NC2HCHCH3CH3SCHSH3CHFeNCHSCSNC3SH4CHSH2CHFeHFeH2SH2C2HCHCH5C2H4CHC3SH4CHNH3FeSCFeSHFeSFeHSHFeS2FeSFeCFeS3H6C3HCHSHSC2H2C2H3CH2C6H5NHC2H4CH4FeHC2HSCHCH2CHC3HC2H2CSCHC2H2SCHC2H2CHCHCHCHCH4C2H2SHCH4CHC2H5CH3CH2SH2C2H3C2HNSH2C2H2CH8SH6CHNH4C4H2NHC2HNH2CHCHCHFe2S3CSFeSHCFeS2FeSCFeSFeHSFeSHFeSHFeCFeSFeSHC8H5C2HCH3NH4CHCHSCHSC3H6NHC3HCHC2SCH2SH5CSHC4H2CFeHNHC2H3C2SCHSH8FeH2C2HC2H2CH3C3H9C2HCH3CHC2H3CHCH8SC2H4CHSC2H2CH2NCH3FeHNH2CH2C2H2SCHC3H5C2H3CHSHC2HCH2C3H2CH2SH4CH7CFeCH2CHNH3CH2NCHSFeCSFeCFeS2FeHFe2S2FeS2FeSHFeSFeS3C2HC6H4CHCH3SCH2CH3C2SH5C2H5CHCHCHNH3C3H3CH2C2HC2H4SH4NC8H15CH4CH2C2H2CH5CH3FeHS2HCHC2H2SCH2C4NH4S2HC4H2SHCH3C3HC4NC2HCH6FeH2CHNH8CH2CH4CH6FeHCFeS2H2FeHS2FeS2FeSHFeHFeS3H2C2SH3CH5CHCH3SH4CH3C5H3C3HC6H5CHCHCHC2HCH3NC3HC2HC2H2CH2SC2FeCH4SH3CH2CH6CH2CHCHCH3C2H3CH2CNCH6CH3C3H2CH3CSH2CH5CHC2SHNH2CH2CHCS2CHCSHCHCHCHC2HFeS2FeS2FeHFeS3FeS2FeHCHFeCS2FeSCFeHS2H2SHC2H4CHC3FeH3CSC3H2CH2CHC7H6S2CHCH4CH2SFeCH3C2H3CSH2CHCHSH4NH5C2NC2H2C2H5CHC2HC4H4CH3CHFeSCHC2H3CHSHCHCH2C2H3CHC2HCH5CNH2FeH3FeHNH5CH3CHCHCHCHSCHSCH2C2H2CH8SCHCNH6C2H3CHC3HCHCH4C2H4CHC2HCH2FeS2CS2HFeCHC2HSH2C3HCHC3HSHCHSHC2H15NHCH2CH6NC2HCNC2H3C2HC3H2S2H7FeH2C2HSCH2CHFeH3CNH2CHC3H7CH2CH5C3H3C2H5C4HC3H3CHC2H2CHCH3CHSHSH2CSHFeSFeSHSFeC4H4CHCHSHNCH2CH2CH2CSCH3CNHFeSCHC2H2FeHS2HSHFeHNH2FeCFeSCFe2S2H4SHCHC5H2CH2FeCHCH5CH4CHCH3SC6H3SHC2HNSCH2SH3C2HCFeSCH2C3HFeNH4C2HCSHCSHSH5CH6C3HSCH2C3NH10CHCHC2HSH3C2H3CHCH4CH2CH2C3H2CHCFeH7C2NSHC3HCH2SC2H3CHCH2FeH4SHCH2FeSHFeSCFeCFeSCSH4FeSHFeSHFeHFeSCSHCSHCH2CH2CHC4HCNHC2H2SCHC7H4S2H4CH9C3H3CHC2H6S2HCNC8H24CHC2HSH2SHCHCNSCH2CHCHCH2CHCHC3H4C2HC2H2CH3CHCH3C2H3NCHCH3SH8C2HC2H6C3HCH2SCHC2NCH6CSH2SCH2CH3CHCH2CHCH3SCHCHSCHCH3FeCH3CH2SCS2CHSFeS2HSCHCHCH4FeC2H5CHCHCSHCHFeH2NCFeHCHCH2C3H2C4H2CH6CHC2NHFeSH3CHCNCHCH3FeH5CH2CHC2HCHCH6CH3SH
_chemical_formula_sum              "Fe144 S288 H1728 C1008 N72"
_cell_length_a       81.7338
_cell_length_b       81.1863
_cell_length_c       37.6453
_cell_angle_alpha    91.6073
_cell_angle_beta     91.6332
_cell_angle_gamma    115.947

_space_group_name_H-M_alt    "P 1"
_space_group_IT_number       1

loop_
  _space_group_symop_operation_xyz
  'x, y, z'

loop_
  _atom_site_type_symbol
  _atom_site_label
  _atom_site_symmetry_multiplicity
  _atom_site_fract_x
  _atom_site_fract_y
  _atom_site_fract_z
  _atom_site_occupancy
  Fe  Fe1       1.0  0.00049  0.43461  0.46168  1.0000
  S   S1        1.0  0.99746  0.45088  0.41700  1.0000
  H   H1        1.0  0.13790  0.48637  0.44639  1.0000
  H   H2        1.0  0.03891  0.43722  0.12096  1.0000
  H   H3        1.0  0.19860  0.48519  0.44583  1.0000
  C   C1        1.0  0.08568  0.46883  0.00858  1.0000
  C   C2        1.0  0.05609  0.45954  0.03616  1.0000
  H   H4        1.0  0.05399  0.39671  0.10174  1.0000
  H   H5        1.0  0.06890  0.44676  0.09874  1.0000
  Fe  Fe2       1.0  0.00131  0.42397  0.05138  1.0000
  C   C3        1.0  0.03091  0.42290  0.20316  1.0000
  S   S2        1.0  0.00144  0.43810  0.10381  1.0000
  H   H6        1.0  0.29293  0.46927  0.29321  1.0000
  H   H7        1.0  0.29253  0.41700  0.26614  1.0000
  H   H8        1.0  0.29024  0.42805  0.34437  1.0000
  H   H9        1.0  0.01187  0.39809  0.17631  1.0000
  C   C4        1.0  0.05696  0.44745  0.47907  1.0000
  H   H10       1.0  0.26225  0.45345  0.31768  1.0000
  C   C5        1.0  0.99249  0.47935  0.01321  1.0000
  C   C6        1.0  0.98632  0.42009  0.28525  1.0000
  H   H11       1.0  0.13125  0.45777  0.46342  1.0000
  H   H12       1.0  0.05539  0.42467  0.07869  1.0000
  N   N1        1.0  0.30375  0.45063  0.30996  1.0000
  H   H13       1.0  0.00154  0.37449  0.08674  1.0000
  H   H14       1.0  0.00083  0.47236  0.01891  1.0000
  N   N2        1.0  0.15963  0.46510  0.45362  1.0000
  H   H15       1.0  0.04148  0.41919  0.21423  1.0000
  H   H16       1.0  0.27976  0.46189  0.35162  1.0000
  C   C7        1.0  0.98193  0.48176  0.03963  1.0000
  N   N3        1.0  0.03398  0.41067  0.14041  1.0000
  C   C8        1.0  0.28788  0.45472  0.30039  1.0000
  H   H17       1.0  0.02053  0.41980  0.22358  1.0000
  S   S3        1.0  0.02678  0.42454  0.02543  1.0000
  H   H18       1.0  0.04766  0.46266  0.05419  1.0000
  H   H19       1.0  0.30498  0.45867  0.36600  1.0000
  C   C9        1.0  0.27394  0.45156  0.32928  1.0000
  C   C10       1.0  0.02154  0.41196  0.16821  1.0000
  H   H20       1.0  0.01523  0.40906  0.09738  1.0000
  C   C11       1.0  0.31368  0.46248  0.34256  1.0000
  C   C12       1.0  0.02214  0.40093  0.10782  1.0000
  H   H21       1.0  0.03533  0.38970  0.17280  1.0000
  H   H22       1.0  0.05600  0.41019  0.17306  1.0000
  H   H23       1.0  0.03673  0.43790  0.19966  1.0000
  H   H24       1.0  0.04269  0.37614  0.12609  1.0000
  H   H25       1.0  0.28165  0.40250  0.30125  1.0000
  C   C13       1.0  0.00716  0.38143  0.11318  1.0000
  C   C14       1.0  0.14842  0.48760  0.42723  1.0000
  C   C15       1.0  0.15430  0.45236  0.42088  1.0000
  H   H26       1.0  0.07964  0.48562  0.04639  1.0000
  H   H27       1.0  0.04894  0.43937  0.45604  1.0000
  C   C16       1.0  0.05168  0.39111  0.12850  1.0000
  H   H28       1.0  0.99559  0.38188  0.12724  1.0000
  H   H29       1.0  0.00288  0.44599  0.26272  1.0000
  H   H30       1.0  0.15665  0.46377  0.36787  1.0000
  S   S4        1.0  0.30405  0.48393  0.07789  1.0000
  H   H31       1.0  0.07151  0.42778  0.11561  1.0000
  C   C17       1.0  0.16405  0.48465  0.44538  1.0000
  H   H32       1.0  0.06505  0.39241  0.13902  1.0000
  H   H33       1.0  0.13968  0.44798  0.41308  1.0000
  C   C18       1.0  0.04428  0.40068  0.15548  1.0000
  H   H34       1.0  0.05463  0.43812  0.15552  1.0000
  H   H35       1.0  0.19247  0.46134  0.43257  1.0000
  C   C19       1.0  0.06131  0.43203  0.10452  1.0000
  H   H36       1.0  0.03012  0.39993  0.08530  1.0000
  Fe  Fe3       1.0  0.98311  0.42397  0.38520  1.0000
  C   C20       1.0  0.04905  0.44233  0.01815  1.0000
  C   C21       1.0  0.04678  0.42997  0.13144  1.0000
  C   C22       1.0  0.28533  0.41631  0.29090  1.0000
  H   H37       1.0  0.27236  0.41717  0.28513  1.0000
  C   C23       1.0  0.99348  0.43177  0.25692  1.0000
  C   C24       1.0  0.07429  0.47256  0.03167  1.0000
  H   H38       1.0  0.99456  0.43438  0.19979  1.0000
  C   C25       1.0  0.29759  0.43089  0.31913  1.0000
  H   H39       1.0  0.01228  0.37286  0.12779  1.0000
  H   H40       1.0  0.28000  0.44655  0.27639  1.0000
  H   H41       1.0  0.01283  0.41818  0.15724  1.0000
  H   H42       1.0  0.16712  0.44892  0.37303  1.0000
  S   S5        1.0  0.29430  0.48017  0.42083  1.0000
  H   H43       1.0  0.15542  0.43951  0.42680  1.0000
  S   S6        1.0  0.10892  0.48556  0.00571  1.0000
  H   H44       1.0  0.00581  0.38795  0.47616  1.0000
  H   H45       1.0  0.29766  0.44058  0.23422  1.0000
  S   S7        1.0  0.98724  0.40757  0.42978  1.0000
  H   H46       1.0  0.14196  0.47800  0.40400  1.0000
  H   H47       1.0  0.26842  0.43752  0.33925  1.0000
  H   H48       1.0  0.08195  0.44721  0.46240  1.0000
  H   H49       1.0  0.01443  0.48881  0.47488  1.0000
  C   C26       1.0  0.19356  0.47101  0.45489  1.0000
  S   S8        1.0  0.99473  0.42859  0.32955  1.0000
  H   H50       1.0  0.17849  0.47167  0.39142  1.0000
  C   C27       1.0  0.98881  0.42521  0.22114  1.0000
  C   C28       1.0  0.16492  0.45999  0.38698  1.0000
  C   C29       1.0  0.06043  0.43860  0.99508  1.0000
  C   C30       1.0  0.17557  0.46466  0.47412  1.0000
  C   C31       1.0  0.07850  0.45177  0.99001  1.0000
  S   S9        1.0  0.98160  0.43217  0.02299  1.0000
  C   C32       1.0  0.07574  0.45195  0.48277  1.0000
  H   H51       1.0  0.30421  0.46488  0.23743  1.0000
  H   H52       1.0  0.30950  0.42797  0.32437  1.0000
  C   C33       1.0  0.30894  0.45414  0.24163  1.0000
  H   H53       1.0  0.08300  0.48921  0.46301  1.0000
  H   H54       1.0  0.20425  0.47107  0.47390  1.0000
  C   C34       1.0  0.14375  0.45869  0.47775  1.0000
  H   H55       1.0  0.13645  0.42897  0.47343  1.0000
  H   H56       1.0  0.17243  0.45053  0.48191  1.0000
  H   H57       1.0  0.99446  0.42668  0.55803  1.0000
  S   S10       1.0  0.14294  0.47590  0.93302  1.0000
  C   C35       1.0  0.99266  0.38269  0.57679  1.0000
  C   C36       1.0  0.15027  0.45088  0.85780  1.0000
  H   H58       1.0  0.01867  0.38612  0.51462  1.0000
  H   H59       1.0  0.08701  0.44854  0.97234  1.0000
  H   H60       1.0  0.17024  0.46930  0.78933  1.0000
  C   C37       1.0  0.08655  0.46251  0.51244  1.0000
  C   C38       1.0  0.18299  0.45360  0.81739  1.0000
  H   H61       1.0  0.14806  0.44045  0.51534  1.0000
  S   S11       1.0  0.13431  0.48690  0.83284  1.0000
  H   H62       1.0  0.01309  0.41234  0.54454  1.0000
  C   C39       1.0  0.16918  0.46755  0.86045  1.0000
  H   H63       1.0  0.14862  0.44125  0.87922  1.0000
  C   C40       1.0  0.13256  0.48547  0.75946  1.0000
  C   C41       1.0  0.00309  0.40228  0.52465  1.0000
  H   H64       1.0  0.14648  0.46880  0.50040  1.0000
  C   C42       1.0  0.18586  0.45099  0.88152  1.0000
  C   C43       1.0  0.05937  0.46372  0.53508  1.0000
  C   C44       1.0  0.07821  0.46847  0.53850  1.0000
  H   H65       1.0  0.13964  0.45577  0.86128  1.0000
  H   H66       1.0  0.05309  0.46820  0.55573  1.0000
  H   H67       1.0  0.98422  0.36552  0.50703  1.0000
  S   S12       1.0  0.19580  0.48843  0.95479  1.0000
  H   H68       1.0  0.18511  0.45662  0.90847  1.0000
  H   H69       1.0  0.08621  0.47645  0.56163  1.0000
  H   H70       1.0  0.22886  0.48496  0.94220  1.0000
  H   H71       1.0  0.17239  0.43912  0.81748  1.0000
  S   S13       1.0  0.11019  0.46754  0.51572  1.0000
  H   H72       1.0  0.19173  0.47194  0.77257  1.0000
  H   H73       1.0  0.20430  0.44070  0.85766  1.0000
  H   H74       1.0  0.20150  0.43771  0.90423  1.0000
  S   S14       1.0  0.02475  0.44749  0.50310  1.0000
  C   C45       1.0  0.04857  0.45320  0.50537  1.0000
  C   C46       1.0  0.99243  0.48619  0.97941  1.0000
  H   H75       1.0  0.19559  0.45217  0.81170  1.0000
  C   C47       1.0  0.00345  0.37120  0.57375  1.0000
  H   H76       1.0  0.17104  0.47418  0.88753  1.0000
  H   H77       1.0  0.01833  0.38023  0.57410  1.0000
  C   C48       1.0  0.17894  0.46230  0.78439  1.0000
  C   C49       1.0  0.98387  0.41594  0.57322  1.0000
  H   H78       1.0  0.21394  0.47873  0.84410  1.0000
  H   H79       1.0  0.17392  0.43730  0.87867  1.0000
  H   H80       1.0  0.17101  0.45130  0.76398  1.0000
  H   H81       1.0  0.14732  0.44360  0.83136  1.0000
  H   H82       1.0  0.16826  0.47772  0.84254  1.0000
  H   H83       1.0  0.00151  0.39500  0.59378  1.0000
  H   H84       1.0  0.30909  0.38034  0.65553  1.0000
  C   C50       1.0  0.13820  0.43980  0.49381  1.0000
  S   S15       1.0  0.15797  0.48253  0.57414  1.0000
  C   C51       1.0  0.20287  0.44730  0.88277  1.0000
  H   H85       1.0  0.20711  0.48490  0.88470  1.0000
  H   H86       1.0  0.21555  0.45994  0.88957  1.0000
  N   N4        1.0  0.18510  0.46345  0.85305  1.0000
  H   H87       1.0  0.00065  0.48438  0.95904  1.0000
  H   H88       1.0  0.98972  0.41484  0.59945  1.0000
  H   H89       1.0  0.99947  0.36166  0.55018  1.0000
  H   H90       1.0  0.12490  0.43566  0.50637  1.0000
  N   N5        1.0  0.98686  0.38834  0.54268  1.0000
  H   H91       1.0  0.17849  0.47309  0.49948  1.0000
  H   H92       1.0  0.99867  0.41045  0.50688  1.0000
  C   C52       1.0  0.01384  0.39509  0.50085  1.0000
  H   H93       1.0  0.00065  0.36226  0.59682  1.0000
  H   H94       1.0  0.24389  0.48816  0.55343  1.0000
  H   H95       1.0  0.02612  0.40703  0.49222  1.0000
  H   H96       1.0  0.11798  0.47827  0.76208  1.0000
  C   C53       1.0  0.20271  0.48088  0.85619  1.0000
  H   H97       1.0  0.05526  0.42536  0.98109  1.0000
  H   H98       1.0  0.13056  0.48362  0.70180  1.0000
  Fe  Fe4       1.0  0.13456  0.48770  0.55141  1.0000
  C   C54       1.0  0.13965  0.48846  0.72519  1.0000
  Fe  Fe5       1.0  0.16166  0.66182  0.04328  1.0000
  S   S16       1.0  0.17025  0.65402  0.09518  1.0000
  C   C55       1.0  0.99924  0.53585  0.44885  1.0000
  Fe  Fe6       1.0  0.12168  0.62953  0.04496  1.0000
  S   S17       1.0  0.12827  0.62040  0.09723  1.0000
  H   H99       1.0  0.16493  0.71494  0.28088  1.0000
  Fe  Fe7       1.0  0.14305  0.65022  0.11501  1.0000
  S   S18       1.0  0.14018  0.66354  0.16801  1.0000
  Fe  Fe8       1.0  0.15480  0.62480  0.07371  1.0000
  S   S19       1.0  0.16373  0.60228  0.08129  1.0000
  S   S20       1.0  0.13485  0.65949  0.06374  1.0000
  S   S21       1.0  0.14785  0.63251  0.02078  1.0000
  H   H100      1.0  0.03755  0.53625  0.42753  1.0000
  S   S22       1.0  0.12372  0.62178  0.41940  1.0000
  S   S23       1.0  0.31411  0.52668  0.10177  1.0000
  Fe  Fe9       1.0  0.16079  0.66815  0.46520  1.0000
  S   S24       1.0  0.16663  0.65415  0.41813  1.0000
  H   H101      1.0  0.21081  0.71990  0.41477  1.0000
  Fe  Fe10      1.0  0.13911  0.64923  0.39483  1.0000
  S   S25       1.0  0.13613  0.65829  0.33840  1.0000
  Fe  Fe11      1.0  0.15097  0.62776  0.44574  1.0000
  S   S26       1.0  0.16099  0.60574  0.44569  1.0000
  S   S27       1.0  0.13373  0.66454  0.44088  1.0000
  H   H102      1.0  0.11732  0.52424  0.43219  1.0000
  H   H103      1.0  0.00507  0.51663  0.07199  1.0000
  C   C56       1.0  0.02853  0.54297  0.47855  1.0000
  H   H104      1.0  0.03735  0.54050  0.12416  1.0000
  H   H105      1.0  0.16191  0.70745  0.17589  1.0000
  H   H106      1.0  0.20818  0.72855  0.34320  1.0000
  C   C57       1.0  0.19903  0.72678  0.36561  1.0000
  C   C58       1.0  0.05498  0.55806  0.06077  1.0000
  C   C59       1.0  0.30685  0.50522  0.22544  1.0000
  C   C60       1.0  0.13756  0.65832  0.29085  1.0000
  C   C61       1.0  0.14295  0.64681  0.27059  1.0000
  C   C62       1.0  0.14374  0.64786  0.23283  1.0000
  C   C63       1.0  0.13934  0.66059  0.21517  1.0000
  C   C64       1.0  0.13424  0.67210  0.23576  1.0000
  C   C65       1.0  0.13323  0.67089  0.27288  1.0000
  H   H107      1.0  0.14634  0.63700  0.28389  1.0000
  H   H108      1.0  0.14776  0.63888  0.21750  1.0000
  H   H109      1.0  0.13070  0.68189  0.22281  1.0000
  H   H110      1.0  0.12891  0.67976  0.28779  1.0000
  H   H111      1.0  0.10639  0.56577  0.08291  1.0000
  C   C66       1.0  0.00724  0.51044  0.45862  1.0000
  C   C67       1.0  0.16652  0.59055  0.04362  1.0000
  C   C68       1.0  0.16445  0.56219  0.01563  1.0000
  C   C69       1.0  0.21431  0.71188  0.03409  1.0000
  C   C70       1.0  0.07175  0.60448  0.00620  1.0000
  H   H112      1.0  0.06320  0.49091  0.47969  1.0000
  H   H113      1.0  0.25583  0.51538  0.45478  1.0000
  C   C71       1.0  0.06357  0.61373  0.02524  1.0000
  H   H114      1.0  0.18893  0.72765  0.14824  1.0000
  C   C72       1.0  0.17331  0.70230  0.39659  1.0000
  H   H115      1.0  0.30178  0.56258  0.45304  1.0000
  H   H116      1.0  0.27104  0.70762  0.01707  1.0000
  C   C73       1.0  0.11414  0.56801  0.05831  1.0000
  H   H117      1.0  0.15831  0.56516  0.07016  1.0000
  H   H118      1.0  0.24591  0.72271  0.47823  1.0000
  C   C74       1.0  0.15324  0.70904  0.04041  1.0000
  H   H119      1.0  0.06488  0.56962  0.04601  1.0000
  C   C75       1.0  0.16280  0.57201  0.04556  1.0000
  C   C76       1.0  0.00351  0.56660  0.07303  1.0000
  H   H120      1.0  0.13959  0.70078  0.05071  1.0000
  H   H121      1.0  0.18171  0.71662  0.05263  1.0000
  C   C77       1.0  0.18618  0.71945  0.12268  1.0000
  H   H122      1.0  0.16118  0.54781  0.01724  1.0000
  H   H123      1.0  0.12768  0.55342  0.45242  1.0000
  C   C78       1.0  0.18578  0.70066  0.13021  1.0000
  C   C79       1.0  0.12017  0.51700  0.45410  1.0000
  H   H124      1.0  0.07356  0.52222  0.46172  1.0000
  H   H125      1.0  0.20700  0.50310  0.02899  1.0000
  H   H126      1.0  0.01649  0.57913  0.07116  1.0000
  H   H127      1.0  0.22876  0.52163  0.46020  1.0000
  H   H128      1.0  0.13539  0.58666  0.00648  1.0000
  H   H129      1.0  0.19282  0.70147  0.15634  1.0000
  H   H130      1.0  0.01343  0.52798  0.13327  1.0000
  C   C80       1.0  0.23563  0.73710  0.99916  1.0000
  H   H131      1.0  0.02628  0.51592  0.12144  1.0000
  C   C81       1.0  0.11505  0.55500  0.45624  1.0000
  H   H132      1.0  0.16659  0.69551  0.06890  1.0000
  H   H133      1.0  0.14773  0.69306  0.11662  1.0000
  H   H134      1.0  0.18228  0.70112  0.41787  1.0000
  C   C82       1.0  0.23984  0.55175  0.04159  1.0000
  H   H135      1.0  0.99542  0.56379  0.04757  1.0000
  C   C83       1.0  0.08399  0.51685  0.46072  1.0000
  C   C84       1.0  0.06180  0.60561  0.47700  1.0000
  H   H136      1.0  0.10587  0.55020  0.43212  1.0000
  H   H137      1.0  0.06637  0.49076  0.43317  1.0000
  H   H138      1.0  0.21578  0.56447  0.07710  1.0000
  H   H139      1.0  0.15395  0.50178  0.41771  1.0000
  H   H140      1.0  0.03880  0.61647  0.03382  1.0000
  H   H141      1.0  0.02771  0.52322  0.06136  1.0000
  C   C85       1.0  0.20185  0.70481  0.00485  1.0000
  C   C86       1.0  0.15240  0.70810  0.12075  1.0000
  C   C87       1.0  0.02380  0.53722  0.99787  1.0000
  H   H142      1.0  0.13523  0.52241  0.45663  1.0000
  C   C88       1.0  0.31019  0.56464  0.47797  1.0000
  H   H143      1.0  0.16196  0.68823  0.39292  1.0000
  C   C89       1.0  0.07371  0.49574  0.45946  1.0000
  H   H144      1.0  0.01076  0.55251  0.11278  1.0000
  H   H145      1.0  0.19866  0.68766  0.39991  1.0000
  C   C90       1.0  0.17237  0.59936  0.01181  1.0000
  H   H146      1.0  0.25063  0.57338  0.00448  1.0000
  S   S28       1.0  0.26773  0.50542  0.05410  1.0000
  C   C91       1.0  0.23919  0.56822  0.02288  1.0000
  H   H147      1.0  0.99266  0.53779  0.08286  1.0000
  C   C92       1.0  0.16510  0.71472  0.41192  1.0000
  H   H148      1.0  0.17192  0.68952  0.13200  1.0000
  H   H149      1.0  0.21399  0.69862  0.46863  1.0000
  H   H150      1.0  0.00136  0.54986  0.45796  1.0000
  C   C93       1.0  0.21786  0.50072  0.01781  1.0000
  H   H151      1.0  0.15933  0.73837  0.08814  1.0000
  C   C94       1.0  0.16340  0.57748  0.47998  1.0000
  H   H152      1.0  0.03463  0.55716  0.42818  1.0000
  C   C95       1.0  0.23091  0.72790  0.03130  1.0000
  H   H153      1.0  0.19195  0.54923  0.07363  1.0000
  H   H154      1.0  0.17599  0.49092  0.42872  1.0000
  H   H155      1.0  0.19948  0.57183  0.05848  1.0000
  C   C96       1.0  0.12414  0.58395  0.98662  1.0000
  H   H156      1.0  0.21619  0.70253  0.37140  1.0000
  H   H157      1.0  0.08901  0.55150  0.02972  1.0000
  H   H158      1.0  0.30696  0.71832  0.46664  1.0000
  H   H159      1.0  0.30786  0.71769  0.00157  1.0000
  C   C97       1.0  0.22100  0.58326  0.99986  1.0000
  C   C98       1.0  0.03386  0.59490  0.99426  1.0000
  H   H160      1.0  0.11936  0.57002  0.45925  1.0000
  H   H161      1.0  0.23925  0.55334  0.07087  1.0000
  H   H162      1.0  0.21121  0.70498  0.05884  1.0000
  Fe  Fe12      1.0  0.31231  0.50523  0.39164  1.0000
  H   H163      1.0  0.11936  0.59458  0.99265  1.0000
  H   H164      1.0  0.00482  0.53733  0.42189  1.0000
  N   N6        1.0  0.01967  0.54561  0.06307  1.0000
  C   C99       1.0  0.00636  0.54982  0.08412  1.0000
  C   C100      1.0  0.01905  0.52799  0.07639  1.0000
  C   C101      1.0  0.01291  0.54259  0.02466  1.0000
  C   C102      1.0  0.03826  0.56171  0.06784  1.0000
  N   N7        1.0  0.16982  0.71890  0.10221  1.0000
  C   C103      1.0  0.24746  0.51082  0.47756  1.0000
  H   H165      1.0  0.06224  0.55815  0.08622  1.0000
  H   H166      1.0  0.05214  0.54539  0.04495  1.0000
  H   H167      1.0  0.11310  0.52465  0.00300  1.0000
  C   C104      1.0  0.02443  0.52842  0.11613  1.0000
  H   H168      1.0  0.03753  0.54854  0.99511  1.0000
  H   H169      1.0  0.16538  0.72015  0.34272  1.0000
  C   C105      1.0  0.26934  0.71947  0.00685  1.0000
  H   H170      1.0  0.99553  0.56971  0.09331  1.0000
  H   H171      1.0  0.03911  0.57296  0.05061  1.0000
  H   H172      1.0  0.04041  0.56768  0.09558  1.0000
  H   H173      1.0  0.12475  0.58241  0.06057  1.0000
  H   H174      1.0  0.09577  0.57519  0.02764  1.0000
  H   H175      1.0  0.15386  0.70215  0.01490  1.0000
  H   H176      1.0  0.11494  0.50222  0.44617  1.0000
  Fe  Fe13      1.0  0.29473  0.49993  0.46470  1.0000
  Fe  Fe14      1.0  0.12035  0.63733  0.46713  1.0000
  C   C106      1.0  0.23376  0.50420  0.03898  1.0000
  H   H177      1.0  0.99353  0.49935  0.46338  1.0000
  H   H178      1.0  0.05375  0.55672  0.45107  1.0000
  C   C107      1.0  0.17208  0.73826  0.09910  1.0000
  Fe  Fe15      1.0  0.29655  0.50620  0.05823  1.0000
  H   H179      1.0  0.12059  0.55852  0.05817  1.0000
  C   C108      1.0  0.16907  0.70886  0.33540  1.0000
  H   H180      1.0  0.29839  0.50507  0.20267  1.0000
  H   H181      1.0  0.19263  0.69647  0.10919  1.0000
  H   H182      1.0  0.15607  0.69611  0.33529  1.0000
  C   C109      1.0  0.20258  0.69067  0.37209  1.0000
  H   H183      1.0  0.09482  0.52919  0.01446  1.0000
  C   C110      1.0  0.11681  0.55137  0.98595  1.0000
  H   H184      1.0  0.28860  0.50722  0.26391  1.0000
  C   C111      1.0  0.04482  0.60901  0.01920  1.0000
  C   C112      1.0  0.30133  0.50642  0.26028  1.0000
  C   C113      1.0  0.04282  0.59478  0.47951  1.0000
  H   H185      1.0  0.22258  0.59036  0.02636  1.0000
  H   H186      1.0  0.01263  0.55516  0.01434  1.0000
  H   H187      1.0  0.30660  0.55645  0.16998  1.0000
  H   H188      1.0  0.17609  0.68012  0.34513  1.0000
  H   H189      1.0  0.14099  0.71044  0.10893  1.0000
  S   S29       1.0  0.30371  0.50705  0.33359  1.0000
  C   C114      1.0  0.10101  0.56464  0.02573  1.0000
  C   C115      1.0  0.21088  0.73165  0.40072  1.0000
  H   H190      1.0  0.20400  0.67857  0.36087  1.0000
  N   N8        1.0  0.18285  0.70813  0.36222  1.0000
  H   H191      1.0  0.99865  0.53168  0.02224  1.0000
  S   S30       1.0  0.09546  0.60989  0.01201  1.0000
  S   S31       1.0  0.18020  0.68486  0.00691  1.0000
  C   C116      1.0  0.20488  0.55291  0.02284  1.0000
  H   H192      1.0  0.07172  0.62469  0.04432  1.0000
  H   H193      1.0  0.17420  0.69889  0.28382  1.0000
  C   C117      1.0  0.20319  0.56024  0.06012  1.0000
  H   H194      1.0  0.03449  0.58865  0.45553  1.0000
  H   H195      1.0  0.24275  0.57926  0.04405  1.0000
  S   S32       1.0  0.16140  0.51107  0.99021  1.0000
  C   C118      1.0  0.17481  0.71169  0.29649  1.0000
  H   H196      1.0  0.13910  0.70457  0.17098  1.0000
  H   H197      1.0  0.19875  0.72684  0.10788  1.0000
  C   C119      1.0  0.24805  0.50090  0.02551  1.0000
  H   H198      1.0  0.19437  0.73774  0.36335  1.0000
  C   C120      1.0  0.18832  0.69361  0.34897  1.0000
  H   H199      1.0  0.18852  0.72316  0.29415  1.0000
  H   H200      1.0  0.02449  0.52427  0.00397  1.0000
  S   S33       1.0  0.01024  0.58969  0.98769  1.0000
  H   H201      1.0  0.23494  0.50933  0.06622  1.0000
  H   H202      1.0  0.16955  0.57552  0.45614  1.0000
  H   H203      1.0  0.15471  0.72285  0.03404  1.0000
  H   H204      1.0  0.15247  0.71260  0.39662  1.0000
  C   C121      1.0  0.30913  0.72843  0.02198  1.0000
  H   H205      1.0  0.29944  0.72047  0.04219  1.0000
  C   C122      1.0  0.24611  0.49406  0.99025  1.0000
  H   H206      1.0  0.06784  0.60768  0.45133  1.0000
  H   H207      1.0  0.19436  0.69681  0.32250  1.0000
  H   H208      1.0  0.08988  0.52063  0.43440  1.0000
  H   H209      1.0  0.00799  0.51085  0.42912  1.0000
  H   H210      1.0  0.20377  0.53898  0.02617  1.0000
  N   N9        1.0  0.22154  0.56499  0.00343  1.0000
  H   H211      1.0  0.20753  0.58131  0.98841  1.0000
  C   C123      1.0  0.16863  0.70988  0.06617  1.0000
  H   H212      1.0  0.16115  0.71092  0.43960  1.0000
  C   C124      1.0  0.15301  0.71227  0.16111  1.0000
  H   H213      1.0  0.22933  0.53815  0.03235  1.0000
  C   C125      1.0  0.23204  0.51436  0.48075  1.0000
  H   H214      1.0  0.25316  0.55156  0.03717  1.0000
  H   H215      1.0  0.17542  0.61370  0.01019  1.0000
  C   C126      1.0  0.03902  0.54837  0.44407  1.0000
  H   H216      1.0  0.19234  0.55050  0.00676  1.0000
  H   H217      1.0  0.15734  0.72702  0.16760  1.0000
  N   N10       1.0  0.00904  0.52858  0.47401  1.0000
  H   H218      1.0  0.03154  0.50587  0.45099  1.0000
  N   N11       1.0  0.10890  0.56496  0.98986  1.0000
  H   H219      1.0  0.26654  0.72703  0.02897  1.0000
  H   H220      1.0  0.06868  0.55186  0.98661  1.0000
  H   H221      1.0  0.17487  0.72942  0.41286  1.0000
  H   H222      1.0  0.16820  0.49345  0.47028  1.0000
  H   H223      1.0  0.25693  0.71381  0.98881  1.0000
  C   C127      1.0  0.15804  0.59172  0.48228  1.0000
  H   H224      1.0  0.12953  0.55573  0.00265  1.0000
  S   S34       1.0  0.31155  0.52503  0.43477  1.0000
  H   H225      1.0  0.24025  0.73315  0.05427  1.0000
  C   C128      1.0  0.10444  0.53116  0.99323  1.0000
  C   C129      1.0  0.31195  0.50637  0.29039  1.0000
  C   C130      1.0  0.02146  0.50387  0.47162  1.0000
  C   C131      1.0  0.21682  0.71085  0.48488  1.0000
  C   C132      1.0  0.28574  0.73201  0.98559  1.0000
  H   H226      1.0  0.28767  0.55744  0.51055  1.0000
  S   S35       1.0  0.17434  0.51518  0.90737  1.0000
  Fe  Fe16      1.0  0.16222  0.52853  0.94452  1.0000
  H   H227      1.0  0.02013  0.55477  0.82675  1.0000
  S   S36       1.0  0.13432  0.50453  0.59978  1.0000
  Fe  Fe17      1.0  0.17690  0.50808  0.54746  1.0000
  S   S37       1.0  0.17902  0.52679  0.59446  1.0000
  Fe  Fe18      1.0  0.15429  0.52848  0.57104  1.0000
  S   S38       1.0  0.15344  0.51197  0.52191  1.0000
  H   H228      1.0  0.17358  0.53600  0.72542  1.0000
  H   H229      1.0  0.19005  0.57992  0.67767  1.0000
  H   H230      1.0  0.14095  0.71090  0.55898  1.0000
  S   S39       1.0  0.13361  0.51094  0.92423  1.0000
  H   H231      1.0  0.13443  0.68488  0.62740  1.0000
  H   H232      1.0  0.01345  0.56939  0.80216  1.0000
  Fe  Fe19      1.0  0.17169  0.49620  0.95182  1.0000
  C   C133      1.0  0.03448  0.59199  0.51256  1.0000
  C   C134      1.0  0.06449  0.61128  0.54062  1.0000
  C   C135      1.0  0.14101  0.53353  0.69793  1.0000
  C   C136      1.0  0.12740  0.53352  0.66883  1.0000
  C   C137      1.0  0.15330  0.57699  0.67696  1.0000
  H   H233      1.0  0.13359  0.53152  0.72292  1.0000
  H   H234      1.0  0.12241  0.54391  0.67522  1.0000
  H   H235      1.0  0.16707  0.73201  0.59156  1.0000
  H   H236      1.0  0.13295  0.53545  0.64201  1.0000
  H   H237      1.0  0.14374  0.58273  0.68459  1.0000
  H   H238      1.0  0.14715  0.56816  0.65276  1.0000
  H   H239      1.0  0.16597  0.58898  0.67008  1.0000
  N   N12       1.0  0.14071  0.68488  0.57189  1.0000
  C   C138      1.0  0.13166  0.67557  0.53670  1.0000
  C   C139      1.0  0.12732  0.68198  0.60065  1.0000
  C   C140      1.0  0.11794  0.68186  0.52021  1.0000
  C   C141      1.0  0.11074  0.66285  0.60096  1.0000
  N   N13       1.0  0.15921  0.55019  0.70138  1.0000
  C   C142      1.0  0.16947  0.55105  0.66826  1.0000
  C   C143      1.0  0.15696  0.56741  0.70923  1.0000
  H   H240      1.0  0.16232  0.55248  0.64412  1.0000
  H   H241      1.0  0.17029  0.53786  0.66329  1.0000
  H   H242      1.0  0.14300  0.52093  0.69308  1.0000
  H   H243      1.0  0.14579  0.56460  0.72789  1.0000
  C   C144      1.0  0.04554  0.60023  0.54319  1.0000
  H   H244      1.0  0.12143  0.69199  0.59846  1.0000
  H   H245      1.0  0.03947  0.59831  0.56883  1.0000
  S   S40       1.0  0.17345  0.55944  0.94623  1.0000
  C   C145      1.0  0.15295  0.56827  0.53917  1.0000
  C   C146      1.0  0.15071  0.70517  0.56581  1.0000
  S   S41       1.0  0.14893  0.55358  0.57488  1.0000
  C   C147      1.0  0.14771  0.58258  0.54162  1.0000
  H   H246      1.0  0.14162  0.58461  0.56546  1.0000
  S   S42       1.0  0.98261  0.57757  0.68665  1.0000
  C   C148      1.0  0.01249  0.55530  0.80233  1.0000
  H   H247      1.0  0.17913  0.59660  0.95771  1.0000
  C   C149      1.0  0.17007  0.54750  0.73194  1.0000
  C   C150      1.0  0.16109  0.54380  0.76826  1.0000
  C   C151      1.0  0.18910  0.56644  0.66858  1.0000
  H   H248      1.0  0.16951  0.57798  0.72332  1.0000
  H   H249      1.0  0.19849  0.56299  0.68528  1.0000
  H   H250      1.0  0.19402  0.56778  0.64108  1.0000
  H   H251      1.0  0.07275  0.61774  0.56452  1.0000
  H   H252      1.0  0.18338  0.55978  0.73669  1.0000
  H   H253      1.0  0.03675  0.53896  0.49703  1.0000
  C   C152      1.0  0.22523  0.49902  0.53615  1.0000
  H   H254      1.0  0.29043  0.53817  0.49368  1.0000
  S   S43       1.0  0.01032  0.57801  0.51370  1.0000
  C   C153      1.0  0.99220  0.54152  0.80246  1.0000
  C   C154      1.0  0.22071  0.50842  0.50993  1.0000
  H   H255      1.0  0.14210  0.67768  0.51675  1.0000
  Fe  Fe20      1.0  0.15901  0.50157  0.62059  1.0000
  S   S44       1.0  0.16841  0.50149  0.67890  1.0000
  H   H256      1.0  0.16250  0.68577  0.60750  1.0000
  H   H257      1.0  0.20740  0.52723  0.97627  1.0000
  C   C155      1.0  0.15471  0.67833  0.58278  1.0000
  C   C156      1.0  0.99502  0.51714  0.76553  1.0000
  H   H258      1.0  0.12447  0.66055  0.53819  1.0000
  H   H259      1.0  0.01917  0.55352  0.77831  1.0000
  H   H260      1.0  0.99062  0.50210  0.76210  1.0000
  H   H261      1.0  0.17137  0.54477  0.78920  1.0000
  H   H262      1.0  0.15593  0.55390  0.77584  1.0000
  H   H263      1.0  0.12499  0.52890  0.50773  1.0000
  S   S45       1.0  0.99181  0.55258  0.60496  1.0000
  H   H264      1.0  0.26880  0.53511  0.59289  1.0000
  C   C157      1.0  0.14410  0.49160  0.79037  1.0000
  H   H265      1.0  0.11262  0.65136  0.58846  1.0000
  C   C158      1.0  0.13295  0.58821  0.95017  1.0000
  C   C159      1.0  0.08819  0.51975  0.52514  1.0000
  H   H266      1.0  0.07658  0.52347  0.52578  1.0000
  C   C160      1.0  0.98177  0.49538  0.97207  1.0000
  H   H267      1.0  0.25685  0.49137  0.97934  1.0000
  H   H268      1.0  0.16495  0.68129  0.56196  1.0000
  C   C161      1.0  0.07282  0.61411  0.50757  1.0000
  C   C162      1.0  0.24068  0.49553  0.53300  1.0000
  H   H269      1.0  0.12510  0.69530  0.50793  1.0000
  H   H270      1.0  0.14998  0.52966  0.76882  1.0000
  C   C163      1.0  0.04197  0.58545  0.97560  1.0000
  S   S46       1.0  0.09685  0.62872  0.50628  1.0000
  H   H271      1.0  0.15950  0.70767  0.54256  1.0000
  C   C164      1.0  0.98893  0.52309  0.73091  1.0000
  H   H272      1.0  0.16489  0.55476  0.50609  1.0000
  H   H273      1.0  0.10841  0.50572  0.50306  1.0000
  C   C165      1.0  0.29134  0.73894  0.54235  1.0000
  H   H274      1.0  0.12315  0.58763  0.92864  1.0000
  S   S47       1.0  0.98166  0.50396  0.92993  1.0000
  C   C166      1.0  0.31146  0.72429  0.52436  1.0000
  Fe  Fe21      1.0  0.98824  0.56570  0.55537  1.0000
  C   C167      1.0  0.07523  0.54722  0.96574  1.0000
  C   C168      1.0  0.16294  0.71740  0.59724  1.0000
  H   H275      1.0  0.17576  0.71588  0.60033  1.0000
  H   H276      1.0  0.27971  0.71045  0.56006  1.0000
  H   H277      1.0  0.11530  0.51995  0.66763  1.0000
  C   C169      1.0  0.17004  0.50337  0.75227  1.0000
  H   H278      1.0  0.11148  0.52410  0.56185  1.0000
  C   C170      1.0  0.21588  0.49376  0.98267  1.0000
  H   H279      1.0  0.18463  0.51031  0.74969  1.0000
  S   S48       1.0  0.20077  0.51242  0.51110  1.0000
  H   H280      1.0  0.99513  0.53823  0.72935  1.0000
  H   H281      1.0  0.06690  0.54517  0.94071  1.0000
  H   H282      1.0  0.99972  0.53928  0.51830  1.0000
  H   H283      1.0  0.28578  0.72788  0.59599  1.0000
  H   H284      1.0  0.23243  0.56555  0.95130  1.0000
  H   H285      1.0  0.10741  0.65930  0.62897  1.0000
  H   H286      1.0  0.19474  0.50346  0.85609  1.0000
  H   H287      1.0  0.09840  0.66320  0.58859  1.0000
  H   H288      1.0  0.00441  0.49448  0.81883  1.0000
  C   C171      1.0  0.99696  0.51697  0.83051  1.0000
  C   C172      1.0  0.20242  0.71299  0.50028  1.0000
  H   H289      1.0  0.19572  0.73101  0.53366  1.0000
  C   C173      1.0  0.27672  0.54340  0.57094  1.0000
  C   C174      1.0  0.16291  0.50085  0.78651  1.0000
  C   C175      1.0  0.15012  0.59418  0.51319  1.0000
  H   H290      1.0  0.09341  0.57485  0.95628  1.0000
  H   H291      1.0  0.10837  0.68262  0.53966  1.0000
  H   H292      1.0  0.15935  0.65480  0.59562  1.0000
  H   H293      1.0  0.26713  0.53939  0.54728  1.0000
  C   C176      1.0  0.00013  0.52629  0.50926  1.0000
  C   C177      1.0  0.09984  0.52763  0.55999  1.0000
  H   H294      1.0  0.02304  0.52998  0.54675  1.0000
  N   N14       1.0  0.30738  0.55156  0.54084  1.0000
  H   H295      1.0  0.01017  0.52331  0.76683  1.0000
  H   H296      1.0  0.28116  0.55804  0.57876  1.0000
  C   C178      1.0  0.22322  0.72998  0.96987  1.0000
  H   H297      1.0  0.23521  0.61069  0.98034  1.0000
  H   H298      1.0  0.99366  0.59135  0.75877  1.0000
  H   H299      1.0  0.10966  0.67181  0.49855  1.0000
  H   H300      1.0  0.14588  0.60505  0.51517  1.0000
  H   H301      1.0  0.02869  0.51002  0.49731  1.0000
  C   C179      1.0  0.09476  0.56193  0.96047  1.0000
  C   C180      1.0  0.22036  0.55687  0.96634  1.0000
  H   H302      1.0  0.28711  0.52449  0.55362  1.0000
  H   H303      1.0  0.03385  0.57468  0.95616  1.0000
  C   C181      1.0  0.00864  0.52032  0.54032  1.0000
  H   H304      1.0  0.09130  0.52146  0.58289  1.0000
  C   C182      1.0  0.23499  0.72458  0.49047  1.0000
  C   C183      1.0  0.15848  0.49733  0.72134  1.0000
  H   H305      1.0  0.31256  0.52950  0.51898  1.0000
  H   H306      1.0  0.14400  0.60246  0.95178  1.0000
  C   C184      1.0  0.20271  0.49813  0.84006  1.0000
  H   H307      1.0  0.23210  0.53727  0.97309  1.0000
  H   H308      1.0  0.01201  0.52496  0.83042  1.0000
  C   C185      1.0  0.06073  0.59023  0.98151  1.0000
  C   C186      1.0  0.20650  0.71409  0.97280  1.0000
  H   H309      1.0  0.19710  0.70892  0.94989  1.0000
  H   H310      1.0  0.06681  0.58301  0.96640  1.0000
  C   C187      1.0  0.29294  0.53891  0.56446  1.0000
  C   C188      1.0  0.16075  0.56570  0.50821  1.0000
  N   N15       1.0  0.98794  0.52150  0.79930  1.0000
  H   H311      1.0  0.12144  0.55115  0.95852  1.0000
  S   S49       1.0  0.27113  0.49620  0.50124  1.0000
  H   H312      1.0  0.29584  0.69879  0.49350  1.0000
  C   C189      1.0  0.28042  0.72399  0.56809  1.0000
  H   H313      1.0  0.11627  0.55268  0.51207  1.0000
  C   C190      1.0  0.20661  0.72904  0.52154  1.0000
  H   H314      1.0  0.00112  0.52014  0.56457  1.0000
  H   H315      1.0  0.30846  0.57795  0.55616  1.0000
  C   C191      1.0  0.25187  0.50126  0.50361  1.0000
  H   H316      1.0  0.21676  0.49431  0.55876  1.0000
  H   H317      1.0  0.20825  0.55641  0.95110  1.0000
  H   H318      1.0  0.13978  0.65471  0.61538  1.0000
  H   H319      1.0  0.17194  0.50594  0.80990  1.0000
  H   H320      1.0  0.08210  0.50462  0.52720  1.0000
  H   H321      1.0  0.10478  0.54268  0.56358  1.0000
  H   H322      1.0  0.00694  0.50611  0.53567  1.0000
  C   C192      1.0  0.14753  0.65790  0.59077  1.0000
  H   H323      1.0  0.21690  0.50914  0.84095  1.0000
  H   H324      1.0  0.98575  0.51583  0.50664  1.0000
  H   H325      1.0  0.09907  0.55836  0.93471  1.0000
  C   C193      1.0  0.29802  0.55226  0.50617  1.0000
  S   S50       1.0  0.98766  0.55220  0.90563  1.0000
  H   H326      1.0  0.28290  0.73552  0.51725  1.0000
  H   H327      1.0  0.23270  0.59318  0.94820  1.0000
  H   H328      1.0  0.02907  0.55575  0.49133  1.0000
  H   H329      1.0  0.30856  0.71463  0.54635  1.0000
  Fe  Fe22      1.0  0.98597  0.56635  0.95679  1.0000
  H   H330      1.0  0.13927  0.64858  0.56838  1.0000
  H   H331      1.0  0.19762  0.49590  0.81204  1.0000
  H   H332      1.0  0.99345  0.52141  0.85634  1.0000
  S   S51       1.0  0.14715  0.64198  0.49447  1.0000
  H   H333      1.0  0.15584  0.71475  0.62261  1.0000
  H   H334      1.0  0.26620  0.72242  0.56759  1.0000
  C   C194      1.0  0.17444  0.58965  0.98215  1.0000
  Fe  Fe23      1.0  0.14558  0.49597  0.89042  1.0000
  H   H335      1.0  0.13940  0.57915  0.94295  1.0000
  H   H336      1.0  0.21752  0.53297  0.93465  1.0000
  H   H337      1.0  0.29892  0.53871  0.59128  1.0000
  C   C195      1.0  0.21930  0.53750  0.96321  1.0000
  Fe  Fe24      1.0  0.13274  0.49230  0.96806  1.0000
  H   H338      1.0  0.99359  0.51777  0.70771  1.0000
  S   S52       1.0  0.17900  0.69632  0.49384  1.0000
  C   C196      1.0  0.29949  0.71360  0.49136  1.0000
  H   H339      1.0  0.98511  0.54506  0.78057  1.0000
  H   H340      1.0  0.98686  0.54471  0.82721  1.0000
  H   H341      1.0  0.22645  0.73674  0.94491  1.0000
  C   C197      1.0  0.17031  0.57100  0.98384  1.0000
  C   C198      1.0  0.23014  0.49043  0.96918  1.0000
  C   C199      1.0  0.98159  0.57844  0.75969  1.0000
  H   H342      1.0  0.07461  0.53377  0.97211  1.0000
  H   H343      1.0  0.09690  0.52344  0.96853  1.0000
  C   C200      1.0  0.99351  0.49670  0.83203  1.0000
  H   H344      1.0  0.01670  0.53480  0.97124  1.0000
  H   H345      1.0  0.28699  0.72297  0.96418  1.0000
  H   H346      1.0  0.99328  0.49299  0.86028  1.0000
  H   H347      1.0  0.28628  0.71423  0.48884  1.0000
  C   C201      1.0  0.23560  0.59722  0.97694  1.0000
  C   C202      1.0  0.11304  0.51928  0.49070  1.0000
  H   H348      1.0  0.09492  0.55057  0.49499  1.0000
  N   N16       1.0  0.09805  0.52542  0.49094  1.0000
  H   H349      1.0  0.24956  0.59934  0.98495  1.0000
  H   H350      1.0  0.30993  0.73868  0.93030  1.0000
  C   C203      1.0  0.10576  0.54603  0.49026  1.0000
  H   H351      1.0  0.29073  0.75896  0.02663  1.0000
  S   S53       1.0  0.25724  0.75710  0.99735  1.0000
  H   H352      1.0  0.30749  0.88888  0.09168  1.0000
  H   H353      1.0  0.17453  0.74531  0.12585  1.0000
  N   N17       1.0  0.30356  0.74230  0.00675  1.0000
  H   H354      1.0  0.20126  0.75276  0.08678  1.0000
  H   H355      1.0  0.18578  0.74581  0.04793  1.0000
  H   H356      1.0  0.30121  0.74355  0.46245  1.0000
  H   H357      1.0  0.30646  0.91410  0.14064  1.0000
  H   H358      1.0  0.22530  0.74041  0.39482  1.0000
  H   H359      1.0  0.30864  0.93776  0.10155  1.0000
  C   C204      1.0  0.30043  0.75358  0.03611  1.0000
  C   C205      1.0  0.18772  0.75081  0.07618  1.0000
  S   S54       1.0  0.30260  0.80102  0.98689  1.0000
  H   H360      1.0  0.18798  0.76461  0.07635  1.0000
  H   H361      1.0  0.31330  0.77608  0.07565  1.0000
  H   H362      1.0  0.30022  0.90594  0.08204  1.0000
  C   C206      1.0  0.30765  0.75681  0.47766  1.0000
  H   H363      1.0  0.31236  0.88589  0.00652  1.0000
  H   H364      1.0  0.29390  0.74497  0.05885  1.0000
  C   C207      1.0  0.31218  0.90397  0.09177  1.0000
  H   H365      1.0  0.20709  0.74017  0.41927  1.0000
  C   C208      1.0  0.22479  0.74270  0.52735  1.0000
  H   H366      1.0  0.29238  0.82366  0.80190  1.0000
  Fe  Fe25      1.0  0.27636  0.77943  0.96019  1.0000
  S   S55       1.0  0.29158  0.77363  0.91633  1.0000
  H   H367      1.0  0.28173  0.74177  0.97181  1.0000
  Fe  Fe26      1.0  0.28832  0.79555  0.88538  1.0000
  S   S56       1.0  0.28168  0.78608  0.82608  1.0000
  S   S57       1.0  0.30802  0.80130  0.51710  1.0000
  S   S58       1.0  0.27167  0.80040  0.92835  1.0000
  S   S59       1.0  0.29623  0.82038  0.67147  1.0000
  H   H368      1.0  0.27939  0.77017  0.75590  1.0000
  Fe  Fe27      1.0  0.29841  0.81115  0.61392  1.0000
  S   S60       1.0  0.28071  0.81090  0.56578  1.0000
  H   H369      1.0  0.28517  0.78284  0.69561  1.0000
  Fe  Fe28      1.0  0.28265  0.78500  0.54705  1.0000
  S   S61       1.0  0.26258  0.75752  0.51761  1.0000
  H   H370      1.0  0.22765  0.75490  0.54374  1.0000
  C   C209      1.0  0.28355  0.78465  0.75294  1.0000
  S   S62       1.0  0.29910  0.78470  0.59646  1.0000
  Fe  Fe29      1.0  0.29898  0.82158  0.95258  1.0000
  Fe  Fe30      1.0  0.30736  0.82716  0.53910  1.0000
  C   C210      1.0  0.29389  0.82180  0.74456  1.0000
  C   C211      1.0  0.29087  0.81471  0.77895  1.0000
  H   H371      1.0  0.29775  0.83623  0.74149  1.0000
  C   C212      1.0  0.28561  0.79602  0.78340  1.0000
  C   C213      1.0  0.28683  0.79180  0.71862  1.0000
  C   C214      1.0  0.29196  0.81045  0.71411  1.0000
  H   H372      1.0  0.29704  0.76114  0.48532  1.0000
  H   H373      1.0  0.29149  0.75200  0.55253  1.0000
  S   S63       1.0  0.30412  0.84989  0.97675  1.0000
  H   H374      1.0  0.31226  0.76436  0.97049  1.0000
  N   N18       1.0  0.31053  0.74171  0.53643  1.0000
  S   S64       1.0  0.31436  0.84988  0.49846  1.0000
  C   C215      1.0  0.23920  0.74064  0.51179  1.0000
  H   H375      1.0  0.31409  0.78501  0.80075  1.0000
  H   H376      1.0  0.60732  0.10126  0.44822  1.0000
  H   H377      1.0  0.63366  0.09174  0.17906  1.0000
  H   H378      1.0  0.51623  0.18583  0.01251  1.0000
  H   H379      1.0  0.49045  0.03718  0.47472  1.0000
  H   H380      1.0  0.57408  0.15104  0.33983  1.0000
  C   C216      1.0  0.56017  0.22095  0.02405  1.0000
  C   C217      1.0  0.53076  0.22009  0.03898  1.0000
  H   H381      1.0  0.46284  0.02455  0.26191  1.0000
  C   C218      1.0  0.42922  0.01997  0.28682  1.0000
  H   H382      1.0  0.57727  0.14311  0.38225  1.0000
  S   S65       1.0  0.40625  0.02669  0.43558  1.0000
  C   C219      1.0  0.60632  0.20627  0.37531  1.0000
  C   C220      1.0  0.43331  0.99618  0.23175  1.0000
  H   H383      1.0  0.61720  0.09423  0.12709  1.0000
  H   H384      1.0  0.45332  0.23380  0.29170  1.0000
  H   H385      1.0  0.44834  0.02215  0.45870  1.0000
  H   H386      1.0  0.51566  0.21252  0.03527  1.0000
  H   H387      1.0  0.62988  0.19821  0.28819  1.0000
  S   S66       1.0  0.62041  0.15116  0.42513  1.0000
  H   H388      1.0  0.43954  0.00604  0.32174  1.0000
  H   H389      1.0  0.55336  0.13336  0.46320  1.0000
  H   H390      1.0  0.49383  0.09032  0.00682  1.0000
  Fe  Fe31      1.0  0.62393  0.17812  0.06279  1.0000
  S   S67       1.0  0.59587  0.17757  0.06378  1.0000
  H   H391      1.0  0.53598  0.18423  0.00058  1.0000
  C   C221      1.0  0.57124  0.21049  0.01243  1.0000
  S   S68       1.0  0.62694  0.15573  0.09220  1.0000
  C   C222      1.0  0.58124  0.17066  0.02519  1.0000
  C   C223      1.0  0.58228  0.18726  0.32950  1.0000
  H   H392      1.0  0.52808  0.17035  0.05587  1.0000
  H   H393      1.0  0.42342  0.06599  0.43184  1.0000
  S   S69       1.0  0.61015  0.19062  0.47316  1.0000
  C   C224      1.0  0.64357  0.08981  0.16218  1.0000
  H   H394      1.0  0.59528  0.15028  0.35219  1.0000
  H   H395      1.0  0.44989  0.03484  0.42033  1.0000
  C   C225      1.0  0.49242  0.00804  0.01377  1.0000
  H   H396      1.0  0.53993  0.99587  0.43107  1.0000
  C   C226      1.0  0.45119  0.06697  0.01825  1.0000
  H   H397      1.0  0.63145  0.11706  0.17782  1.0000
  H   H398      1.0  0.64545  0.11041  0.08857  1.0000
  C   C227      1.0  0.46173  0.01104  0.26996  1.0000
  H   H399      1.0  0.61386  0.10291  0.08593  1.0000
  H   H400      1.0  0.47525  0.01260  0.21967  1.0000
  H   H401      1.0  0.46755  0.01397  0.29780  1.0000
  Fe  Fe32      1.0  0.64255  0.14999  0.46002  1.0000
  H   H402      1.0  0.53199  0.10724  0.01449  1.0000
  C   C228      1.0  0.62615  0.10410  0.00515  1.0000
  H   H403      1.0  0.64278  0.13074  0.09555  1.0000
  H   H404      1.0  0.43846  0.23225  0.34792  1.0000
  Fe  Fe33      1.0  0.64245  0.16589  0.38643  1.0000
  H   H405      1.0  0.60263  0.17817  0.98813  1.0000
  H   H406      1.0  0.49270  0.00391  0.45139  1.0000
  C   C229      1.0  0.55039  0.99073  0.43514  1.0000
  H   H407      1.0  0.41847  0.99163  0.29943  1.0000
  C   C230      1.0  0.58415  0.15329  0.36197  1.0000
  H   H408      1.0  0.46021  0.07492  0.04033  1.0000
  H   H409      1.0  0.37624  0.99189  0.23025  1.0000
  C   C231      1.0  0.50508  0.06976  0.04608  1.0000
  H   H410      1.0  0.56253  0.22325  0.05346  1.0000
  H   H411      1.0  0.45537  0.05576  0.47156  1.0000
  C   C232      1.0  0.59237  0.07671  0.47715  1.0000
  C   C233      1.0  0.59632  0.07760  0.99269  1.0000
  C   C234      1.0  0.63650  0.16513  0.22034  1.0000
  C   C235      1.0  0.64136  0.11810  0.10864  1.0000
  C   C236      1.0  0.48561  0.23763  0.03034  1.0000
  C   C237      1.0  0.64169  0.16560  0.28525  1.0000
  C   C238      1.0  0.49472  0.99342  0.02801  1.0000
  H   H412      1.0  0.52480  0.18869  0.07599  1.0000
  C   C239      1.0  0.48337  0.22535  0.40762  1.0000
  Fe  Fe34      1.0  0.62860  0.17884  0.45148  1.0000
  H   H413      1.0  0.44019  0.09166  0.47631  1.0000
  S   S70       1.0  0.63849  0.17558  0.01467  1.0000
  H   H414      1.0  0.48389  0.21673  0.38474  1.0000
  C   C240      1.0  0.57849  0.15821  0.46781  1.0000
  H   H415      1.0  0.42254  0.02317  0.30957  1.0000
  H   H416      1.0  0.63626  0.08054  0.13883  1.0000
  N   N19       1.0  0.53999  0.21200  0.01452  1.0000
  H   H417      1.0  0.58597  0.15261  0.45233  1.0000
  H   H418      1.0  0.58277  0.06980  0.45511  1.0000
  H   H419      1.0  0.58760  0.20008  0.41993  1.0000
  H   H420      1.0  0.58033  0.17755  0.30644  1.0000
  H   H421      1.0  0.61174  0.21797  0.35747  1.0000
  H   H422      1.0  0.50134  0.06110  0.46758  1.0000
  C   C241      1.0  0.42785  0.03752  0.99387  1.0000
  C   C242      1.0  0.42534  0.06300  0.45905  1.0000
  H   H423      1.0  0.57532  0.20483  0.03580  1.0000
  H   H424      1.0  0.56452  0.19936  0.99195  1.0000
  C   C243      1.0  0.46659  0.05213  0.46514  1.0000
  H   H425      1.0  0.62318  0.18643  0.34941  1.0000
  H   H426      1.0  0.55453  0.16617  0.33784  1.0000
  H   H427      1.0  0.48377  0.22955  0.33086  1.0000
  C   C244      1.0  0.43218  0.00293  0.29525  1.0000
  H   H428      1.0  0.54757  0.19150  0.06704  1.0000
  H   H429      1.0  0.46004  0.21999  0.33827  1.0000
  H   H430      1.0  0.47340  0.23349  0.27621  1.0000
  C   C245      1.0  0.45074  0.07575  0.98665  1.0000
  H   H431      1.0  0.53596  0.15435  0.00141  1.0000
  H   H432      1.0  0.61487  0.11544  0.12614  1.0000
  C   C246      1.0  0.56328  0.18084  0.34534  1.0000
  C   C247      1.0  0.55046  0.15966  0.99844  1.0000
  H   H433      1.0  0.61450  0.03415  0.44493  1.0000
  C   C248      1.0  0.47908  0.01279  0.02661  1.0000
  C   C249      1.0  0.47150  0.23533  0.39911  1.0000
  H   H434      1.0  0.50753  0.08371  0.05581  1.0000
  H   H435      1.0  0.58134  0.17289  0.39744  1.0000
  H   H436      1.0  0.59257  0.00927  0.41079  1.0000
  H   H437      1.0  0.48890  0.01407  0.25919  1.0000
  C   C250      1.0  0.63436  0.09326  0.99253  1.0000
  H   H438      1.0  0.47742  0.21610  0.42981  1.0000
  H   H439      1.0  0.56327  0.18306  0.37441  1.0000
  H   H440      1.0  0.46840  0.02978  0.43262  1.0000
  H   H441      1.0  0.57172  0.01809  0.43791  1.0000
  C   C251      1.0  0.47218  0.23314  0.33395  1.0000
  C   C252      1.0  0.41828  0.04456  0.46863  1.0000
  H   H442      1.0  0.48395  0.08969  0.47608  1.0000
  H   H443      1.0  0.55626  0.18846  0.33312  1.0000
  H   H444      1.0  0.51369  0.05627  0.00636  1.0000
  H   H445      1.0  0.44216  0.03229  0.28340  1.0000
  C   C253      1.0  0.59027  0.99810  0.42939  1.0000
  N   N20       1.0  0.44207  0.99700  0.26810  1.0000
  C   C254      1.0  0.64497  0.12815  0.17241  1.0000
  H   H446      1.0  0.47722  0.02407  0.01568  1.0000
  C   C255      1.0  0.53320  0.18550  0.05688  1.0000
  H   H447      1.0  0.51088  0.06412  0.06686  1.0000
  Fe  Fe35      1.0  0.40844  0.99191  0.03886  1.0000
  H   H448      1.0  0.58588  0.20083  0.31792  1.0000
  H   H449      1.0  0.61823  0.20710  0.39186  1.0000
  H   H450      1.0  0.45719  0.22449  0.39769  1.0000
  H   H451      1.0  0.61547  0.15170  0.25742  1.0000
  N   N21       1.0  0.59763  0.18823  0.35412  1.0000
  C   C256      1.0  0.62146  0.20226  0.30590  1.0000
  S   S71       1.0  0.64108  0.12713  0.02052  1.0000
  C   C257      1.0  0.60630  0.09461  0.47312  1.0000
  H   H452      1.0  0.56672  0.23482  0.01301  1.0000
  C   C258      1.0  0.53111  0.19161  0.01927  1.0000
  C   C259      1.0  0.52183  0.11016  0.99943  1.0000
  H   H453      1.0  0.47505  0.06251  0.44639  1.0000
  C   C260      1.0  0.62071  0.10696  0.11285  1.0000
  H   H454      1.0  0.60651  0.17388  0.31528  1.0000
  S   S72       1.0  0.63252  0.15794  0.32763  1.0000
  H   H455      1.0  0.60341  0.17451  0.39767  1.0000
  H   H456      1.0  0.62722  0.16064  0.19719  1.0000
  S   S73       1.0  0.48343  0.18926  0.98890  1.0000
  H   H457      1.0  0.49024  0.06074  0.04363  1.0000
  C   C261      1.0  0.48477  0.00038  0.47492  1.0000
  C   C262      1.0  0.58715  0.17634  0.48138  1.0000
  H   H458      1.0  0.64210  0.13994  0.16547  1.0000
  H   H459      1.0  0.49736  0.23514  0.41706  1.0000
  H   H460      1.0  0.60034  0.10432  0.01475  1.0000
  H   H461      1.0  0.61152  0.20453  0.28855  1.0000
  C   C263      1.0  0.56235  0.16389  0.02869  1.0000
  H   H462      1.0  0.55694  0.16199  0.05495  1.0000
  C   C264      1.0  0.61216  0.18687  0.33197  1.0000
  C   C265      1.0  0.59402  0.21067  0.40027  1.0000
  H   H463      1.0  0.52936  0.07919  0.01583  1.0000
  C   C266      1.0  0.45799  0.03360  0.44343  1.0000
  C   C267      1.0  0.60696  0.09617  0.00519  1.0000
  S   S74       1.0  0.42062  0.99742  0.09479  1.0000
  S   S75       1.0  0.41285  0.01356  0.99686  1.0000
  C   C268      1.0  0.46752  0.00244  0.05258  1.0000
  Fe  Fe36      1.0  0.40145  0.99654  0.43046  1.0000
  H   H464      1.0  0.47678  0.20967  0.04591  1.0000
  H   H465      1.0  0.53383  0.21856  0.06734  1.0000
  C   C269      1.0  0.43995  0.04803  0.02180  1.0000
  C   C270      1.0  0.48264  0.21915  0.02506  1.0000
  C   C271      1.0  0.59174  0.17279  0.37942  1.0000
  H   H466      1.0  0.44041  0.04164  0.04640  1.0000
  C   C272      1.0  0.62987  0.16008  0.25464  1.0000
  H   H467      1.0  0.58357  0.21318  0.38505  1.0000
  H   H468      1.0  0.45685  0.00581  0.06157  1.0000
  C   C273      1.0  0.56004  0.14732  0.47407  1.0000
  H   H469      1.0  0.41989  0.01746  0.26313  1.0000
  Fe  Fe37      1.0  0.64273  0.15418  0.04525  1.0000
  H   H470      1.0  0.60254  0.22357  0.41597  1.0000
  H   H471      1.0  0.61549  0.00025  0.40766  1.0000
  C   C274      1.0  0.51454  0.07023  0.01099  1.0000
  C   C275      1.0  0.60772  0.99526  0.43199  1.0000
  C   C276      1.0  0.47495  0.00718  0.24656  1.0000
  H   H472      1.0  0.63100  0.21527  0.32004  1.0000
  H   H473      1.0  0.43815  0.01015  0.22120  1.0000
  H   H474      1.0  0.58421  0.22023  0.00132  1.0000
  C   C277      1.0  0.48699  0.21276  0.99313  1.0000
  H   H475      1.0  0.55948  0.08933  0.46664  1.0000
  H   H476      1.0  0.51806  0.11878  0.01777  1.0000
  C   C278      1.0  0.56733  0.00600  0.45478  1.0000
  H   H477      1.0  0.61731  0.00320  0.45422  1.0000
  S   S76       1.0  0.54444  0.00356  0.99298  1.0000
  H   H478      1.0  0.58163  0.07161  0.99285  1.0000
  C   C279      1.0  0.60652  0.03544  0.46726  1.0000
  S   S77       1.0  0.41807  0.99269  0.38719  1.0000
  H   H479      1.0  0.59699  0.04088  0.45773  1.0000
  N   N22       1.0  0.58290  0.00131  0.46378  1.0000
  C   C280      1.0  0.58811  0.17290  0.99116  1.0000
  H   H480      1.0  0.47858  0.05876  0.98874  1.0000
  H   H481      1.0  0.56244  0.00991  0.47942  1.0000
  C   C281      1.0  0.46583  0.99065  0.47156  1.0000
  H   H482      1.0  0.47201  0.99256  0.24392  1.0000
  H   H483      1.0  0.50496  0.98966  0.01807  1.0000
  H   H484      1.0  0.41836  0.99106  0.23367  1.0000
  C   C282      1.0  0.43490  0.07763  0.48427  1.0000
  H   H485      1.0  0.64768  0.13541  0.22903  1.0000
  H   H486      1.0  0.64183  0.22646  0.47762  1.0000
  C   C283      1.0  0.50447  0.09279  0.98712  1.0000
  Fe  Fe38      1.0  0.55935  0.02245  0.55283  1.0000
  S   S78       1.0  0.54710  0.02602  0.60365  1.0000
  S   S79       1.0  0.57288  0.04497  0.51229  1.0000
  C   C284      1.0  0.59078  0.06768  0.50924  1.0000
  H   H487      1.0  0.46853  0.00551  0.95497  1.0000
  H   H488      1.0  0.49240  0.11479  0.65239  1.0000
  Fe  Fe39      1.0  0.56425  0.02030  0.95280  1.0000
  S   S80       1.0  0.54392  0.02614  0.92154  1.0000
  C   C285      1.0  0.53908  0.00500  0.72359  1.0000
  H   H489      1.0  0.56021  0.13734  0.59520  1.0000
  H   H490      1.0  0.42731  0.09177  0.63747  1.0000
  Fe  Fe40      1.0  0.46805  0.12263  0.55165  1.0000
  S   S81       1.0  0.49492  0.12727  0.57730  1.0000
  S   S82       1.0  0.44832  0.09189  0.55341  1.0000
  Fe  Fe41      1.0  0.48213  0.16504  0.54357  1.0000
  S   S83       1.0  0.50989  0.17122  0.56807  1.0000
  S   S84       1.0  0.47227  0.18721  0.53089  1.0000
  Fe  Fe42      1.0  0.50771  0.14682  0.53432  1.0000
  H   H491      1.0  0.58775  0.02232  0.82804  1.0000
  Fe  Fe43      1.0  0.49444  0.15084  0.60903  1.0000
  S   S85       1.0  0.50416  0.15510  0.66800  1.0000
  H   H492      1.0  0.44736  0.01836  0.96211  1.0000
  S   S86       1.0  0.46686  0.14540  0.58611  1.0000
  Fe  Fe44      1.0  0.47569  0.12490  0.94813  1.0000
  S   S87       1.0  0.49219  0.12747  0.89971  1.0000
  C   C286      1.0  0.61865  0.07626  0.87608  1.0000
  Fe  Fe45      1.0  0.48603  0.16733  0.95125  1.0000
  S   S88       1.0  0.50313  0.17217  0.90314  1.0000
  H   H493      1.0  0.58036  0.06017  0.79460  1.0000
  Fe  Fe46      1.0  0.48061  0.14614  0.87854  1.0000
  S   S89       1.0  0.46875  0.14381  0.82100  1.0000
  Fe  Fe47      1.0  0.51343  0.15317  0.92742  1.0000
  S   S90       1.0  0.54329  0.15938  0.92593  1.0000
  S   S91       1.0  0.46252  0.14210  0.92571  1.0000
  S   S92       1.0  0.49795  0.14984  0.97672  1.0000
  H   H494      1.0  0.60866  0.02092  0.87479  1.0000
  H   H495      1.0  0.45547  0.06644  0.68885  1.0000
  H   H496      1.0  0.43476  0.99428  0.96481  1.0000
  C   C287      1.0  0.57166  0.06339  0.86299  1.0000
  C   C288      1.0  0.45938  0.19119  0.63340  1.0000
  H   H497      1.0  0.45760  0.08969  0.76021  1.0000
  H   H498      1.0  0.54438  0.09625  0.48886  1.0000
  C   C289      1.0  0.43851  0.10566  0.64223  1.0000
  C   C290      1.0  0.49407  0.15272  0.71024  1.0000
  C   C291      1.0  0.47575  0.14887  0.71382  1.0000
  C   C292      1.0  0.46835  0.14641  0.74788  1.0000
  C   C293      1.0  0.47908  0.14777  0.77886  1.0000
  C   C294      1.0  0.49744  0.15186  0.77523  1.0000
  C   C295      1.0  0.50484  0.15434  0.74121  1.0000
  H   H499      1.0  0.46725  0.14769  0.69046  1.0000
  H   H500      1.0  0.45415  0.14333  0.75035  1.0000
  H   H501      1.0  0.50591  0.15299  0.79867  1.0000
  H   H502      1.0  0.51903  0.15734  0.73894  1.0000
  H   H503      1.0  0.58379  0.19749  0.51172  1.0000
  C   C296      1.0  0.49269  0.08829  0.49774  1.0000
  C   C297      1.0  0.55633  0.09332  0.49314  1.0000
  H   H504      1.0  0.49983  0.22780  0.65846  1.0000
  C   C298      1.0  0.59687  0.01725  0.48622  1.0000
  C   C299      1.0  0.48065  0.21017  0.51536  1.0000
  H   H505      1.0  0.43969  0.11275  0.61699  1.0000
  C   C300      1.0  0.59413  0.04663  0.76780  1.0000
  H   H506      1.0  0.43404  0.08388  0.76209  1.0000
  H   H507      1.0  0.42241  0.06497  0.66791  1.0000
  C   C301      1.0  0.42984  0.05562  0.52949  1.0000
  S   S93       1.0  0.53260  0.00105  0.52905  1.0000
  H   H508      1.0  0.60790  0.01426  0.49740  1.0000
  H   H509      1.0  0.61969  0.06958  0.82111  1.0000
  C   C302      1.0  0.53975  0.00152  0.78818  1.0000
  H   H510      1.0  0.45160  0.19904  0.64087  1.0000
  H   H511      1.0  0.46205  0.10196  0.62778  1.0000
  H   H512      1.0  0.43067  0.08936  0.70122  1.0000
  H   H513      1.0  0.55135  0.17792  0.52396  1.0000
  C   C303      1.0  0.47632  0.19663  0.69046  1.0000
  C   C304      1.0  0.60342  0.07686  0.53732  1.0000
  C   C305      1.0  0.61743  0.09470  0.53320  1.0000
  H   H514      1.0  0.60253  0.07016  0.56212  1.0000
  H   H515      1.0  0.62720  0.10152  0.55505  1.0000
  H   H516      1.0  0.44065  0.06882  0.73746  1.0000
  H   H517      1.0  0.46647  0.12035  0.65880  1.0000
  C   C306      1.0  0.45697  0.10570  0.65242  1.0000
  C   C307      1.0  0.44451  0.08345  0.74434  1.0000
  C   C308      1.0  0.43702  0.07405  0.51984  1.0000
  H   H518      1.0  0.43584  0.16501  0.62097  1.0000
  H   H519      1.0  0.63074  0.06702  0.97087  1.0000
  H   H520      1.0  0.49083  0.07231  0.54306  1.0000
  C   C309      1.0  0.48402  0.99897  0.87475  1.0000
  H   H521      1.0  0.58175  0.17121  0.93477  1.0000
  H   H522      1.0  0.46010  0.19168  0.60390  1.0000
  H   H523      1.0  0.60997  0.07070  0.89884  1.0000
  H   H524      1.0  0.48584  0.17743  0.64669  1.0000
  H   H525      1.0  0.56332  0.06223  0.83846  1.0000
  C   C310      1.0  0.43893  0.06515  0.95846  1.0000
  H   H526      1.0  0.43303  0.00558  0.92495  1.0000
  H   H527      1.0  0.46959  0.18172  0.69537  1.0000
  H   H528      1.0  0.50216  0.19650  0.70802  1.0000
  C   C311      1.0  0.57310  0.11047  0.50820  1.0000
  H   H529      1.0  0.45483  0.16251  0.64035  1.0000
  H   H530      1.0  0.44119  0.16988  0.66759  1.0000
  H   H531      1.0  0.51078  0.05153  0.92587  1.0000
  H   H532      1.0  0.46022  0.02631  0.57382  1.0000
  S   S94       1.0  0.56599  0.00005  0.57381  1.0000
  H   H533      1.0  0.46617  0.05002  0.92864  1.0000
  H   H534      1.0  0.61381  0.04336  0.89196  1.0000
  H   H535      1.0  0.56850  0.07716  0.55668  1.0000
  H   H536      1.0  0.61224  0.13446  0.55187  1.0000
  H   H537      1.0  0.52019  0.00784  0.75934  1.0000
  H   H538      1.0  0.51608  0.06815  0.52683  1.0000
  C   C312      1.0  0.49423  0.05089  0.48772  1.0000
  C   C313      1.0  0.61897  0.10379  0.50120  1.0000
  H   H539      1.0  0.53364  0.09082  0.95811  1.0000
  C   C314      1.0  0.60330  0.03133  0.87700  1.0000
  H   H540      1.0  0.45095  0.03323  0.51555  1.0000
  H   H541      1.0  0.59380  0.99021  0.53232  1.0000
  H   H542      1.0  0.60572  0.13949  0.50861  1.0000
  C   C315      1.0  0.56556  0.08599  0.57600  1.0000
  H   H543      1.0  0.59587  0.03382  0.76791  1.0000
  H   H544      1.0  0.50286  0.04424  0.53958  1.0000
  S   S95       1.0  0.49447  0.00591  0.58135  1.0000
  H   H545      1.0  0.53968  0.19343  0.94700  1.0000
  S   S96       1.0  0.52741  0.13949  0.50351  1.0000
  H   H546      1.0  0.47410  0.22209  0.59338  1.0000
  C   C316      1.0  0.48613  0.22013  0.64545  1.0000
  C   C317      1.0  0.62391  0.07499  0.98031  1.0000
  C   C318      1.0  0.47976  0.06195  0.93257  1.0000
  H   H547      1.0  0.62342  0.09134  0.87907  1.0000
  C   C319      1.0  0.48766  0.22546  0.60620  1.0000
  H   H548      1.0  0.45040  0.99719  0.86287  1.0000
  H   H549      1.0  0.50804  0.01390  0.51097  1.0000
  C   C320      1.0  0.57877  0.04863  0.86308  1.0000
  H   H550      1.0  0.47732  0.07435  0.93237  1.0000
  C   C321      1.0  0.58351  0.04842  0.79981  1.0000
  H   H551      1.0  0.56263  0.06135  0.88559  1.0000
  H   H552      1.0  0.53288  0.00777  0.70016  1.0000
  H   H553      1.0  0.48714  0.01341  0.88186  1.0000
  H   H554      1.0  0.56678  0.03497  0.85887  1.0000
  C   C322      1.0  0.56222  0.99808  0.75131  1.0000
  C   C323      1.0  0.55437  0.00163  0.72038  1.0000
  C   C324      1.0  0.45898  0.00331  0.93195  1.0000
  C   C325      1.0  0.49893  0.22077  0.50782  1.0000
  H   H555      1.0  0.58610  0.04574  0.74285  1.0000
  H   H556      1.0  0.49800  0.22079  0.94180  1.0000
  H   H557      1.0  0.60539  0.08006  0.82873  1.0000
  H   H558      1.0  0.53745  0.11985  0.59298  1.0000
  N   N23       1.0  0.47749  0.05276  0.49867  1.0000
  C   C326      1.0  0.50480  0.23886  0.49609  1.0000
  N   N24       1.0  0.57269  0.11689  0.54608  1.0000
  C   C327      1.0  0.58621  0.13690  0.55040  1.0000
  C   C328      1.0  0.55413  0.11570  0.55312  1.0000
  C   C329      1.0  0.49459  0.22534  0.96657  1.0000
  C   C330      1.0  0.57853  0.10643  0.57202  1.0000
  C   C331      1.0  0.60558  0.14188  0.53775  1.0000
  C   C332      1.0  0.55187  0.12235  0.59060  1.0000
  H   H559      1.0  0.51558  0.20819  0.61215  1.0000
  C   C333      1.0  0.49351  0.00570  0.50865  1.0000
  H   H560      1.0  0.58112  0.14563  0.53589  1.0000
  H   H561      1.0  0.58798  0.14186  0.57875  1.0000
  H   H562      1.0  0.54317  0.10158  0.54878  1.0000
  H   H563      1.0  0.55056  0.12380  0.53366  1.0000
  H   H564      1.0  0.58284  0.07744  0.86684  1.0000
  Fe  Fe48      1.0  0.52096  0.00366  0.58056  1.0000
  H   H565      1.0  0.59170  0.10668  0.56450  1.0000
  H   H566      1.0  0.58180  0.11328  0.59907  1.0000
  C   C334      1.0  0.48238  0.07084  0.51849  1.0000
  C   C335      1.0  0.49399  0.20407  0.71397  1.0000
  C   C336      1.0  0.55743  0.16265  0.96448  1.0000
  H   H567      1.0  0.41833  0.03836  0.94027  1.0000
  H   H568      1.0  0.48780  0.06167  0.90956  1.0000
  C   C337      1.0  0.55019  0.15429  0.49460  1.0000
  H   H569      1.0  0.46247  0.04915  0.57163  1.0000
  H   H570      1.0  0.61423  0.15676  0.54338  1.0000
  H   H571      1.0  0.51894  0.04982  0.50645  1.0000
  H   H572      1.0  0.55929  0.21578  0.94770  1.0000
  C   C338      1.0  0.48934  0.19094  0.63503  1.0000
  C   C339      1.0  0.57625  0.16900  0.96096  1.0000
  C   C340      1.0  0.47642  0.10175  0.69890  1.0000
  C   C341      1.0  0.49180  0.10512  0.67303  1.0000
  H   H573      1.0  0.47981  0.11507  0.71342  1.0000
  H   H574      1.0  0.47776  0.09267  0.71920  1.0000
  H   H575      1.0  0.46143  0.07487  0.64665  1.0000
  H   H576      1.0  0.50509  0.11159  0.68834  1.0000
  H   H577      1.0  0.49075  0.09219  0.66034  1.0000
  C   C342      1.0  0.55882  0.17241  0.50818  1.0000
  H   H578      1.0  0.59099  0.02516  0.89275  1.0000
  H   H579      1.0  0.43472  0.11332  0.66273  1.0000
  H   H580      1.0  0.48232  0.04484  0.57210  1.0000
  C   C343      1.0  0.44729  0.17097  0.64126  1.0000
  H   H581      1.0  0.50856  0.21504  0.51098  1.0000
  H   H582      1.0  0.61085  0.03836  0.82351  1.0000
  H   H583      1.0  0.43123  0.05260  0.55689  1.0000
  H   H584      1.0  0.43833  0.07158  0.93398  1.0000
  N   N25       1.0  0.45728  0.09383  0.68247  1.0000
  C   C344      1.0  0.45247  0.07458  0.66857  1.0000
  C   C345      1.0  0.43296  0.06316  0.65287  1.0000
  H   H585      1.0  0.59049  0.02000  0.51005  1.0000
  C   C346      1.0  0.59868  0.03552  0.83937  1.0000
  H   H586      1.0  0.43183  0.06615  0.62449  1.0000
  C   C347      1.0  0.44499  0.09438  0.71120  1.0000
  H   H587      1.0  0.44909  0.10885  0.72065  1.0000
  H   H588      1.0  0.42947  0.04835  0.65442  1.0000
  H   H589      1.0  0.48928  0.04687  0.96690  1.0000
  C   C348      1.0  0.57721  0.18344  0.50130  1.0000
  H   H590      1.0  0.50226  0.21903  0.71234  1.0000
  H   H591      1.0  0.60753  0.05865  0.76627  1.0000
  H   H592      1.0  0.53937  0.21110  0.92089  1.0000
  S   S97       1.0  0.48078  0.14154  0.50716  1.0000
  C   C349      1.0  0.44239  0.00515  0.94640  1.0000
  H   H593      1.0  0.55096  0.08269  0.57363  1.0000
  S   S98       1.0  0.50513  0.01970  0.97814  1.0000
  H   H594      1.0  0.57009  0.03608  0.79816  1.0000
  H   H595      1.0  0.47772  0.22612  0.65834  1.0000
  H   H596      1.0  0.58377  0.04858  0.89067  1.0000
  C   C350      1.0  0.46810  0.03974  0.56182  1.0000
  H   H597      1.0  0.41520  0.02695  0.51206  1.0000
  Fe  Fe49      1.0  0.53745  0.00035  0.88861  1.0000
  N   N26       1.0  0.59278  0.05067  0.83620  1.0000
  C   C351      1.0  0.60898  0.06927  0.83903  1.0000
  H   H598      1.0  0.55501  0.11480  0.61176  1.0000
  S   S99       1.0  0.59315  0.04343  0.96400  1.0000
  C   C352      1.0  0.53191  0.00503  0.75726  1.0000
  S   S100      1.0  0.55910  0.99513  0.91764  1.0000
  N   N27       1.0  0.47828  0.19982  0.65116  1.0000
  C   C353      1.0  0.48342  0.00076  0.53918  1.0000
  C   C354      1.0  0.51036  0.20205  0.63789  1.0000
  C   C355      1.0  0.52344  0.06338  0.93602  1.0000
  S   S101      1.0  0.53043  0.00262  0.82998  1.0000
  H   H599      1.0  0.51558  0.08520  0.92623  1.0000
  H   H600      1.0  0.48573  0.18789  0.60605  1.0000
  H   H601      1.0  0.56083  0.99476  0.80832  1.0000
  H   H602      1.0  0.48232  0.98972  0.92776  1.0000
  C   C356      1.0  0.42758  0.04625  0.96212  1.0000
  H   H603      1.0  0.61627  0.04602  0.48662  1.0000
  S   S102      1.0  0.56454  0.00244  0.67873  1.0000
  H   H604      1.0  0.63076  0.07348  0.87913  1.0000
  H   H605      1.0  0.58516  0.10775  0.50492  1.0000
  C   C357      1.0  0.42073  0.04099  0.50407  1.0000
  H   H606      1.0  0.56761  0.08203  0.60320  1.0000
  Fe  Fe50      1.0  0.55180  0.00237  0.62360  1.0000
  H   H607      1.0  0.49035  0.20155  0.74221  1.0000
  Fe  Fe51      1.0  0.52389  0.00813  0.95903  1.0000
  H   H608      1.0  0.51654  0.19251  0.64273  1.0000
  H   H609      1.0  0.46737  0.20245  0.70162  1.0000
  S   S103      1.0  0.63703  0.12637  0.49782  1.0000
  H   H610      1.0  0.51585  0.21274  0.65950  1.0000
  H   H611      1.0  0.53020  0.05887  0.95701  1.0000
  C   C358      1.0  0.54422  0.20842  0.94699  1.0000
  C   C359      1.0  0.47435  0.23623  0.49931  1.0000
  H   H612      1.0  0.47698  0.99489  0.84809  1.0000
  C   C360      1.0  0.46566  0.03697  0.52086  1.0000
  H   H613      1.0  0.49450  0.21882  0.59031  1.0000
  C   C361      1.0  0.50850  0.05355  0.51763  1.0000
  H   H614      1.0  0.53278  0.06773  0.91365  1.0000
  H   H615      1.0  0.55271  0.08132  0.50972  1.0000
  H   H616      1.0  0.52121  0.20968  0.97089  1.0000
  H   H617      1.0  0.46601  0.01531  0.91532  1.0000
  H   H618      1.0  0.49731  0.99846  0.87243  1.0000
  C   C362      1.0  0.46848  0.21814  0.51107  1.0000
  C   C363      1.0  0.55486  0.99784  0.78495  1.0000
  H   H619      1.0  0.64125  0.23723  0.51889  1.0000
  H   H620      1.0  0.46982  0.07146  0.52759  1.0000
  H   H621      1.0  0.45432  0.21023  0.51682  1.0000
  H   H622      1.0  0.46714  0.02440  0.51326  1.0000
  C   C364      1.0  0.48860  0.06027  0.96822  1.0000
  H   H623      1.0  0.54158  0.23054  0.97283  1.0000
  C   C365      1.0  0.53617  0.21560  0.97678  1.0000
  C   C366      1.0  0.52004  0.07971  0.94942  1.0000
  C   C367      1.0  0.60485  0.06688  0.98024  1.0000
  S   S104      1.0  0.46546  0.09979  0.98393  1.0000
  H   H624      1.0  0.57475  0.12145  0.48955  1.0000
  H   H625      1.0  0.49902  0.09680  0.96320  1.0000
  H   H626      1.0  0.57396  0.99532  0.74915  1.0000
  H   H627      1.0  0.49650  0.10048  0.51611  1.0000
  C   C368      1.0  0.46442  0.99128  0.53589  1.0000
  H   H628      1.0  0.52846  0.11833  0.97628  1.0000
  N   N28       1.0  0.50695  0.07577  0.97891  1.0000
  H   H629      1.0  0.50549  0.08904  0.48714  1.0000
  H   H630      1.0  0.62490  0.43898  0.42721  1.0000
  H   H631      1.0  0.58725  0.33665  0.05796  1.0000
  Fe  Fe52      1.0  0.49353  0.29312  0.45863  1.0000
  S   S105      1.0  0.50719  0.30784  0.40964  1.0000
  C   C369      1.0  0.61378  0.38745  0.47803  1.0000
  Fe  Fe53      1.0  0.47546  0.31976  0.47016  1.0000
  S   S106      1.0  0.48722  0.33499  0.42123  1.0000
  H   H632      1.0  0.32881  0.44814  0.36555  1.0000
  Fe  Fe54      1.0  0.48040  0.30759  0.39387  1.0000
  S   S107      1.0  0.46687  0.29840  0.33764  1.0000
  Fe  Fe55      1.0  0.51322  0.33425  0.44041  1.0000
  H   H633      1.0  0.49120  0.47328  0.99688  1.0000
  S   S108      1.0  0.46621  0.29183  0.44174  1.0000
  H   H634      1.0  0.46135  0.47154  0.05814  1.0000
  Fe  Fe56      1.0  0.49410  0.31377  0.12047  1.0000
  S   S109      1.0  0.47154  0.29509  0.08131  1.0000
  S   S110      1.0  0.49879  0.31560  0.18160  1.0000
  Fe  Fe57      1.0  0.51675  0.33695  0.06021  1.0000
  S   S111      1.0  0.54493  0.36061  0.05607  1.0000
  Fe  Fe58      1.0  0.47530  0.32136  0.05515  1.0000
  C   C370      1.0  0.42921  0.36128  0.01237  1.0000
  Fe  Fe59      1.0  0.49376  0.29522  0.04612  1.0000
  S   S112      1.0  0.49742  0.27387  0.00871  1.0000
  S   S113      1.0  0.49652  0.33974  0.09593  1.0000
  S   S114      1.0  0.51592  0.31222  0.08701  1.0000
  H   H635      1.0  0.55444  0.33044  0.05803  1.0000
  H   H636      1.0  0.50838  0.44739  0.05673  1.0000
  H   H637      1.0  0.42098  0.46756  0.02100  1.0000
  H   H638      1.0  0.47414  0.45597  0.48177  1.0000
  H   H639      1.0  0.38133  0.47033  0.05357  1.0000
  H   H640      1.0  0.33579  0.45199  0.04742  1.0000
  C   C371      1.0  0.40666  0.48600  0.46334  1.0000
  C   C372      1.0  0.49562  0.25988  0.36936  1.0000
  C   C373      1.0  0.44069  0.33879  0.18713  1.0000
  H   H641      1.0  0.40402  0.44069  0.05552  1.0000
  C   C374      1.0  0.55355  0.37569  0.02088  1.0000
  H   H642      1.0  0.47610  0.43205  0.05195  1.0000
  S   S115      1.0  0.45015  0.32556  0.03843  1.0000
  H   H643      1.0  0.57894  0.39204  0.05002  1.0000
  S   S116      1.0  0.53855  0.36125  0.43543  1.0000
  C   C375      1.0  0.46387  0.47987  0.03513  1.0000
  C   C376      1.0  0.34861  0.46535  0.00042  1.0000
  H   H644      1.0  0.44786  0.32798  0.23609  1.0000
  H   H645      1.0  0.31702  0.47712  0.33834  1.0000
  C   C377      1.0  0.44851  0.34612  0.02814  1.0000
  C   C378      1.0  0.34611  0.43860  0.47339  1.0000
  H   H646      1.0  0.44781  0.47344  0.44912  1.0000
  H   H647      1.0  0.42355  0.46627  0.44308  1.0000
  H   H648      1.0  0.53431  0.44873  0.03298  1.0000
  C   C379      1.0  0.35009  0.43798  0.02236  1.0000
  H   H649      1.0  0.58054  0.31229  0.04958  1.0000
  H   H650      1.0  0.61457  0.42674  0.46513  1.0000
  C   C380      1.0  0.48978  0.30969  0.22475  1.0000
  C   C381      1.0  0.50115  0.31829  0.25514  1.0000
  C   C382      1.0  0.49450  0.31487  0.28979  1.0000
  C   C383      1.0  0.47627  0.30283  0.29462  1.0000
  C   C384      1.0  0.46495  0.29403  0.26427  1.0000
  C   C385      1.0  0.47164  0.29733  0.22964  1.0000
  H   H651      1.0  0.51520  0.32787  0.25187  1.0000
  H   H652      1.0  0.50343  0.32178  0.31271  1.0000
  H   H653      1.0  0.45085  0.28459  0.26758  1.0000
  H   H654      1.0  0.46274  0.29032  0.20677  1.0000
  H   H655      1.0  0.56381  0.48855  0.46471  1.0000
  N   N29       1.0  0.45578  0.33951  0.16395  1.0000
  H   H656      1.0  0.47721  0.36397  0.03377  1.0000
  C   C386      1.0  0.53578  0.24064  0.03550  1.0000
  C   C387      1.0  0.40848  0.46672  0.03349  1.0000
  H   H657      1.0  0.44611  0.34467  0.45745  1.0000
  H   H658      1.0  0.39894  0.47081  0.46169  1.0000
  H   H659      1.0  0.44036  0.29240  0.14585  1.0000
  H   H660      1.0  0.56437  0.39906  0.44167  1.0000
  C   C388      1.0  0.56476  0.39313  0.46689  1.0000
  H   H661      1.0  0.43899  0.33464  0.11529  1.0000
  H   H662      1.0  0.42915  0.31120  0.20920  1.0000
  H   H663      1.0  0.53277  0.46892  0.98713  1.0000
  H   H664      1.0  0.48201  0.24211  0.05498  1.0000
  Fe  Fe60      1.0  0.32052  0.48173  0.44574  1.0000
  H   H665      1.0  0.43196  0.45159  0.46261  1.0000
  C   C389      1.0  0.57122  0.39007  0.02512  1.0000
  C   C390      1.0  0.48038  0.35168  0.21569  1.0000
  H   H666      1.0  0.39711  0.45904  0.01366  1.0000
  S   S117      1.0  0.49581  0.32028  0.01751  1.0000
  C   C391      1.0  0.45750  0.47156  0.00135  1.0000
  H   H667      1.0  0.45821  0.31633  0.18675  1.0000
  C   C392      1.0  0.51823  0.39823  0.47187  1.0000
  H   H668      1.0  0.59265  0.41302  0.00116  1.0000
  H   H669      1.0  0.47257  0.24436  0.42282  1.0000
  C   C393      1.0  0.49309  0.25018  0.00372  1.0000
  H   H670      1.0  0.49532  0.38649  0.43155  1.0000
  C   C394      1.0  0.44462  0.35001  0.48318  1.0000
  C   C395      1.0  0.53266  0.47369  0.01516  1.0000
  C   C396      1.0  0.40572  0.45438  0.06548  1.0000
  H   H671      1.0  0.46606  0.26418  0.34057  1.0000
  C   C397      1.0  0.48249  0.44630  0.04269  1.0000
  C   C398      1.0  0.62364  0.42732  0.44354  1.0000
  H   H672      1.0  0.48083  0.37634  0.48280  1.0000
  H   H673      1.0  0.43626  0.25278  0.35924  1.0000
  C   C399      1.0  0.55330  0.37450  0.47136  1.0000
  S   S118      1.0  0.32605  0.45640  0.44920  1.0000
  C   C400      1.0  0.51458  0.48456  0.05315  1.0000
  H   H674      1.0  0.46836  0.26686  0.38708  1.0000
  C   C401      1.0  0.45280  0.36369  0.12405  1.0000
  C   C402      1.0  0.52164  0.48269  0.09050  1.0000
  H   H675      1.0  0.51749  0.46841  0.09790  1.0000
  H   H676      1.0  0.50191  0.44176  0.01137  1.0000
  S   S119      1.0  0.50085  0.26953  0.47494  1.0000
  C   C403      1.0  0.46382  0.36310  0.02776  1.0000
  H   H677      1.0  0.44130  0.30724  0.11109  1.0000
  C   C404      1.0  0.54149  0.46385  0.03762  1.0000
  C   C405      1.0  0.34346  0.45460  0.47635  1.0000
  H   H678      1.0  0.44692  0.36443  0.09749  1.0000
  H   H679      1.0  0.47461  0.25441  0.29430  1.0000
  C   C406      1.0  0.45250  0.34462  0.12702  1.0000
  H   H680      1.0  0.49511  0.28188  0.33614  1.0000
  C   C407      1.0  0.50235  0.45131  0.03367  1.0000
  H   H681      1.0  0.58511  0.34265  0.00077  1.0000
  C   C408      1.0  0.47409  0.35397  0.17801  1.0000
  H   H682      1.0  0.51754  0.39472  0.41433  1.0000
  C   C409      1.0  0.36089  0.43748  0.99419  1.0000
  H   H683      1.0  0.52993  0.24528  0.05775  1.0000
  C   C410      1.0  0.44027  0.30573  0.14030  1.0000
  H   H684      1.0  0.54230  0.48854  0.01663  1.0000
  H   H685      1.0  0.55070  0.24927  0.03698  1.0000
  H   H686      1.0  0.49117  0.40979  0.46849  1.0000
  H   H687      1.0  0.33822  0.47195  0.37690  1.0000
  C   C411      1.0  0.64278  0.43051  0.45711  1.0000
  C   C412      1.0  0.50915  0.38750  0.43674  1.0000
  H   H688      1.0  0.54245  0.46750  0.06635  1.0000
  H   H689      1.0  0.46272  0.34404  0.10870  1.0000
  S   S120      1.0  0.34141  0.48324  0.00248  1.0000
  H   H690      1.0  0.45104  0.45691  0.99834  1.0000
  C   C413      1.0  0.43596  0.32582  0.21853  1.0000
  H   H691      1.0  0.49844  0.26799  0.39511  1.0000
  H   H692      1.0  0.50356  0.26691  0.31437  1.0000
  H   H693      1.0  0.43042  0.36486  0.46177  1.0000
  H   H694      1.0  0.44386  0.35273  0.19848  1.0000
  C   C414      1.0  0.45666  0.32136  0.16047  1.0000
  H   H695      1.0  0.42618  0.32823  0.23529  1.0000
  C   C415      1.0  0.34411  0.45188  0.02567  1.0000
  C   C416      1.0  0.43121  0.34535  0.02047  1.0000
  H   H696      1.0  0.50124  0.48500  0.05571  1.0000
  H   H697      1.0  0.41580  0.36053  0.00746  1.0000
  H   H698      1.0  0.47256  0.35482  0.23621  1.0000
  H   H699      1.0  0.47987  0.33801  0.21931  1.0000
  H   H700      1.0  0.49486  0.36173  0.22064  1.0000
  C   C417      1.0  0.55794  0.32025  0.04385  1.0000
  H   H701      1.0  0.61721  0.41478  0.42583  1.0000
  H   H702      1.0  0.44456  0.36639  0.14422  1.0000
  H   H703      1.0  0.48494  0.35486  0.15978  1.0000
  C   C418      1.0  0.50483  0.47426  0.99130  1.0000
  H   H704      1.0  0.42705  0.30509  0.14818  1.0000
  H   H705      1.0  0.47374  0.39208  0.01974  1.0000
  S   S121      1.0  0.36813  0.41962  0.99137  1.0000
  H   H706      1.0  0.51706  0.28374  0.34757  1.0000
  H   H707      1.0  0.50860  0.37364  0.43619  1.0000
  C   C419      1.0  0.50286  0.27371  0.33983  1.0000
  C   C420      1.0  0.43437  0.46612  0.46106  1.0000
  H   H708      1.0  0.48161  0.45533  0.06444  1.0000
  H   H709      1.0  0.46904  0.32288  0.14661  1.0000
  H   H710      1.0  0.39561  0.48233  0.09112  1.0000
  C   C421      1.0  0.46416  0.25633  0.36479  1.0000
  C   C422      1.0  0.46180  0.37903  0.01974  1.0000
  H   H711      1.0  0.41925  0.33234  0.02109  1.0000
  N   N30       1.0  0.51374  0.47092  0.02424  1.0000
  S   S122      1.0  0.44288  0.39890  0.00237  1.0000
  H   H712      1.0  0.34627  0.42750  0.04177  1.0000
  H   H713      1.0  0.46695  0.37475  0.12570  1.0000
  C   C423      1.0  0.57633  0.32258  0.06053  1.0000
  C   C424      1.0  0.44452  0.37823  0.01168  1.0000
  H   H714      1.0  0.60557  0.39416  0.46759  1.0000
  H   H715      1.0  0.33769  0.42771  0.45440  1.0000
  C   C425      1.0  0.33151  0.46162  0.35474  1.0000
  H   H716      1.0  0.47437  0.36778  0.17906  1.0000
  H   H717      1.0  0.42768  0.33450  0.17111  1.0000
  H   H718      1.0  0.41772  0.45989  0.08442  1.0000
  H   H719      1.0  0.39321  0.45194  0.07963  1.0000
  H   H720      1.0  0.64084  0.39000  0.48446  1.0000
  H   H721      1.0  0.52013  0.41258  0.46955  1.0000
  H   H722      1.0  0.57482  0.32045  0.08952  1.0000
  H   H723      1.0  0.53228  0.39926  0.47309  1.0000
  S   S123      1.0  0.41810  0.43044  0.98914  1.0000
  H   H724      1.0  0.47414  0.44632  0.01897  1.0000
  H   H725      1.0  0.32474  0.44731  0.28036  1.0000
  H   H726      1.0  0.34146  0.46487  0.33359  1.0000
  H   H727      1.0  0.54743  0.30670  0.05168  1.0000
  H   H728      1.0  0.63618  0.39694  0.44283  1.0000
  H   H729      1.0  0.32737  0.47009  0.28350  1.0000
  C   C426      1.0  0.54373  0.37324  0.98854  1.0000
  H   H730      1.0  0.60846  0.37371  0.46417  1.0000
  N   N31       1.0  0.47581  0.24618  0.36583  1.0000
  H   H731      1.0  0.55560  0.46799  0.02911  1.0000
  H   H732      1.0  0.31987  0.45666  0.22261  1.0000
  H   H733      1.0  0.52961  0.24305  0.01075  1.0000
  H   H734      1.0  0.50461  0.25284  0.37016  1.0000
  C   C427      1.0  0.31689  0.45559  0.28001  1.0000
  C   C428      1.0  0.39331  0.48341  0.06215  1.0000
  C   C429      1.0  0.57904  0.40199  0.99746  1.0000
  C   C430      1.0  0.44348  0.24442  0.36657  1.0000
  H   H735      1.0  0.39678  0.48612  0.99149  1.0000
  H   H736      1.0  0.53653  0.28584  0.00488  1.0000
  N   N32       1.0  0.40984  0.48560  0.04185  1.0000
  H   H737      1.0  0.57011  0.35162  0.01560  1.0000
  C   C431      1.0  0.63440  0.39811  0.47187  1.0000
  C   C432      1.0  0.57105  0.34133  0.99660  1.0000
  H   H738      1.0  0.53715  0.33310  0.99944  1.0000
  N   N33       1.0  0.55709  0.32223  0.00410  1.0000
  H   H739      1.0  0.52792  0.31035  0.01234  1.0000
  H   H740      1.0  0.55738  0.28346  0.01257  1.0000
  C   C433      1.0  0.46824  0.23945  0.29757  1.0000
  H   H741      1.0  0.43974  0.24006  0.39405  1.0000
  C   C434      1.0  0.54975  0.28819  0.99384  1.0000
  H   H742      1.0  0.51563  0.48847  0.11060  1.0000
  C   C435      1.0  0.53807  0.31995  0.99455  1.0000
  H   H743      1.0  0.57606  0.31138  0.99051  1.0000
  Fe  Fe61      1.0  0.62659  0.47393  0.61463  1.0000
  Fe  Fe62      1.0  0.60950  0.44065  0.56242  1.0000
  S   S124      1.0  0.62052  0.45746  0.51504  1.0000
  S   S125      1.0  0.59211  0.40984  0.56325  1.0000
  S   S126      1.0  0.59924  0.45990  0.58528  1.0000
  C   C436      1.0  0.51845  0.40305  0.53618  1.0000
  S   S127      1.0  0.60754  0.46259  0.90016  1.0000
  Fe  Fe63      1.0  0.60570  0.43977  0.93501  1.0000
  S   S128      1.0  0.57887  0.41381  0.92915  1.0000
  H   H744      1.0  0.54784  0.41889  0.52847  1.0000
  C   C437      1.0  0.47449  0.47140  0.56684  1.0000
  Fe  Fe64      1.0  0.40095  0.43005  0.56382  1.0000
  S   S129      1.0  0.41467  0.44069  0.61764  1.0000
  S   S130      1.0  0.38737  0.44862  0.54830  1.0000
  Fe  Fe65      1.0  0.41727  0.40158  0.56171  1.0000
  S   S131      1.0  0.43106  0.41036  0.61657  1.0000
  C   C438      1.0  0.46014  0.48213  0.97157  1.0000
  Fe  Fe66      1.0  0.40511  0.41160  0.63268  1.0000
  S   S132      1.0  0.38953  0.40804  0.68372  1.0000
  Fe  Fe67      1.0  0.43905  0.43870  0.59757  1.0000
  H   H745      1.0  0.45358  0.34826  0.57117  1.0000
  S   S133      1.0  0.39037  0.40058  0.57915  1.0000
  Fe  Fe68      1.0  0.39091  0.41760  0.95976  1.0000
  S   S134      1.0  0.40129  0.43109  0.90816  1.0000
  H   H746      1.0  0.54400  0.38304  0.93570  1.0000
  Fe  Fe69      1.0  0.42273  0.40628  0.97046  1.0000
  S   S135      1.0  0.43487  0.41962  0.92016  1.0000
  H   H747      1.0  0.49582  0.24053  0.60486  1.0000
  Fe  Fe70      1.0  0.42864  0.44261  0.93713  1.0000
  C   C439      1.0  0.42797  0.45489  0.74402  1.0000
  Fe  Fe71      1.0  0.40666  0.40665  0.89501  1.0000
  S   S136      1.0  0.40774  0.39284  0.84199  1.0000
  Fe  Fe72      1.0  0.64700  0.47152  0.54792  1.0000
  S   S137      1.0  0.39438  0.39185  0.94482  1.0000
  H   H748      1.0  0.61510  0.40594  0.79293  1.0000
  C   C440      1.0  0.39828  0.34617  0.92724  1.0000
  C   C441      1.0  0.42018  0.34332  0.86488  1.0000
  C   C442      1.0  0.39596  0.40504  0.72766  1.0000
  C   C443      1.0  0.38747  0.40906  0.75642  1.0000
  C   C444      1.0  0.39133  0.40593  0.79166  1.0000
  C   C445      1.0  0.40351  0.39840  0.79847  1.0000
  C   C446      1.0  0.41210  0.39449  0.76976  1.0000
  C   C447      1.0  0.40855  0.39802  0.73457  1.0000
  H   H749      1.0  0.37759  0.41433  0.75136  1.0000
  H   H750      1.0  0.38440  0.40872  0.81340  1.0000
  H   H751      1.0  0.42142  0.38852  0.77466  1.0000
  H   H752      1.0  0.41504  0.39470  0.71269  1.0000
  H   H753      1.0  0.61105  0.38503  0.50657  1.0000
  C   C448      1.0  0.44971  0.47891  0.80462  1.0000
  C   C449      1.0  0.60403  0.39682  0.85512  1.0000
  H   H754      1.0  0.51527  0.37134  0.56624  1.0000
  C   C450      1.0  0.55385  0.36696  0.50406  1.0000
  H   H755      1.0  0.56638  0.37197  0.55698  1.0000
  H   H756      1.0  0.47114  0.40021  0.49331  1.0000
  H   H757      1.0  0.54226  0.40953  0.57198  1.0000
  N   N34       1.0  0.34564  0.42050  0.62948  1.0000
  H   H758      1.0  0.38358  0.44074  0.65054  1.0000
  H   H759      1.0  0.42416  0.48308  0.97205  1.0000
  H   H760      1.0  0.52503  0.47476  0.49823  1.0000
  H   H761      1.0  0.39892  0.35208  0.84975  1.0000
  C   C451      1.0  0.47680  0.46559  0.50417  1.0000
  H   H762      1.0  0.46220  0.48384  0.78888  1.0000
  C   C452      1.0  0.48907  0.38734  0.50303  1.0000
  H   H763      1.0  0.52141  0.37157  0.50194  1.0000
  S   S138      1.0  0.42649  0.43032  0.54249  1.0000
  C   C453      1.0  0.57725  0.39661  0.52749  1.0000
  H   H764      1.0  0.43634  0.32584  0.95162  1.0000
  S   S139      1.0  0.44976  0.47159  0.93026  1.0000
  C   C454      1.0  0.64749  0.46802  0.75542  1.0000
  C   C455      1.0  0.56591  0.37795  0.53187  1.0000
  C   C456      1.0  0.61288  0.42230  0.75161  1.0000
  H   H765      1.0  0.61160  0.43508  0.74677  1.0000
  H   H766      1.0  0.57552  0.40496  0.76132  1.0000
  H   H767      1.0  0.40302  0.45663  0.84591  1.0000
  H   H768      1.0  0.45238  0.42811  0.80166  1.0000
  H   H769      1.0  0.32944  0.39265  0.68225  1.0000
  H   H770      1.0  0.35672  0.41627  0.67983  1.0000
  N   N35       1.0  0.54290  0.48927  0.57036  1.0000
  H   H771      1.0  0.39308  0.33356  0.91002  1.0000
  C   C457      1.0  0.33283  0.43297  0.57780  1.0000
  C   C458      1.0  0.40978  0.45556  0.82133  1.0000
  C   C459      1.0  0.63804  0.46981  0.78487  1.0000
  H   H772      1.0  0.49108  0.36315  0.55577  1.0000
  C   C460      1.0  0.50832  0.37150  0.50917  1.0000
  H   H773      1.0  0.57686  0.44610  0.82809  1.0000
  C   C461      1.0  0.45107  0.34502  0.51394  1.0000
  C   C462      1.0  0.50400  0.36361  0.54640  1.0000
  S   S140      1.0  0.62347  0.48229  0.67220  1.0000
  C   C463      1.0  0.49764  0.24385  0.97190  1.0000
  H   H774      1.0  0.37985  0.44647  0.69447  1.0000
  H   H775      1.0  0.49810  0.36109  0.49010  1.0000
  S   S141      1.0  0.50193  0.31997  0.49039  1.0000
  H   H776      1.0  0.64216  0.43654  0.52564  1.0000
  H   H777      1.0  0.50926  0.45884  0.58938  1.0000
  H   H778      1.0  0.50233  0.34927  0.54509  1.0000
  H   H779      1.0  0.42985  0.45556  0.85995  1.0000
  H   H780      1.0  0.33248  0.39581  0.57127  1.0000
  C   C464      1.0  0.34610  0.43681  0.61032  1.0000
  S   S142      1.0  0.46607  0.46316  0.60816  1.0000
  H   H781      1.0  0.41374  0.46884  0.80893  1.0000
  C   C465      1.0  0.47183  0.45909  0.53813  1.0000
  C   C466      1.0  0.59439  0.40893  0.84633  1.0000
  C   C467      1.0  0.62871  0.47620  0.71477  1.0000
  C   C468      1.0  0.64277  0.47102  0.72058  1.0000
  H   H782      1.0  0.40286  0.33813  0.81686  1.0000
  H   H783      1.0  0.52397  0.45271  0.50538  1.0000
  C   C469      1.0  0.37047  0.45042  0.51965  1.0000
  Fe  Fe73      1.0  0.62241  0.48138  0.94748  1.0000
  H   H784      1.0  0.36001  0.44530  0.60095  1.0000
  N   N36       1.0  0.44215  0.45849  0.80857  1.0000
  H   H785      1.0  0.54126  0.39510  0.53529  1.0000
  C   C470      1.0  0.56929  0.39951  0.96506  1.0000
  C   C471      1.0  0.61915  0.47781  0.74421  1.0000
  H   H786      1.0  0.46492  0.43392  0.84338  1.0000
  H   H787      1.0  0.43707  0.46863  0.73466  1.0000
  H   H788      1.0  0.38731  0.35075  0.92597  1.0000
  C   C472      1.0  0.57585  0.43199  0.82774  1.0000
  C   C473      1.0  0.43333  0.36847  0.51894  1.0000
  S   S143      1.0  0.46184  0.32997  0.51275  1.0000
  C   C474      1.0  0.57011  0.34796  0.95906  1.0000
  H   H789      1.0  0.56907  0.37427  0.75618  1.0000
  S   S144      1.0  0.42108  0.38217  0.52035  1.0000
  H   H790      1.0  0.60476  0.44321  0.82188  1.0000
  H   H791      1.0  0.43048  0.34054  0.85039  1.0000
  H   H792      1.0  0.39972  0.34267  0.95506  1.0000
  H   H793      1.0  0.60264  0.41085  0.73462  1.0000
  H   H794      1.0  0.51877  0.41671  0.53229  1.0000
  H   H795      1.0  0.56510  0.39707  0.80130  1.0000
  H   H796      1.0  0.59110  0.38168  0.77533  1.0000
  H   H797      1.0  0.53927  0.32000  0.93539  1.0000
  Fe  Fe74      1.0  0.63463  0.46464  0.88493  1.0000
  H   H798      1.0  0.42654  0.31924  0.90768  1.0000
  H   H799      1.0  0.46471  0.24195  0.49611  1.0000
  C   C475      1.0  0.44878  0.35207  0.54713  1.0000
  C   C476      1.0  0.41618  0.36183  0.91563  1.0000
  H   H800      1.0  0.57137  0.33878  0.93812  1.0000
  C   C477      1.0  0.59235  0.43199  0.80868  1.0000
  C   C478      1.0  0.37404  0.44372  0.66669  1.0000
  H   H801      1.0  0.51124  0.46090  0.53243  1.0000
  H   H802      1.0  0.42425  0.44524  0.72033  1.0000
  C   C479      1.0  0.57651  0.40422  0.49497  1.0000
  H   H803      1.0  0.35268  0.48095  0.50371  1.0000
  H   H804      1.0  0.31936  0.41383  0.65110  1.0000
  H   H805      1.0  0.37609  0.47727  0.54176  1.0000
  C   C480      1.0  0.43448  0.47388  0.49899  1.0000
  C   C481      1.0  0.35939  0.46482  0.97224  1.0000
  C   C482      1.0  0.43485  0.48839  0.57096  1.0000
  H   H806      1.0  0.34310  0.44597  0.62890  1.0000
  H   H807      1.0  0.54513  0.35263  0.50777  1.0000
  H   H808      1.0  0.60136  0.42140  0.86432  1.0000
  H   H809      1.0  0.50336  0.25329  0.95096  1.0000
  H   H810      1.0  0.51895  0.24677  0.49024  1.0000
  H   H811      1.0  0.33006  0.38181  0.63982  1.0000
  H   H812      1.0  0.60827  0.48182  0.74007  1.0000
  H   H813      1.0  0.36147  0.42420  0.49184  1.0000
  H   H814      1.0  0.54184  0.46223  0.56007  1.0000
  C   C483      1.0  0.43772  0.44858  0.77241  1.0000
  C   C484      1.0  0.57760  0.38098  0.78067  1.0000
  H   H815      1.0  0.62923  0.41219  0.57241  1.0000
  C   C485      1.0  0.53019  0.31251  0.95652  1.0000
  H   H816      1.0  0.40814  0.48340  0.51901  1.0000
  H   H817      1.0  0.46565  0.44449  0.54196  1.0000
  H   H818      1.0  0.37357  0.45645  0.65795  1.0000
  C   C486      1.0  0.63593  0.42155  0.51863  1.0000
  H   H819      1.0  0.44099  0.42653  0.84282  1.0000
  C   C487      1.0  0.48605  0.40434  0.49466  1.0000
  C   C488      1.0  0.57781  0.39990  0.78733  1.0000
  H   H820      1.0  0.35919  0.40263  0.62745  1.0000
  H   H821      1.0  0.44026  0.48269  0.78907  1.0000
  H   H822      1.0  0.61610  0.47575  0.80106  1.0000
  C   C489      1.0  0.35452  0.46856  0.50101  1.0000
  H   H823      1.0  0.62651  0.42462  0.74254  1.0000
  C   C490      1.0  0.45701  0.38820  0.90909  1.0000
  H   H824      1.0  0.43725  0.38124  0.86585  1.0000
  H   H825      1.0  0.42293  0.37023  0.94025  1.0000
  H   H826      1.0  0.46616  0.38321  0.92247  1.0000
  H   H827      1.0  0.46583  0.40076  0.89535  1.0000
  H   H828      1.0  0.44990  0.39240  0.92939  1.0000
  H   H829      1.0  0.57555  0.42825  0.85591  1.0000
  H   H830      1.0  0.59136  0.43636  0.78131  1.0000
  H   H831      1.0  0.57387  0.48135  0.57369  1.0000
  S   S145      1.0  0.63619  0.45332  0.59449  1.0000
  C   C491      1.0  0.48461  0.48442  0.49893  1.0000
  C   C492      1.0  0.53541  0.48224  0.60591  1.0000
  H   H832      1.0  0.58030  0.40182  0.85585  1.0000
  H   H833      1.0  0.41241  0.37122  0.90004  1.0000
  H   H834      1.0  0.48247  0.38239  0.52855  1.0000
  H   H835      1.0  0.51724  0.31370  0.95232  1.0000
  C   C493      1.0  0.36783  0.46642  0.52256  1.0000
  H   H836      1.0  0.55296  0.47806  0.52754  1.0000
  S   S146      1.0  0.61896  0.45835  0.98339  1.0000
  C   C494      1.0  0.44361  0.37390  0.88141  1.0000
  C   C495      1.0  0.35495  0.42733  0.66586  1.0000
  H   H837      1.0  0.33471  0.42436  0.55661  1.0000
  H   H838      1.0  0.35376  0.40950  0.55172  1.0000
  C   C496      1.0  0.42584  0.45118  0.83147  1.0000
  H   H839      1.0  0.41992  0.43598  0.83185  1.0000
  H   H840      1.0  0.45206  0.37055  0.86245  1.0000
  N   N37       1.0  0.59407  0.41420  0.80816  1.0000
  C   C497      1.0  0.43879  0.34899  0.92095  1.0000
  H   H841      1.0  0.41891  0.36155  0.82333  1.0000
  H   H842      1.0  0.33554  0.44621  0.56575  1.0000
  H   H843      1.0  0.42024  0.48509  0.57269  1.0000
  Fe  Fe75      1.0  0.61189  0.47792  0.53978  1.0000
  H   H844      1.0  0.50771  0.48005  0.60053  1.0000
  N   N38       1.0  0.42924  0.35664  0.89609  1.0000
  H   H845      1.0  0.44311  0.35728  0.94647  1.0000
  H   H846      1.0  0.41493  0.32571  0.94179  1.0000
  C   C498      1.0  0.55163  0.38505  0.96069  1.0000
  H   H847      1.0  0.63605  0.39774  0.54602  1.0000
  H   H848      1.0  0.43646  0.47551  0.56975  1.0000
  C   C499      1.0  0.45337  0.43466  0.82841  1.0000
  C   C500      1.0  0.34736  0.40100  0.57459  1.0000
  H   H849      1.0  0.39952  0.44446  0.80363  1.0000
  H   H850      1.0  0.36969  0.42244  0.60375  1.0000
  S   S147      1.0  0.63182  0.44040  0.91635  1.0000
  C   C501      1.0  0.62364  0.47447  0.77893  1.0000
  H   H851      1.0  0.59905  0.38415  0.83802  1.0000
  C   C502      1.0  0.43571  0.36151  0.48574  1.0000
  C   C503      1.0  0.32624  0.40704  0.63537  1.0000
  C   C504      1.0  0.40972  0.34935  0.83746  1.0000
  H   H852      1.0  0.45158  0.34999  0.90936  1.0000
  H   H853      1.0  0.37379  0.45092  0.94732  1.0000
  H   H854      1.0  0.45962  0.46047  0.85486  1.0000
  H   H855      1.0  0.42915  0.43366  0.77499  1.0000
  H   H856      1.0  0.52665  0.29769  0.95306  1.0000
  C   C505      1.0  0.42825  0.32880  0.93066  1.0000
  C   C506      1.0  0.61178  0.41774  0.79128  1.0000
  H   H857      1.0  0.41040  0.32968  0.87327  1.0000
  H   H858      1.0  0.34985  0.38861  0.57271  1.0000
  H   H859      1.0  0.57178  0.37207  0.80334  1.0000
  C   C507      1.0  0.35599  0.41183  0.61005  1.0000
  H   H860      1.0  0.51106  0.39861  0.56117  1.0000
  S   S148      1.0  0.64494  0.46620  0.82825  1.0000
  H   H861      1.0  0.34646  0.43154  0.68319  1.0000
  C   C508      1.0  0.63870  0.41216  0.55186  1.0000
  C   C509      1.0  0.35958  0.43654  0.49471  1.0000
  H   H862      1.0  0.56059  0.30935  0.95546  1.0000
  C   C510      1.0  0.44018  0.36385  0.54964  1.0000
  H   H863      1.0  0.36288  0.47506  0.95241  1.0000
  H   H864      1.0  0.43837  0.36891  0.57539  1.0000
  C   C511      1.0  0.32386  0.38958  0.65438  1.0000
  C   C512      1.0  0.45698  0.45495  0.82677  1.0000
  C   C513      1.0  0.36562  0.45112  0.96927  1.0000
  H   H865      1.0  0.62335  0.42913  0.80620  1.0000
  H   H866      1.0  0.47012  0.46218  0.81348  1.0000
  C   C514      1.0  0.53857  0.40687  0.54306  1.0000
  H   H867      1.0  0.60142  0.39268  0.88309  1.0000
  H   H868      1.0  0.61903  0.40466  0.85368  1.0000
  S   S149      1.0  0.59256  0.48557  0.50522  1.0000
  H   H869      1.0  0.45041  0.44973  0.76007  1.0000
  H   H870      1.0  0.55755  0.34976  0.95428  1.0000
  H   H871      1.0  0.41516  0.45473  0.75290  1.0000
  H   H872      1.0  0.56276  0.42293  0.81355  1.0000
  C   C515      1.0  0.51463  0.47139  0.60690  1.0000
  H   H873      1.0  0.50249  0.46353  0.97003  1.0000
  H   H874      1.0  0.44265  0.48691  0.85659  1.0000
  H   H875      1.0  0.31841  0.42702  0.58532  1.0000
  H   H876      1.0  0.54122  0.47312  0.61621  1.0000
  H   H877      1.0  0.49200  0.41532  0.51586  1.0000
  H   H878      1.0  0.51096  0.46687  0.63434  1.0000
  H   H879      1.0  0.58166  0.36175  0.95679  1.0000
  C   C516      1.0  0.52428  0.46512  0.51922  1.0000
  Fe  Fe76      1.0  0.64572  0.46046  0.96269  1.0000
  C   C517      1.0  0.54120  0.47361  0.54518  1.0000
  H   H880      1.0  0.57214  0.48904  0.61842  1.0000
  H   H881      1.0  0.54660  0.27920  0.96933  1.0000
  C   C518      1.0  0.56157  0.30833  0.98472  1.0000
  H   H882      1.0  0.42211  0.46385  0.51164  1.0000
  N   N39       1.0  0.50856  0.39006  0.50506  1.0000
  H   H883      1.0  0.31787  0.40227  0.61023  1.0000
  H   H884      1.0  0.62115  0.41750  0.51499  1.0000
  H   H885      1.0  0.44622  0.47317  0.51335  1.0000
  C   C519      1.0  0.49261  0.24680  0.49157  1.0000
  H   H886      1.0  0.58499  0.41862  0.49145  1.0000
  H   H887      1.0  0.53013  0.36219  0.98492  1.0000
  N   N40       1.0  0.64375  0.41797  0.48513  1.0000
  C   C520      1.0  0.43530  0.64272  0.42964  1.0000
  H   H888      1.0  0.53832  0.50279  0.34793  1.0000
  S   S150      1.0  0.34650  0.51521  0.08387  1.0000
  Fe  Fe77      1.0  0.33613  0.52304  0.45914  1.0000
  C   C521      1.0  0.47380  0.49887  0.03913  1.0000
  S   S151      1.0  0.33834  0.50549  0.41377  1.0000
  Fe  Fe78      1.0  0.50593  0.52197  0.45015  1.0000
  C   C522      1.0  0.54563  0.51653  0.33678  1.0000
  Fe  Fe79      1.0  0.52216  0.54889  0.39096  1.0000
  S   S152      1.0  0.53906  0.57195  0.43094  1.0000
  S   S153      1.0  0.51750  0.54520  0.33029  1.0000
  Fe  Fe80      1.0  0.54507  0.55031  0.45824  1.0000
  H   H889      1.0  0.37944  0.55157  0.17315  1.0000
  Fe  Fe81      1.0  0.51370  0.56219  0.46367  1.0000
  Fe  Fe82      1.0  0.32257  0.50527  0.11934  1.0000
  S   S154      1.0  0.52976  0.52838  0.41661  1.0000
  S   S155      1.0  0.49676  0.54045  0.42180  1.0000
  Fe  Fe83      1.0  0.53058  0.56906  0.04937  1.0000
  S   S156      1.0  0.51408  0.56158  0.09807  1.0000
  S   S157      1.0  0.52781  0.58841  0.00872  1.0000
  Fe  Fe84      1.0  0.54807  0.54227  0.06398  1.0000
  S   S158      1.0  0.53223  0.53316  0.11367  1.0000
  H   H890      1.0  0.41954  0.58717  0.48293  1.0000
  Fe  Fe85      1.0  0.50872  0.53289  0.08135  1.0000
  S   S159      1.0  0.48130  0.50882  0.08190  1.0000
  Fe  Fe86      1.0  0.53922  0.56263  0.12647  1.0000
  S   S160      1.0  0.55013  0.57718  0.18111  1.0000
  S   S161      1.0  0.52367  0.53994  0.03101  1.0000
  S   S162      1.0  0.55664  0.57232  0.07862  1.0000
  C   C523      1.0  0.57238  0.50207  0.47637  1.0000
  C   C524      1.0  0.37495  0.59704  0.47935  1.0000
  H   H891      1.0  0.57242  0.51807  0.34269  1.0000
  C   C525      1.0  0.52722  0.55446  0.28946  1.0000
  C   C526      1.0  0.54253  0.57136  0.28778  1.0000
  C   C527      1.0  0.54945  0.57808  0.25446  1.0000
  C   C528      1.0  0.54120  0.56799  0.22252  1.0000
  C   C529      1.0  0.52601  0.55104  0.22430  1.0000
  C   C530      1.0  0.51907  0.54437  0.25753  1.0000
  H   H892      1.0  0.54882  0.57937  0.31202  1.0000
  H   H893      1.0  0.56117  0.59124  0.25340  1.0000
  H   H894      1.0  0.51950  0.54311  0.20005  1.0000
  H   H895      1.0  0.50722  0.53129  0.25848  1.0000
  C   C531      1.0  0.47727  0.50956  0.00919  1.0000
  H   H896      1.0  0.39495  0.56414  0.02600  1.0000
  C   C532      1.0  0.39990  0.55349  0.02734  1.0000
  H   H897      1.0  0.59532  0.55735  0.41518  1.0000
  H   H898      1.0  0.52057  0.61356  0.48382  1.0000
  H   H899      1.0  0.44422  0.50027  0.44871  1.0000
  S   S163      1.0  0.57268  0.55279  0.47953  1.0000
  C   C533      1.0  0.59556  0.55132  0.35755  1.0000
  H   H900      1.0  0.59281  0.53445  0.40439  1.0000
  H   H901      1.0  0.38342  0.57311  0.15307  1.0000
  C   C534      1.0  0.56738  0.51646  0.47116  1.0000
  H   H902      1.0  0.35027  0.56046  0.13619  1.0000
  H   H903      1.0  0.38522  0.60231  0.06172  1.0000
  H   H904      1.0  0.43140  0.61215  0.04528  1.0000
  C   C535      1.0  0.32818  0.73580  0.04075  1.0000
  C   C536      1.0  0.58550  0.56809  0.29422  1.0000
  S   S164      1.0  0.35801  0.56528  0.06521  1.0000
  H   H905      1.0  0.55512  0.51390  0.45559  1.0000
  H   H906      1.0  0.39680  0.51229  0.06398  1.0000
  H   H907      1.0  0.46175  0.60429  0.38779  1.0000
  H   H908      1.0  0.32621  0.57805  0.17571  1.0000
  H   H909      1.0  0.37517  0.49549  0.07672  1.0000
  C   C537      1.0  0.32309  0.50385  0.22019  1.0000
  C   C538      1.0  0.43145  0.59859  0.04069  1.0000
  H   H910      1.0  0.43913  0.52693  0.47483  1.0000
  H   H911      1.0  0.32461  0.56187  0.14035  1.0000
  H   H912      1.0  0.41051  0.50817  0.01104  1.0000
  H   H913      1.0  0.46171  0.60224  0.45436  1.0000
  H   H914      1.0  0.56410  0.52343  0.38227  1.0000
  C   C539      1.0  0.58266  0.50551  0.03390  1.0000
  H   H915      1.0  0.33679  0.50542  0.30789  1.0000
  C   C540      1.0  0.35430  0.55438  0.15880  1.0000
  H   H916      1.0  0.35428  0.53861  0.21553  1.0000
  C   C541      1.0  0.59393  0.50089  0.01197  1.0000
  H   H917      1.0  0.35556  0.57128  0.45409  1.0000
  N   N41       1.0  0.44618  0.61778  0.44392  1.0000
  H   H918      1.0  0.34640  0.50292  0.24664  1.0000
  H   H919      1.0  0.43232  0.59014  0.42120  1.0000
  H   H920      1.0  0.54556  0.51433  0.30751  1.0000
  C   C542      1.0  0.57391  0.54893  0.30806  1.0000
  C   C543      1.0  0.36836  0.57848  0.02836  1.0000
  C   C544      1.0  0.39054  0.60758  0.00635  1.0000
  H   H921      1.0  0.60475  0.56564  0.35190  1.0000
  H   H922      1.0  0.60059  0.54299  0.34112  1.0000
  H   H923      1.0  0.60032  0.57255  0.29824  1.0000
  C   C545      1.0  0.45543  0.72363  0.99692  1.0000
  H   H924      1.0  0.43886  0.49522  0.05121  1.0000
  H   H925      1.0  0.56560  0.55111  0.39669  1.0000
  C   C546      1.0  0.34938  0.55225  0.26020  1.0000
  C   C547      1.0  0.44063  0.61589  0.48208  1.0000
  H   H926      1.0  0.37120  0.60534  0.46196  1.0000
  C   C548      1.0  0.56810  0.55657  0.36957  1.0000
  C   C549      1.0  0.40984  0.49430  0.00695  1.0000
  H   H927      1.0  0.35365  0.55738  0.98805  1.0000
  H   H928      1.0  0.59275  0.58349  0.36298  1.0000
  H   H929      1.0  0.58276  0.56753  0.26499  1.0000
  H   H930      1.0  0.44559  0.60057  0.04616  1.0000
  S   S165      1.0  0.33071  0.50183  0.17702  1.0000
  H   H931      1.0  0.47454  0.62633  0.45996  1.0000
  H   H932      1.0  0.40985  0.60861  0.44397  1.0000
  H   H933      1.0  0.58198  0.58133  0.40417  1.0000
  H   H934      1.0  0.58099  0.62298  0.09917  1.0000
  N   N42       1.0  0.54950  0.62747  0.12136  1.0000
  C   C550      1.0  0.53302  0.62399  0.14280  1.0000
  C   C551      1.0  0.56248  0.64749  0.12725  1.0000
  C   C552      1.0  0.55807  0.61565  0.13535  1.0000
  C   C553      1.0  0.54310  0.62227  0.08293  1.0000
  C   C554      1.0  0.51896  0.60375  0.14480  1.0000
  C   C555      1.0  0.55551  0.66112  0.11350  1.0000
  C   C556      1.0  0.57820  0.62126  0.12767  1.0000
  C   C557      1.0  0.55779  0.62740  0.05496  1.0000
  H   H935      1.0  0.53726  0.62943  0.17080  1.0000
  H   H936      1.0  0.52531  0.63127  0.13195  1.0000
  H   H937      1.0  0.57565  0.65102  0.11480  1.0000
  H   H938      1.0  0.56621  0.65084  0.15617  1.0000
  H   H939      1.0  0.55745  0.61515  0.16491  1.0000
  H   H940      1.0  0.55027  0.60121  0.12497  1.0000
  H   H941      1.0  0.53494  0.60716  0.07935  1.0000
  H   H942      1.0  0.53326  0.62767  0.07446  1.0000
  H   H943      1.0  0.51288  0.59753  0.11825  1.0000
  H   H944      1.0  0.52475  0.59529  0.15798  1.0000
  H   H945      1.0  0.50759  0.60310  0.16112  1.0000
  H   H946      1.0  0.56662  0.67527  0.11716  1.0000
  H   H947      1.0  0.55160  0.65873  0.08468  1.0000
  H   H948      1.0  0.54396  0.66083  0.12867  1.0000
  H   H949      1.0  0.58739  0.63388  0.14341  1.0000
  C   C558      1.0  0.42466  0.59170  0.00202  1.0000
  H   H950      1.0  0.58178  0.61020  0.13627  1.0000
  H   H951      1.0  0.56167  0.61603  0.05009  1.0000
  H   H952      1.0  0.57013  0.64026  0.06125  1.0000
  H   H953      1.0  0.55210  0.62971  0.02942  1.0000
  C   C559      1.0  0.36607  0.57778  0.47487  1.0000
  H   H954      1.0  0.41041  0.58966  0.99932  1.0000
  H   H955      1.0  0.37542  0.58635  0.19739  1.0000
  C   C560      1.0  0.56525  0.52599  0.35330  1.0000
  C   C561      1.0  0.43282  0.51668  0.07177  1.0000
  H   H956      1.0  0.35664  0.54719  0.27913  1.0000
  H   H957      1.0  0.39867  0.54953  0.05549  1.0000
  C   C562      1.0  0.33001  0.55433  0.19437  1.0000
  H   H958      1.0  0.42228  0.58927  0.06004  1.0000
  H   H959      1.0  0.41533  0.49069  0.44027  1.0000
  H   H960      1.0  0.35827  0.58766  0.17050  1.0000
  H   H961      1.0  0.53671  0.49049  0.09324  1.0000
  H   H962      1.0  0.58150  0.57850  0.30527  1.0000
  C   C563      1.0  0.33378  0.50391  0.25031  1.0000
  H   H963      1.0  0.34605  0.53928  0.15485  1.0000
  H   H964      1.0  0.32151  0.56132  0.47106  1.0000
  H   H965      1.0  0.46082  0.53284  0.45686  1.0000
  Fe  Fe87      1.0  0.33686  0.53529  0.06373  1.0000
  H   H966      1.0  0.44623  0.52272  0.08673  1.0000
  S   S166      1.0  0.56328  0.52447  0.05435  1.0000
  S   S167      1.0  0.48857  0.49192  0.45556  1.0000
  H   H967      1.0  0.35743  0.60532  0.21809  1.0000
  C   C564      1.0  0.48958  0.61702  0.00410  1.0000
  H   H968      1.0  0.40329  0.58562  0.42791  1.0000
  C   C565      1.0  0.51240  0.59867  0.00712  1.0000
  C   C566      1.0  0.35719  0.55304  0.22311  1.0000
  H   H969      1.0  0.55955  0.54591  0.30050  1.0000
  H   H970      1.0  0.36660  0.59485  0.24949  1.0000
  S   S168      1.0  0.31911  0.51641  0.01913  1.0000
  C   C567      1.0  0.46353  0.61537  0.44306  1.0000
  H   H971      1.0  0.42311  0.51883  0.08894  1.0000
  H   H972      1.0  0.35117  0.56572  0.27106  1.0000
  C   C568      1.0  0.57806  0.51984  0.02579  1.0000
  C   C569      1.0  0.32166  0.56332  0.16845  1.0000
  C   C570      1.0  0.36392  0.57132  0.99331  1.0000
  C   C571      1.0  0.36045  0.58182  0.19570  1.0000
  N   N43       1.0  0.35042  0.56119  0.19383  1.0000
  H   H973      1.0  0.44116  0.65760  0.42468  1.0000
  H   H974      1.0  0.40641  0.60302  0.39741  1.0000
  H   H975      1.0  0.32304  0.53921  0.18862  1.0000
  H   H976      1.0  0.42757  0.64088  0.45400  1.0000
  S   S169      1.0  0.46059  0.70423  0.99273  1.0000
  S   S170      1.0  0.44218  0.64913  0.99034  1.0000
  H   H977      1.0  0.50075  0.58948  0.05746  1.0000
  C   C572      1.0  0.41988  0.56020  0.01663  1.0000
  C   C573      1.0  0.48988  0.60681  0.03360  1.0000
  C   C574      1.0  0.37430  0.55823  0.15334  1.0000
  C   C575      1.0  0.59944  0.54899  0.39703  1.0000
  H   H978      1.0  0.57708  0.53906  0.29188  1.0000
  H   H979      1.0  0.48137  0.60604  0.05559  1.0000
  S   S171      1.0  0.47506  0.62830  0.00430  1.0000
  H   H980      1.0  0.53773  0.52430  0.34266  1.0000
  C   C576      1.0  0.44870  0.50531  0.47661  1.0000
  H   H981      1.0  0.40078  0.62153  0.01161  1.0000
  H   H982      1.0  0.46147  0.64718  0.45236  1.0000
  H   H983      1.0  0.37504  0.55230  0.12680  1.0000
  C   C577      1.0  0.50094  0.59746  0.03486  1.0000
  C   C578      1.0  0.35648  0.59201  0.22703  1.0000
  C   C579      1.0  0.32833  0.50527  0.28515  1.0000
  H   H984      1.0  0.48470  0.52432  0.01223  1.0000
  C   C580      1.0  0.38170  0.59664  0.03471  1.0000
  C   C581      1.0  0.43201  0.60366  0.41867  1.0000
  C   C582      1.0  0.47141  0.61540  0.40622  1.0000
  C   C583      1.0  0.45195  0.52554  0.47863  1.0000
  N   N44       1.0  0.57591  0.54625  0.34721  1.0000
  C   C584      1.0  0.41195  0.60025  0.42263  1.0000
  C   C585      1.0  0.45096  0.63708  0.43316  1.0000
  H   H985      1.0  0.42595  0.63556  0.40648  1.0000
  C   C586      1.0  0.57942  0.57758  0.37521  1.0000
  H   H986      1.0  0.39677  0.49193  0.46050  1.0000
  H   H987      1.0  0.61433  0.55379  0.40190  1.0000
  H   H988      1.0  0.45715  0.63962  0.40683  1.0000
  H   H989      1.0  0.43538  0.60740  0.39067  1.0000
  H   H990      1.0  0.34262  0.58476  0.23685  1.0000
  H   H991      1.0  0.48361  0.61278  0.40988  1.0000
  Fe  Fe88      1.0  0.32780  0.49550  0.04135  1.0000
  H   H992      1.0  0.47620  0.62883  0.39377  1.0000
  H   H993      1.0  0.55443  0.55414  0.35848  1.0000
  C   C587      1.0  0.42721  0.49618  0.06403  1.0000
  H   H994      1.0  0.57151  0.58468  0.36458  1.0000
  N   N45       1.0  0.42624  0.57469  0.98936  1.0000
  H   H995      1.0  0.42088  0.54769  0.00658  1.0000
  H   H996      1.0  0.37227  0.56053  0.22696  1.0000
  H   H997      1.0  0.33482  0.54226  0.26018  1.0000
  H   H998      1.0  0.59737  0.48990  0.01884  1.0000
  H   H999      1.0  0.42898  0.56454  0.04111  1.0000
  H   H1000     1.0  0.47575  0.73679  0.03932  1.0000
  H   H1001     1.0  0.57757  0.49799  0.05757  1.0000
  H   H1002     1.0  0.43471  0.52437  0.04717  1.0000
  C   C588      1.0  0.38629  0.49816  0.05811  1.0000
  H   H1003     1.0  0.46226  0.50527  0.48013  1.0000
  H   H1004     1.0  0.45421  0.58440  0.00857  1.0000
  C   C589      1.0  0.58513  0.52970  0.99548  1.0000
  H   H1005     1.0  0.38018  0.49731  0.03099  1.0000
  H   H1006     1.0  0.51569  0.50443  0.99265  1.0000
  H   H1007     1.0  0.52373  0.49876  0.04593  1.0000
  H   H1008     1.0  0.32547  0.55626  0.22093  1.0000
  C   C590      1.0  0.46558  0.73802  0.02205  1.0000
  H   H1009     1.0  0.43893  0.50466  0.99553  1.0000
  H   H1010     1.0  0.33308  0.72502  0.03905  1.0000
  H   H1011     1.0  0.39056  0.54150  0.01014  1.0000
  H   H1012     1.0  0.46530  0.72055  0.48145  1.0000
  H   H1013     1.0  0.58183  0.54081  0.98887  1.0000
  H   H1014     1.0  0.42651  0.49008  0.09037  1.0000
  Fe  Fe89      1.0  0.42609  0.63670  0.93936  1.0000
  H   H1015     1.0  0.53960  0.49375  0.62621  1.0000
  C   C591      1.0  0.47962  0.59416  0.52192  1.0000
  Fe  Fe90      1.0  0.45816  0.65803  0.89317  1.0000
  S   S172      1.0  0.47670  0.67129  0.94219  1.0000
  S   S173      1.0  0.47065  0.66673  0.83849  1.0000
  H   H1016     1.0  0.48525  0.49984  0.58428  1.0000
  H   H1017     1.0  0.34048  0.53599  0.55859  1.0000
  Fe  Fe91      1.0  0.45339  0.67618  0.96306  1.0000
  H   H1018     1.0  0.54957  0.52834  0.57598  1.0000
  S   S174      1.0  0.44752  0.62990  0.91563  1.0000
  S   S175      1.0  0.43547  0.66400  0.91330  1.0000
  Fe  Fe92      1.0  0.44511  0.65705  0.61902  1.0000
  S   S176      1.0  0.47112  0.67759  0.59655  1.0000
  S   S177      1.0  0.43800  0.64868  0.67681  1.0000
  Fe  Fe93      1.0  0.42623  0.64572  0.54417  1.0000
  S   S178      1.0  0.39735  0.61343  0.93485  1.0000
  H   H1019     1.0  0.33563  0.55166  0.58559  1.0000
  Fe  Fe94      1.0  0.46644  0.65516  0.55439  1.0000
  H   H1020     1.0  0.50544  0.66442  0.68547  1.0000
  Fe  Fe95      1.0  0.45348  0.68614  0.56090  1.0000
  S   S179      1.0  0.45723  0.71619  0.55788  1.0000
  S   S180      1.0  0.44142  0.63433  0.57853  1.0000
  S   S181      1.0  0.42772  0.66667  0.58602  1.0000
  H   H1021     1.0  0.46540  0.57108  0.96228  1.0000
  H   H1022     1.0  0.36915  0.57668  0.93785  1.0000
  C   C592      1.0  0.31685  0.57032  0.55942  1.0000
  C   C593      1.0  0.44602  0.58004  0.98304  1.0000
  S   S182      1.0  0.48930  0.64822  0.53477  1.0000
  H   H1023     1.0  0.52911  0.49578  0.96752  1.0000
  H   H1024     1.0  0.45915  0.50529  0.83345  1.0000
  H   H1025     1.0  0.49390  0.51134  0.52398  1.0000
  C   C594      1.0  0.49118  0.62748  0.52402  1.0000
  H   H1026     1.0  0.31815  0.56892  0.58860  1.0000
  H   H1027     1.0  0.49589  0.60513  0.60387  1.0000
  H   H1028     1.0  0.51729  0.64177  0.50095  1.0000
  H   H1029     1.0  0.44793  0.72485  0.87178  1.0000
  H   H1030     1.0  0.41032  0.57247  0.90090  1.0000
  C   C595      1.0  0.48539  0.72038  0.82024  1.0000
  H   H1031     1.0  0.50528  0.70762  0.90695  1.0000
  C   C596      1.0  0.38615  0.60041  0.97128  1.0000
  H   H1032     1.0  0.50035  0.63671  0.60071  1.0000
  H   H1033     1.0  0.52092  0.60996  0.95597  1.0000
  H   H1034     1.0  0.44296  0.51391  0.54562  1.0000
  S   S183      1.0  0.63902  0.49336  0.56995  1.0000
  H   H1035     1.0  0.47717  0.69933  0.87693  1.0000
  H   H1036     1.0  0.44785  0.70480  0.82268  1.0000
  H   H1037     1.0  0.45849  0.50417  0.54176  1.0000
  H   H1038     1.0  0.52675  0.52267  0.56177  1.0000
  C   C597      1.0  0.60122  0.51090  0.98195  1.0000
  H   H1039     1.0  0.31972  0.52755  0.58120  1.0000
  H   H1040     1.0  0.44023  0.59755  0.63519  1.0000
  H   H1041     1.0  0.46559  0.60903  0.54432  1.0000
  C   C598      1.0  0.48325  0.64714  0.64644  1.0000
  C   C599      1.0  0.45793  0.73262  0.52603  1.0000
  C   C600      1.0  0.38490  0.57567  0.52358  1.0000
  C   C601      1.0  0.39372  0.59488  0.52811  1.0000
  C   C602      1.0  0.50587  0.61551  0.62319  1.0000
  H   H1042     1.0  0.38882  0.56743  0.54079  1.0000
  H   H1043     1.0  0.40427  0.60137  0.54881  1.0000
  H   H1044     1.0  0.63600  0.49688  0.84994  1.0000
  C   C603      1.0  0.44374  0.50077  0.53976  1.0000
  C   C604      1.0  0.61558  0.50703  0.85355  1.0000
  C   C605      1.0  0.38896  0.60565  0.50570  1.0000
  H   H1045     1.0  0.43225  0.60339  0.98489  1.0000
  C   C606      1.0  0.46108  0.66189  0.79384  1.0000
  C   C607      1.0  0.44318  0.64887  0.78543  1.0000
  C   C608      1.0  0.43643  0.64518  0.74962  1.0000
  C   C609      1.0  0.44730  0.65454  0.72160  1.0000
  C   C610      1.0  0.46516  0.66771  0.73003  1.0000
  C   C611      1.0  0.47199  0.67126  0.76582  1.0000
  H   H1046     1.0  0.43457  0.64151  0.80647  1.0000
  H   H1047     1.0  0.42260  0.63496  0.74359  1.0000
  H   H1048     1.0  0.47370  0.67514  0.70901  1.0000
  H   H1049     1.0  0.48585  0.68137  0.77188  1.0000
  H   H1050     1.0  0.31551  0.57935  0.48633  1.0000
  C   C612      1.0  0.46251  0.73176  0.49065  1.0000
  H   H1051     1.0  0.33961  0.58038  0.52105  1.0000
  C   C613      1.0  0.48235  0.73303  0.84823  1.0000
  H   H1052     1.0  0.44960  0.68854  0.85296  1.0000
  C   C614      1.0  0.37114  0.56705  0.49687  1.0000
  H   H1053     1.0  0.50067  0.62561  0.95304  1.0000
  C   C615      1.0  0.43290  0.59630  0.49600  1.0000
  C   C616      1.0  0.50858  0.61247  0.49706  1.0000
  H   H1054     1.0  0.43413  0.71469  0.95587  1.0000
  C   C617      1.0  0.49969  0.66523  0.65895  1.0000
  H   H1055     1.0  0.51481  0.64361  0.63972  1.0000
  H   H1056     1.0  0.51050  0.66949  0.63930  1.0000
  H   H1057     1.0  0.40006  0.56394  0.96061  1.0000
  N   N46       1.0  0.47409  0.72461  0.88250  1.0000
  C   C618      1.0  0.48809  0.49681  0.52795  1.0000
  C   C619      1.0  0.32009  0.54296  0.53377  1.0000
  C   C620      1.0  0.50067  0.61783  0.97591  1.0000
  H   H1058     1.0  0.47650  0.70557  0.82168  1.0000
  C   C621      1.0  0.51214  0.60889  0.97764  1.0000
  C   C622      1.0  0.53548  0.51719  0.57524  1.0000
  H   H1059     1.0  0.44385  0.56062  0.93863  1.0000
  C   C623      1.0  0.41449  0.56698  0.95579  1.0000
  C   C624      1.0  0.59909  0.52251  0.51167  1.0000
  H   H1060     1.0  0.42443  0.50400  0.95869  1.0000
  H   H1061     1.0  0.47621  0.62124  0.73813  1.0000
  C   C625      1.0  0.53387  0.50007  0.55364  1.0000
  H   H1062     1.0  0.47389  0.70502  0.92038  1.0000
  H   H1063     1.0  0.41756  0.50611  0.50733  1.0000
  S   S184      1.0  0.52144  0.54266  0.49383  1.0000
  C   C626      1.0  0.47039  0.50118  0.97535  1.0000
  C   C627      1.0  0.63917  0.52352  0.78203  1.0000
  Fe  Fe96      1.0  0.46421  0.64337  0.96586  1.0000
  C   C628      1.0  0.50149  0.71912  0.90427  1.0000
  H   H1064     1.0  0.48284  0.72415  0.79319  1.0000
  H   H1065     1.0  0.51942  0.61984  0.61163  1.0000
  H   H1066     1.0  0.46629  0.63117  0.70833  1.0000
  H   H1067     1.0  0.60994  0.50972  0.87837  1.0000
  S   S185      1.0  0.45108  0.66546  0.51724  1.0000
  H   H1068     1.0  0.56498  0.51336  0.59630  1.0000
  H   H1069     1.0  0.50760  0.49341  0.95005  1.0000
  H   H1070     1.0  0.47261  0.50949  0.95238  1.0000
  C   C629      1.0  0.45045  0.56514  0.96556  1.0000
  H   H1071     1.0  0.63537  0.53653  0.90665  1.0000
  H   H1072     1.0  0.44735  0.62028  0.65245  1.0000
  C   C630      1.0  0.63525  0.50936  0.86097  1.0000
  H   H1073     1.0  0.41867  0.59238  0.92982  1.0000
  H   H1074     1.0  0.56861  0.50889  0.55175  1.0000
  H   H1075     1.0  0.41403  0.55356  0.94717  1.0000
  H   H1076     1.0  0.45187  0.59228  0.96644  1.0000
  H   H1077     1.0  0.61381  0.51541  0.83265  1.0000
  H   H1078     1.0  0.47992  0.64857  0.61814  1.0000
  C   C631      1.0  0.37271  0.58229  0.96491  1.0000
  H   H1079     1.0  0.48809  0.64488  0.73077  1.0000
  H   H1080     1.0  0.43380  0.58281  0.91548  1.0000
  C   C632      1.0  0.44515  0.69949  0.84978  1.0000
  H   H1081     1.0  0.62609  0.51126  0.78448  1.0000
  C   C633      1.0  0.48989  0.62677  0.68780  1.0000
  H   H1082     1.0  0.58952  0.50353  0.59066  1.0000
  C   C634      1.0  0.57502  0.49323  0.59063  1.0000
  H   H1083     1.0  0.63545  0.54249  0.83935  1.0000
  H   H1084     1.0  0.48737  0.61223  0.69042  1.0000
  H   H1085     1.0  0.47144  0.64656  0.66084  1.0000
  C   C635      1.0  0.48081  0.71120  0.89571  1.0000
  C   C636      1.0  0.47764  0.61015  0.53144  1.0000
  H   H1086     1.0  0.63671  0.50876  0.89034  1.0000
  H   H1087     1.0  0.53065  0.51402  0.60253  1.0000
  H   H1088     1.0  0.50965  0.72780  0.88315  1.0000
  C   C637      1.0  0.49505  0.59513  0.50454  1.0000
  H   H1089     1.0  0.43035  0.62098  0.48711  1.0000
  H   H1090     1.0  0.50619  0.60920  0.64875  1.0000
  C   C638      1.0  0.50668  0.62848  0.50692  1.0000
  N   N47       1.0  0.48594  0.63002  0.64986  1.0000
  C   C639      1.0  0.45123  0.60884  0.65134  1.0000
  H   H1091     1.0  0.46735  0.61617  0.60515  1.0000
  H   H1092     1.0  0.60239  0.53333  0.95104  1.0000
  H   H1093     1.0  0.43011  0.69285  0.85183  1.0000
  H   H1094     1.0  0.47135  0.60112  0.63389  1.0000
  H   H1095     1.0  0.49523  0.67633  0.66095  1.0000
  H   H1096     1.0  0.60662  0.49249  0.84550  1.0000
  C   C640      1.0  0.50200  0.63241  0.62793  1.0000
  H   H1097     1.0  0.50460  0.63517  0.69523  1.0000
  H   H1098     1.0  0.61124  0.52497  0.52758  1.0000
  H   H1099     1.0  0.64146  0.55947  0.89423  1.0000
  C   C641      1.0  0.41988  0.57953  0.92395  1.0000
  C   C642      1.0  0.46943  0.61385  0.63359  1.0000
  C   C643      1.0  0.59427  0.53702  0.50582  1.0000
  H   H1100     1.0  0.33842  0.59741  0.54982  1.0000
  H   H1101     1.0  0.60291  0.55059  0.51718  1.0000
  C   C644      1.0  0.47939  0.63140  0.71710  1.0000
  H   H1102     1.0  0.45129  0.60360  0.67820  1.0000
  H   H1103     1.0  0.46903  0.58087  0.52789  1.0000
  H   H1104     1.0  0.47478  0.73382  0.93744  1.0000
  C   C645      1.0  0.33638  0.58294  0.54828  1.0000
  S   S186      1.0  0.40062  0.62982  0.50888  1.0000
  H   H1105     1.0  0.49983  0.72271  0.82127  1.0000
  H   H1106     1.0  0.45931  0.53278  0.50378  1.0000
  C   C646      1.0  0.45357  0.71508  0.87861  1.0000
  H   H1107     1.0  0.34677  0.58248  0.56741  1.0000
  H   H1108     1.0  0.44775  0.70931  0.90438  1.0000
  H   H1109     1.0  0.32564  0.72725  0.51774  1.0000
  H   H1110     1.0  0.33104  0.55109  0.51610  1.0000
  H   H1111     1.0  0.31540  0.73787  0.59206  1.0000
  C   C647      1.0  0.58810  0.50486  0.49711  1.0000
  H   H1112     1.0  0.44181  0.49576  0.59634  1.0000
  C   C648      1.0  0.32940  0.53948  0.56703  1.0000
  C   C649      1.0  0.59677  0.52537  0.97398  1.0000
  S   S187      1.0  0.61661  0.50658  0.95460  1.0000
  H   H1113     1.0  0.64367  0.52217  0.75494  1.0000
  N   N48       1.0  0.43580  0.49303  0.50287  1.0000
  H   H1114     1.0  0.44695  0.55318  0.98238  1.0000
  H   H1115     1.0  0.53959  0.50479  0.52722  1.0000
  C   C650      1.0  0.56286  0.50205  0.57663  1.0000
  H   H1116     1.0  0.63727  0.53621  0.78282  1.0000
  H   H1117     1.0  0.50524  0.72704  0.93017  1.0000
  C   C651      1.0  0.41722  0.49264  0.49949  1.0000
  H   H1118     1.0  0.43064  0.59703  0.52482  1.0000
  C   C652      1.0  0.64580  0.54827  0.89332  1.0000
  S   S188      1.0  0.36121  0.54291  0.49173  1.0000
  S   S189      1.0  0.49655  0.57426  0.49316  1.0000
  C   C653      1.0  0.64770  0.54339  0.85420  1.0000
  H   H1119     1.0  0.51910  0.49143  0.54808  1.0000
  C   C654      1.0  0.51515  0.49309  0.97484  1.0000
  S   S190      1.0  0.31941  0.49915  0.49182  1.0000
  H   H1120     1.0  0.32607  0.73461  0.95880  1.0000
  C   C655      1.0  0.57829  0.53408  0.48589  1.0000
  H   H1121     1.0  0.45239  0.62488  0.50017  1.0000
  C   C656      1.0  0.44233  0.72562  0.97491  1.0000
  H   H1122     1.0  0.44218  0.58975  0.49342  1.0000
  C   C657      1.0  0.42534  0.49651  0.98233  1.0000
  H   H1123     1.0  0.47392  0.73900  0.83505  1.0000
  C   C658      1.0  0.48312  0.49029  0.56202  1.0000
  C   C659      1.0  0.45456  0.49069  0.83971  1.0000
  H   H1124     1.0  0.46595  0.48996  0.85523  1.0000
  Fe  Fe97      1.0  0.46011  0.82185  0.11331  1.0000
  S   S191      1.0  0.47639  0.82608  0.06359  1.0000
  S   S192      1.0  0.47264  0.82059  0.16807  1.0000
  Fe  Fe98      1.0  0.42612  0.81753  0.07010  1.0000
  S   S193      1.0  0.43982  0.82108  0.01840  1.0000
  S   S194      1.0  0.39790  0.81587  0.07597  1.0000
  Fe  Fe99      1.0  0.45117  0.80195  0.03932  1.0000
  H   H1125     1.0  0.56805  0.97172  0.46689  1.0000
  Fe  Fe100     1.0  0.46367  0.84476  0.04647  1.0000
  S   S195      1.0  0.47243  0.87398  0.02552  1.0000
  S   S196      1.0  0.43571  0.79717  0.08969  1.0000
  S   S197      1.0  0.44921  0.84174  0.09785  1.0000
  Fe  Fe101     1.0  0.45854  0.83075  0.38399  1.0000
  S   S198      1.0  0.47978  0.83113  0.42463  1.0000
  S   S199      1.0  0.45938  0.84102  0.32719  1.0000
  Fe  Fe102     1.0  0.42864  0.81787  0.43842  1.0000
  H   H1126     1.0  0.38884  0.77247  0.30423  1.0000
  C   C660      1.0  0.45018  0.75635  0.00217  1.0000
  H   H1127     1.0  0.41244  0.85362  0.47365  1.0000
  Fe  Fe103     1.0  0.45805  0.80388  0.44216  1.0000
  C   C661      1.0  0.31717  0.77060  0.05160  1.0000
  S   S200      1.0  0.44820  0.84574  0.42201  1.0000
  S   S201      1.0  0.43792  0.80291  0.39880  1.0000
  Fe  Fe104     1.0  0.38689  0.95568  0.45054  1.0000
  S   S202      1.0  0.40335  0.95003  0.40931  1.0000
  C   C662      1.0  0.42545  0.78807  0.30676  1.0000
  Fe  Fe105     1.0  0.39059  0.94903  0.04633  1.0000
  H   H1128     1.0  0.44912  0.88011  0.08219  1.0000
  S   S203      1.0  0.40181  0.95215  0.10288  1.0000
  S   S204      1.0  0.45423  0.97394  0.09697  1.0000
  H   H1129     1.0  0.33431  0.83099  0.42007  1.0000
  H   H1130     1.0  0.50402  0.91671  0.10352  1.0000
  S   S205      1.0  0.41722  0.96972  0.02633  1.0000
  H   H1131     1.0  0.53350  0.92725  0.12559  1.0000
  C   C663      1.0  0.38985  0.95229  0.24214  1.0000
  C   C664      1.0  0.53488  0.91488  0.11596  1.0000
  H   H1132     1.0  0.39353  0.94111  0.24532  1.0000
  H   H1133     1.0  0.39123  0.95157  0.18488  1.0000
  H   H1134     1.0  0.53023  0.87875  0.08631  1.0000
  H   H1135     1.0  0.36371  0.81722  0.06362  1.0000
  C   C665      1.0  0.51564  0.86881  0.08429  1.0000
  H   H1136     1.0  0.46784  0.74495  0.44028  1.0000
  C   C666      1.0  0.39445  0.77379  0.27733  1.0000
  C   C667      1.0  0.38702  0.89191  0.44772  1.0000
  C   C668      1.0  0.32239  0.94944  0.10296  1.0000
  Fe  Fe106     1.0  0.42743  0.97397  0.08313  1.0000
  H   H1137     1.0  0.42514  0.96834  0.27605  1.0000
  H   H1138     1.0  0.36071  0.80089  0.44245  1.0000
  H   H1139     1.0  0.39316  0.90666  0.45651  1.0000
  C   C669      1.0  0.35850  0.90108  0.00648  1.0000
  S   S206      1.0  0.45538  0.98338  0.42911  1.0000
  C   C670      1.0  0.46290  0.75413  0.02490  1.0000
  C   C671      1.0  0.35856  0.88507  0.99114  1.0000
  C   C672      1.0  0.34582  0.90129  0.46394  1.0000
  H   H1140     1.0  0.36447  0.93918  0.14350  1.0000
  H   H1141     1.0  0.44089  0.89711  0.08156  1.0000
  C   C673      1.0  0.48986  0.89508  0.01062  1.0000
  H   H1142     1.0  0.31651  0.76718  0.45938  1.0000
  H   H1143     1.0  0.48332  0.91304  0.12362  1.0000
  C   C674      1.0  0.51454  0.91976  0.48028  1.0000
  H   H1144     1.0  0.39900  0.80089  0.00531  1.0000
  C   C675      1.0  0.48346  0.98337  0.05478  1.0000
  C   C676      1.0  0.46844  0.82613  0.21201  1.0000
  C   C677      1.0  0.46011  0.83767  0.21870  1.0000
  C   C678      1.0  0.45787  0.84235  0.25408  1.0000
  C   C679      1.0  0.46337  0.83514  0.28327  1.0000
  C   C680      1.0  0.47155  0.82348  0.27655  1.0000
  C   C681      1.0  0.47427  0.81922  0.24119  1.0000
  H   H1145     1.0  0.45566  0.84321  0.19667  1.0000
  H   H1146     1.0  0.45160  0.85145  0.25889  1.0000
  H   H1147     1.0  0.47599  0.81793  0.29858  1.0000
  H   H1148     1.0  0.48088  0.81042  0.23639  1.0000
  H   H1149     1.0  0.32278  0.90911  0.07207  1.0000
  H   H1150     1.0  0.38912  0.84091  0.99073  1.0000
  S   S207      1.0  0.37624  0.97038  0.41240  1.0000
  S   S208      1.0  0.38114  0.97994  0.16037  1.0000
  C   C682      1.0  0.38688  0.96097  0.27248  1.0000
  H   H1151     1.0  0.44465  0.92289  0.43970  1.0000
  C   C683      1.0  0.32533  0.86940  0.98772  1.0000
  H   H1152     1.0  0.47101  0.76504  0.04411  1.0000
  H   H1153     1.0  0.47227  0.92718  0.44702  1.0000
  H   H1154     1.0  0.52954  0.91143  0.08808  1.0000
  H   H1155     1.0  0.40415  0.82273  0.32454  1.0000
  C   C684      1.0  0.38286  0.80966  0.03805  1.0000
  H   H1156     1.0  0.42788  0.91416  0.47330  1.0000
  H   H1157     1.0  0.42852  0.92374  0.02651  1.0000
  S   S209      1.0  0.38963  0.95333  0.31505  1.0000
  Fe  Fe107     1.0  0.39417  0.96595  0.37196  1.0000
  C   C685      1.0  0.38528  0.80694  0.47381  1.0000
  H   H1158     1.0  0.44208  0.91150  0.02717  1.0000
  H   H1159     1.0  0.37960  0.98208  0.29103  1.0000
  H   H1160     1.0  0.41613  0.81124  0.34360  1.0000
  C   C686      1.0  0.39278  0.75460  0.26685  1.0000
  C   C687      1.0  0.42856  0.91045  0.01864  1.0000
  H   H1161     1.0  0.39763  0.88943  0.43417  1.0000
  H   H1162     1.0  0.39894  0.86726  0.08037  1.0000
  H   H1163     1.0  0.33895  0.93790  0.07991  1.0000
  C   C688      1.0  0.33766  0.94321  0.10654  1.0000
  S   S210      1.0  0.37982  0.92020  0.01868  1.0000
  H   H1164     1.0  0.49232  0.95533  0.42229  1.0000
  H   H1165     1.0  0.40175  0.75454  0.24552  1.0000
  C   C689      1.0  0.40687  0.87073  0.99051  1.0000
  H   H1166     1.0  0.35808  0.92574  0.08016  1.0000
  C   C690      1.0  0.43668  0.88220  0.07778  1.0000
  H   H1167     1.0  0.57996  0.98565  0.41464  1.0000
  S   S211      1.0  0.38063  0.97083  0.05480  1.0000
  H   H1168     1.0  0.36846  0.91568  0.10862  1.0000
  H   H1169     1.0  0.39593  0.84896  0.05052  1.0000
  H   H1170     1.0  0.51137  0.83211  0.47667  1.0000
  H   H1171     1.0  0.49498  0.96865  0.46219  1.0000
  N   N49       1.0  0.33546  0.92985  0.13521  1.0000
  H   H1172     1.0  0.39731  0.78228  0.20611  1.0000
  H   H1173     1.0  0.34286  0.81006  0.01006  1.0000
  H   H1174     1.0  0.35116  0.91684  0.15873  1.0000
  H   H1175     1.0  0.42721  0.87473  0.09851  1.0000
  H   H1176     1.0  0.41852  0.79393  0.18543  1.0000
  C   C691      1.0  0.50775  0.89767  0.00574  1.0000
  C   C692      1.0  0.34170  0.90127  0.01166  1.0000
  N   N50       1.0  0.41317  0.78963  0.27757  1.0000
  C   C693      1.0  0.41119  0.80705  0.28513  1.0000
  C   C694      1.0  0.42182  0.79138  0.24214  1.0000
  H   H1177     1.0  0.48294  0.89738  0.08938  1.0000
  H   H1178     1.0  0.49923  0.80836  0.46637  1.0000
  C   C695      1.0  0.41113  0.79377  0.20988  1.0000
  C   C696      1.0  0.43569  0.77645  0.29827  1.0000
  H   H1179     1.0  0.32879  0.76779  0.05946  1.0000
  H   H1180     1.0  0.42420  0.81931  0.28089  1.0000
  H   H1181     1.0  0.40090  0.80804  0.26644  1.0000
  H   H1182     1.0  0.42462  0.77955  0.23510  1.0000
  H   H1183     1.0  0.43546  0.80327  0.24354  1.0000
  C   C697      1.0  0.49117  0.90598  0.11264  1.0000
  H   H1184     1.0  0.60431  0.98049  0.43400  1.0000
  C   C698      1.0  0.35738  0.85402  0.44609  1.0000
  C   C699      1.0  0.38206  0.97535  0.26798  1.0000
  H   H1185     1.0  0.44649  0.78326  0.27916  1.0000
  C   C700      1.0  0.36670  0.80253  0.46907  1.0000
  C   C701      1.0  0.38849  0.95815  0.20778  1.0000
  C   C702      1.0  0.43554  0.98378  0.20229  1.0000
  C   C703      1.0  0.36681  0.81194  0.03933  1.0000
  H   H1186     1.0  0.44610  0.97241  0.25823  1.0000
  H   H1187     1.0  0.45366  0.98029  0.98778  1.0000
  H   H1188     1.0  0.44629  0.89931  0.47434  1.0000
  H   H1189     1.0  0.47328  0.95844  0.43697  1.0000
  C   C704      1.0  0.35203  0.92617  0.13706  1.0000
  H   H1190     1.0  0.39528  0.74794  0.29042  1.0000
  H   H1191     1.0  0.44273  0.77528  0.32312  1.0000
  H   H1192     1.0  0.50132  0.89303  0.45272  1.0000
  C   C705      1.0  0.46965  0.98769  0.06660  1.0000
  H   H1193     1.0  0.34779  0.85990  0.45256  1.0000
  Fe  Fe108     1.0  0.39383  0.97512  0.11030  1.0000
  S   S212      1.0  0.44747  0.77721  0.00162  1.0000
  C   C706      1.0  0.33270  0.88286  0.46617  1.0000
  H   H1194     1.0  0.48504  0.97189  0.06544  1.0000
  C   C707      1.0  0.43815  0.92671  0.46167  1.0000
  C   C708      1.0  0.40557  0.80973  0.32295  1.0000
  H   H1195     1.0  0.37225  0.85557  0.01457  1.0000
  H   H1196     1.0  0.41394  0.89847  0.06549  1.0000
  H   H1197     1.0  0.32530  0.91478  0.20302  1.0000
  C   C709      1.0  0.37682  0.86051  0.04248  1.0000
  H   H1198     1.0  0.53481  0.91641  0.99109  1.0000
  S   S213      1.0  0.41058  0.98229  0.47110  1.0000
  H   H1199     1.0  0.51226  0.86421  0.05581  1.0000
  C   C710      1.0  0.48562  0.90985  0.00418  1.0000
  H   H1200     1.0  0.43639  0.80187  0.31512  1.0000
  C   C711      1.0  0.43984  0.97821  0.27754  1.0000
  H   H1201     1.0  0.41037  0.80707  0.21159  1.0000
  H   H1202     1.0  0.54964  0.91858  0.11460  1.0000
  C   C712      1.0  0.39624  0.86279  0.05177  1.0000
  C   C713      1.0  0.50209  0.86979  0.15814  1.0000
  H   H1203     1.0  0.52786  0.90589  0.16839  1.0000
  H   H1204     1.0  0.49836  0.90282  0.16650  1.0000
  H   H1205     1.0  0.42678  0.86038  0.03801  1.0000
  C   C714      1.0  0.34573  0.83317  0.43926  1.0000
  H   H1206     1.0  0.47992  0.88324  0.14589  1.0000
  C   C715      1.0  0.52621  0.89909  0.14159  1.0000
  C   C716      1.0  0.49388  0.89412  0.14143  1.0000
  H   H1207     1.0  0.50451  0.88785  0.07656  1.0000
  C   C717      1.0  0.50237  0.87441  0.19832  1.0000
  H   H1208     1.0  0.52028  0.92680  0.45645  1.0000
  H   H1209     1.0  0.34634  0.95325  0.17309  1.0000
  H   H1210     1.0  0.40015  0.89575  0.02676  1.0000
  H   H1211     1.0  0.54399  0.97831  0.45087  1.0000
  H   H1212     1.0  0.53518  0.89202  0.14369  1.0000
  C   C718      1.0  0.50319  0.87754  0.09621  1.0000
  N   N51       1.0  0.50660  0.88555  0.13380  1.0000
  H   H1213     1.0  0.32233  0.94129  0.17116  1.0000
  H   H1214     1.0  0.51341  0.85644  0.09906  1.0000
  Fe  Fe109     1.0  0.46787  0.84438  0.46334  1.0000
  H   H1215     1.0  0.43940  0.88223  0.02093  1.0000
  H   H1216     1.0  0.48884  0.86696  0.09214  1.0000
  H   H1217     1.0  0.35072  0.95584  0.11131  1.0000
  Fe  Fe110     1.0  0.42578  0.97722  0.42697  1.0000
  H   H1218     1.0  0.51165  0.86347  0.15529  1.0000
  N   N52       1.0  0.37244  0.85975  0.47465  1.0000
  H   H1219     1.0  0.41771  0.78260  0.33100  1.0000
  H   H1220     1.0  0.38444  0.77629  0.26039  1.0000
  H   H1221     1.0  0.34491  0.90315  0.09763  1.0000
  H   H1222     1.0  0.49974  0.86190  0.21313  1.0000
  H   H1223     1.0  0.49143  0.87844  0.20489  1.0000
  C   C719      1.0  0.31818  0.91218  0.13026  1.0000
  H   H1224     1.0  0.48829  0.85861  0.15088  1.0000
  H   H1225     1.0  0.51577  0.88507  0.20858  1.0000
  H   H1226     1.0  0.39229  0.79863  0.32965  1.0000
  C   C720      1.0  0.42864  0.87482  0.03987  1.0000
  H   H1227     1.0  0.34772  0.90794  0.43886  1.0000
  C   C721      1.0  0.48521  0.95639  0.44632  1.0000
  H   H1228     1.0  0.33941  0.82608  0.46353  1.0000
  C   C722      1.0  0.33491  0.93923  0.17016  1.0000
  H   H1229     1.0  0.33039  0.76371  0.99527  1.0000
  C   C723      1.0  0.38676  0.80283  0.00655  1.0000
  H   H1230     1.0  0.32344  0.95922  0.12511  1.0000
  S   S214      1.0  0.46324  0.77814  0.44774  1.0000
  C   C724      1.0  0.38016  0.98087  0.23347  1.0000
  H   H1231     1.0  0.43984  0.97949  0.33631  1.0000
  S   S215      1.0  0.39846  0.81071  0.43587  1.0000
  C   C725      1.0  0.51686  0.92945  0.98817  1.0000
  H   H1232     1.0  0.55345  0.98700  0.40845  1.0000
  H   H1233     1.0  0.47193  0.90818  0.00783  1.0000
  C   C726      1.0  0.38358  0.97247  0.20323  1.0000
  C   C727      1.0  0.35574  0.91720  0.10363  1.0000
  H   H1234     1.0  0.44583  0.96267  0.31770  1.0000
  H   H1235     1.0  0.37553  0.87335  0.04816  1.0000
  C   C728      1.0  0.35491  0.80776  0.00912  1.0000
  H   H1236     1.0  0.36288  0.85940  0.41996  1.0000
  H   H1237     1.0  0.33254  0.93626  0.22730  1.0000
  H   H1238     1.0  0.31919  0.90137  0.14650  1.0000
  H   H1239     1.0  0.43091  0.93397  0.44876  1.0000
  H   H1240     1.0  0.34137  0.91364  0.02212  1.0000
  H   H1241     1.0  0.36712  0.85003  0.05953  1.0000
  H   H1242     1.0  0.35360  0.82651  0.42699  1.0000
  H   H1243     1.0  0.34935  0.93037  0.21007  1.0000
  S   S216      1.0  0.44724  0.81712  0.48276  1.0000
  C   C729      1.0  0.41274  0.89490  0.03645  1.0000
  H   H1244     1.0  0.51132  0.88652  0.01002  1.0000
  C   C730      1.0  0.33553  0.92933  0.20423  1.0000
  N   N53       1.0  0.41112  0.87583  0.02966  1.0000
  H   H1245     1.0  0.42664  0.76238  0.28815  1.0000
  H   H1246     1.0  0.49539  0.93799  0.98819  1.0000
  H   H1247     1.0  0.39164  0.86002  0.43587  1.0000
  H   H1248     1.0  0.32466  0.87552  0.44257  1.0000
  H   H1249     1.0  0.44988  0.98719  0.19721  1.0000
  H   H1250     1.0  0.46223  0.98615  0.31862  1.0000
  C   C731      1.0  0.47954  0.93865  0.46678  1.0000
  C   C732      1.0  0.44750  0.97689  0.31474  1.0000
  H   H1251     1.0  0.49221  0.93748  0.47440  1.0000
  H   H1252     1.0  0.37877  0.74591  0.25566  1.0000
  H   H1253     1.0  0.38033  0.83891  0.45610  1.0000
  C   C733      1.0  0.52109  0.91470  0.99482  1.0000
  H   H1254     1.0  0.42927  0.98553  0.17694  1.0000
  C   C734      1.0  0.32526  0.88553  0.00250  1.0000
  C   C735      1.0  0.38649  0.85393  0.46169  1.0000
  C   C736      1.0  0.49895  0.92686  0.99299  1.0000
  H   H1255     1.0  0.37562  0.88990  0.42868  1.0000
  C   C737      1.0  0.50372  0.90054  0.47803  1.0000
  H   H1256     1.0  0.33878  0.74764  0.02814  1.0000
  C   C738      1.0  0.46052  0.76059  0.47845  1.0000
  H   H1257     1.0  0.32398  0.95691  0.07803  1.0000
  H   H1258     1.0  0.46959  0.90234  0.47633  1.0000
  H   H1259     1.0  0.32160  0.78165  0.03235  1.0000
  H   H1260     1.0  0.42813  0.96905  0.20805  1.0000
  C   C739      1.0  0.38028  0.88028  0.48066  1.0000
  C   C740      1.0  0.46398  0.74571  0.46729  1.0000
  H   H1261     1.0  0.32771  0.73940  0.06926  1.0000
  H   H1262     1.0  0.45504  0.95387  0.48383  1.0000
  H   H1263     1.0  0.41301  0.84671  0.98660  1.0000
  H   H1264     1.0  0.42688  0.90900  0.98922  1.0000
  C   C741      1.0  0.57537  0.98415  0.48480  1.0000
  H   H1265     1.0  0.37140  0.88486  0.98609  1.0000
  C   C742      1.0  0.47317  0.98580  0.90340  1.0000
  C   C743      1.0  0.33010  0.87371  0.49836  1.0000
  H   H1266     1.0  0.34716  0.82525  0.75228  1.0000
  C   C744      1.0  0.36026  0.81433  0.80553  1.0000
  H   H1267     1.0  0.51689  0.83549  0.59179  1.0000
  H   H1268     1.0  0.50258  0.78090  0.56877  1.0000
  Fe  Fe111     1.0  0.53799  0.97891  0.55349  1.0000
  S   S217      1.0  0.52442  0.98015  0.60406  1.0000
  S   S218      1.0  0.53130  0.95435  0.51347  1.0000
  C   C745      1.0  0.35335  0.90213  0.52660  1.0000
  S   S219      1.0  0.32458  0.82903  0.58791  1.0000
  S   S220      1.0  0.31481  0.81811  0.90741  1.0000
  H   H1269     1.0  0.36367  0.83646  0.50854  1.0000
  Fe  Fe112     1.0  0.31704  0.79662  0.94050  1.0000
  C   C746      1.0  0.46410  0.91932  0.51669  1.0000
  H   H1270     1.0  0.44257  0.95637  0.91816  1.0000
  C   C747      1.0  0.36420  0.85036  0.50835  1.0000
  C   C748      1.0  0.31715  0.75466  0.98160  1.0000
  H   H1271     1.0  0.48330  0.96449  0.57880  1.0000
  S   S221      1.0  0.48293  0.86668  0.50773  1.0000
  H   H1272     1.0  0.51641  0.81585  0.50083  1.0000
  H   H1273     1.0  0.48148  0.83745  0.55932  1.0000
  C   C749      1.0  0.33056  0.78333  0.84481  1.0000
  C   C750      1.0  0.37325  0.86033  0.54428  1.0000
  C   C751      1.0  0.45554  0.76123  0.51360  1.0000
  H   H1274     1.0  0.38094  0.80447  0.80060  1.0000
  C   C752      1.0  0.47219  0.75421  0.90541  1.0000
  H   H1275     1.0  0.52449  0.83124  0.55103  1.0000
  C   C753      1.0  0.51385  0.83443  0.56252  1.0000
  C   C754      1.0  0.33476  0.82001  0.82375  1.0000
  C   C755      1.0  0.51035  0.92052  0.54336  1.0000
  H   H1276     1.0  0.44419  0.95601  0.98253  1.0000
  S   S222      1.0  0.35020  0.79953  0.57061  1.0000
  H   H1277     1.0  0.51279  0.92802  0.56870  1.0000
  C   C756      1.0  0.49980  0.90124  0.54123  1.0000
  H   H1278     1.0  0.33958  0.81967  0.85156  1.0000
  S   S223      1.0  0.37347  0.93432  0.49301  1.0000
  H   H1279     1.0  0.36825  0.82885  0.79869  1.0000
  C   C757      1.0  0.32114  0.74828  0.57166  1.0000
  C   C758      1.0  0.36879  0.80354  0.78500  1.0000
  H   H1280     1.0  0.37768  0.79279  0.95247  1.0000
  H   H1281     1.0  0.45681  0.80330  0.54583  1.0000
  H   H1282     1.0  0.39903  0.85038  0.51147  1.0000
  H   H1283     1.0  0.36744  0.85070  0.56598  1.0000
  H   H1284     1.0  0.47877  0.79096  0.56455  1.0000
  H   H1285     1.0  0.50046  0.78812  0.52561  1.0000
  H   H1286     1.0  0.47161  0.97187  0.89546  1.0000
  H   H1287     1.0  0.45654  0.98748  0.55947  1.0000
  H   H1288     1.0  0.33737  0.84729  0.83696  1.0000
  H   H1289     1.0  0.33595  0.84250  0.79028  1.0000
  H   H1290     1.0  0.49565  0.80370  0.59825  1.0000
  H   H1291     1.0  0.49425  0.89415  0.56513  1.0000
  H   H1292     1.0  0.32028  0.78478  0.73519  1.0000
  H   H1293     1.0  0.34462  0.79346  0.73058  1.0000
  H   H1294     1.0  0.51338  0.85391  0.52270  1.0000
  N   N54       1.0  0.45513  0.98567  0.91154  1.0000
  H   H1295     1.0  0.33152  0.77923  0.78867  1.0000
  C   C759      1.0  0.35869  0.80068  0.97780  1.0000
  H   H1296     1.0  0.53228  0.86303  0.55434  1.0000
  H   H1297     1.0  0.58147  0.96656  0.51971  1.0000
  C   C760      1.0  0.49293  0.80187  0.56887  1.0000
  H   H1298     1.0  0.34178  0.79773  0.49440  1.0000
  H   H1299     1.0  0.45248  0.77227  0.52264  1.0000
  H   H1300     1.0  0.36380  0.81453  0.83440  1.0000
  H   H1301     1.0  0.46667  0.96942  0.96827  1.0000
  H   H1302     1.0  0.60048  0.98044  0.49476  1.0000
  H   H1303     1.0  0.32500  0.78990  0.86414  1.0000
  N   N55       1.0  0.46865  0.93726  0.49920  1.0000
  C   C761      1.0  0.44405  0.98452  0.87813  1.0000
  C   C762      1.0  0.32155  0.74493  0.95005  1.0000
  H   H1304     1.0  0.47883  0.76556  0.92590  1.0000
  C   C763      1.0  0.51787  0.92996  0.51287  1.0000
  N   N56       1.0  0.49491  0.81961  0.55355  1.0000
  C   C764      1.0  0.47324  0.95248  0.56262  1.0000
  C   C765      1.0  0.34052  0.88355  0.52866  1.0000
  H   H1305     1.0  0.40721  0.81222  0.51221  1.0000
  H   H1306     1.0  0.33176  0.80248  0.70558  1.0000
  H   H1307     1.0  0.32232  0.76831  0.84658  1.0000
  C   C766      1.0  0.51747  0.85380  0.55097  1.0000
  C   C767      1.0  0.58883  0.98039  0.50892  1.0000
  H   H1308     1.0  0.36987  0.88393  0.49202  1.0000
  C   C768      1.0  0.39291  0.80886  0.50828  1.0000
  C   C769      1.0  0.50478  0.79320  0.55362  1.0000
  C   C770      1.0  0.34215  0.86932  0.98204  1.0000
  H   H1309     1.0  0.36122  0.90956  0.55030  1.0000
  H   H1310     1.0  0.32353  0.81401  0.75944  1.0000
  S   S224      1.0  0.34370  0.79436  0.93984  1.0000
  S   S225      1.0  0.53455  0.95068  0.97445  1.0000
  H   H1311     1.0  0.39556  0.87377  0.98059  1.0000
  H   H1312     1.0  0.42639  0.95608  0.85948  1.0000
  H   H1313     1.0  0.38816  0.86518  0.54608  1.0000
  H   H1314     1.0  0.49600  0.74473  0.85406  1.0000
  H   H1315     1.0  0.56498  0.98442  0.50295  1.0000
  H   H1316     1.0  0.33191  0.75644  0.50030  1.0000
  H   H1317     1.0  0.34977  0.84815  0.50976  1.0000
  Fe  Fe113     1.0  0.53721  0.97869  0.95566  1.0000
  H   H1318     1.0  0.48636  0.82973  0.60017  1.0000
  H   H1319     1.0  0.51041  0.85991  0.56779  1.0000
  C   C771      1.0  0.49630  0.89108  0.50856  1.0000
  C   C772      1.0  0.38198  0.80644  0.53777  1.0000
  H   H1320     1.0  0.45996  0.80064  0.59266  1.0000
  S   S226      1.0  0.51534  0.98256  0.92423  1.0000
  C   C773      1.0  0.50540  0.81856  0.48896  1.0000
  H   H1321     1.0  0.45297  0.81749  0.57852  1.0000
  H   H1322     1.0  0.38792  0.80784  0.56439  1.0000
  C   C774      1.0  0.46180  0.81070  0.57195  1.0000
  H   H1323     1.0  0.47148  0.94013  0.57706  1.0000
  Fe  Fe114     1.0  0.32391  0.80260  0.56721  1.0000
  H   H1324     1.0  0.47819  0.80380  0.50785  1.0000
  H   H1325     1.0  0.35688  0.84774  0.81613  1.0000
  H   H1326     1.0  0.44100  0.97841  0.49971  1.0000
  C   C775      1.0  0.34160  0.75289  0.57136  1.0000
  N   N57       1.0  0.34019  0.80856  0.79870  1.0000
  H   H1327     1.0  0.47537  0.76025  0.87900  1.0000
  H   H1328     1.0  0.37316  0.80935  0.75863  1.0000
  C   C776      1.0  0.48066  0.95263  0.52527  1.0000
  H   H1329     1.0  0.45093  0.74842  0.56440  1.0000
  C   C777      1.0  0.48181  0.82530  0.57184  1.0000
  C   C778      1.0  0.35592  0.80061  0.49850  1.0000
  C   C779      1.0  0.36351  0.80252  0.53301  1.0000
  H   H1330     1.0  0.43037  0.96763  0.93663  1.0000
  H   H1331     1.0  0.34809  0.75911  0.59782  1.0000
  H   H1332     1.0  0.33864  0.87688  0.55371  1.0000
  H   H1333     1.0  0.34480  0.78649  0.85294  1.0000
  H   H1334     1.0  0.32018  0.76078  0.58239  1.0000
  H   H1335     1.0  0.45736  0.74863  0.90939  1.0000
  H   H1336     1.0  0.45013  0.96268  0.85311  1.0000
  C   C780      1.0  0.32875  0.78872  0.80643  1.0000
  H   H1337     1.0  0.47610  0.92015  0.53281  1.0000
  H   H1338     1.0  0.34249  0.85714  0.97041  1.0000
  C   C781      1.0  0.44444  0.96921  0.93287  1.0000
  H   H1339     1.0  0.32376  0.77034  0.52412  1.0000
  H   H1340     1.0  0.51953  0.80247  0.55621  1.0000
  H   H1341     1.0  0.34898  0.76312  0.55163  1.0000
  H   H1342     1.0  0.45313  0.91648  0.53584  1.0000
  H   H1343     1.0  0.46040  0.95396  0.56172  1.0000
  C   C782      1.0  0.49018  0.81718  0.51408  1.0000
  C   C783      1.0  0.33622  0.81216  0.76099  1.0000
  C   C784      1.0  0.33321  0.79722  0.73188  1.0000
  H   H1344     1.0  0.49427  0.95270  0.52927  1.0000
  H   H1345     1.0  0.44360  0.93780  0.51494  1.0000
  H   H1346     1.0  0.35986  0.78870  0.78158  1.0000
  C   C785      1.0  0.45561  0.98629  0.50206  1.0000
  C   C786      1.0  0.45819  0.90192  0.49219  1.0000
  H   H1347     1.0  0.37010  0.87213  0.54975  1.0000
  H   H1348     1.0  0.48595  0.82783  0.50557  1.0000
  H   H1349     1.0  0.49439  0.74752  0.91453  1.0000
  H   H1350     1.0  0.39183  0.88553  0.50066  1.0000
  H   H1351     1.0  0.31966  0.81431  0.82432  1.0000
  C   C787      1.0  0.45295  0.96895  0.96982  1.0000
  C   C788      1.0  0.34183  0.84050  0.81582  1.0000
  C   C789      1.0  0.47933  0.73969  0.91116  1.0000
  C   C790      1.0  0.35628  0.91112  0.49418  1.0000
  H   H1352     1.0  0.48337  0.96623  0.51490  1.0000
  C   C791      1.0  0.43948  0.96761  0.85280  1.0000
  C   C792      1.0  0.45455  0.74755  0.53723  1.0000
  C   C793      1.0  0.45167  0.93961  0.49084  1.0000
  H   H1353     1.0  0.43001  0.74329  0.95954  1.0000
  H   H1354     1.0  0.45435  0.88983  0.50896  1.0000
  H   H1355     1.0  0.43834  0.97129  0.82494  1.0000
  C   C794      1.0  0.40197  0.85061  0.97941  1.0000
  H   H1356     1.0  0.33299  0.75526  0.93579  1.0000
  C   C795      1.0  0.31933  0.75663  0.51045  1.0000
  C   C796      1.0  0.37464  0.79825  0.97662  1.0000
  H   H1357     1.0  0.43064  0.98396  0.88484  1.0000
  H   H1358     1.0  0.41090  0.87307  0.49367  1.0000
  C   C797      1.0  0.40308  0.85821  0.48700  1.0000
  H   H1359     1.0  0.39976  0.84874  0.95003  1.0000
  C   C798      1.0  0.43994  0.74189  0.97724  1.0000
  H   H1360     1.0  0.34375  0.74044  0.56692  1.0000
  H   H1361     1.0  0.41872  0.87926  0.97475  1.0000
  H   H1362     1.0  0.66960  0.18072  0.30409  1.0000
  C   C799      1.0  0.66028  0.17640  0.28101  1.0000
  H   H1363     1.0  0.66426  0.10389  0.12636  1.0000
  S   S227      1.0  0.66456  0.16310  0.41995  1.0000
  H   H1364     1.0  0.67047  0.11251  0.17016  1.0000
  S   S228      1.0  0.64911  0.20090  0.08930  1.0000
  H   H1365     1.0  0.71892  0.23194  0.05169  1.0000
  H   H1366     1.0  0.68104  0.14369  0.15750  1.0000
  C   C800      1.0  0.66694  0.18117  0.24666  1.0000
  S   S229      1.0  0.66967  0.17527  0.07032  1.0000
  H   H1367     1.0  0.68141  0.18918  0.24378  1.0000
  Fe  Fe115     1.0  0.66439  0.19702  0.04297  1.0000
  S   S230      1.0  0.68400  0.22156  0.01054  1.0000
  Fe  Fe116     1.0  0.65313  0.17816  0.11544  1.0000
  S   S231      1.0  0.69574  0.21874  0.45532  1.0000
  H   H1368     1.0  0.66855  0.14636  0.20744  1.0000
  S   S232      1.0  0.66472  0.18087  0.17320  1.0000
  Fe  Fe117     1.0  0.66997  0.19072  0.44657  1.0000
  C   C801      1.0  0.71733  0.23366  0.47728  1.0000
  C   C802      1.0  0.65517  0.17555  0.21602  1.0000
  C   C803      1.0  0.67093  0.13993  0.13471  1.0000
  C   C804      1.0  0.68103  0.13864  0.10142  1.0000
  H   H1369     1.0  0.69306  0.15204  0.09879  1.0000
  H   H1370     1.0  0.68623  0.12818  0.10354  1.0000
  H   H1371     1.0  0.67253  0.13604  0.07649  1.0000
  H   H1372     1.0  0.64969  0.08279  0.17914  1.0000
  C   C805      1.0  0.65883  0.10786  0.15020  1.0000
  H   H1373     1.0  0.66799  0.15199  0.13170  1.0000
  C   C806      1.0  0.65603  0.13326  0.20827  1.0000
  H   H1374     1.0  0.64906  0.09906  0.99220  1.0000
  S   S233      1.0  0.64878  0.19374  0.41088  1.0000
  H   H1375     1.0  0.65946  0.12222  0.21722  1.0000
  N   N58       1.0  0.65368  0.12308  0.14184  1.0000
  C   C807      1.0  0.70720  0.23832  0.00535  1.0000
  H   H1376     1.0  0.69030  0.21997  0.53334  1.0000
  H   H1377     1.0  0.66581  0.20990  0.59856  1.0000
  C   C808      1.0  0.72577  0.22768  0.50346  1.0000
  H   H1378     1.0  0.66139  0.19672  0.55679  1.0000
  H   H1379     1.0  0.71954  0.21343  0.51018  1.0000
  C   C809      1.0  0.67210  0.20683  0.57515  1.0000
  H   H1380     1.0  0.68041  0.19997  0.58494  1.0000
  H   H1381     1.0  0.65017  0.21330  0.52961  1.0000
  C   C810      1.0  0.66088  0.22548  0.51767  1.0000
  S   S234      1.0  0.64973  0.17735  0.48854  1.0000
  C   C811      1.0  0.68462  0.22432  0.55640  1.0000
  H   H1382     1.0  0.74876  0.23515  0.54084  1.0000
  H   H1383     1.0  0.66621  0.21998  0.49569  1.0000
  H   H1384     1.0  0.65506  0.23164  0.58242  1.0000
  C   C812      1.0  0.65060  0.23535  0.50017  1.0000
  N   N59       1.0  0.67606  0.23656  0.54467  1.0000
  H   H1385     1.0  0.69632  0.23176  0.57570  1.0000
  Fe  Fe118     1.0  0.95975  0.40473  0.44838  1.0000
  S   S235      1.0  0.95502  0.41919  0.40172  1.0000
  C   C813      1.0  0.81845  0.30723  0.02261  1.0000
  H   H1386     1.0  0.72676  0.47887  0.45593  1.0000
  C   C814      1.0  0.80020  0.29769  0.42534  1.0000
  C   C815      1.0  0.72729  0.47228  0.02272  1.0000
  H   H1387     1.0  0.87397  0.37307  0.04583  1.0000
  H   H1388     1.0  0.93368  0.45949  0.03787  1.0000
  Fe  Fe119     1.0  0.95845  0.40649  0.04140  1.0000
  H   H1389     1.0  0.88915  0.41950  0.42668  1.0000
  S   S236      1.0  0.95605  0.41984  0.09287  1.0000
  S   S237      1.0  0.81244  0.47409  0.41626  1.0000
  H   H1390     1.0  0.79621  0.27316  0.47289  1.0000
  S   S238      1.0  0.76852  0.44913  0.42608  1.0000
  H   H1391     1.0  0.79930  0.30851  0.40908  1.0000
  Fe  Fe120     1.0  0.79483  0.45078  0.44962  1.0000
  H   H1392     1.0  0.85335  0.32289  0.01080  1.0000
  N   N60       1.0  0.82413  0.29094  0.46006  1.0000
  H   H1393     1.0  0.79573  0.27092  0.03729  1.0000
  H   H1394     1.0  0.78562  0.38908  0.39974  1.0000
  Fe  Fe121     1.0  0.79720  0.47693  0.12580  1.0000
  C   C816      1.0  0.91090  0.37898  0.99806  1.0000
  Fe  Fe122     1.0  0.78679  0.44385  0.07466  1.0000
  S   S239      1.0  0.78677  0.45928  0.02600  1.0000
  C   C817      1.0  0.77417  0.40390  0.00635  1.0000
  Fe  Fe123     1.0  0.77181  0.47150  0.05914  1.0000
  Fe  Fe124     1.0  0.97719  0.41203  0.11657  1.0000
  S   S240      1.0  0.81381  0.46529  0.09687  1.0000
  S   S241      1.0  0.77004  0.45436  0.10672  1.0000
  H   H1395     1.0  0.70453  0.47782  0.08129  1.0000
  H   H1396     1.0  0.84187  0.29791  0.39611  1.0000
  H   H1397     1.0  0.86069  0.48351  0.16411  1.0000
  H   H1398     1.0  0.75048  0.25550  0.04256  1.0000
  S   S242      1.0  0.75103  0.48086  0.03534  1.0000
  H   H1399     1.0  0.82920  0.31284  0.42322  1.0000
  C   C818      1.0  0.87204  0.36318  0.99136  1.0000
  H   H1400     1.0  0.83231  0.29126  0.07892  1.0000
  C   C819      1.0  0.70260  0.47806  0.99549  1.0000
  C   C820      1.0  0.80380  0.48731  0.28989  1.0000
  C   C821      1.0  0.69548  0.44962  0.02396  1.0000
  C   C822      1.0  0.83321  0.43777  0.04453  1.0000
  C   C823      1.0  0.80707  0.43326  0.34389  1.0000
  H   H1401     1.0  0.91305  0.42841  0.41797  1.0000
  H   H1402     1.0  0.92270  0.44638  0.46922  1.0000
  C   C824      1.0  0.81916  0.31881  0.05636  1.0000
  H   H1403     1.0  0.86215  0.29397  0.04810  1.0000
  H   H1404     1.0  0.77158  0.46570  0.20603  1.0000
  Fe  Fe125     1.0  0.78621  0.47376  0.39535  1.0000
  C   C825      1.0  0.93281  0.44552  0.03935  1.0000
  H   H1405     1.0  0.86254  0.30285  0.44138  1.0000
  C   C826      1.0  0.94066  0.44016  0.00651  1.0000
  H   H1406     1.0  0.83860  0.27514  0.38660  1.0000
  H   H1407     1.0  0.87356  0.39907  0.46952  1.0000
  H   H1408     1.0  0.69842  0.48294  0.46084  1.0000
  H   H1409     1.0  0.90782  0.38692  0.05150  1.0000
  H   H1410     1.0  0.79102  0.36600  0.00961  1.0000
  C   C827      1.0  0.95913  0.47434  0.48331  1.0000
  H   H1411     1.0  0.84232  0.44482  0.06815  1.0000
  H   H1412     1.0  0.87526  0.36831  0.43787  1.0000
  H   H1413     1.0  0.90873  0.38095  0.43134  1.0000
  H   H1414     1.0  0.82919  0.46005  0.33461  1.0000
  C   C828      1.0  0.82961  0.28835  0.98808  1.0000
  H   H1415     1.0  0.72909  0.32070  0.06516  1.0000
  C   C829      1.0  0.72950  0.45441  0.15099  1.0000
  H   H1416     1.0  0.85732  0.32253  0.44381  1.0000
  H   H1417     1.0  0.74108  0.35847  0.03261  1.0000
  H   H1418     1.0  0.73956  0.35284  0.07806  1.0000
  S   S243      1.0  0.93531  0.38942  0.99983  1.0000
  C   C830      1.0  0.80532  0.27270  0.05998  1.0000
  C   C831      1.0  0.70927  0.28930  0.03391  1.0000
  C   C832      1.0  0.86493  0.30553  0.03052  1.0000
  C   C833      1.0  0.72555  0.46706  0.12587  1.0000
  C   C834      1.0  0.84222  0.30052  0.48053  1.0000
  C   C835      1.0  0.97433  0.40169  0.27725  1.0000
  H   H1419     1.0  0.77245  0.39680  0.29719  1.0000
  H   H1420     1.0  0.81832  0.31146  0.08107  1.0000
  H   H1421     1.0  0.80145  0.27862  0.08340  1.0000
  S   S244      1.0  0.66546  0.45377  0.99825  1.0000
  H   H1422     1.0  0.77732  0.43836  0.35476  1.0000
  C   C836      1.0  0.71517  0.48369  0.16760  1.0000
  C   C837      1.0  0.74240  0.34877  0.05136  1.0000
  H   H1423     1.0  0.72544  0.44090  0.13687  1.0000
  N   N61       1.0  0.83051  0.29752  0.02399  1.0000
  S   S245      1.0  0.84765  0.35354  0.98907  1.0000
  C   C838      1.0  0.82422  0.27671  0.43343  1.0000
  H   H1424     1.0  0.81669  0.40078  0.45885  1.0000
  H   H1425     1.0  0.82042  0.28076  0.37679  1.0000
  S   S246      1.0  0.76678  0.28234  0.98958  1.0000
  H   H1426     1.0  0.83055  0.42315  0.04476  1.0000
  H   H1427     1.0  0.80620  0.43677  0.99674  1.0000
  H   H1428     1.0  0.74862  0.27912  0.48043  1.0000
  C   C839      1.0  0.84260  0.44708  0.01066  1.0000
  C   C840      1.0  0.97010  0.39500  0.24145  1.0000
  H   H1429     1.0  0.71985  0.28899  0.05238  1.0000
  C   C841      1.0  0.75536  0.41804  0.32213  1.0000
  Fe  Fe126     1.0  0.77010  0.46929  0.47022  1.0000
  S   S247      1.0  0.77565  0.47171  0.33705  1.0000
  C   C842      1.0  0.72868  0.32867  0.04196  1.0000
  H   H1430     1.0  0.78879  0.40797  0.24397  1.0000
  H   H1431     1.0  0.68844  0.42403  0.47231  1.0000
  C   C843      1.0  0.78064  0.47172  0.22917  1.0000
  C   C844      1.0  0.88381  0.36757  0.45965  1.0000
  C   C845      1.0  0.72130  0.48366  0.00425  1.0000
  H   H1432     1.0  0.67862  0.43555  0.44617  1.0000
  Fe  Fe127     1.0  0.98044  0.44467  0.07615  1.0000
  N   N62       1.0  0.72951  0.48586  0.14138  1.0000
  H   H1433     1.0  0.76937  0.41438  0.00539  1.0000
  H   H1434     1.0  0.78056  0.43971  0.30851  1.0000
  H   H1435     1.0  0.76107  0.48718  0.11592  1.0000
  H   H1436     1.0  0.79692  0.28546  0.40755  1.0000
  C   C846      1.0  0.77591  0.42988  0.33006  1.0000
  C   C847      1.0  0.78637  0.40825  0.30121  1.0000
  H   H1437     1.0  0.68552  0.43642  0.03195  1.0000
  C   C848      1.0  0.67521  0.42321  0.46197  1.0000
  S   S248      1.0  0.97827  0.39702  0.06576  1.0000
  H   H1438     1.0  0.75603  0.32007  0.06505  1.0000
  C   C849      1.0  0.73959  0.25406  0.02387  1.0000
  S   S249      1.0  0.97305  0.39712  0.16870  1.0000
  H   H1439     1.0  0.74863  0.40987  0.34509  1.0000
  S   S250      1.0  0.95874  0.46551  0.44017  1.0000
  H   H1440     1.0  0.71846  0.44604  0.04610  1.0000
  H   H1441     1.0  0.83894  0.28169  0.98782  1.0000
  H   H1442     1.0  0.95490  0.45085  0.00556  1.0000
  H   H1443     1.0  0.77032  0.31508  0.03643  1.0000
  H   H1444     1.0  0.80399  0.29771  0.01679  1.0000
  C   C850      1.0  0.78204  0.40144  0.03798  1.0000
  H   H1445     1.0  0.94117  0.44584  0.06339  1.0000
  H   H1446     1.0  0.76090  0.33533  0.00526  1.0000
  H   H1447     1.0  0.74886  0.42734  0.31745  1.0000
  H   H1448     1.0  0.77921  0.41483  0.38850  1.0000
  H   H1449     1.0  0.81006  0.26586  0.42784  1.0000
  H   H1450     1.0  0.87798  0.31704  0.04047  1.0000
  C   C851      1.0  0.72591  0.25235  0.46914  1.0000
  C   C852      1.0  0.90287  0.37485  0.45588  1.0000
  C   C853      1.0  0.79113  0.41822  0.26609  1.0000
  H   H1451     1.0  0.81660  0.42737  0.33673  1.0000
  S   S251      1.0  0.78426  0.41497  0.07692  1.0000
  C   C854      1.0  0.90785  0.43730  0.46965  1.0000
  H   H1452     1.0  0.72161  0.45190  0.17534  1.0000
  H   H1453     1.0  0.80799  0.46070  0.34113  1.0000
  C   C855      1.0  0.83175  0.28343  0.39657  1.0000
  C   C856      1.0  0.77384  0.46824  0.26368  1.0000
  C   C857      1.0  0.68947  0.46104  0.00560  1.0000
  N   N63       1.0  0.73161  0.32037  0.00777  1.0000
  H   H1454     1.0  0.73314  0.46792  0.10147  1.0000
  H   H1455     1.0  0.70124  0.47556  0.15531  1.0000
  H   H1456     1.0  0.80595  0.40621  0.38342  1.0000
  H   H1457     1.0  0.84628  0.46192  0.01516  1.0000
  H   H1458     1.0  0.75257  0.40908  0.29777  1.0000
  H   H1459     1.0  0.79103  0.38666  0.35491  1.0000
  H   H1460     1.0  0.85149  0.31937  0.05713  1.0000
  H   H1461     1.0  0.91022  0.41384  0.99553  1.0000
  H   H1462     1.0  0.82034  0.43887  0.04832  1.0000
  H   H1463     1.0  0.74775  0.29811  0.04044  1.0000
  C   C858      1.0  0.78035  0.40712  0.36444  1.0000
  H   H1464     1.0  0.81344  0.41233  0.99078  1.0000
  C   C859      1.0  0.78621  0.37644  0.00858  1.0000
  H   H1465     1.0  0.78966  0.29437  0.44548  1.0000
  C   C860      1.0  0.78532  0.47607  0.29430  1.0000
  C   C861      1.0  0.81429  0.45252  0.32844  1.0000
  H   H1466     1.0  0.94229  0.48751  0.46810  1.0000
  S   S252      1.0  0.80406  0.42813  0.44890  1.0000
  H   H1467     1.0  0.71098  0.45948  0.11663  1.0000
  H   H1468     1.0  0.83198  0.26956  0.44476  1.0000
  H   H1469     1.0  0.76633  0.39628  0.35791  1.0000
  C   C862      1.0  0.71421  0.45507  0.03211  1.0000
  C   C863      1.0  0.88155  0.37214  0.02339  1.0000
  H   H1470     1.0  0.78242  0.42514  0.25960  1.0000
  H   H1471     1.0  0.74422  0.45985  0.15834  1.0000
  H   H1472     1.0  0.79565  0.40160  0.30430  1.0000
  C   C864      1.0  0.79157  0.39682  0.37576  1.0000
  H   H1473     1.0  0.80743  0.32228  0.05507  1.0000
  C   C865      1.0  0.78793  0.38760  0.03906  1.0000
  H   H1474     1.0  0.91864  0.43548  0.04390  1.0000
  H   H1475     1.0  0.79400  0.38561  0.06350  1.0000
  H   H1476     1.0  0.66849  0.41059  0.44459  1.0000
  H   H1477     1.0  0.70049  0.27485  0.02465  1.0000
  C   C866      1.0  0.72162  0.24060  0.02917  1.0000
  H   H1478     1.0  0.80570  0.42808  0.26614  1.0000
  H   H1479     1.0  0.70053  0.29412  0.04878  1.0000
  C   C867      1.0  0.90080  0.38001  0.02675  1.0000
  H   H1480     1.0  0.96892  0.39244  0.29861  1.0000
  H   H1481     1.0  0.85575  0.44606  0.01008  1.0000
  C   C868      1.0  0.82581  0.28396  0.05308  1.0000
  C   C869      1.0  0.75610  0.31307  0.03945  1.0000
  C   C870      1.0  0.79761  0.41016  0.47882  1.0000
  H   H1482     1.0  0.75666  0.35063  0.05284  1.0000
  H   H1483     1.0  0.81206  0.45233  0.29935  1.0000
  C   C871      1.0  0.90286  0.42283  0.43875  1.0000
  H   H1484     1.0  0.94163  0.42723  0.01246  1.0000
  C   C872      1.0  0.97738  0.40667  0.21317  1.0000
  Fe  Fe128     1.0  0.96991  0.44468  0.43641  1.0000
  H   H1485     1.0  0.83161  0.27404  0.04785  1.0000
  H   H1486     1.0  0.90353  0.41010  0.44617  1.0000
  H   H1487     1.0  0.82206  0.31658  0.00012  1.0000
  H   H1488     1.0  0.80912  0.43609  0.37326  1.0000
  H   H1489     1.0  0.90162  0.44647  0.46176  1.0000
  H   H1490     1.0  0.75953  0.45953  0.26669  1.0000
  H   H1491     1.0  0.71478  0.32807  0.04119  1.0000
  C   C873      1.0  0.84984  0.31212  0.03079  1.0000
  C   C874      1.0  0.71939  0.47551  0.48015  1.0000
  N   N64       1.0  0.78752  0.41980  0.33412  1.0000
  S   S253      1.0  0.97352  0.43028  0.48341  1.0000
  H   H1492     1.0  0.71963  0.25726  0.44900  1.0000
  C   C875      1.0  0.70325  0.47784  0.48306  1.0000
  C   C876      1.0  0.74362  0.26552  0.99465  1.0000
  C   C877      1.0  0.81945  0.30510  0.44328  1.0000
  H   H1493     1.0  0.83166  0.33203  0.05781  1.0000
  C   C878      1.0  0.75032  0.32097  0.00736  1.0000
  H   H1494     1.0  0.96129  0.38062  0.23565  1.0000
  H   H1495     1.0  0.80290  0.25867  0.06725  1.0000
  S   S254      1.0  0.93821  0.38108  0.47872  1.0000
  C   C879      1.0  0.80615  0.39844  0.47752  1.0000
  C   C880      1.0  0.85892  0.31181  0.45900  1.0000
  H   H1496     1.0  0.86724  0.30184  0.00315  1.0000
  H   H1497     1.0  0.85314  0.48699  0.12149  1.0000
  H   H1498     1.0  0.65020  0.44512  0.46695  1.0000
  C   C881      1.0  0.79902  0.48337  0.22475  1.0000
  H   H1499     1.0  0.82066  0.31584  0.46361  1.0000
  C   C882      1.0  0.71692  0.30092  0.00120  1.0000
  H   H1500     1.0  0.70468  0.30081  0.98713  1.0000
  H   H1501     1.0  0.71613  0.47566  0.19036  1.0000
  Fe  Fe129     1.0  0.81297  0.48153  0.05038  1.0000
  H   H1502     1.0  0.87083  0.31918  0.47786  1.0000
  H   H1503     1.0  0.64964  0.42932  0.43279  1.0000
  H   H1504     1.0  0.74854  0.48756  0.18485  1.0000
  H   H1505     1.0  0.80684  0.26084  0.99102  1.0000
  S   S255      1.0  0.98105  0.47256  0.08134  1.0000
  H   H1506     1.0  0.82014  0.45904  0.98514  1.0000
  C   C883      1.0  0.91421  0.37364  0.48326  1.0000
  H   H1507     1.0  0.90255  0.43064  0.98666  1.0000
  H   H1508     1.0  0.90572  0.41275  0.54487  1.0000
  Fe  Fe130     1.0  0.82844  0.33782  0.53356  1.0000
  S   S256      1.0  0.82445  0.35565  0.57598  1.0000
  H   H1509     1.0  0.66522  0.41378  0.51292  1.0000
  Fe  Fe131     1.0  0.79118  0.30467  0.54805  1.0000
  S   S257      1.0  0.78532  0.32069  0.59173  1.0000
  C   C884      1.0  0.92978  0.42281  0.51388  1.0000
  Fe  Fe132     1.0  0.79555  0.34408  0.55467  1.0000
  C   C885      1.0  0.87569  0.35921  0.49101  1.0000
  Fe  Fe133     1.0  0.81461  0.33107  0.61046  1.0000
  S   S258      1.0  0.82590  0.33791  0.66850  1.0000
  C   C886      1.0  0.72999  0.33168  0.97785  1.0000
  S   S259      1.0  0.82043  0.31370  0.56916  1.0000
  H   H1510     1.0  0.83758  0.44333  0.91973  1.0000
  H   H1511     1.0  0.70631  0.26621  0.57657  1.0000
  H   H1512     1.0  0.70033  0.24829  0.95744  1.0000
  H   H1513     1.0  0.68534  0.26264  0.51890  1.0000
  Fe  Fe134     1.0  0.78286  0.30648  0.95357  1.0000
  S   S260      1.0  0.77255  0.31733  0.90835  1.0000
  H   H1514     1.0  0.83432  0.29877  0.96730  1.0000
  Fe  Fe135     1.0  0.82213  0.33914  0.95107  1.0000
  S   S261      1.0  0.81382  0.35188  0.90545  1.0000
  H   H1515     1.0  0.92566  0.47229  0.92336  1.0000
  Fe  Fe136     1.0  0.78831  0.34526  0.93496  1.0000
  H   H1516     1.0  0.84217  0.47476  0.94707  1.0000
  Fe  Fe137     1.0  0.79877  0.32301  0.88144  1.0000
  S   S262      1.0  0.79345  0.31336  0.82222  1.0000
  C   C887      1.0  0.90137  0.36983  0.96618  1.0000
  S   S263      1.0  0.80845  0.31034  0.92557  1.0000
  H   H1517     1.0  0.96388  0.43773  0.91518  1.0000
  C   C888      1.0  0.97599  0.37227  0.51722  1.0000
  S   S264      1.0  0.67251  0.47625  0.51564  1.0000
  H   H1518     1.0  0.65965  0.24845  0.48863  1.0000
  C   C889      1.0  0.77814  0.37875  0.97707  1.0000
  H   H1519     1.0  0.71640  0.27671  0.53630  1.0000
  H   H1520     1.0  0.90897  0.36886  0.94378  1.0000
  C   C890      1.0  0.91094  0.44666  0.53264  1.0000
  H   H1521     1.0  0.95253  0.34567  0.51130  1.0000
  H   H1522     1.0  0.80792  0.29156  0.50424  1.0000
  C   C891      1.0  0.69038  0.25256  0.52672  1.0000
  H   H1523     1.0  0.96319  0.38824  0.56805  1.0000
  C   C892      1.0  0.77206  0.39245  0.97612  1.0000
  C   C893      1.0  0.90022  0.41206  0.94248  1.0000
  C   C894      1.0  0.78735  0.38035  0.52402  1.0000
  C   C895      1.0  0.93923  0.43121  0.94379  1.0000
  H   H1524     1.0  0.76569  0.39422  0.95187  1.0000
  C   C896      1.0  0.66886  0.24240  0.57675  1.0000
  N   N65       1.0  0.83168  0.43972  0.97593  1.0000
  H   H1525     1.0  0.86002  0.47427  0.92148  1.0000
  C   C897      1.0  0.71123  0.24989  0.97626  1.0000
  C   C898      1.0  0.97467  0.39731  0.55206  1.0000
  H   H1526     1.0  0.93815  0.43446  0.53259  1.0000
  H   H1527     1.0  0.75164  0.31336  0.98339  1.0000
  S   S265      1.0  0.74646  0.46584  0.50695  1.0000
  C   C899      1.0  0.69326  0.47360  0.51424  1.0000
  H   H1528     1.0  0.90866  0.44207  0.56047  1.0000
  C   C900      1.0  0.66364  0.42320  0.49365  1.0000
  C   C901      1.0  0.81656  0.33078  0.71095  1.0000
  C   C902      1.0  0.82685  0.34016  0.74201  1.0000
  C   C903      1.0  0.81999  0.33528  0.77620  1.0000
  C   C904      1.0  0.80276  0.32073  0.77987  1.0000
  C   C905      1.0  0.79249  0.31136  0.74877  1.0000
  C   C906      1.0  0.79926  0.31637  0.71460  1.0000
  H   H1529     1.0  0.84027  0.35129  0.73964  1.0000
  H   H1530     1.0  0.82813  0.34257  0.79972  1.0000
  H   H1531     1.0  0.77921  0.30000  0.75119  1.0000
  H   H1532     1.0  0.79120  0.30886  0.69115  1.0000
  S   S266      1.0  0.79716  0.33434  0.98163  1.0000
  S   S267      1.0  0.79957  0.32757  0.50984  1.0000
  H   H1533     1.0  0.93864  0.41777  0.95120  1.0000
  H   H1534     1.0  0.85581  0.44459  0.94735  1.0000
  H   H1535     1.0  0.87240  0.39286  0.51549  1.0000
  H   H1536     1.0  0.96118  0.45764  0.92826  1.0000
  C   C907      1.0  0.70846  0.26339  0.54856  1.0000
  H   H1537     1.0  0.97340  0.42086  0.57840  1.0000
  H   H1538     1.0  0.71707  0.25595  0.54809  1.0000
  H   H1539     1.0  0.69239  0.46354  0.56673  1.0000
  H   H1540     1.0  0.72075  0.45952  0.56188  1.0000
  H   H1541     1.0  0.87833  0.42328  0.53727  1.0000
  H   H1542     1.0  0.69377  0.24785  0.50116  1.0000
  H   H1543     1.0  0.80777  0.37469  0.49882  1.0000
  H   H1544     1.0  0.71707  0.33314  0.97917  1.0000
  H   H1545     1.0  0.97162  0.37710  0.49289  1.0000
  C   C908      1.0  0.90440  0.46178  0.52919  1.0000
  C   C909      1.0  0.90609  0.36525  0.51463  1.0000
  C   C910      1.0  0.88706  0.35829  0.51868  1.0000
  H   H1546     1.0  0.86287  0.47600  0.96863  1.0000
  H   H1547     1.0  0.91458  0.36401  0.53597  1.0000
  H   H1548     1.0  0.88116  0.35187  0.54294  1.0000
  C   C911      1.0  0.80113  0.38365  0.50014  1.0000
  H   H1549     1.0  0.90009  0.42012  0.91942  1.0000
  C   C912      1.0  0.95884  0.35695  0.53200  1.0000
  C   C913      1.0  0.69979  0.46693  0.54255  1.0000
  H   H1550     1.0  0.68116  0.27266  0.57698  1.0000
  H   H1551     1.0  0.96210  0.35103  0.55581  1.0000
  H   H1552     1.0  0.87513  0.35519  0.93796  1.0000
  H   H1553     1.0  0.88959  0.45662  0.53287  1.0000
  H   H1554     1.0  0.84142  0.30989  0.50194  1.0000
  H   H1555     1.0  0.92597  0.45369  0.53050  1.0000
  S   S268      1.0  0.78024  0.36155  0.55205  1.0000
  S   S269      1.0  0.77204  0.27377  0.53630  1.0000
  H   H1556     1.0  0.72890  0.33362  0.92043  1.0000
  C   C914      1.0  0.92321  0.45782  0.92648  1.0000
  N   N66       1.0  0.78938  0.36526  0.67930  1.0000
  C   C915      1.0  0.77965  0.34457  0.67897  1.0000
  C   C916      1.0  0.80645  0.37122  0.70284  1.0000
  C   C917      1.0  0.79410  0.37065  0.64143  1.0000
  C   C918      1.0  0.77666  0.37266  0.69303  1.0000
  C   C919      1.0  0.76208  0.33541  0.65491  1.0000
  C   C920      1.0  0.80356  0.36728  0.74265  1.0000
  C   C921      1.0  0.81059  0.38913  0.63582  1.0000
  C   C922      1.0  0.78441  0.39365  0.69848  1.0000
  H   H1557     1.0  0.78893  0.33859  0.67031  1.0000
  H   H1558     1.0  0.77559  0.33958  0.70599  1.0000
  H   H1559     1.0  0.81535  0.38610  0.70200  1.0000
  H   H1560     1.0  0.81498  0.36468  0.69289  1.0000
  H   H1561     1.0  0.79714  0.36027  0.62670  1.0000
  H   H1562     1.0  0.78226  0.37091  0.62650  1.0000
  H   H1563     1.0  0.76464  0.36866  0.67426  1.0000
  H   H1564     1.0  0.77050  0.36622  0.71810  1.0000
  H   H1565     1.0  0.75736  0.32031  0.65425  1.0000
  H   H1566     1.0  0.75090  0.33804  0.66560  1.0000
  H   H1567     1.0  0.76422  0.33963  0.62700  1.0000
  H   H1568     1.0  0.81709  0.37268  0.75699  1.0000
  H   H1569     1.0  0.79598  0.37424  0.75503  1.0000
  H   H1570     1.0  0.79676  0.35242  0.74738  1.0000
  H   H1571     1.0  0.81099  0.39195  0.60702  1.0000
  H   H1572     1.0  0.82356  0.38849  0.64313  1.0000
  H   H1573     1.0  0.80989  0.40079  0.65038  1.0000
  H   H1574     1.0  0.78323  0.39996  0.67332  1.0000
  H   H1575     1.0  0.79868  0.40029  0.70905  1.0000
  H   H1576     1.0  0.77661  0.39690  0.71894  1.0000
  H   H1577     1.0  0.65986  0.26175  0.55150  1.0000
  H   H1578     1.0  0.67750  0.24372  0.60112  1.0000
  H   H1579     1.0  0.98084  0.37529  0.59357  1.0000
  H   H1580     1.0  0.93186  0.42853  0.91750  1.0000
  C   C923      1.0  0.77884  0.39210  0.52542  1.0000
  H   H1581     1.0  0.73194  0.27169  0.94796  1.0000
  C   C924      1.0  0.73060  0.32437  0.93986  1.0000
  C   C925      1.0  0.82524  0.41919  0.97378  1.0000
  H   H1582     1.0  0.65272  0.41989  0.56379  1.0000
  S   S270      1.0  0.65015  0.48493  0.93020  1.0000
  H   H1583     1.0  0.92988  0.45429  0.90427  1.0000
  H   H1584     1.0  0.80011  0.27775  0.97351  1.0000
  S   S271      1.0  0.77525  0.36476  0.93848  1.0000
  H   H1585     1.0  0.90580  0.40233  0.93450  1.0000
  C   C926      1.0  0.80391  0.44076  0.94162  1.0000
  H   H1586     1.0  0.90232  0.40359  0.50109  1.0000
  C   C927      1.0  0.81578  0.44448  0.97623  1.0000
  N   N67       1.0  0.93031  0.43798  0.97145  1.0000
  S   S272      1.0  0.79535  0.46884  0.49632  1.0000
  C   C928      1.0  0.71595  0.46465  0.53967  1.0000
  H   H1587     1.0  0.96823  0.39968  0.52756  1.0000
  H   H1588     1.0  0.81424  0.39435  0.93985  1.0000
  C   C929      1.0  0.90917  0.41668  0.51695  1.0000
  H   H1589     1.0  0.72163  0.29297  0.98306  1.0000
  C   C930      1.0  0.93123  0.45641  0.96305  1.0000
  H   H1590     1.0  0.83145  0.41320  0.91952  1.0000
  C   C931      1.0  0.95931  0.44402  0.93697  1.0000
  H   H1591     1.0  0.96851  0.44568  0.96034  1.0000
  H   H1592     1.0  0.66026  0.26225  0.59886  1.0000
  C   C932      1.0  0.88190  0.42249  0.50909  1.0000
  H   H1593     1.0  0.74397  0.32456  0.93524  1.0000
  C   C933      1.0  0.96925  0.47853  0.54549  1.0000
  H   H1594     1.0  0.67036  0.43709  0.50702  1.0000
  C   C934      1.0  0.78399  0.40701  0.50300  1.0000
  C   C935      1.0  0.75086  0.25883  0.51314  1.0000
  C   C936      1.0  0.81963  0.40937  0.93666  1.0000
  H   H1595     1.0  0.81134  0.44245  0.91697  1.0000
  H   H1596     1.0  0.79825  0.45095  0.94057  1.0000
  H   H1597     1.0  0.76815  0.38960  0.54378  1.0000
  H   H1598     1.0  0.71960  0.31041  0.93360  1.0000
  C   C937      1.0  0.84430  0.44846  0.94636  1.0000
  C   C938      1.0  0.72594  0.46890  0.50851  1.0000
  H   H1599     1.0  0.79231  0.42688  0.94102  1.0000
  C   C939      1.0  0.81097  0.27311  0.97485  1.0000
  C   C940      1.0  0.85264  0.46956  0.94632  1.0000
  H   H1600     1.0  0.90829  0.44939  0.92430  1.0000
  H   H1601     1.0  0.93293  0.41127  0.52088  1.0000
  C   C941      1.0  0.72922  0.26327  0.97084  1.0000
  H   H1602     1.0  0.80866  0.41154  0.92295  1.0000
  H   H1603     1.0  0.91149  0.47260  0.55044  1.0000
  H   H1604     1.0  0.74118  0.34586  0.97998  1.0000
  C   C942      1.0  0.66752  0.26078  0.57536  1.0000
  H   H1605     1.0  0.85584  0.39899  0.49612  1.0000
  C   C943      1.0  0.88213  0.36206  0.96274  1.0000
  H   H1606     1.0  0.77809  0.48604  0.55834  1.0000
  H   H1607     1.0  0.94556  0.46703  0.96488  1.0000
  H   H1608     1.0  0.88584  0.40356  0.94913  1.0000
  C   C944      1.0  0.96892  0.47122  0.51121  1.0000
  C   C945      1.0  0.74242  0.24010  0.52091  1.0000
  H   H1609     1.0  0.81211  0.26862  0.94725  1.0000
  H   H1610     1.0  0.65864  0.46440  0.75956  1.0000
  H   H1611     1.0  0.94832  0.36167  0.53790  1.0000
  N   N68       1.0  0.90235  0.43045  0.50630  1.0000
  C   C946      1.0  0.81316  0.26801  0.51073  1.0000
  H   H1612     1.0  0.77729  0.41591  0.50416  1.0000
  C   C947      1.0  0.91081  0.42399  0.97569  1.0000
  H   H1613     1.0  0.69832  0.48709  0.98157  1.0000
  H   H1614     1.0  0.82385  0.27550  0.53182  1.0000
  H   H1615     1.0  0.90799  0.46861  0.50354  1.0000
  S   S273      1.0  0.85134  0.34964  0.49328  1.0000
  H   H1616     1.0  0.84582  0.29052  0.49421  1.0000
  H   H1617     1.0  0.80050  0.25987  0.52473  1.0000
  H   H1618     1.0  0.97708  0.47632  0.56692  1.0000
  H   H1619     1.0  0.97677  0.46374  0.50629  1.0000
  H   H1620     1.0  0.87629  0.43066  0.49406  1.0000
  H   H1621     1.0  0.93410  0.42625  0.48631  1.0000
  H   H1622     1.0  0.81659  0.25815  0.49552  1.0000
  H   H1623     1.0  0.65037  0.46986  0.69836  1.0000
  C   C948      1.0  0.74240  0.26485  0.48704  1.0000
  C   C949      1.0  0.87055  0.40224  0.49657  1.0000
  H   H1624     1.0  0.92407  0.46092  0.98298  1.0000
  C   C950      1.0  0.80979  0.28137  0.48655  1.0000
  C   C951      1.0  0.94984  0.48500  0.48967  1.0000
  H   H1625     1.0  0.98022  0.48694  0.81965  1.0000
  H   H1626     1.0  0.83608  0.41561  0.98453  1.0000
  H   H1627     1.0  0.83480  0.51152  0.11993  1.0000
  H   H1628     1.0  0.87007  0.51518  0.18493  1.0000
  H   H1629     1.0  0.82476  0.50015  0.25241  1.0000
  H   H1630     1.0  0.87715  0.49803  0.13489  1.0000
  C   C952      1.0  0.89128  0.55160  0.10809  1.0000
  C   C953      1.0  0.84843  0.51887  0.10855  1.0000
  C   C954      1.0  0.86064  0.51018  0.16088  1.0000
  H   H1631     1.0  0.81282  0.49354  0.31303  1.0000
  C   C955      1.0  0.88922  0.50612  0.03533  1.0000
  H   H1632     1.0  0.88264  0.55482  0.08916  1.0000
  H   H1633     1.0  0.88110  0.52255  0.09830  1.0000
  S   S274      1.0  0.92294  0.52558  0.00755  1.0000
  C   C956      1.0  0.81054  0.49106  0.25537  1.0000
  H   H1634     1.0  0.83339  0.52806  0.07193  1.0000
  C   C957      1.0  0.89872  0.51715  0.00754  1.0000
  C   C958      1.0  0.86035  0.50453  0.01212  1.0000
  N   N69       1.0  0.86350  0.52583  0.13710  1.0000
  C   C959      1.0  0.97850  0.52408  0.44298  1.0000
  H   H1635     1.0  0.96303  0.49271  0.05259  1.0000
  H   H1636     1.0  0.86613  0.55362  0.14522  1.0000
  H   H1637     1.0  0.89670  0.50253  0.05539  1.0000
  H   H1638     1.0  0.73451  0.51236  0.12098  1.0000
  H   H1639     1.0  0.85112  0.54653  0.09519  1.0000
  H   H1640     1.0  0.71494  0.51086  0.16382  1.0000
  C   C960      1.0  0.84761  0.53289  0.08264  1.0000
  S   S275      1.0  0.78665  0.49393  0.43868  1.0000
  H   H1641     1.0  0.89604  0.56189  0.13073  1.0000
  H   H1642     1.0  0.84666  0.50413  0.17100  1.0000
  S   S276      1.0  0.79815  0.49489  0.08044  1.0000
  C   C961      1.0  0.88192  0.53189  0.12116  1.0000
  H   H1643     1.0  0.70397  0.49815  0.20100  1.0000
  H   H1644     1.0  0.97496  0.50962  0.43502  1.0000
  C   C962      1.0  0.86318  0.54116  0.16023  1.0000
  H   H1645     1.0  0.89192  0.53100  0.14089  1.0000
  H   H1646     1.0  0.87426  0.54564  0.18143  1.0000
  H   H1647     1.0  0.83338  0.53229  0.15940  1.0000
  C   C963      1.0  0.74797  0.49483  0.16051  1.0000
  H   H1648     1.0  0.84627  0.54936  0.19304  1.0000
  C   C964      1.0  0.87017  0.49969  0.03742  1.0000
  H   H1649     1.0  0.84243  0.52631  0.19897  1.0000
  H   H1650     1.0  0.84940  0.50805  0.09132  1.0000
  C   C965      1.0  0.84519  0.53675  0.17869  1.0000
  H   H1651     1.0  0.90360  0.55325  0.09382  1.0000
  C   C966      1.0  0.97111  0.49759  0.99846  1.0000
  H   H1652     1.0  0.85636  0.53422  0.05980  1.0000
  H   H1653     1.0  0.79967  0.53000  0.48403  1.0000
  H   H1654     1.0  0.73875  0.49789  0.09081  1.0000
  S   S277      1.0  0.97237  0.54045  0.98580  1.0000
  C   C967      1.0  0.86314  0.49394  0.14384  1.0000
  H   H1655     1.0  0.75081  0.50879  0.17107  1.0000
  C   C968      1.0  0.76438  0.49759  0.13787  1.0000
  H   H1656     1.0  0.70071  0.49405  0.10953  1.0000
  S   S278      1.0  0.83633  0.49721  0.01357  1.0000
  C   C969      1.0  0.72924  0.49775  0.11154  1.0000
  H   H1657     1.0  0.97338  0.52974  0.42110  1.0000
  C   C970      1.0  0.71586  0.50163  0.18409  1.0000
  H   H1658     1.0  0.72819  0.50909  0.20176  1.0000
  H   H1659     1.0  0.96209  0.50374  0.99247  1.0000
  H   H1660     1.0  0.77010  0.51129  0.12612  1.0000
  Fe  Fe138     1.0  0.81182  0.49216  0.46210  1.0000
  C   C971      1.0  0.71054  0.49215  0.09221  1.0000
  H   H1661     1.0  0.86315  0.49103  0.05863  1.0000
  H   H1662     1.0  0.73121  0.49701  0.99680  1.0000
  H   H1663     1.0  0.97104  0.52467  0.46677  1.0000
  C   C972      1.0  0.97141  0.49106  0.03235  1.0000
  H   H1664     1.0  0.77515  0.49642  0.15483  1.0000
  H   H1665     1.0  0.71232  0.50100  0.06925  1.0000
  S   S279      1.0  0.80813  0.48958  0.18189  1.0000
  C   C973      1.0  0.93325  0.56971  0.68057  1.0000
  S   S280      1.0  0.96261  0.54070  0.53600  1.0000
  S   S281      1.0  0.96278  0.50042  0.59348  1.0000
  C   C974      1.0  0.90056  0.58317  0.66452  1.0000
  H   H1666     1.0  0.68192  0.51747  0.83563  1.0000
  S   S282      1.0  0.97171  0.57821  0.58258  1.0000
  Fe  Fe139     1.0  0.94630  0.55201  0.56684  1.0000
  S   S283      1.0  0.91953  0.55295  0.54807  1.0000
  S   S284      1.0  0.94761  0.53856  0.61772  1.0000
  H   H1667     1.0  0.94340  0.50100  0.52859  1.0000
  S   S285      1.0  0.94481  0.52227  0.91655  1.0000
  C   C975      1.0  0.78975  0.53520  0.57126  1.0000
  H   H1668     1.0  0.95406  0.61367  0.65307  1.0000
  C   C976      1.0  0.95820  0.55578  0.79425  1.0000
  H   H1669     1.0  0.80411  0.53324  0.62016  1.0000
  C   C977      1.0  0.88698  0.52274  0.52068  1.0000
  H   H1670     1.0  0.96257  0.59693  0.65353  1.0000
  H   H1671     1.0  0.75964  0.53267  0.53394  1.0000
  H   H1672     1.0  0.93872  0.57550  0.61242  1.0000
  H   H1673     1.0  0.66513  0.50134  0.86327  1.0000
  Fe  Fe140     1.0  0.97264  0.52635  0.93419  1.0000
  C   C978      1.0  0.89635  0.54160  0.53048  1.0000
  C   C979      1.0  0.93157  0.59721  0.59906  1.0000
  H   H1674     1.0  0.78758  0.50261  0.59534  1.0000
  H   H1675     1.0  0.65505  0.51116  0.80429  1.0000
  H   H1676     1.0  0.94612  0.60617  0.59460  1.0000
  H   H1677     1.0  0.78714  0.54714  0.56455  1.0000
  H   H1678     1.0  0.80018  0.49134  0.57683  1.0000
  C   C980      1.0  0.77113  0.51281  0.52401  1.0000
  H   H1679     1.0  0.93644  0.57284  0.70959  1.0000
  C   C981      1.0  0.92959  0.58127  0.62269  1.0000
  H   H1680     1.0  0.96306  0.52212  0.84899  1.0000
  C   C982      1.0  0.86856  0.51503  0.50682  1.0000
  S   S286      1.0  0.95850  0.56568  0.94083  1.0000
  H   H1681     1.0  0.86241  0.51913  0.96420  1.0000
  C   C983      1.0  0.96036  0.48957  0.55164  1.0000
  H   H1682     1.0  0.97391  0.51748  0.72764  1.0000
  Fe  Fe141     1.0  0.97388  0.56343  0.63133  1.0000
  H   H1683     1.0  0.81412  0.52025  0.55222  1.0000
  H   H1684     1.0  0.89393  0.51414  0.52357  1.0000
  N   N70       1.0  0.65065  0.52645  0.84824  1.0000
  C   C984      1.0  0.91531  0.55199  0.67772  1.0000
  Fe  Fe142     1.0  0.96530  0.52885  0.58777  1.0000
  H   H1685     1.0  0.76335  0.50305  0.54436  1.0000
  C   C985      1.0  0.81975  0.55193  0.51730  1.0000
  H   H1686     1.0  0.89389  0.56690  0.53353  1.0000
  C   C986      1.0  0.95279  0.60116  0.66649  1.0000
  H   H1687     1.0  0.96077  0.51668  0.78060  1.0000
  H   H1688     1.0  0.81957  0.54427  0.58556  1.0000
  C   C987      1.0  0.67563  0.51563  0.86187  1.0000
  C   C988      1.0  0.88699  0.55240  0.52639  1.0000
  C   C989      1.0  0.86981  0.51537  0.98414  1.0000
  H   H1689     1.0  0.93768  0.53305  0.76316  1.0000
  H   H1690     1.0  0.92497  0.59151  0.57241  1.0000
  C   C990      1.0  0.79986  0.53789  0.50893  1.0000
  C   C991      1.0  0.96748  0.51051  0.79847  1.0000
  C   C992      1.0  0.79960  0.51257  0.54351  1.0000
  C   C993      1.0  0.95779  0.55172  0.72936  1.0000
  H   H1691     1.0  0.82066  0.56233  0.53798  1.0000
  H   H1692     1.0  0.92503  0.60551  0.61013  1.0000
  C   C994      1.0  0.97343  0.56833  0.72778  1.0000
  H   H1693     1.0  0.66588  0.52957  0.89839  1.0000
  H   H1694     1.0  0.66694  0.53544  0.80201  1.0000
  H   H1695     1.0  0.95123  0.61230  0.72013  1.0000
  H   H1696     1.0  0.91575  0.57019  0.61672  1.0000
  H   H1697     1.0  0.90449  0.55357  0.69240  1.0000
  H   H1698     1.0  0.80001  0.50564  0.51786  1.0000
  C   C995      1.0  0.80667  0.54232  0.59736  1.0000
  H   H1699     1.0  0.82532  0.55944  0.49290  1.0000
  C   C996      1.0  0.95005  0.54568  0.76233  1.0000
  C   C997      1.0  0.95052  0.49269  0.52380  1.0000
  N   N71       1.0  0.79042  0.52492  0.53771  1.0000
  H   H1700     1.0  0.80896  0.55590  0.60916  1.0000
  Fe  Fe143     1.0  0.95960  0.54954  0.89133  1.0000
  S   S287      1.0  0.94754  0.54769  0.83479  1.0000
  H   H1701     1.0  0.82872  0.54550  0.52484  1.0000
  H   H1702     1.0  0.89176  0.58263  0.68684  1.0000
  H   H1703     1.0  0.92099  0.59157  0.70779  1.0000
  C   C998      1.0  0.79070  0.49741  0.57020  1.0000
  H   H1704     1.0  0.95142  0.54371  0.70513  1.0000
  C   C999      1.0  0.85936  0.52612  0.50276  1.0000
  N   N72       1.0  0.93357  0.58606  0.66199  1.0000
  C   C1000     1.0  0.95857  0.50869  0.83463  1.0000
  H   H1705     1.0  0.92545  0.60753  0.67367  1.0000
  C   C1001     1.0  0.86884  0.54480  0.51283  1.0000
  H   H1706     1.0  0.68652  0.51773  0.88233  1.0000
  H   H1707     1.0  0.96310  0.49640  0.78680  1.0000
  H   H1708     1.0  0.91761  0.54101  0.69075  1.0000
  Fe  Fe144     1.0  0.94507  0.53820  0.96640  1.0000
  H   H1709     1.0  0.77802  0.52623  0.58696  1.0000
  H   H1710     1.0  0.91071  0.54695  0.64985  1.0000
  H   H1711     1.0  0.94355  0.50287  0.83022  1.0000
  H   H1712     1.0  0.89787  0.59151  0.64432  1.0000
  H   H1713     1.0  0.89569  0.56894  0.65377  1.0000
  C   C1002     1.0  0.92073  0.59267  0.67835  1.0000
  H   H1714     1.0  0.94401  0.56616  0.67031  1.0000
  H   H1715     1.0  0.65895  0.55340  0.90887  1.0000
  C   C1003     1.0  0.96011  0.60776  0.70514  1.0000
  H   H1716     1.0  0.65917  0.55553  0.84363  1.0000
  C   C1004     1.0  0.97413  0.57216  0.79279  1.0000
  C   C1005     1.0  0.65379  0.52413  0.80945  1.0000
  H   H1717     1.0  0.97370  0.61971  0.70454  1.0000
  C   C1006     1.0  0.66793  0.52963  0.86924  1.0000
  H   H1718     1.0  0.67907  0.54342  0.86441  1.0000
  C   C1007     1.0  0.75940  0.52262  0.51316  1.0000
  H   H1719     1.0  0.96145  0.49934  0.85193  1.0000
  H   H1720     1.0  0.86216  0.55362  0.50977  1.0000
  H   H1721     1.0  0.98045  0.58018  0.81707  1.0000
  H   H1722     1.0  0.96232  0.59723  0.71987  1.0000
  H   H1723     1.0  0.89585  0.53005  0.96021  1.0000
  H   H1724     1.0  0.74500  0.51221  0.50902  1.0000
  C   C1008     1.0  0.88881  0.52155  0.98169  1.0000
  H   H1725     1.0  0.77107  0.50415  0.50050  1.0000
  H   H1726     1.0  0.79265  0.54628  0.50198  1.0000
  H   H1727     1.0  0.86154  0.50058  0.49926  1.0000
  S   S288      1.0  0.83619  0.51809  0.48591  1.0000
  H   H1728     1.0  0.76341  0.52928  0.48742  1.0000
