data_image0
_chemical_formula_structural       SC2HC2HCH3FeH2SHCH2C2HCH4CHNHC2HCHCHCH2CH3CH2CHS2H3SC2H2C4HNHCHFeCH2SH3S2H2C3HFeHSHCHCHFeHCSHSHC2HSCFeH5FeNH2C2H4SFeS2Fe2SH2CHCH4SHCH2CHNH7CHC2HCH4CHC3HCH2CHSHCSHCHFeHC2HFeHC2S2H2SH3FeCHSH5CH2FeC4H3SHC3HCH2CNCHNHCH2CH3CSH4CH2CH2FeHCH3SCHCFeS2CHCHCH2CHCH2CSHSC2HCHNH3S2C2HCH2FeH2CH2FeCH2CHC2H2C2H3CH3SCFeSC2HC3HCH2CHCHNHCH2CH4CH3C3H2CHFeH3C2H4CHCS3H2FeHNH2SCH6CH2CH2SHCFeC2H2SH2CHSC3H2FeHCSH2CSHCH3NC3H3C2H5CNH6SCH8C3H2C2H4C2FeCH3CHC2HSCSFeSCHCFeS2HCHSH3CHCSC2H2C2H2SH9FeHCH2SC3HSC2HCNH3FeC2HCHCFeHFeSH4CH2C2H2S2C2H5SH2CHFeCHCSH4C2HNCHC5H7CH3CHSH6C2HNH3CH2C3HCH2CS2FeSHC3H2C5H4C2HCH2SH2C2H2CH2C2HCHCHCHNH2CH3CH5NCH5CSCH6CH2CSHCFeSFeSH6C7H5CHCFeNH2CH5SNHC2HCHCH2CH3SH2CFeCHS2H2C2H4FeS2FeS2FeS2CSH2FeSCH3C6H5C3HCHCH10CH3NC7H15CNC5H6C4H2SCH3SH4FeS2FeSCFeHCH2SHCH4CH2C2FeHC6H6C3H5NSCHC2H2C2NC5H7CHCH6FeHC2SH3SHSH4C2HSFeHSHSH3FeH2CHSHC7H8SH2NC3HCSH8CH3CH4FeH4NC8H4CH2CH2C3H3FeC2HC2HCH
_chemical_formula_sum              "S96 C336 H576 Fe48 N24"
_cell_length_a       36.4131
_cell_length_b       36.3947
_cell_length_c       32.6704
_cell_angle_alpha    89.4096
_cell_angle_beta     90.2033
_cell_angle_gamma    120.01

_space_group_name_H-M_alt    "P 1"
_space_group_IT_number       1

loop_
  _space_group_symop_operation_xyz
  'x, y, z'

loop_
  _atom_site_type_symbol
  _atom_site_label
  _atom_site_symmetry_multiplicity
  _atom_site_fract_x
  _atom_site_fract_y
  _atom_site_fract_z
  _atom_site_occupancy
  S   S1        1.0  0.09581  0.39851  0.24971  1.0000
  C   C1        1.0  0.06126  0.36412  0.21217  1.0000
  C   C2        1.0  0.06242  0.38051  0.17286  1.0000
  H   H1        1.0  0.08341  0.41393  0.16662  1.0000
  C   C3        1.0  0.03412  0.32087  0.22003  1.0000
  C   C4        1.0  0.03693  0.35390  0.14138  1.0000
  H   H2        1.0  0.05588  0.25242  0.12126  1.0000
  C   C5        1.0  0.08624  0.28145  0.11322  1.0000
  H   H3        1.0  0.07685  0.30064  0.09381  1.0000
  H   H4        1.0  0.09559  0.32719  0.15820  1.0000
  H   H5        1.0  0.11097  0.48387  0.03797  1.0000
  Fe  Fe1       1.0  0.08794  0.38196  0.31736  1.0000
  H   H6        1.0  0.03330  0.30792  0.25021  1.0000
  H   H7        1.0  0.03813  0.36695  0.11127  1.0000
  S   S2        1.0  0.03951  0.36593  0.02298  1.0000
  H   H8        1.0  0.14675  0.25416  0.03206  1.0000
  C   C6        1.0  0.16151  0.28596  0.01934  1.0000
  H   H9        1.0  0.12847  0.37290  0.10119  1.0000
  H   H10       1.0  0.09337  0.48564  0.08842  1.0000
  C   C7        1.0  0.16290  0.38449  0.09874  1.0000
  C   C8        1.0  0.08982  0.49167  0.05574  1.0000
  H   H11       1.0  0.05704  0.46928  0.04539  1.0000
  C   C9        1.0  0.10780  0.30517  0.15317  1.0000
  H   H12       1.0  0.10461  0.27104  0.09472  1.0000
  H   H13       1.0  0.15648  0.38537  0.17908  1.0000
  H   H14       1.0  0.16610  0.32828  0.08860  1.0000
  H   H15       1.0  0.09517  0.28183  0.17897  1.0000
  C   C10       1.0  0.01030  0.31056  0.14889  1.0000
  H   H16       1.0  0.02043  0.49681  0.08542  1.0000
  N   N1        1.0  0.15567  0.32985  0.15393  1.0000
  H   H17       1.0  0.12335  0.32674  0.23409  1.0000
  C   C11       1.0  0.00875  0.29414  0.18839  1.0000
  C   C12       1.0  0.13606  0.30065  0.00128  1.0000
  H   H18       1.0  0.10202  0.28017  0.99994  1.0000
  C   C13       1.0  0.16999  0.36439  0.18559  1.0000
  H   H19       1.0  0.16509  0.37747  0.24955  1.0000
  C   C14       1.0  0.15773  0.34951  0.23045  1.0000
  H   H20       1.0  0.16175  0.28721  0.19678  1.0000
  C   C15       1.0  0.16254  0.26381  0.13822  1.0000
  H   H21       1.0  0.17202  0.27340  0.10609  1.0000
  H   H22       1.0  0.12842  0.23955  0.14022  1.0000
  C   C16       1.0  0.17343  0.30171  0.16606  1.0000
  H   H23       1.0  0.01547  0.42957  0.26340  1.0000
  H   H24       1.0  0.18077  0.41458  0.11583  1.0000
  H   H25       1.0  0.17182  0.39217  0.06595  1.0000
  C   C17       1.0  0.17475  0.35131  0.11353  1.0000
  H   H26       1.0  0.49943  0.38790  0.25945  1.0000
  H   H27       1.0  0.25865  0.37343  0.00554  1.0000
  C   C18       1.0  0.38096  0.22233  0.20391  1.0000
  H   H28       1.0  0.21006  0.36746  0.11475  1.0000
  S   S3        1.0  0.34675  0.07260  0.31892  1.0000
  S   S4        1.0  0.42614  0.34839  0.03756  1.0000
  H   H29       1.0  0.32373  0.01135  0.14229  1.0000
  H   H30       1.0  0.45848  0.32838  0.18548  1.0000
  H   H31       1.0  0.18047  0.24817  0.14878  1.0000
  S   S5        1.0  0.37685  0.01897  0.26123  1.0000
  C   C19       1.0  0.29884  0.11340  0.12947  1.0000
  C   C20       1.0  0.47869  0.35700  0.24464  1.0000
  H   H32       1.0  0.23360  0.01647  0.13725  1.0000
  H   H33       1.0  0.44764  0.45580  0.18387  1.0000
  C   C21       1.0  0.23521  0.02764  0.16921  1.0000
  C   C22       1.0  0.29889  0.02593  0.19732  1.0000
  C   C23       1.0  0.48283  0.35983  0.19756  1.0000
  C   C24       1.0  0.28611  0.08372  0.21611  1.0000
  H   H34       1.0  0.44524  0.34418  0.25436  1.0000
  N   N2        1.0  0.47927  0.39534  0.17696  1.0000
  H   H35       1.0  0.34193  0.09460  0.15414  1.0000
  C   C25       1.0  0.26053  0.06444  0.25571  1.0000
  H   H36       1.0  0.17663  0.33594  0.24340  1.0000
  Fe  Fe2       1.0  0.42168  0.02481  0.31166  1.0000
  C   C26       1.0  0.30756  0.07878  0.14657  1.0000
  H   H37       1.0  0.22604  0.05078  0.25045  1.0000
  H   H38       1.0  0.20513  0.38542  0.18464  1.0000
  S   S6        1.0  0.32712  0.27148  0.03182  1.0000
  H   H39       1.0  0.22058  0.04818  0.16809  1.0000
  H   H40       1.0  0.43630  0.39418  0.22357  1.0000
  H   H41       1.0  0.38195  0.18152  0.25225  1.0000
  S   S7        1.0  0.44642  0.09457  0.31986  1.0000
  S   S8        1.0  0.35229  0.35002  0.09363  1.0000
  H   H42       1.0  0.42149  0.16553  0.13337  1.0000
  H   H43       1.0  0.27645  0.10672  0.20545  1.0000
  C   C27       1.0  0.38775  0.19007  0.22016  1.0000
  C   C28       1.0  0.38812  0.23393  0.16216  1.0000
  C   C29       1.0  0.42644  0.42353  0.17187  1.0000
  H   H44       1.0  0.31604  0.12554  0.09996  1.0000
  Fe  Fe3       1.0  0.30737  0.32024  0.04120  1.0000
  H   H45       1.0  0.41087  0.35883  0.18227  1.0000
  S   S9        1.0  0.41097  0.12770  0.21316  1.0000
  H   H46       1.0  0.26692  0.04062  0.27023  1.0000
  C   C30       1.0  0.43753  0.39106  0.18988  1.0000
  H   H47       1.0  0.32012  0.10293  0.22492  1.0000
  C   C31       1.0  0.41001  0.18122  0.15325  1.0000
  H   H48       1.0  0.30339  0.05784  0.12028  1.0000
  Fe  Fe4       1.0  0.39799  0.08801  0.27237  1.0000
  H   H49       1.0  0.33239  0.04644  0.20711  1.0000
  C   C32       1.0  0.40249  0.16933  0.19492  1.0000
  S   S10       1.0  0.23593  0.29237  0.04539  1.0000
  H   H50       1.0  0.26474  0.10121  0.12339  1.0000
  S   S11       1.0  0.43960  0.46345  0.05739  1.0000
  H   H51       1.0  0.42630  0.42396  0.13804  1.0000
  C   C33       1.0  0.47854  0.38851  0.13146  1.0000
  C   C34       1.0  0.40259  0.21303  0.13686  1.0000
  H   H52       1.0  0.31148  0.14124  0.14998  1.0000
  S   S12       1.0  0.37966  0.27553  0.14396  1.0000
  C   C35       1.0  0.20581  0.31210  0.02109  1.0000
  Fe  Fe5       1.0  0.37502  0.30367  0.08187  1.0000
  H   H53       1.0  0.39377  0.41456  0.18156  1.0000
  H   H54       1.0  0.20870  0.32079  0.16831  1.0000
  H   H55       1.0  0.40852  0.22164  0.10478  1.0000
  H   H56       1.0  0.26994  0.09018  0.27839  1.0000
  H   H57       1.0  0.36995  0.23836  0.22387  1.0000
  Fe  Fe6       1.0  0.40038  0.39233  0.04673  1.0000
  N   N3        1.0  0.28088  0.05313  0.18271  1.0000
  H   H58       1.0  0.50532  0.44154  0.04143  1.0000
  H   H59       1.0  0.44992  0.35799  0.12325  1.0000
  C   C36       1.0  0.49569  0.49340  0.05685  1.0000
  C   C37       1.0  0.22459  0.35295  0.00418  1.0000
  H   H60       1.0  0.47526  0.41267  0.11359  1.0000
  H   H61       1.0  0.48826  0.33420  0.25623  1.0000
  H   H62       1.0  0.28284  0.00729  0.22508  1.0000
  H   H63       1.0  0.50363  0.47448  0.14180  1.0000
  S   S13       1.0  0.07783  0.36917  0.43563  1.0000
  Fe  Fe7       1.0  0.08590  0.42448  0.39674  1.0000
  S   S14       1.0  0.09718  0.48685  0.42365  1.0000
  S   S15       1.0  0.08137  0.32395  0.34929  1.0000
  Fe  Fe8       1.0  0.03193  0.32821  0.38671  1.0000
  Fe  Fe9       1.0  0.12802  0.36893  0.39595  1.0000
  S   S16       1.0  0.03569  0.38359  0.35188  1.0000
  H   H64       1.0  0.09618  0.43099  0.50918  1.0000
  H   H65       1.0  0.02838  0.46458  0.36510  1.0000
  C   C38       1.0  0.03847  0.49599  0.37645  1.0000
  H   H66       1.0  0.13683  0.15520  0.57326  1.0000
  C   C39       1.0  0.12709  0.45915  0.51713  1.0000
  H   H67       1.0  0.13234  0.45657  0.55024  1.0000
  H   H68       1.0  0.12382  0.48744  0.51138  1.0000
  H   H69       1.0  0.15140  0.17835  0.62379  1.0000
  H   H70       1.0  0.46166  0.31955  0.61893  1.0000
  S   S17       1.0  0.13893  0.42673  0.35999  1.0000
  H   H71       1.0  0.16202  0.13756  0.60916  1.0000
  C   C40       1.0  0.32895  0.20128  0.65704  1.0000
  H   H72       1.0  0.15303  0.23602  0.58670  1.0000
  H   H73       1.0  0.15302  0.20455  0.52437  1.0000
  C   C41       1.0  0.16116  0.16597  0.59764  1.0000
  H   H74       1.0  0.17471  0.25312  0.65275  1.0000
  N   N4        1.0  0.20538  0.49879  0.49320  1.0000
  H   H75       1.0  0.39884  0.01009  0.58173  1.0000
  H   H76       1.0  0.49618  0.06011  0.57017  1.0000
  H   H77       1.0  0.17913  0.28107  0.50711  1.0000
  H   H78       1.0  0.17572  0.25022  0.46391  1.0000
  H   H79       1.0  0.45045  0.24064  0.49481  1.0000
  H   H80       1.0  0.19366  0.28721  0.57319  1.0000
  H   H81       1.0  0.49304  0.21590  0.56359  1.0000
  C   C42       1.0  0.19300  0.26316  0.49309  1.0000
  H   H82       1.0  0.15052  0.45392  0.45862  1.0000
  C   C43       1.0  0.20272  0.26680  0.63211  1.0000
  C   C44       1.0  0.18816  0.25679  0.58703  1.0000
  H   H83       1.0  0.45715  0.07478  0.55572  1.0000
  C   C45       1.0  0.46520  0.05692  0.57834  1.0000
  H   H84       1.0  0.30711  0.09818  0.65850  1.0000
  H   H85       1.0  0.19614  0.44712  0.55865  1.0000
  H   H86       1.0  0.25801  0.46985  0.42181  1.0000
  H   H87       1.0  0.37992  0.13331  0.61070  1.0000
  C   C46       1.0  0.44352  0.28427  0.61888  1.0000
  H   H88       1.0  0.46550  0.28679  0.55802  1.0000
  C   C47       1.0  0.46245  0.26805  0.58625  1.0000
  C   C48       1.0  0.47668  0.23749  0.50843  1.0000
  C   C49       1.0  0.23813  0.48928  0.47617  1.0000
  H   H89       1.0  0.44628  0.17737  0.53956  1.0000
  C   C50       1.0  0.18777  0.22609  0.52062  1.0000
  H   H90       1.0  0.22025  0.30167  0.63678  1.0000
  H   H91       1.0  0.26978  0.25330  0.49720  1.0000
  C   C51       1.0  0.25035  0.37396  0.46805  1.0000
  H   H92       1.0  0.41007  0.27466  0.61229  1.0000
  S   S18       1.0  0.49173  0.43085  0.61130  1.0000
  H   H93       1.0  0.43092  0.13933  0.59574  1.0000
  C   C52       1.0  0.23366  0.47830  0.43037  1.0000
  S   S19       1.0  0.18587  0.36390  0.41649  1.0000
  H   H94       1.0  0.45870  0.03322  0.50257  1.0000
  C   C53       1.0  0.16227  0.45937  0.49071  1.0000
  H   H95       1.0  0.22655  0.28520  0.48477  1.0000
  Fe  Fe10      1.0  0.42129  0.39661  0.62730  1.0000
  H   H96       1.0  0.23709  0.46184  0.49271  1.0000
  C   C54       1.0  0.31121  0.15859  0.64566  1.0000
  C   C55       1.0  0.28148  0.25856  0.52914  1.0000
  H   H97       1.0  0.46878  0.07217  0.60853  1.0000
  Fe  Fe11      1.0  0.32815  0.37544  0.61763  1.0000
  H   H98       1.0  0.36859  0.14147  0.54768  1.0000
  C   C56       1.0  0.46345  0.21114  0.54853  1.0000
  C   C57       1.0  0.20885  0.37244  0.53999  1.0000
  S   S20       1.0  0.40297  0.10155  0.42871  1.0000
  S   S21       1.0  0.36703  0.35089  0.58733  1.0000
  H   H99       1.0  0.31480  0.28499  0.52810  1.0000
  H   H100      1.0  0.38837  0.17558  0.50336  1.0000
  S   S22       1.0  0.31915  0.23576  0.62627  1.0000
  H   H101      1.0  0.16369  0.43045  0.49881  1.0000
  H   H102      1.0  0.22346  0.25450  0.64258  1.0000
  H   H103      1.0  0.40861  0.10820  0.51607  1.0000
  Fe  Fe12      1.0  0.39284  0.07306  0.36539  1.0000
  C   C58       1.0  0.43353  0.19826  0.61807  1.0000
  H   H104      1.0  0.20246  0.45029  0.42373  1.0000
  S   S23       1.0  0.38418  0.42505  0.65343  1.0000
  H   H105      1.0  0.27148  0.27803  0.58787  1.0000
  H   H106      1.0  0.30162  0.38151  0.50757  1.0000
  H   H107      1.0  0.39666  0.23679  0.54246  1.0000
  H   H108      1.0  0.33965  0.16444  0.52657  1.0000
  H   H109      1.0  0.37250  0.20532  0.58617  1.0000
  C   C59       1.0  0.33807  0.02557  0.45879  1.0000
  H   H110      1.0  0.21510  0.18166  0.55987  1.0000
  H   H111      1.0  0.29052  0.14696  0.61934  1.0000
  Fe  Fe13      1.0  0.34822  0.30573  0.64105  1.0000
  C   C60       1.0  0.24962  0.37715  0.54252  1.0000
  C   C61       1.0  0.27021  0.37772  0.50625  1.0000
  C   C62       1.0  0.35825  0.04926  0.54074  1.0000
  C   C63       1.0  0.41437  0.14977  0.61692  1.0000
  H   H112      1.0  0.28231  0.23028  0.54084  1.0000
  H   H113      1.0  0.47551  0.50157  0.60225  1.0000
  H   H114      1.0  0.22827  0.20667  0.60752  1.0000
  S   S24       1.0  0.27299  0.38238  0.59172  1.0000
  H   H115      1.0  0.46512  0.21141  0.63314  1.0000
  C   C64       1.0  0.37217  0.17060  0.53329  1.0000
  C   C65       1.0  0.38209  0.07745  0.50896  1.0000
  C   C66       1.0  0.37211  0.06572  0.46789  1.0000
  H   H116      1.0  0.19873  0.20752  0.50267  1.0000
  C   C67       1.0  0.20960  0.36930  0.46553  1.0000
  H   H117      1.0  0.48661  0.22170  0.48559  1.0000
  H   H118      1.0  0.25982  0.30177  0.54659  1.0000
  C   C68       1.0  0.18878  0.36810  0.50184  1.0000
  N   N5        1.0  0.43773  0.22096  0.57787  1.0000
  C   C69       1.0  0.39475  0.20997  0.56093  1.0000
  H   H119      1.0  0.15692  0.36307  0.50055  1.0000
  N   N6        1.0  0.20931  0.23814  0.56180  1.0000
  H   H120      1.0  0.19242  0.37157  0.56784  1.0000
  C   C70       1.0  0.25559  0.27085  0.55749  1.0000
  H   H121      1.0  0.26671  0.37470  0.44020  1.0000
  H   H122      1.0  0.36597  0.05867  0.57227  1.0000
  C   C71       1.0  0.20562  0.19876  0.58167  1.0000
  H   H123      1.0  0.25127  0.48429  0.56677  1.0000
  H   H124      1.0  0.41334  0.20361  0.63983  1.0000
  H   H125      1.0  0.32940  0.01648  0.42733  1.0000
  C   C72       1.0  0.21899  0.48045  0.56633  1.0000
  S   S25       1.0  0.37945  0.03783  0.65737  1.0000
  H   H126      1.0  0.50431  0.26962  0.51358  1.0000
  H   H127      1.0  0.49550  0.27790  0.59593  1.0000
  H   H128      1.0  0.44610  0.27370  0.65021  1.0000
  H   H129      1.0  0.41740  0.13874  0.64797  1.0000
  C   C73       1.0  0.42943  0.01014  0.58108  1.0000
  H   H130      1.0  0.21052  0.48502  0.59777  1.0000
  H   H131      1.0  0.40289  0.01055  0.50649  1.0000
  C   C74       1.0  0.32478  0.00878  0.53151  1.0000
  H   H132      1.0  0.23861  0.50529  0.41053  1.0000
  H   H133      1.0  0.50196  0.00727  0.60459  1.0000
  Fe  Fe14      1.0  0.05437  0.33279  0.97336  1.0000
  H   H134      1.0  0.05125  0.45869  0.94480  1.0000
  C   C75       1.0  0.03747  0.47889  0.94757  1.0000
  H   H135      1.0  0.46941  0.43748  0.80234  1.0000
  H   H136      1.0  0.48679  0.47551  0.84217  1.0000
  H   H137      1.0  0.45414  0.47734  0.80242  1.0000
  S   S26       1.0  0.30725  0.32824  0.66984  1.0000
  C   C76       1.0  0.47775  0.48232  0.72054  1.0000
  H   H138      1.0  0.48377  0.05771  0.68998  1.0000
  C   C77       1.0  0.48054  0.47118  0.80876  1.0000
  Fe  Fe15      1.0  0.37569  0.32021  0.98861  1.0000
  S   S27       1.0  0.40547  0.34887  0.67835  1.0000
  S   S28       1.0  0.35291  0.36679  0.99526  1.0000
  C   C78       1.0  0.25989  0.26581  0.89209  1.0000
  H   H139      1.0  0.27055  0.29279  0.80389  1.0000
  C   C79       1.0  0.50315  0.04290  0.69097  1.0000
  H   H140      1.0  0.42616  0.49637  0.71806  1.0000
  C   C80       1.0  0.26266  0.31605  0.81705  1.0000
  H   H141      1.0  0.29176  0.34210  0.83057  1.0000
  H   H142      1.0  0.26997  0.33349  0.94249  1.0000
  C   C81       1.0  0.19869  0.27160  0.91781  1.0000
  H   H143      1.0  0.38262  0.41945  0.85264  1.0000
  C   C82       1.0  0.27083  0.25582  0.93486  1.0000
  H   H144      1.0  0.17827  0.20361  0.90995  1.0000
  H   H145      1.0  0.47511  0.40644  0.73625  1.0000
  C   C83       1.0  0.38275  0.32923  0.88129  1.0000
  S   S29       1.0  0.36991  0.39778  0.76801  1.0000
  H   H146      1.0  0.47786  0.47487  0.68755  1.0000
  S   S30       1.0  0.12421  0.35990  0.95862  1.0000
  C   C84       1.0  0.19913  0.36741  0.98557  1.0000
  C   C85       1.0  0.37820  0.31147  0.84230  1.0000
  H   H147      1.0  0.20592  0.30988  0.84597  1.0000
  C   C86       1.0  0.15482  0.34136  0.98404  1.0000
  H   H148      1.0  0.15081  0.22279  0.87720  1.0000
  N   N7        1.0  0.23806  0.29173  0.89151  1.0000
  H   H149      1.0  0.28846  0.23841  0.93134  1.0000
  H   H150      1.0  0.20699  0.27207  0.95065  1.0000
  H   H151      1.0  0.45329  0.45202  0.73445  1.0000
  S   S31       1.0  0.36240  0.11265  0.72865  1.0000
  S   S32       1.0  0.38475  0.30122  0.92508  1.0000
  C   C87       1.0  0.22570  0.29446  0.84802  1.0000
  C   C88       1.0  0.36491  0.18818  0.71328  1.0000
  H   H152      1.0  0.38926  0.38298  0.91429  1.0000
  C   C89       1.0  0.38494  0.36855  0.88466  1.0000
  H   H153      1.0  0.24221  0.23529  0.95343  1.0000
  H   H154      1.0  0.26305  0.38024  0.86647  1.0000
  Fe  Fe16      1.0  0.34254  0.04581  0.70826  1.0000
  H   H155      1.0  0.38580  0.19976  0.73950  1.0000
  H   H156      1.0  0.20467  0.26218  0.83570  1.0000
  C   C90       1.0  0.37630  0.37129  0.81071  1.0000
  H   H157      1.0  0.21382  0.39899  0.97231  1.0000
  H   H158      1.0  0.37667  0.28113  0.83938  1.0000
  Fe  Fe17      1.0  0.36604  0.37524  0.70278  1.0000
  C   C91       1.0  0.34779  0.14567  0.70148  1.0000
  H   H159      1.0  0.37078  0.31805  0.77732  1.0000
  H   H160      1.0  0.36946  0.24871  0.70024  1.0000
  C   C92       1.0  0.38156  0.38936  0.84958  1.0000
  H   H161      1.0  0.29185  0.28517  0.95182  1.0000
  C   C93       1.0  0.25660  0.36985  0.89897  1.0000
  C   C94       1.0  0.35566  0.21595  0.69110  1.0000
  H   H162      1.0  0.29034  0.28248  0.87479  1.0000
  H   H163      1.0  0.18206  0.29023  0.91620  1.0000
  C   C95       1.0  0.16532  0.22539  0.90769  1.0000
  C   C96       1.0  0.37493  0.33236  0.80709  1.0000
  H   H164      1.0  0.30102  0.34715  0.89798  1.0000
  H   H165      1.0  0.24085  0.23526  0.87582  1.0000
  H   H166      1.0  0.27677  0.39813  0.91789  1.0000
  C   C97       1.0  0.26793  0.33509  0.90855  1.0000
  H   H167      1.0  0.25398  0.33105  0.79190  1.0000
  H   H168      1.0  0.13917  0.21406  0.93046  1.0000
  H   H169      1.0  0.22310  0.35954  0.90614  1.0000
  S   S33       1.0  0.00936  0.26665  0.99625  1.0000
  C   C98       1.0  0.32062  0.13089  0.66772  1.0000
  Fe  Fe18      1.0  0.06939  0.70038  0.03268  1.0000
  S   S34       1.0  0.08203  0.68907  0.09842  1.0000
  C   C99       1.0  0.05339  0.73734  0.13676  1.0000
  C   C100      1.0  0.14012  0.83225  0.23315  1.0000
  H   H170      1.0  0.05635  0.75261  0.10737  1.0000
  C   C101      1.0  0.06359  0.70520  0.14047  1.0000
  C   C102      1.0  0.06026  0.68604  0.17884  1.0000
  C   C103      1.0  0.04621  0.69845  0.21326  1.0000
  H   H171      1.0  0.06835  0.66130  0.18197  1.0000
  C   C104      1.0  0.09015  0.55846  0.11449  1.0000
  H   H172      1.0  0.12517  0.57489  0.11871  1.0000
  H   H173      1.0  0.12605  0.82349  0.26424  1.0000
  C   C105      1.0  0.09010  0.59790  0.05111  1.0000
  H   H174      1.0  0.13387  0.75330  0.22315  1.0000
  C   C106      1.0  0.07226  0.57912  0.14321  1.0000
  H   H175      1.0  0.07066  0.60600  0.12916  1.0000
  N   N8        1.0  0.07826  0.55531  0.06989  1.0000
  H   H176      1.0  0.07126  0.61135  0.06379  1.0000
  C   C107      1.0  0.03986  0.75014  0.17134  1.0000
  H   H177      1.0  0.13899  0.86110  0.22386  1.0000
  H   H178      1.0  0.09398  0.59322  0.16968  1.0000
  C   C108      1.0  0.03606  0.73063  0.20961  1.0000
  H   H179      1.0  0.04044  0.55527  0.15494  1.0000
  H   H180      1.0  0.14628  0.78063  0.29060  1.0000
  H   H181      1.0  0.11982  0.80699  0.21146  1.0000
  H   H182      1.0  0.07929  0.52636  0.12771  1.0000
  C   C109      1.0  0.03151  0.52444  0.06410  1.0000
  H   H183      1.0  0.04316  0.68306  0.24258  1.0000
  H   H184      1.0  0.08232  0.59445  0.01788  1.0000
  H   H185      1.0  0.15931  0.79804  0.15938  1.0000
  C   C110      1.0  0.16819  0.76865  0.21543  1.0000
  C   C111      1.0  0.18855  0.75744  0.30341  1.0000
  C   C112      1.0  0.18075  0.79263  0.28641  1.0000
  H   H186      1.0  0.15504  0.74763  0.15236  1.0000
  H   H187      1.0  0.14677  0.63926  0.08797  1.0000
  C   C113      1.0  0.10279  0.53851  0.04708  1.0000
  H   H188      1.0  0.16842  0.72675  0.28795  1.0000
  Fe  Fe19      1.0  0.02180  0.72325  0.31556  1.0000
  H   H189      1.0  0.17668  0.74356  0.22066  1.0000
  H   H190      1.0  0.16882  0.90133  0.30718  1.0000
  H   H191      1.0  0.17417  0.98538  0.19815  1.0000
  C   C114      1.0  0.18394  0.89105  0.32946  1.0000
  C   C115      1.0  0.13698  0.63266  0.05548  1.0000
  H   H192      1.0  0.13730  0.55753  0.05384  1.0000
  H   H193      1.0  0.09998  0.54151  0.01339  1.0000
  H   H194      1.0  0.15850  0.62511  0.03826  1.0000
  H   H195      1.0  0.14112  0.66269  0.04217  1.0000
  C   C116      1.0  0.17294  0.77804  0.16897  1.0000
  H   H196      1.0  0.02563  0.51083  0.03289  1.0000
  C   C117      1.0  0.18671  0.84245  0.23234  1.0000
  S   S35       1.0  0.01674  0.64319  0.00257  1.0000
  S   S36       1.0  0.05284  0.74642  0.00339  1.0000
  S   S37       1.0  0.01778  0.74669  0.25186  1.0000
  H   H197      1.0  0.03234  0.77530  0.16846  1.0000
  H   H198      1.0  0.25101  0.83486  0.20553  1.0000
  Fe  Fe20      1.0  0.32841  0.00418  0.31055  1.0000
  H   H199      1.0  0.19691  0.82019  0.30699  1.0000
  N   N9        1.0  0.19398  0.80610  0.24269  1.0000
  H   H200      1.0  0.24624  0.79355  0.23795  1.0000
  H   H201      1.0  0.30624  0.97204  0.18177  1.0000
  S   S38       1.0  0.45869  0.98953  0.31355  1.0000
  C   C118      1.0  0.20552  0.98746  0.19482  1.0000
  H   H202      1.0  0.22232  0.76611  0.30183  1.0000
  H   H203      1.0  0.21633  0.98617  0.22615  1.0000
  H   H204      1.0  0.20627  0.79281  0.15849  1.0000
  H   H205      1.0  0.26654  0.84278  0.29883  1.0000
  H   H206      1.0  0.49693  0.55159  0.07168  1.0000
  H   H207      1.0  0.30441  0.86346  0.25843  1.0000
  C   C119      1.0  0.27142  0.85465  0.26679  1.0000
  H   H208      1.0  0.20402  0.86900  0.25399  1.0000
  H   H209      1.0  0.20003  0.85617  0.20168  1.0000
  C   C120      1.0  0.24040  0.82079  0.23661  1.0000
  H   H210      1.0  0.26986  0.88427  0.26530  1.0000
  H   H211      1.0  0.19917  0.95831  0.17835  1.0000
  S   S39       1.0  0.25844  0.95696  0.29988  1.0000
  H   H212      1.0  0.26752  0.97572  0.15075  1.0000
  C   C121      1.0  0.29869  0.99458  0.16580  1.0000
  Fe  Fe21      1.0  0.08068  0.74578  0.38862  1.0000
  C   C122      1.0  0.08410  0.55522  0.41940  1.0000
  C   C123      1.0  0.06378  0.57753  0.40581  1.0000
  H   H213      1.0  0.07354  0.60881  0.41744  1.0000
  H   H214      1.0  0.10953  0.56968  0.44145  1.0000
  S   S40       1.0  0.03567  0.76729  0.36837  1.0000
  H   H215      1.0  0.07052  0.83802  0.45990  1.0000
  H   H216      1.0  0.07639  0.85096  0.51289  1.0000
  C   C124      1.0  0.09347  0.85934  0.48318  1.0000
  H   H217      1.0  0.10258  0.89226  0.47424  1.0000
  S   S41       1.0  0.03177  0.69204  0.42803  1.0000
  C   C125      1.0  0.03027  0.55888  0.37786  1.0000
  C   C126      1.0  0.07153  0.51432  0.40486  1.0000
  C   C127      1.0  0.13174  0.85213  0.48417  1.0000
  H   H218      1.0  0.14332  0.85505  0.45228  1.0000
  H   H219      1.0  0.11904  0.81812  0.49255  1.0000
  Fe  Fe22      1.0  0.01801  0.65302  0.37056  1.0000
  H   H220      1.0  0.12507  0.83634  0.34867  1.0000
  C   C128      1.0  0.01785  0.51805  0.36326  1.0000
  S   S42       1.0  0.14835  0.79174  0.40859  1.0000
  H   H221      1.0  0.12951  0.88764  0.55922  1.0000
  H   H222      1.0  0.12979  0.83963  0.56286  1.0000
  C   C129      1.0  0.15060  0.87391  0.55551  1.0000
  S   S43       1.0  0.07028  0.70538  0.33345  1.0000
  H   H223      1.0  0.49360  0.00044  0.53034  1.0000
  C   C130      1.0  0.42866  0.00257  0.50699  1.0000
  H   H224      1.0  0.16311  0.93802  0.50932  1.0000
  H   H225      1.0  0.43178  0.99817  0.61179  1.0000
  H   H226      1.0  0.22047  0.92970  0.44429  1.0000
  N   N10       1.0  0.16741  0.88057  0.51228  1.0000
  C   C131      1.0  0.48546  0.97520  0.59094  1.0000
  C   C132      1.0  0.17828  0.83987  0.38108  1.0000
  C   C133      1.0  0.15904  0.85418  0.35298  1.0000
  H   H227      1.0  0.17940  0.75222  0.33632  1.0000
  H   H228      1.0  0.36018  0.94523  0.54585  1.0000
  H   H229      1.0  0.16902  0.92441  0.43521  1.0000
  C   C134      1.0  0.19727  0.93856  0.45538  1.0000
  C   C135      1.0  0.18539  0.92674  0.50092  1.0000
  H   H230      1.0  0.21251  0.97355  0.45170  1.0000
  H   H231      1.0  0.21469  0.94695  0.51884  1.0000
  H   H232      1.0  0.20524  0.87958  0.59084  1.0000
  H   H233      1.0  0.27083  0.51609  0.48135  1.0000
  H   H234      1.0  0.19097  0.52243  0.43759  1.0000
  C   C136      1.0  0.38774  0.94007  0.54996  1.0000
  N   N11       1.0  0.42879  0.98187  0.54733  1.0000
  H   H235      1.0  0.46168  0.95291  0.61308  1.0000
  H   H236      1.0  0.38543  0.91857  0.52492  1.0000
  H   H237      1.0  0.19632  0.52409  0.55011  1.0000
  H   H238      1.0  0.39018  0.95046  0.46452  1.0000
  H   H239      1.0  0.40076  0.89990  0.59132  1.0000
  H   H240      1.0  0.44538  0.96382  0.46755  1.0000
  S   S44       1.0  0.29567  0.97143  0.57017  1.0000
  C   C137      1.0  0.24740  0.90051  0.36286  1.0000
  H   H241      1.0  0.20380  0.92854  0.58600  1.0000
  H   H242      1.0  0.24932  0.54161  0.53808  1.0000
  H   H243      1.0  0.28151  0.91782  0.36638  1.0000
  H   H244      1.0  0.38276  0.93193  0.61762  1.0000
  H   H245      1.0  0.16765  0.81102  0.54667  1.0000
  H   H246      1.0  0.28905  0.96581  0.48310  1.0000
  H   H247      1.0  0.16818  0.88720  0.61966  1.0000
  H   H248      1.0  0.17792  0.80239  0.49497  1.0000
  C   C138      1.0  0.46668  0.97535  0.54844  1.0000
  C   C139      1.0  0.21719  0.51302  0.53678  1.0000
  C   C140      1.0  0.37984  0.91387  0.58958  1.0000
  H   H249      1.0  0.24035  0.59735  0.44441  1.0000
  H   H250      1.0  0.21972  0.82468  0.53272  1.0000
  C   C141      1.0  0.22245  0.86360  0.38646  1.0000
  C   C142      1.0  0.20220  0.86983  0.50835  1.0000
  H   H251      1.0  0.27066  0.57138  0.44882  1.0000
  H   H252      1.0  0.21273  0.87308  0.47597  1.0000
  H   H253      1.0  0.34676  0.88680  0.58924  1.0000
  H   H254      1.0  0.18079  0.54147  0.48295  1.0000
  C   C143      1.0  0.24590  0.57553  0.46415  1.0000
  C   C144      1.0  0.19078  0.82434  0.52131  1.0000
  Fe  Fe23      1.0  0.31535  0.98723  0.63636  1.0000
  C   C145      1.0  0.18433  0.89360  0.58947  1.0000
  H   H255      1.0  0.23156  0.89295  0.52469  1.0000
  H   H256      1.0  0.45896  0.94501  0.53337  1.0000
  H   H257      1.0  0.23761  0.85272  0.40809  1.0000
  C   C146      1.0  0.20365  0.53340  0.46894  1.0000
  H   H258      1.0  0.25780  0.59171  0.49382  1.0000
  C   C147      1.0  0.42341  0.97659  0.46814  1.0000
  C   C148      1.0  0.31477  0.99708  0.49048  1.0000
  H   H259      1.0  0.43047  0.99752  0.44076  1.0000
  S   S45       1.0  0.37098  0.00379  0.36001  1.0000
  C   C149      1.0  0.22825  0.91398  0.33376  1.0000
  S   S46       1.0  0.04557  0.69720  0.91573  1.0000
  Fe  Fe24      1.0  0.06292  0.65504  0.95239  1.0000
  S   S47       1.0  0.07670  0.60403  0.93003  1.0000
  C   C150      1.0  0.04447  0.54926  0.94158  1.0000
  H   H260      1.0  0.09387  0.53538  0.92676  1.0000
  C   C151      1.0  0.06157  0.52236  0.93742  1.0000
  Fe  Fe25      1.0  0.09669  0.75161  0.95145  1.0000
  S   S48       1.0  0.11703  0.71001  0.98425  1.0000
  S   S49       1.0  0.27790  0.99816  0.68448  1.0000
  H   H261      1.0  0.48535  0.55305  0.93338  1.0000
  C   C152      1.0  0.48404  0.99893  0.69603  1.0000
  H   H262      1.0  0.47757  0.51552  0.97227  1.0000
  S   S50       1.0  0.31732  0.93618  0.67306  1.0000
  H   H263      1.0  0.46716  0.52935  0.75322  1.0000
  H   H264      1.0  0.49527  0.94622  0.70121  1.0000
  H   H265      1.0  0.47536  0.53834  0.69858  1.0000
  C   C153      1.0  0.50123  0.54700  0.95938  1.0000
  H   H266      1.0  0.35648  0.87319  0.70922  1.0000
  C   C154      1.0  0.26294  0.81572  0.85231  1.0000
  S   S51       1.0  0.14687  0.81808  0.92863  1.0000
  C   C155      1.0  0.16892  0.83737  0.87897  1.0000
  C   C156      1.0  0.46102  0.51372  0.72306  1.0000
  H   H267      1.0  0.28547  0.80766  0.79480  1.0000
  H   H268      1.0  0.13348  0.77785  0.84797  1.0000
  C   C157      1.0  0.33937  0.88851  0.76771  1.0000
  C   C158      1.0  0.28423  0.83402  0.81047  1.0000
  H   H269      1.0  0.28422  0.81180  0.87399  1.0000
  H   H270      1.0  0.26175  0.83972  0.79212  1.0000
  S   S52       1.0  0.42824  0.96593  0.70005  1.0000
  H   H271      1.0  0.35495  0.86204  0.86565  1.0000
  H   H272      1.0  0.37032  0.91808  0.76534  1.0000
  H   H273      1.0  0.31152  0.89558  0.86639  1.0000
  H   H274      1.0  0.20905  0.90128  0.90011  1.0000
  H   H275      1.0  0.38698  0.94548  0.86269  1.0000
  H   H276      1.0  0.30092  0.91414  0.81975  1.0000
  H   H277      1.0  0.35022  0.82959  0.82342  1.0000
  H   H278      1.0  0.35722  0.97184  0.85624  1.0000
  H   H279      1.0  0.41578  0.92349  0.81075  1.0000
  Fe  Fe26      1.0  0.37926  0.98742  0.69766  1.0000
  H   H280      1.0  0.42505  0.89415  0.84893  1.0000
  C   C159      1.0  0.15710  0.81107  0.84474  1.0000
  H   H281      1.0  0.31648  0.89733  0.75468  1.0000
  H   H282      1.0  0.24187  0.93055  0.83212  1.0000
  S   S53       1.0  0.34746  0.99898  0.75108  1.0000
  C   C160      1.0  0.19974  0.88055  0.87394  1.0000
  C   C161      1.0  0.36522  0.94933  0.84152  1.0000
  C   C162      1.0  0.32399  0.90688  0.83502  1.0000
  H   H283      1.0  0.23465  0.78388  0.84763  1.0000
  S   S54       1.0  0.23071  0.88923  0.75193  1.0000
  C   C163      1.0  0.40596  0.89091  0.82118  1.0000
  C   C164      1.0  0.17586  0.82778  0.80618  1.0000
  H   H284      1.0  0.35870  0.84182  0.75068  1.0000
  C   C165      1.0  0.20675  0.87091  0.80117  1.0000
  N   N12       1.0  0.32763  0.87342  0.81141  1.0000
  H   H285      1.0  0.30816  0.83129  0.72978  1.0000
  H   H286      1.0  0.25083  0.83529  0.86627  1.0000
  H   H287      1.0  0.41602  0.87546  0.79812  1.0000
  Fe  Fe27      1.0  0.28501  0.95057  0.72385  1.0000
  C   C166      1.0  0.35827  0.86241  0.83173  1.0000
  C   C167      1.0  0.21850  0.89727  0.83536  1.0000
  H   H288      1.0  0.16641  0.80700  0.78005  1.0000
  C   C168      1.0  0.34067  0.85644  0.73812  1.0000
  H   H289      1.0  0.38176  0.96460  0.81258  1.0000
  C   C169      1.0  0.53891  0.05490  0.29170  1.0000
  Fe  Fe28      1.0  0.99193  0.29994  0.04350  1.0000
  H   H290      1.0  0.89258  0.25823  0.26581  1.0000
  Fe  Fe29      1.0  0.79340  0.07264  0.28858  1.0000
  S   S55       1.0  0.85707  0.13077  0.27290  1.0000
  H   H291      1.0  0.51579  0.35679  0.12171  1.0000
  H   H292      1.0  0.90587  0.37993  0.31289  1.0000
  H   H293      1.0  0.89321  0.19818  0.06915  1.0000
  H   H294      1.0  0.80776  0.13784  0.19621  1.0000
  C   C170      1.0  0.87090  0.13246  0.09172  1.0000
  H   H295      1.0  0.88871  0.39345  0.26683  1.0000
  H   H296      1.0  0.84268  0.11713  0.07135  1.0000
  C   C171      1.0  0.92843  0.20206  0.29934  1.0000
  C   C172      1.0  0.60037  0.04519  0.28340  1.0000
  H   H297      1.0  0.94046  0.20352  0.26879  1.0000
  H   H298      1.0  0.54774  0.41415  0.12454  1.0000
  S   S56       1.0  0.74685  0.04958  0.23689  1.0000
  S   S57       1.0  0.94019  0.29765  0.00455  1.0000
  C   C173      1.0  0.51724  0.38728  0.11400  1.0000
  C   C174      1.0  0.52048  0.47487  0.04867  1.0000
  H   H299      1.0  0.78045  0.15794  0.16747  1.0000
  H   H300      1.0  0.95204  0.31027  0.32524  1.0000
  H   H301      1.0  0.58402  0.48491  0.04413  1.0000
  H   H302      1.0  0.51397  0.36244  0.19068  1.0000
  H   H303      1.0  0.98026  0.41103  0.30578  1.0000
  S   S58       1.0  0.65554  0.06826  0.27378  1.0000
  H   H304      1.0  0.96287  0.41963  0.25618  1.0000
  H   H305      1.0  0.54518  0.43458  0.19352  1.0000
  C   C175      1.0  0.88794  0.16876  0.31016  1.0000
  H   H306      1.0  0.99493  0.35651  0.26927  1.0000
  Fe  Fe30      1.0  0.69693  0.03821  0.28336  1.0000
  C   C176      1.0  0.58222  0.07141  0.28266  1.0000
  H   H307      1.0  0.83112  0.09419  0.18729  1.0000
  C   C177      1.0  0.90325  0.17405  0.06996  1.0000
  S   S59       1.0  0.78483  0.00794  0.30160  1.0000
  H   H308      1.0  0.91017  0.25410  0.19479  1.0000
  H   H309      1.0  0.76707  0.07496  0.14377  1.0000
  H   H310      1.0  0.91340  0.19730  0.14841  1.0000
  H   H311      1.0  0.88445  0.11100  0.09127  1.0000
  C   C178      1.0  0.88454  0.36645  0.28638  1.0000
  C   C179      1.0  0.51328  0.01189  0.30157  1.0000
  H   H312      1.0  0.80429  0.14049  0.10968  1.0000
  N   N13       1.0  0.85797  0.13668  0.13453  1.0000
  C   C180      1.0  0.92010  0.28695  0.25248  1.0000
  H   H313      1.0  0.94793  0.28259  0.25797  1.0000
  C   C181      1.0  0.89596  0.16424  0.16062  1.0000
  C   C182      1.0  0.83079  0.15708  0.13184  1.0000
  C   C183      1.0  0.92789  0.14855  0.16642  1.0000
  C   C184      1.0  0.78936  0.06363  0.13605  1.0000
  C   C185      1.0  0.91161  0.28355  0.20585  1.0000
  H   H314      1.0  0.91394  0.11882  0.18492  1.0000
  H   H315      1.0  0.85153  0.35082  0.29831  1.0000
  H   H316      1.0  0.84926  0.18971  0.11881  1.0000
  H   H317      1.0  0.83331  0.19365  0.18611  1.0000
  H   H318      1.0  0.60177  0.10472  0.27506  1.0000
  H   H319      1.0  0.90679  0.16712  0.03761  1.0000
  H   H320      1.0  0.88587  0.16728  0.19192  1.0000
  C   C186      1.0  0.81239  0.16191  0.17278  1.0000
  H   H321      1.0  0.93688  0.30995  0.18787  1.0000
  H   H322      1.0  0.85192  0.07569  0.14976  1.0000
  H   H323      1.0  0.95567  0.17280  0.18371  1.0000
  C   C187      1.0  0.89109  0.33463  0.26058  1.0000
  H   H324      1.0  0.77625  0.03160  0.15015  1.0000
  S   S60       1.0  0.97915  0.27614  0.10953  1.0000
  H   H325      1.0  0.52532  0.07539  0.29084  1.0000
  H   H326      1.0  0.51002  0.44600  0.22095  1.0000
  H   H327      1.0  0.86032  0.30408  0.26103  1.0000
  H   H328      1.0  0.88057  0.28082  0.19855  1.0000
  H   H329      1.0  0.89540  0.34593  0.22817  1.0000
  H   H330      1.0  0.51680  0.38911  0.08007  1.0000
  C   C188      1.0  0.83404  0.09287  0.15351  1.0000
  C   C189      1.0  0.98185  0.40786  0.27229  1.0000
  H   H331      1.0  0.97177  0.36452  0.22495  1.0000
  N   N14       1.0  0.92665  0.32695  0.27287  1.0000
  H   H332      1.0  0.98828  0.26059  0.19442  1.0000
  H   H333      1.0  0.93986  0.14389  0.13694  1.0000
  H   H334      1.0  0.93512  0.18776  0.08401  1.0000
  C   C190      1.0  0.92845  0.32045  0.31841  1.0000
  H   H335      1.0  0.54087  0.50506  0.17992  1.0000
  H   H336      1.0  0.55650  0.48178  0.14169  1.0000
  C   C191      1.0  0.51619  0.43735  0.19016  1.0000
  C   C192      1.0  0.96928  0.36261  0.25880  1.0000
  C   C193      1.0  0.56505  0.49958  0.04999  1.0000
  H   H337      1.0  0.78981  0.05967  0.10252  1.0000
  C   C194      1.0  0.52917  0.47598  0.16124  1.0000
  H   H338      1.0  0.87531  0.25488  0.32920  1.0000
  H   H339      1.0  0.98475  0.25883  0.31931  1.0000
  C   C195      1.0  0.95359  0.23341  0.32792  1.0000
  S   S61       1.0  0.74461  0.06622  0.33423  1.0000
  S   S62       1.0  0.96787  0.27190  0.40359  1.0000
  Fe  Fe31      1.0  0.74588  0.06825  0.62392  1.0000
  S   S63       1.0  0.77085  0.09207  0.55976  1.0000
  H   H340      1.0  0.81241  0.21453  0.62849  1.0000
  C   C196      1.0  0.75581  0.05740  0.51785  1.0000
  C   C197      1.0  0.77505  0.07334  0.47965  1.0000
  C   C198      1.0  0.76362  0.04665  0.44551  1.0000
  H   H341      1.0  0.79912  0.10641  0.47646  1.0000
  H   H342      1.0  0.77916  0.05913  0.41639  1.0000
  C   C199      1.0  0.96077  0.21236  0.65298  1.0000
  C   C200      1.0  0.91273  0.18887  0.57103  1.0000
  C   C201      1.0  0.93827  0.23184  0.36750  1.0000
  C   C202      1.0  0.89784  0.19845  0.37833  1.0000
  C   C203      1.0  0.92471  0.22032  0.63973  1.0000
  H   H343      1.0  0.88575  0.19702  0.40887  1.0000
  H   H344      1.0  0.58215  0.48276  0.61790  1.0000
  H   H345      1.0  0.65923  0.03013  0.50025  1.0000
  H   H346      1.0  0.82982  0.18763  0.66251  1.0000
  C   C204      1.0  0.65295  0.08224  0.38299  1.0000
  C   C205      1.0  0.52537  0.48674  0.61029  1.0000
  H   H347      1.0  0.92977  0.22160  0.55775  1.0000
  C   C206      1.0  0.88258  0.15942  0.53763  1.0000
  H   H348      1.0  0.67883  0.08013  0.36715  1.0000
  H   H349      1.0  0.67400  0.14430  0.35569  1.0000
  S   S64       1.0  0.68059  0.01663  0.64093  1.0000
  H   H350      1.0  0.93953  0.25284  0.62605  1.0000
  H   H351      1.0  0.89176  0.28806  0.37264  1.0000
  C   C207      1.0  0.84063  0.21273  0.63867  1.0000
  C   C208      1.0  0.56947  0.50386  0.61418  1.0000
  H   H352      1.0  0.63927  0.00972  0.34934  1.0000
  H   H353      1.0  0.69985  0.09276  0.45190  1.0000
  C   C209      1.0  0.67032  0.13039  0.38691  1.0000
  H   H354      1.0  0.84164  0.14146  0.35847  1.0000
  H   H355      1.0  0.59335  0.08792  0.46619  1.0000
  C   C210      1.0  0.72463  0.01469  0.52163  1.0000
  C   C211      1.0  0.87276  0.16698  0.34982  1.0000
  H   H356      1.0  0.70231  0.14618  0.40110  1.0000
  C   C212      1.0  0.86827  0.14517  0.63087  1.0000
  H   H357      1.0  0.62647  0.07004  0.36061  1.0000
  C   C213      1.0  0.86055  0.20328  0.60150  1.0000
  H   H358      1.0  0.93769  0.18033  0.57498  1.0000
  C   C214      1.0  0.59246  0.03696  0.42914  1.0000
  H   H359      1.0  0.92310  0.13347  0.62183  1.0000
  N   N15       1.0  0.89189  0.18857  0.61101  1.0000
  H   H360      1.0  0.83646  0.12626  0.61676  1.0000
  H   H361      1.0  0.67642  0.08000  0.52319  1.0000
  C   C215      1.0  0.57770  0.06883  0.43870  1.0000
  H   H362      1.0  0.58245  0.08979  0.41202  1.0000
  H   H363      1.0  0.66305  0.10980  0.46245  1.0000
  H   H364      1.0  0.87547  0.23259  0.58209  1.0000
  C   C216      1.0  0.88896  0.11695  0.62911  1.0000
  H   H365      1.0  0.86309  0.12623  0.54859  1.0000
  H   H366      1.0  0.64923  0.13823  0.40432  1.0000
  H   H367      1.0  0.83343  0.17913  0.58330  1.0000
  H   H368      1.0  0.62188  0.04829  0.50970  1.0000
  H   H369      1.0  0.90162  0.15916  0.51124  1.0000
  N   N16       1.0  0.63934  0.05551  0.42180  1.0000
  C   C217      1.0  0.66554  0.08098  0.45781  1.0000
  H   H370      1.0  0.86148  0.17083  0.52558  1.0000
  H   H371      1.0  0.54304  0.05105  0.44493  1.0000
  H   H372      1.0  0.58151  0.01315  0.45450  1.0000
  H   H373      1.0  0.86178  0.14785  0.66357  1.0000
  H   H374      1.0  0.57390  0.01937  0.40178  1.0000
  C   C218      1.0  0.64777  0.01923  0.41618  1.0000
  S   S65       1.0  0.74342  0.11570  0.66509  1.0000
  C   C219      1.0  0.65454  0.05789  0.49971  1.0000
  H   H375      1.0  0.97929  0.21091  0.62689  1.0000
  H   H376      1.0  0.86308  0.24382  0.65238  1.0000
  H   H377      1.0  0.87162  0.09060  0.60721  1.0000
  H   H378      1.0  0.88525  0.10136  0.65948  1.0000
  H   H379      1.0  0.68251  0.03159  0.41389  1.0000
  H   H380      1.0  0.99193  0.50334  0.34174  1.0000
  C   C220      1.0  0.88635  0.28780  0.33910  1.0000
  H   H381      1.0  0.86078  0.29545  0.33454  1.0000
  H   H382      1.0  0.94055  0.35030  0.33563  1.0000
  C   C221      1.0  0.86060  0.28014  0.80825  1.0000
  S   S66       1.0  0.70905  0.04484  0.73787  1.0000
  H   H383      1.0  0.86147  0.39755  0.91543  1.0000
  C   C222      1.0  0.94201  0.35611  0.86483  1.0000
  Fe  Fe32      1.0  0.96089  0.26962  0.95477  1.0000
  S   S67       1.0  0.90487  0.21166  0.92465  1.0000
  Fe  Fe33      1.0  0.77323  0.09513  0.71398  1.0000
  S   S68       1.0  0.83343  0.15072  0.74278  1.0000
  H   H384      1.0  0.86826  0.38808  0.86357  1.0000
  H   H385      1.0  0.83807  0.24579  0.81315  1.0000
  H   H386      1.0  0.81661  0.26483  0.96006  1.0000
  H   H387      1.0  0.84155  0.23884  0.88049  1.0000
  H   H388      1.0  0.95916  0.34573  0.84411  1.0000
  H   H389      1.0  0.89356  0.28642  0.81113  1.0000
  C   C223      1.0  0.53587  0.46701  0.72754  1.0000
  C   C224      1.0  0.88621  0.19511  0.87365  1.0000
  C   C225      1.0  0.90916  0.21765  0.83892  1.0000
  C   C226      1.0  0.89251  0.20345  0.79933  1.0000
  C   C227      1.0  0.85268  0.16666  0.79373  1.0000
  C   C228      1.0  0.82969  0.14428  0.82847  1.0000
  C   C229      1.0  0.84639  0.15838  0.86804  1.0000
  H   H390      1.0  0.93986  0.24580  0.84252  1.0000
  H   H391      1.0  0.91070  0.22107  0.77279  1.0000
  H   H392      1.0  0.79909  0.11593  0.82486  1.0000
  H   H393      1.0  0.82825  0.14056  0.89454  1.0000
  H   H394      1.0  0.91518  0.32358  0.92201  1.0000
  C   C230      1.0  0.85066  0.33396  0.90654  1.0000
  H   H395      1.0  0.56228  0.10200  0.68468  1.0000
  C   C231      1.0  0.87382  0.38160  0.89548  1.0000
  Fe  Fe34      1.0  0.98917  0.36144  0.97994  1.0000
  N   N17       1.0  0.86168  0.30601  0.88178  1.0000
  H   H396      1.0  0.86562  0.26376  0.95394  1.0000
  H   H397      1.0  0.56847  0.47798  0.73902  1.0000
  C   C232      1.0  0.83316  0.25172  0.94211  1.0000
  H   H398      1.0  0.98336  0.23926  0.67225  1.0000
  H   H399      1.0  0.93128  0.37466  0.84669  1.0000
  H   H400      1.0  0.81741  0.29824  0.83364  1.0000
  H   H401      1.0  0.79940  0.24940  0.88727  1.0000
  H   H402      1.0  0.91158  0.29006  0.88183  1.0000
  S   S69       1.0  0.62937  0.08256  0.68678  1.0000
  N   N18       1.0  0.52088  0.49740  0.73917  1.0000
  H   H403      1.0  0.85629  0.28736  0.77606  1.0000
  C   C233      1.0  0.99554  0.46167  0.96084  1.0000
  C   C234      1.0  0.57347  0.04931  0.68979  1.0000
  H   H404      1.0  0.90822  0.39705  0.90209  1.0000
  C   C235      1.0  0.85154  0.30793  0.83723  1.0000
  H   H405      1.0  0.86857  0.34048  0.82444  1.0000
  C   C236      1.0  0.90717  0.31748  0.88893  1.0000
  H   H406      1.0  0.85792  0.33282  0.93952  1.0000
  H   H407      1.0  0.81595  0.32222  0.90469  1.0000
  C   C237      1.0  0.83302  0.26066  0.89589  1.0000
  H   H408      1.0  0.53773  0.46564  0.69360  1.0000
  H   H409      1.0  0.90978  0.22153  0.66901  1.0000
  H   H410      1.0  0.81577  0.21682  0.94741  1.0000
  S   S70       1.0  0.96416  0.40745  0.97469  1.0000
  H   H411      1.0  0.94551  0.47522  0.97398  1.0000
  H   H412      1.0  0.96604  0.37878  0.88657  1.0000
  C   C238      1.0  0.97800  0.48830  0.96392  1.0000
  Fe  Fe35      1.0  0.67983  0.06270  0.68569  1.0000
  C   C239      1.0  0.54765  0.06792  0.68795  1.0000
  H   H413      1.0  0.94863  0.18354  0.67261  1.0000
  S   S71       1.0  0.00749  0.33358  0.92801  1.0000
  S   S72       1.0  0.77982  0.05042  0.67078  1.0000
  H   H414      1.0  0.52044  0.40123  0.72804  1.0000
  H   H415      1.0  0.54795  0.49983  0.79899  1.0000
  C   C240      1.0  0.50928  0.42101  0.74334  1.0000
  C   C241      1.0  0.52129  0.50234  0.78510  1.0000
  H   H416      1.0  0.51406  0.41887  0.77664  1.0000
  H   H417      1.0  0.96975  0.72574  0.12316  1.0000
  H   H418      1.0  0.90900  0.83066  0.14611  1.0000
  H   H419      1.0  0.88856  0.72971  0.13950  1.0000
  Fe  Fe36      1.0  0.76973  0.72035  0.05482  1.0000
  S   S73       1.0  0.74828  0.76727  0.04094  1.0000
  S   S74       1.0  0.84067  0.74822  0.06312  1.0000
  Fe  Fe37      1.0  0.67833  0.64513  0.05650  1.0000
  S   S75       1.0  0.65067  0.68690  0.04310  1.0000
  S   S76       1.0  0.64125  0.57297  0.05989  1.0000
  Fe  Fe38      1.0  0.69801  0.73240  0.08870  1.0000
  S   S77       1.0  0.68006  0.75930  0.14338  1.0000
  S   S78       1.0  0.72227  0.68792  0.10534  1.0000
  C   C242      1.0  0.85142  0.91533  0.19266  1.0000
  S   S79       1.0  0.68115  0.97067  0.29443  1.0000
  H   H420      1.0  0.91455  0.61246  0.20790  1.0000
  H   H421      1.0  0.86129  0.60388  0.19999  1.0000
  Fe  Fe39      1.0  0.73544  0.98402  0.25175  1.0000
  S   S80       1.0  0.74206  0.95113  0.19469  1.0000
  C   C243      1.0  0.93463  0.70983  0.12090  1.0000
  H   H422      1.0  0.80451  0.61813  0.12897  1.0000
  H   H423      1.0  0.58803  0.98143  0.29315  1.0000
  H   H424      1.0  0.89356  0.87057  0.19112  1.0000
  C   C244      1.0  0.69674  0.81279  0.15667  1.0000
  C   C245      1.0  0.68998  0.82173  0.19688  1.0000
  C   C246      1.0  0.70321  0.86368  0.20906  1.0000
  C   C247      1.0  0.72332  0.89731  0.18104  1.0000
  C   C248      1.0  0.72996  0.88834  0.14076  1.0000
  C   C249      1.0  0.71671  0.84639  0.12858  1.0000
  H   H425      1.0  0.67432  0.79599  0.21880  1.0000
  H   H426      1.0  0.69777  0.86997  0.24008  1.0000
  H   H427      1.0  0.74521  0.91402  0.11872  1.0000
  H   H428      1.0  0.72152  0.84002  0.09739  1.0000
  H   H429      1.0  0.97575  0.68165  0.07441  1.0000
  C   C250      1.0  0.58521  0.54320  0.05846  1.0000
  C   C251      1.0  0.56042  0.56189  0.06576  1.0000
  C   C252      1.0  0.53146  0.98568  0.30239  1.0000
  H   H430      1.0  0.57553  0.59537  0.07258  1.0000
  C   C253      1.0  0.86618  0.72706  0.03367  1.0000
  H   H431      1.0  0.93673  0.75208  0.16980  1.0000
  C   C254      1.0  0.91047  0.75006  0.02910  1.0000
  H   H432      1.0  0.92849  0.78126  0.04235  1.0000
  H   H433      1.0  0.80904  0.66894  0.01940  1.0000
  H   H434      1.0  0.87711  0.91838  0.21313  1.0000
  H   H435      1.0  0.86505  0.93343  0.16391  1.0000
  H   H436      1.0  0.97397  0.63254  0.08341  1.0000
  H   H437      1.0  0.87353  0.63807  0.08765  1.0000
  H   H438      1.0  0.89238  0.63308  0.24296  1.0000
  H   H439      1.0  0.83575  0.93086  0.20837  1.0000
  H   H440      1.0  0.89373  0.79869  0.19253  1.0000
  H   H441      1.0  0.93725  0.77077  0.11910  1.0000
  C   C255      1.0  0.92305  0.74181  0.13876  1.0000
  H   H442      1.0  0.83593  0.67065  0.10783  1.0000
  H   H443      1.0  0.92778  0.70753  0.08763  1.0000
  H   H444      1.0  0.83680  0.65979  0.16185  1.0000
  N   N19       1.0  0.83249  0.84278  0.16138  1.0000
  C   C256      1.0  0.81789  0.86850  0.18514  1.0000
  C   C257      1.0  0.79438  0.79993  0.15298  1.0000
  C   C258      1.0  0.85225  0.86372  0.12106  1.0000
  C   C259      1.0  0.86517  0.83879  0.18635  1.0000
  C   C260      1.0  0.77502  0.77032  0.19052  1.0000
  C   C261      1.0  0.82518  0.87573  0.09361  1.0000
  C   C262      1.0  0.88242  0.81155  0.16760  1.0000
  H   H445      1.0  0.79040  0.86816  0.16999  1.0000
  H   H446      1.0  0.80582  0.85413  0.21586  1.0000
  H   H447      1.0  0.80117  0.78236  0.12930  1.0000
  H   H448      1.0  0.76857  0.80370  0.13924  1.0000
  H   H449      1.0  0.88349  0.89290  0.12572  1.0000
  H   H450      1.0  0.85945  0.84252  0.10249  1.0000
  H   H451      1.0  0.85388  0.82734  0.21810  1.0000
  H   H452      1.0  0.76437  0.78447  0.21426  1.0000
  H   H453      1.0  0.74627  0.74079  0.18074  1.0000
  H   H454      1.0  0.79702  0.76071  0.20384  1.0000
  H   H455      1.0  0.79446  0.84770  0.08551  1.0000
  H   H456      1.0  0.84239  0.88957  0.06443  1.0000
  H   H457      1.0  0.81932  0.89989  0.10775  1.0000
  H   H458      1.0  0.00376  0.56240  0.04193  1.0000
  H   H459      1.0  0.85809  0.78338  0.15120  1.0000
  C   C263      1.0  0.83574  0.64780  0.13073  1.0000
  N   N20       1.0  0.91423  0.66609  0.14014  1.0000
  C   C264      1.0  0.94194  0.64714  0.13097  1.0000
  C   C265      1.0  0.91265  0.66913  0.18606  1.0000
  C   C266      1.0  0.87119  0.63758  0.12165  1.0000
  C   C267      1.0  0.95504  0.64871  0.08575  1.0000
  C   C268      1.0  0.89397  0.62680  0.20996  1.0000
  H   H460      1.0  0.97179  0.66315  0.14908  1.0000
  H   H461      1.0  0.92611  0.61314  0.14040  1.0000
  H   H462      1.0  0.89439  0.68442  0.19567  1.0000
  H   H463      1.0  0.94516  0.69026  0.19820  1.0000
  H   H464      1.0  0.85911  0.60362  0.12966  1.0000
  H   H465      1.0  0.92745  0.63198  0.06505  1.0000
  C   C269      1.0  0.57472  0.00216  0.29319  1.0000
  C   C270      1.0  0.84313  0.68703  0.01596  1.0000
  C   C271      1.0  0.00071  0.54171  0.06842  1.0000
  C   C272      1.0  0.93172  0.73270  0.00775  1.0000
  H   H466      1.0  0.51180  0.95230  0.30968  1.0000
  H   H467      1.0  0.96763  0.51467  0.06795  1.0000
  S   S81       1.0  0.72851  0.67363  0.00744  1.0000
  C   C273      1.0  0.51587  0.53699  0.06529  1.0000
  H   H468      1.0  0.96586  0.75058  0.00441  1.0000
  H   H469      1.0  0.00490  0.55911  0.09714  1.0000
  H   H470      1.0  0.70622  0.86520  0.43849  1.0000
  S   S82       1.0  0.93637  0.72437  0.43499  1.0000
  H   H471      1.0  0.60092  0.51639  0.51001  1.0000
  H   H472      1.0  0.79439  0.93097  0.48704  1.0000
  H   H473      1.0  0.70074  0.84633  0.59926  1.0000
  H   H474      1.0  0.79238  0.62355  0.47033  1.0000
  Fe  Fe40      1.0  0.77441  0.68979  0.62574  1.0000
  S   S83       1.0  0.73727  0.71692  0.59580  1.0000
  S   S84       1.0  0.81818  0.66908  0.59561  1.0000
  Fe  Fe41      1.0  0.68118  0.66778  0.63209  1.0000
  S   S85       1.0  0.61491  0.63135  0.60487  1.0000
  C   C274      1.0  0.69524  0.64726  0.51342  1.0000
  Fe  Fe42      1.0  0.73177  0.99958  0.34330  1.0000
  H   H475      1.0  0.72938  0.80563  0.56819  1.0000
  C   C275      1.0  0.69907  0.80207  0.55663  1.0000
  H   H476      1.0  0.88078  0.75156  0.46763  1.0000
  H   H477      1.0  0.73060  0.58472  0.60172  1.0000
  S   S86       1.0  0.71726  0.96955  0.40693  1.0000
  H   H478      1.0  0.70983  0.52967  0.58758  1.0000
  C   C276      1.0  0.72912  0.91924  0.56751  1.0000
  H   H479      1.0  0.63661  0.96642  0.37756  1.0000
  H   H480      1.0  0.68790  0.95539  0.49015  1.0000
  H   H481      1.0  0.72091  0.56343  0.45910  1.0000
  H   H482      1.0  0.74647  0.64664  0.54529  1.0000
  C   C277      1.0  0.74342  0.57576  0.53754  1.0000
  H   H483      1.0  0.76887  0.86090  0.52433  1.0000
  H   H484      1.0  0.67536  0.63083  0.48675  1.0000
  C   C278      1.0  0.73264  0.00383  0.44930  1.0000
  C   C279      1.0  0.58121  0.57564  0.60817  1.0000
  Fe  Fe43      1.0  0.98511  0.71084  0.40357  1.0000
  H   H485      1.0  0.66536  0.91166  0.55778  1.0000
  C   C280      1.0  0.90384  0.70833  0.47998  1.0000
  C   C281      1.0  0.90146  0.67725  0.50720  1.0000
  C   C282      1.0  0.87521  0.66585  0.54230  1.0000
  C   C283      1.0  0.85114  0.68544  0.55097  1.0000
  C   C284      1.0  0.85321  0.71626  0.52360  1.0000
  C   C285      1.0  0.87928  0.72749  0.48838  1.0000
  H   H486      1.0  0.91997  0.66210  0.50130  1.0000
  H   H487      1.0  0.87389  0.64191  0.56312  1.0000
  H   H488      1.0  0.83498  0.73166  0.52965  1.0000
  H   H489      1.0  0.67543  0.87962  0.50471  1.0000
  H   H490      1.0  0.69476  0.94489  0.59953  1.0000
  H   H491      1.0  0.67288  0.82179  0.47239  1.0000
  C   C286      1.0  0.66815  0.54591  0.52309  1.0000
  C   C287      1.0  0.76895  0.88755  0.54046  1.0000
  C   C288      1.0  0.53720  0.55849  0.60379  1.0000
  H   H492      1.0  0.52458  0.57957  0.59921  1.0000
  H   H493      1.0  0.69906  0.59651  0.45453  1.0000
  H   H494      1.0  0.72991  0.84422  0.47082  1.0000
  H   H495      1.0  0.67503  0.65387  0.53397  1.0000
  H   H496      1.0  0.76901  0.63653  0.42883  1.0000
  N   N21       1.0  0.71124  0.58487  0.51754  1.0000
  S   S87       1.0  0.71681  0.63789  0.65838  1.0000
  C   C289      1.0  0.50932  0.51430  0.60551  1.0000
  H   H497      1.0  0.69533  0.79366  0.52395  1.0000
  C   C290      1.0  0.69554  0.84175  0.56567  1.0000
  C   C291      1.0  0.70394  0.85155  0.46962  1.0000
  H   H498      1.0  0.83321  0.92795  0.51816  1.0000
  H   H499      1.0  0.74554  0.94941  0.54957  1.0000
  C   C292      1.0  0.68725  0.91537  0.58306  1.0000
  C   C293      1.0  0.80300  0.92851  0.51915  1.0000
  N   N22       1.0  0.72525  0.88240  0.54305  1.0000
  C   C294      1.0  0.71288  0.98807  0.48736  1.0000
  C   C295      1.0  0.59723  0.54812  0.61383  1.0000
  C   C296      1.0  0.73616  0.56272  0.58318  1.0000
  C   C297      1.0  0.71304  0.62282  0.53784  1.0000
  C   C298      1.0  0.70783  0.88412  0.50159  1.0000
  H   H500      1.0  0.77269  0.65976  0.47767  1.0000
  H   H501      1.0  0.63100  0.56094  0.61733  1.0000
  H   H502      1.0  0.67350  0.77450  0.57352  1.0000
  H   H503      1.0  0.74927  0.92471  0.59488  1.0000
  H   H504      1.0  0.76523  0.56395  0.59560  1.0000
  H   H505      1.0  0.63639  0.99703  0.44280  1.0000
  H   H506      1.0  0.66189  0.83300  0.56049  1.0000
  C   C299      1.0  0.76661  0.63024  0.46234  1.0000
  H   H507      1.0  0.74555  0.55021  0.52105  1.0000
  C   C300      1.0  0.72234  0.59214  0.47259  1.0000
  H   H508      1.0  0.59240  0.97454  0.37899  1.0000
  H   H509      1.0  0.78076  0.88654  0.57181  1.0000
  H   H510      1.0  0.69621  0.61345  0.56783  1.0000
  H   H511      1.0  0.72148  0.67879  0.50340  1.0000
  H   H512      1.0  0.67086  0.88925  0.60578  1.0000
  H   H513      1.0  0.77575  0.60402  0.53574  1.0000
  Fe  Fe44      1.0  0.75214  0.75727  0.65216  1.0000
  H   H514      1.0  0.72613  0.91621  0.48723  1.0000
  C   C301      1.0  0.62994  0.54777  0.50518  1.0000
  C   C302      1.0  0.62750  0.99134  0.37823  1.0000
  S   S88       1.0  0.96813  0.66838  0.34850  1.0000
  H   H515      1.0  0.80967  0.91777  0.65124  1.0000
  H   H516      1.0  0.62422  0.57096  0.52169  1.0000
  H   H517      1.0  0.63266  0.55417  0.47181  1.0000
  S   S89       1.0  0.00199  0.58438  0.36105  1.0000
  H   H518      1.0  0.66793  0.51764  0.50995  1.0000
  S   S90       1.0  0.77907  0.82860  0.64484  1.0000
  H   H519      1.0  0.70905  0.00252  0.55076  1.0000
  H   H520      1.0  0.80960  0.95734  0.53625  1.0000
  H   H521      1.0  0.66039  0.53864  0.55613  1.0000
  H   H522      1.0  0.50974  0.96545  0.58755  1.0000
  C   C303      1.0  0.75541  0.85673  0.66536  1.0000
  C   C304      1.0  0.77764  0.90132  0.66315  1.0000
  H   H523      1.0  0.80056  0.66488  0.82760  1.0000
  S   S91       1.0  0.93347  0.66931  0.96299  1.0000
  Fe  Fe45      1.0  0.73266  0.68371  0.71012  1.0000
  H   H524      1.0  0.61073  0.66398  0.88602  1.0000
  S   S92       1.0  0.72777  0.65644  0.77419  1.0000
  H   H525      1.0  0.90692  0.70188  0.88743  1.0000
  S   S93       1.0  0.69396  0.73550  0.93248  1.0000
  H   H526      1.0  0.82028  0.73216  0.82211  1.0000
  H   H527      1.0  0.98885  0.55230  0.95775  1.0000
  H   H528      1.0  0.54925  0.56895  0.86680  1.0000
  Fe  Fe46      1.0  0.00327  0.68964  0.96952  1.0000
  H   H529      1.0  0.84937  0.66536  0.83998  1.0000
  H   H530      1.0  0.64735  0.58636  0.97126  1.0000
  C   C305      1.0  0.55107  0.54003  0.72002  1.0000
  H   H531      1.0  0.60066  0.60828  0.98779  1.0000
  S   S94       1.0  0.69297  0.71052  0.68594  1.0000
  H   H532      1.0  0.95161  0.74770  0.86643  1.0000
  C   C306      1.0  0.00253  0.53203  0.95492  1.0000
  C   C307      1.0  0.71794  0.67875  0.81760  1.0000
  C   C308      1.0  0.71630  0.66088  0.85633  1.0000
  C   C309      1.0  0.70987  0.67852  0.89183  1.0000
  C   C310      1.0  0.70415  0.71369  0.88880  1.0000
  C   C311      1.0  0.70521  0.73119  0.85000  1.0000
  C   C312      1.0  0.71239  0.71400  0.81452  1.0000
  H   H533      1.0  0.72042  0.63350  0.85889  1.0000
  H   H534      1.0  0.70877  0.66451  0.92138  1.0000
  H   H535      1.0  0.70069  0.75834  0.84735  1.0000
  H   H536      1.0  0.71364  0.72809  0.78485  1.0000
  H   H537      1.0  0.55163  0.53639  0.97521  1.0000
  H   H538      1.0  0.61289  0.54300  0.71434  1.0000
  H   H539      1.0  0.57373  0.99053  0.69572  1.0000
  H   H540      1.0  0.93077  0.75175  0.91440  1.0000
  S   S95       1.0  0.69015  0.93159  0.70352  1.0000
  H   H541      1.0  0.86568  0.80374  0.81170  1.0000
  H   H542      1.0  0.82088  0.80439  0.83463  1.0000
  N   N23       1.0  0.57692  0.58442  0.92731  1.0000
  C   C313      1.0  0.61005  0.57340  0.91433  1.0000
  C   C314      1.0  0.71675  0.90381  0.69017  1.0000
  C   C315      1.0  0.69493  0.85928  0.69336  1.0000
  H   H543      1.0  0.82991  0.77426  0.97130  1.0000
  C   C316      1.0  0.63072  0.56060  0.94878  1.0000
  S   S96       1.0  0.79314  0.73322  0.68009  1.0000
  H   H544      1.0  0.84628  0.63865  0.98112  1.0000
  H   H545      1.0  0.59671  0.54718  0.89167  1.0000
  H   H546      1.0  0.63689  0.60068  0.89856  1.0000
  H   H547      1.0  0.77578  0.95906  0.67350  1.0000
  H   H548      1.0  0.62966  0.64388  0.94788  1.0000
  H   H549      1.0  0.91214  0.78479  0.85586  1.0000
  H   H550      1.0  0.66277  0.84281  0.70496  1.0000
  H   H551      1.0  0.69670  0.80152  0.68304  1.0000
  C   C317      1.0  0.59672  0.62026  0.95752  1.0000
  H   H552      1.0  0.81059  0.77936  0.92250  1.0000
  H   H553      1.0  0.79383  0.72750  0.94441  1.0000
  H   H554      1.0  0.54859  0.53826  0.68614  1.0000
  C   C318      1.0  0.56163  0.59574  0.88876  1.0000
  H   H555      1.0  0.65525  0.55481  0.93516  1.0000
  H   H556      1.0  0.61919  0.63119  0.85028  1.0000
  H   H557      1.0  0.79359  0.73796  0.86355  1.0000
  H   H558      1.0  0.53426  0.60027  0.89434  1.0000
  Fe  Fe47      1.0  0.71407  0.00171  0.69117  1.0000
  H   H559      1.0  0.61604  0.59291  0.72043  1.0000
  H   H560      1.0  0.80055  0.62756  0.86311  1.0000
  H   H561      1.0  0.88834  0.73665  0.82882  1.0000
  H   H562      1.0  0.86652  0.81814  0.86440  1.0000
  N   N24       1.0  0.85126  0.73747  0.88033  1.0000
  C   C319      1.0  0.82617  0.69039  0.88903  1.0000
  C   C320      1.0  0.85953  0.76036  0.92056  1.0000
  C   C321      1.0  0.89310  0.74976  0.86029  1.0000
  C   C322      1.0  0.82605  0.74907  0.85168  1.0000
  C   C323      1.0  0.81920  0.66106  0.85246  1.0000
  C   C324      1.0  0.82095  0.76005  0.94036  1.0000
  C   C325      1.0  0.92171  0.73676  0.88388  1.0000
  C   C326      1.0  0.84637  0.79654  0.84004  1.0000
  H   H563      1.0  0.84120  0.68128  0.91384  1.0000
  H   H564      1.0  0.79412  0.68123  0.90091  1.0000
  H   H565      1.0  0.88530  0.79401  0.91779  1.0000
  H   H566      1.0  0.87167  0.74637  0.94367  1.0000
  C   C327      1.0  0.59846  0.55919  0.73084  1.0000
  H   H567      1.0  0.59495  0.67963  0.95795  1.0000
  H   H568      1.0  0.57888  0.64421  0.84129  1.0000
  C   C328      1.0  0.71415  0.83580  0.68112  1.0000
  H   H569      1.0  0.60379  0.55878  0.76423  1.0000
  H   H570      1.0  0.60784  0.53079  0.96467  1.0000
  C   C329      1.0  0.59491  0.63603  0.86578  1.0000
  C   C330      1.0  0.54095  0.54507  0.94671  1.0000
  C   C331      1.0  0.57355  0.64549  0.96546  1.0000
  H   H571      1.0  0.54368  0.63488  0.94867  1.0000
  H   H572      1.0  0.54260  0.56435  0.72878  1.0000
  H   H573      1.0  0.52758  0.53463  0.79324  1.0000
  Fe  Fe48      1.0  0.70353  0.71790  0.99677  1.0000
  C   C332      1.0  0.90865  0.69233  0.99063  1.0000
  C   C333      1.0  0.86432  0.66981  0.99451  1.0000
  H   H574      1.0  0.53004  0.51744  0.92592  1.0000
  C   C334      1.0  0.75849  0.92480  0.67564  1.0000
  C   C335      1.0  0.55425  0.00524  0.69419  1.0000
  H   H575      1.0  0.50814  0.57000  0.98424  1.0000
  C   C336      1.0  0.50975  0.98023  0.69738  1.0000
  H   H576      1.0  0.56579  0.64380  0.99855  1.0000
