data_image0
_chemical_formula_structural       CSH2S2HFeSFeSFeS2FeSH2FeSHSHSFeSCFeSH3C6H7C4H2C6H4C2HC2HC3HSHSHC4H2FeCHC2H2SCNHC2HC3HCNFeC3SHC2S2H7CH6CH4SH2C2H5FeHCH3CHCH2SH4CH8CH3CFeSFeHSFeSHS2FeS2HFeHFeS6C6H7C3H2C5H3CHNH4SHCH2CSFeS2FeSFeHC3H5C4HC10HNC8H14CH5CFeHFeSH2CH5CH3CH4NH4CS3H2FeNCH2CHFeCHCHCHCH4CH3CH6SH2CH6C4H2CH2CH4CHCFeH2FeCS3HFeS2FeS2FeCFeS3CFeS2FeSHFeSFeS4C3H2C6H4C6H4C5H5C3HCSCH4SH6CHCH2NC5H7C3H2CHCH3C2H2CHSH3SH5CNH5CHCHC2SNHC2HCHFeH4C2H5C2FeC2NC2H5NHSHCHFeH2C2H2CH3C2H4NH5C2HCSH3C2FeS2FeS2FeSFeS3FeCSHCSHC2H3C6H4C5H4CHC6H5CSHCHSH3CH3C2H3CNHCHFeNH2CH5SH2CHC2NC4H12SCH4C3H6CH2CH10C2H3C2H2CSH2CS2HC2H2C2FeSCHFeNSH2S2FeH2CHCH2CHC2H3CH3CH2C2SC3H5NHC3HCHCH8CHSH3CHCH4C3H3C2NH2CH5CH5CH4SC4HC2HNCH6C2HCH2C2H2CHSH7CSHFeSCFeSCFeH2SHCH2C4HCSHNCHCH8C2H2CH4CH7CHCH5CHCH3SCH2CHC3H3C2SCSCH3CNH4CH6CH5NHCHCH3C2SC4H6C2FeCH4CH2CHCHC2SHCSFeCFeSHSFeS2FeS2FeSFeS3C5H2C6H2CH3C6H6CH2FeH6CNCH2CH6C2HCHCHNCH8C2H2CHCH2SNHCH2NSC2H2FeSHC3HNC8H23CH3CH6CH3CHCH3NH2C5HCH2CH2CHSH2CHC2H4S2CSC5H2CH2CH3FeS2FeS2FeSHSHC5H2C2H3C2H4FeCHCHNSH5C3HCHCH7CH3CH3C2H5CHCH2CH2CH3NCH3SH3FeCFeCH2CHCH3CH4CH4CSH2FeHFeSHSCFeSFeS2C2HC3H2CH4C5H5CH3NHCH4SHSH4CH3FeC3HCH5C2H3CHCH2C4H2CHCHSHCHC2H9CNCSCSH2CH2C2FeHFeS2FeSH2FeSHSHFeS2FeSFeCS2CH5CHCHCH2CHC6H4NHFeHSCHCH2CH3CH5NC8H20CH2CH3SC4H2CH2CH5C2NH4C2FeC4H8NCH2CH3CH3C2H3SCH4CH5C2H3C2H2C4SCHFeSFeCSH3S2CFeCS2FeS2C6H5CNH4C3H2CHFe2S2FeSFeS3C2HC2H2CHC2H2C3H6CHCH2CH2CH3NHCH3CHCH2CH3NC6H5CH9CH3C2HC4HCHCHCFeH2C2H6NH2CSCHCHCH4CHCSH3CHCNH2SH2NCH4CHC2H2SH2CH3CH5CH6CFeH3CH4CH2C2H3CH2CH3CHCH3CHCNHFeHFeHSHSHSHCFeHS3FeS2FeS2FeSFeS3NSCH2C2H3CH3C6H4C6H5CH4C4H2C4H2C2H4CHC3H3CH2C3H5CHNCHCSHCHNH2CH2C3HCH3NC2H4CH10C3H2SH2C4H11C3SH2CH4FeH2C2H5CH7FeC2H7NCH3SCH3CH
_chemical_formula_sum              "C672 S192 H1152 Fe96 N48"
_cell_length_a       45.6045
_cell_length_b       45.5076
_cell_length_c       49.838
_cell_angle_alpha    90.2307
_cell_angle_beta     89.9744
_cell_angle_gamma    120.079

_space_group_name_H-M_alt    "P 1"
_space_group_IT_number       1

loop_
  _space_group_symop_operation_xyz
  'x, y, z'

loop_
  _atom_site_type_symbol
  _atom_site_label
  _atom_site_symmetry_multiplicity
  _atom_site_fract_x
  _atom_site_fract_y
  _atom_site_fract_z
  _atom_site_occupancy
  C   C1        1.0  0.49168  0.14337  0.23121  1.0000
  S   S1        1.0  0.03511  0.42513  0.12658  1.0000
  H   H1        1.0  0.15700  0.39434  0.04908  1.0000
  H   H2        1.0  0.17806  0.41530  0.09160  1.0000
  S   S2        1.0  0.35959  0.03852  0.28937  1.0000
  S   S3        1.0  0.42735  0.04595  0.11122  1.0000
  H   H3        1.0  0.47274  0.04835  0.30750  1.0000
  Fe  Fe1       1.0  0.37908  0.02992  0.13370  1.0000
  S   S4        1.0  0.37475  0.06517  0.16373  1.0000
  Fe  Fe2       1.0  0.39551  0.02287  0.07412  1.0000
  S   S5        1.0  0.42154  0.05297  0.03604  1.0000
  Fe  Fe3       1.0  0.43360  0.36103  0.27404  1.0000
  S   S6        1.0  0.38632  0.36315  0.26399  1.0000
  S   S7        1.0  0.43696  0.31301  0.26741  1.0000
  Fe  Fe4       1.0  0.47295  0.43636  0.28872  1.0000
  S   S8        1.0  0.42868  0.44305  0.28026  1.0000
  H   H4        1.0  0.13457  0.42790  0.00656  1.0000
  H   H5        1.0  0.35840  0.25717  0.26928  1.0000
  Fe  Fe5       1.0  0.42108  0.41238  0.24268  1.0000
  S   S9        1.0  0.41381  0.43908  0.20642  1.0000
  H   H6        1.0  0.35671  0.00592  0.00984  1.0000
  S   S10       1.0  0.46758  0.40833  0.25014  1.0000
  H   H7        1.0  0.43934  0.03080  0.25566  1.0000
  S   S11       1.0  0.42050  0.45583  0.01684  1.0000
  Fe  Fe6       1.0  0.33054  0.44470  0.01029  1.0000
  S   S12       1.0  0.34086  0.40113  0.01290  1.0000
  C   C2        1.0  0.00837  0.36667  0.05905  1.0000
  Fe  Fe7       1.0  0.37770  0.43038  0.04610  1.0000
  S   S13       1.0  0.38647  0.40320  0.08123  1.0000
  H   H8        1.0  0.45644  0.07345  0.18870  1.0000
  H   H9        1.0  0.12255  0.36869  0.01475  1.0000
  H   H10       1.0  0.43796  0.03475  0.22026  1.0000
  C   C3        1.0  0.40487  0.42767  0.17190  1.0000
  C   C4        1.0  0.39740  0.44782  0.15500  1.0000
  C   C5        1.0  0.39105  0.44042  0.12734  1.0000
  C   C6        1.0  0.39249  0.41291  0.11616  1.0000
  C   C7        1.0  0.39998  0.39279  0.13306  1.0000
  C   C8        1.0  0.40606  0.40003  0.16075  1.0000
  H   H11       1.0  0.39630  0.46921  0.16339  1.0000
  H   H12       1.0  0.38518  0.45605  0.11467  1.0000
  H   H13       1.0  0.40107  0.37140  0.12466  1.0000
  H   H14       1.0  0.41178  0.38430  0.17341  1.0000
  H   H15       1.0  0.48878  0.48364  0.15162  1.0000
  H   H16       1.0  0.21309  0.44241  0.07012  1.0000
  H   H17       1.0  0.18007  0.43312  0.03274  1.0000
  C   C9        1.0  0.43398  0.28140  0.29004  1.0000
  C   C10       1.0  0.43496  0.25305  0.27976  1.0000
  C   C11       1.0  0.43391  0.22796  0.29698  1.0000
  C   C12       1.0  0.04699  0.40838  0.31025  1.0000
  H   H18       1.0  0.43664  0.25049  0.25830  1.0000
  H   H19       1.0  0.43472  0.20634  0.28875  1.0000
  C   C13       1.0  0.36517  0.04649  0.25460  1.0000
  C   C14       1.0  0.36877  0.07650  0.24396  1.0000
  C   C15       1.0  0.37100  0.08151  0.21604  1.0000
  C   C16       1.0  0.37060  0.05703  0.19859  1.0000
  C   C17       1.0  0.36822  0.02755  0.20933  1.0000
  C   C18       1.0  0.36472  0.02195  0.23720  1.0000
  H   H20       1.0  0.36897  0.09549  0.25721  1.0000
  H   H21       1.0  0.37323  0.10457  0.20794  1.0000
  H   H22       1.0  0.47715  0.04406  0.23688  1.0000
  H   H23       1.0  0.09498  0.41816  0.02058  1.0000
  C   C19       1.0  0.49756  0.05163  0.31100  1.0000
  C   C20       1.0  0.40574  0.04968  0.00290  1.0000
  H   H24       1.0  0.09047  0.37032  0.99559  1.0000
  C   C21       1.0  0.33927  0.26223  0.27877  1.0000
  C   C22       1.0  0.11643  0.41324  0.02280  1.0000
  H   H25       1.0  0.20237  0.39250  0.99392  1.0000
  C   C23       1.0  0.00424  0.49637  0.28131  1.0000
  C   C24       1.0  0.09254  0.49459  0.24064  1.0000
  C   C25       1.0  0.46248  0.08325  0.24291  1.0000
  H   H26       1.0  0.43713  0.09618  0.19946  1.0000
  S   S14       1.0  0.02243  0.37721  0.00525  1.0000
  H   H27       1.0  0.13619  0.42538  0.10827  1.0000
  S   S15       1.0  0.36510  0.47228  0.04558  1.0000
  H   H28       1.0  0.10403  0.43632  0.10040  1.0000
  C   C26       1.0  0.02352  0.39093  0.03866  1.0000
  C   C27       1.0  0.04035  0.42541  0.04544  1.0000
  C   C28       1.0  0.04273  0.43547  0.07244  1.0000
  C   C29       1.0  0.02758  0.41125  0.09285  1.0000
  H   H29       1.0  0.05656  0.46219  0.07758  1.0000
  H   H30       1.0  0.05188  0.44435  0.02995  1.0000
  Fe  Fe8       1.0  0.39864  0.39402  0.30218  1.0000
  C   C30       1.0  0.21363  0.41892  0.98833  1.0000
  H   H31       1.0  0.27356  0.31385  0.31175  1.0000
  C   C31       1.0  0.48982  0.44707  0.04652  1.0000
  C   C32       1.0  0.46240  0.09902  0.19592  1.0000
  H   H32       1.0  0.08207  0.35820  0.02977  1.0000
  H   H33       1.0  0.28294  0.00365  0.19891  1.0000
  S   S16       1.0  0.43982  0.13023  0.30215  1.0000
  C   C33       1.0  0.24872  0.44079  0.99196  1.0000
  N   N1        1.0  0.48301  0.10848  0.22136  1.0000
  H   H34       1.0  0.48481  0.05810  0.14439  1.0000
  C   C34       1.0  0.16688  0.48713  0.03446  1.0000
  C   C35       1.0  0.02282  0.40767  0.29228  1.0000
  H   H35       1.0  0.43778  0.08219  0.24569  1.0000
  C   C36       1.0  0.37333  0.02420  0.99519  1.0000
  C   C37       1.0  0.10234  0.37539  0.01580  1.0000
  C   C38       1.0  0.02960  0.49617  0.26092  1.0000
  H   H36       1.0  0.36520  0.26652  0.31552  1.0000
  C   C39       1.0  0.31157  0.29841  0.30997  1.0000
  N   N2        1.0  0.13260  0.42467  0.05015  1.0000
  Fe  Fe9       1.0  0.40640  0.49614  0.01422  1.0000
  C   C40       1.0  0.14056  0.46087  0.05395  1.0000
  C   C41       1.0  0.10715  0.40181  0.07085  1.0000
  C   C42       1.0  0.16393  0.42145  0.05073  1.0000
  S   S17       1.0  0.01773  0.44346  0.19605  1.0000
  H   H37       1.0  0.45997  0.46825  0.12408  1.0000
  C   C43       1.0  0.11073  0.41598  0.09959  1.0000
  C   C44       1.0  0.18670  0.43506  0.07581  1.0000
  S   S18       1.0  0.34785  0.01223  0.09589  1.0000
  S   S19       1.0  0.02316  0.39584  0.25822  1.0000
  H   H38       1.0  0.15015  0.47058  0.07438  1.0000
  H   H39       1.0  0.11691  0.46228  0.05216  1.0000
  H   H40       1.0  0.08096  0.39465  0.06460  1.0000
  H   H41       1.0  0.10713  0.37739  0.07246  1.0000
  H   H42       1.0  0.47005  0.42000  0.04366  1.0000
  H   H43       1.0  0.46428  0.01660  0.05086  1.0000
  H   H44       1.0  0.06929  0.46939  0.24191  1.0000
  C   C45       1.0  0.46246  0.15124  0.23059  1.0000
  H   H45       1.0  0.48530  0.44944  0.13156  1.0000
  H   H46       1.0  0.45877  0.12377  0.15970  1.0000
  H   H47       1.0  0.36902  0.00904  0.19624  1.0000
  H   H48       1.0  0.48988  0.00674  0.07178  1.0000
  H   H49       1.0  0.06492  0.40112  0.30321  1.0000
  H   H50       1.0  0.09228  0.39540  0.11285  1.0000
  C   C46       1.0  0.45412  0.04631  0.23821  1.0000
  H   H51       1.0  0.37395  0.30570  0.30226  1.0000
  H   H52       1.0  0.18867  0.45846  0.08425  1.0000
  H   H53       1.0  0.30593  0.00895  0.14213  1.0000
  H   H54       1.0  0.46327  0.44524  0.08265  1.0000
  S   S20       1.0  0.27316  0.42424  0.00630  1.0000
  H   H55       1.0  0.23721  0.00890  0.21163  1.0000
  H   H56       1.0  0.43873  0.47566  0.07834  1.0000
  C   C47       1.0  0.49012  0.45701  0.07624  1.0000
  C   C48       1.0  0.35277  0.27947  0.30626  1.0000
  H   H57       1.0  0.43965  0.13174  0.24116  1.0000
  H   H58       1.0  0.15742  0.48291  0.01355  1.0000
  H   H59       1.0  0.31531  0.23768  0.28044  1.0000
  H   H60       1.0  0.47070  0.17585  0.24093  1.0000
  H   H61       1.0  0.03001  0.47235  0.26414  1.0000
  Fe  Fe10      1.0  0.39730  0.08025  0.31654  1.0000
  H   H62       1.0  0.10564  0.49414  0.22197  1.0000
  C   C49       1.0  0.47887  0.12303  0.17180  1.0000
  H   H63       1.0  0.48388  0.46215  0.03255  1.0000
  H   H64       1.0  0.45549  0.15382  0.20976  1.0000
  H   H65       1.0  0.06988  0.47847  0.29070  1.0000
  C   C50       1.0  0.48524  0.47379  0.13073  1.0000
  H   H66       1.0  0.33573  0.27924  0.26490  1.0000
  C   C51       1.0  0.43188  0.28436  0.31783  1.0000
  H   H67       1.0  0.29805  0.28416  0.29156  1.0000
  H   H68       1.0  0.19145  0.48768  0.03522  1.0000
  S   S21       1.0  0.44355  0.38898  0.31329  1.0000
  H   H69       1.0  0.01797  0.49282  0.24063  1.0000
  H   H70       1.0  0.27929  0.23493  0.31663  1.0000
  H   H71       1.0  0.49141  0.04727  0.07470  1.0000
  H   H72       1.0  0.49455  0.33689  0.30932  1.0000
  C   C52       1.0  0.48961  0.02758  0.06052  1.0000
  H   H73       1.0  0.47524  0.09136  0.26281  1.0000
  H   H74       1.0  0.45147  0.02294  0.99187  1.0000
  H   H75       1.0  0.49677  0.14960  0.17764  1.0000
  H   H76       1.0  0.45209  0.09302  0.98930  1.0000
  H   H77       1.0  0.27820  0.02226  0.15696  1.0000
  H   H78       1.0  0.33171  0.32384  0.30299  1.0000
  H   H79       1.0  0.10994  0.49815  0.25746  1.0000
  H   H80       1.0  0.49247  0.11392  0.15880  1.0000
  C   C53       1.0  0.01027  0.37675  0.08607  1.0000
  H   H81       1.0  0.27372  0.00951  0.12255  1.0000
  H   H82       1.0  0.05988  0.49495  0.32012  1.0000
  H   H83       1.0  0.30403  0.20199  0.31928  1.0000
  C   C54       1.0  0.27961  0.00405  0.14292  1.0000
  Fe  Fe11      1.0  0.05234  0.42133  0.47642  1.0000
  S   S22       1.0  0.10329  0.46477  0.48791  1.0000
  Fe  Fe12      1.0  0.05815  0.44528  0.41696  1.0000
  H   H84       1.0  0.37683  0.30775  0.38329  1.0000
  S   S23       1.0  0.02667  0.44268  0.38006  1.0000
  Fe  Fe13      1.0  0.12057  0.45400  0.44863  1.0000
  S   S24       1.0  0.16666  0.44724  0.44183  1.0000
  H   H85       1.0  0.28605  0.24707  0.35109  1.0000
  S   S25       1.0  0.06967  0.40839  0.43808  1.0000
  S   S26       1.0  0.03549  0.45311  0.45453  1.0000
  Fe  Fe14      1.0  0.42436  0.09075  0.37496  1.0000
  S   S27       1.0  0.46902  0.14161  0.36421  1.0000
  S   S28       1.0  0.42267  0.06079  0.41247  1.0000
  H   H86       1.0  0.34421  0.26505  0.37809  1.0000
  Fe  Fe15      1.0  0.36072  0.01754  0.62852  1.0000
  H   H87       1.0  0.48879  0.07830  0.43782  1.0000
  Fe  Fe16      1.0  0.43170  0.15087  0.34097  1.0000
  S   S29       1.0  0.43122  0.20062  0.34765  1.0000
  S   S30       1.0  0.43080  0.06561  0.33833  1.0000
  S   S31       1.0  0.38646  0.10095  0.35407  1.0000
  S   S32       1.0  0.35945  0.39050  0.33195  1.0000
  S   S33       1.0  0.36631  0.37916  0.45870  1.0000
  S   S34       1.0  0.36041  0.46216  0.47122  1.0000
  C   C55       1.0  0.36315  0.38880  0.36717  1.0000
  C   C56       1.0  0.34090  0.39356  0.38366  1.0000
  C   C57       1.0  0.34253  0.39191  0.41176  1.0000
  C   C58       1.0  0.36542  0.38389  0.42359  1.0000
  C   C59       1.0  0.38743  0.37867  0.40709  1.0000
  C   C60       1.0  0.38698  0.38208  0.37903  1.0000
  H   H88       1.0  0.32230  0.39864  0.37467  1.0000
  H   H89       1.0  0.32530  0.39573  0.42427  1.0000
  H   H90       1.0  0.40526  0.37254  0.41615  1.0000
  H   H91       1.0  0.40456  0.37876  0.36664  1.0000
  H   H92       1.0  0.01765  0.45582  0.55650  1.0000
  H   H93       1.0  0.48258  0.06052  0.39084  1.0000
  H   H94       1.0  0.42952  0.26199  0.35653  1.0000
  C   C61       1.0  0.40594  0.05665  0.44544  1.0000
  C   C62       1.0  0.38617  0.07091  0.45290  1.0000
  C   C63       1.0  0.41117  0.03666  0.46420  1.0000
  H   H95       1.0  0.38188  0.08633  0.43875  1.0000
  H   H96       1.0  0.39949  0.45988  0.37574  1.0000
  C   C64       1.0  0.04835  0.41859  0.33724  1.0000
  C   C65       1.0  0.41706  0.43894  0.63740  1.0000
  C   C66       1.0  0.20068  0.45343  0.46321  1.0000
  C   C67       1.0  0.25045  0.44691  0.47028  1.0000
  C   C68       1.0  0.22401  0.44412  0.45375  1.0000
  H   H97       1.0  0.26807  0.43955  0.46267  1.0000
  H   H98       1.0  0.22153  0.43453  0.43349  1.0000
  H   H99       1.0  0.25652  0.39939  0.60084  1.0000
  C   C69       1.0  0.02544  0.42819  0.34661  1.0000
  H   H100      1.0  0.45238  0.45626  0.37932  1.0000
  N   N3        1.0  0.03713  0.49891  0.58400  1.0000
  H   H101      1.0  0.06720  0.41915  0.35073  1.0000
  H   H102      1.0  0.37016  0.48810  0.60432  1.0000
  H   H103      1.0  0.47571  0.49389  0.47783  1.0000
  H   H104      1.0  0.36971  0.47305  0.41176  1.0000
  S   S35       1.0  0.40218  0.04060  0.59774  1.0000
  H   H105      1.0  0.07736  0.42395  0.53881  1.0000
  C   C70       1.0  0.40374  0.48601  0.37690  1.0000
  H   H106      1.0  0.44032  0.46317  0.63655  1.0000
  H   H107      1.0  0.18692  0.47358  0.49699  1.0000
  C   C71       1.0  0.37220  0.48282  0.39106  1.0000
  S   S36       1.0  0.41488  0.45098  0.50803  1.0000
  Fe  Fe17      1.0  0.33206  0.45599  0.50985  1.0000
  S   S37       1.0  0.33432  0.40996  0.52399  1.0000
  S   S38       1.0  0.28571  0.46158  0.51882  1.0000
  Fe  Fe18      1.0  0.38363  0.44693  0.54416  1.0000
  S   S39       1.0  0.40753  0.45282  0.58566  1.0000
  Fe  Fe19      1.0  0.36566  0.41854  0.48641  1.0000
  H   H108      1.0  0.16028  0.33844  0.51586  1.0000
  C   C72       1.0  0.23049  0.46826  0.50611  1.0000
  C   C73       1.0  0.36600  0.39543  0.61605  1.0000
  C   C74       1.0  0.39600  0.42678  0.61462  1.0000
  H   H109      1.0  0.34792  0.02142  0.41413  1.0000
  H   H110      1.0  0.38003  0.29901  0.62683  1.0000
  H   H111      1.0  0.34973  0.38555  0.59863  1.0000
  H   H112      1.0  0.44112  0.46575  0.34703  1.0000
  H   H113      1.0  0.36938  0.01664  0.37268  1.0000
  C   C75       1.0  0.43312  0.46799  0.42601  1.0000
  C   C76       1.0  0.37136  0.06467  0.47865  1.0000
  C   C77       1.0  0.37645  0.04456  0.49740  1.0000
  C   C78       1.0  0.39669  0.03076  0.49006  1.0000
  H   H114      1.0  0.41442  0.44792  0.41290  1.0000
  C   C79       1.0  0.27871  0.40199  0.58970  1.0000
  C   C80       1.0  0.20429  0.46584  0.48948  1.0000
  C   C81       1.0  0.46006  0.47570  0.36355  1.0000
  C   C82       1.0  0.25379  0.45890  0.49663  1.0000
  C   C83       1.0  0.00809  0.47410  0.60133  1.0000
  C   C84       1.0  0.31260  0.42775  0.60299  1.0000
  C   C85       1.0  0.02335  0.39217  0.54157  1.0000
  C   C86       1.0  0.05590  0.41233  0.55211  1.0000
  C   C87       1.0  0.06080  0.41691  0.58000  1.0000
  C   C88       1.0  0.03308  0.40275  0.59763  1.0000
  H   H115      1.0  0.08620  0.43187  0.58798  1.0000
  N   N4        1.0  0.11559  0.36453  0.49725  1.0000
  C   C89       1.0  0.15106  0.37210  0.49009  1.0000
  C   C90       1.0  0.11816  0.39748  0.50615  1.0000
  C   C91       1.0  0.09385  0.35379  0.47234  1.0000
  C   C92       1.0  0.09969  0.33810  0.51891  1.0000
  C   C93       1.0  0.15918  0.34334  0.49418  1.0000
  C   C94       1.0  0.13260  0.40997  0.53461  1.0000
  C   C95       1.0  0.08901  0.32165  0.45803  1.0000
  C   C96       1.0  0.06332  0.32857  0.52729  1.0000
  H   H116      1.0  0.15728  0.38077  0.46889  1.0000
  H   H117      1.0  0.17088  0.39395  0.50168  1.0000
  H   H118      1.0  0.09324  0.39635  0.50514  1.0000
  H   H119      1.0  0.13410  0.41806  0.49185  1.0000
  H   H120      1.0  0.06815  0.34990  0.47668  1.0000
  H   H121      1.0  0.10493  0.37455  0.45717  1.0000
  H   H122      1.0  0.09802  0.31387  0.51274  1.0000
  H   H123      1.0  0.11599  0.34543  0.53713  1.0000
  H   H124      1.0  0.26579  0.45108  0.62175  1.0000
  H   H125      1.0  0.27676  0.37665  0.58908  1.0000
  H   H126      1.0  0.32485  0.04822  0.38249  1.0000
  H   H127      1.0  0.15628  0.40949  0.53844  1.0000
  H   H128      1.0  0.13852  0.43668  0.53709  1.0000
  H   H129      1.0  0.11364  0.39476  0.55018  1.0000
  C   C97       1.0  0.34503  0.30167  0.34902  1.0000
  H   H130      1.0  0.47491  0.05794  0.58732  1.0000
  H   H131      1.0  0.49916  0.01465  0.53150  1.0000
  H   H132      1.0  0.04420  0.30739  0.51473  1.0000
  H   H133      1.0  0.05828  0.34989  0.52602  1.0000
  H   H134      1.0  0.05924  0.32086  0.54871  1.0000
  C   C98       1.0  0.31034  0.47636  0.58571  1.0000
  Fe  Fe20      1.0  0.40814  0.49405  0.49506  1.0000
  H   H135      1.0  0.32730  0.30486  0.36238  1.0000
  Fe  Fe21      1.0  0.08723  0.49598  0.46364  1.0000
  S   S40       1.0  0.37975  0.49240  0.53220  1.0000
  H   H136      1.0  0.07076  0.31551  0.44124  1.0000
  H   H137      1.0  0.45574  0.08464  0.63877  1.0000
  C   C99       1.0  0.29903  0.24548  0.33265  1.0000
  H   H138      1.0  0.36444  0.32769  0.34262  1.0000
  H   H139      1.0  0.27758  0.40904  0.56856  1.0000
  H   H140      1.0  0.45718  0.46742  0.42570  1.0000
  H   H141      1.0  0.42209  0.46105  0.44644  1.0000
  H   H142      1.0  0.02023  0.49493  0.48449  1.0000
  C   C100      1.0  0.30907  0.21804  0.33747  1.0000
  H   H143      1.0  0.11300  0.32599  0.44884  1.0000
  H   H144      1.0  0.26485  0.28003  0.33432  1.0000
  H   H145      1.0  0.07822  0.29923  0.47135  1.0000
  C   C101      1.0  0.31035  0.03237  0.39974  1.0000
  H   H146      1.0  0.29759  0.32341  0.34169  1.0000
  H   H147      1.0  0.01007  0.48422  0.62201  1.0000
  H   H148      1.0  0.35580  0.07551  0.48413  1.0000
  H   H149      1.0  0.42618  0.02527  0.45862  1.0000
  N   N5        1.0  0.32698  0.28041  0.32471  1.0000
  H   H150      1.0  0.48702  0.34120  0.35700  1.0000
  H   H151      1.0  0.14094  0.31945  0.48394  1.0000
  H   H152      1.0  0.46838  0.14484  0.64615  1.0000
  H   H153      1.0  0.39983  0.25891  0.64948  1.0000
  C   C102      1.0  0.43197  0.23099  0.32479  1.0000
  S   S41       1.0  0.04061  0.40983  0.63255  1.0000
  S   S42       1.0  0.01692  0.38295  0.50680  1.0000
  S   S43       1.0  0.35598  0.03657  0.52917  1.0000
  H   H154      1.0  0.40070  0.01513  0.50419  1.0000
  H   H155      1.0  0.32652  0.47615  0.56911  1.0000
  Fe  Fe22      1.0  0.47280  0.11647  0.32643  1.0000
  N   N6        1.0  0.31593  0.46135  0.61086  1.0000
  C   C103      1.0  0.28548  0.30389  0.32572  1.0000
  H   H156      1.0  0.33308  0.43182  0.58864  1.0000
  H   H157      1.0  0.31571  0.04996  0.41697  1.0000
  C   C104      1.0  0.43091  0.25935  0.33505  1.0000
  H   H158      1.0  0.43145  0.30616  0.32607  1.0000
  Fe  Fe23      1.0  0.36142  0.01106  0.56700  1.0000
  C   C105      1.0  0.36284  0.28839  0.36746  1.0000
  H   H159      1.0  0.35900  0.44900  0.64559  1.0000
  C   C106      1.0  0.29035  0.45802  0.63167  1.0000
  H   H160      1.0  0.29240  0.20043  0.35328  1.0000
  C   C107      1.0  0.49642  0.05774  0.59624  1.0000
  H   H161      1.0  0.38178  0.28427  0.35684  1.0000
  C   C108      1.0  0.32118  0.00636  0.40745  1.0000
  H   H162      1.0  0.48411  0.47930  0.35492  1.0000
  H   H163      1.0  0.31631  0.41473  0.62023  1.0000
  H   H164      1.0  0.18469  0.35146  0.48574  1.0000
  H   H165      1.0  0.42449  0.11447  0.64868  1.0000
  C   C109      1.0  0.35170  0.48494  0.62035  1.0000
  H   H166      1.0  0.34922  0.46403  0.37995  1.0000
  H   H167      1.0  0.28379  0.46070  0.57841  1.0000
  H   H168      1.0  0.34590  0.23140  0.63426  1.0000
  C   C110      1.0  0.35678  0.37702  0.64028  1.0000
  H   H169      1.0  0.33535  0.22752  0.34432  1.0000
  H   H170      1.0  0.39973  0.34377  0.63140  1.0000
  H   H171      1.0  0.33821  0.01934  0.35450  1.0000
  H   H172      1.0  0.00874  0.45008  0.60366  1.0000
  H   H173      1.0  0.23289  0.47773  0.52640  1.0000
  H   H174      1.0  0.29883  0.48293  0.64171  1.0000
  S   S44       1.0  0.10990  0.49018  0.42516  1.0000
  H   H175      1.0  0.28283  0.02015  0.39556  1.0000
  H   H176      1.0  0.49256  0.03045  0.41846  1.0000
  C   C111      1.0  0.00036  0.38340  0.58707  1.0000
  H   H177      1.0  0.06842  0.47772  0.59506  1.0000
  H   H178      1.0  0.25764  0.40734  0.64892  1.0000
  H   H179      1.0  0.33330  0.35303  0.64132  1.0000
  H   H180      1.0  0.40308  0.49306  0.35560  1.0000
  H   H181      1.0  0.05463  0.48342  0.51796  1.0000
  H   H182      1.0  0.07731  0.48166  0.54636  1.0000
  C   C112      1.0  0.03138  0.48416  0.55588  1.0000
  C   C113      1.0  0.36278  0.47494  0.64630  1.0000
  C   C114      1.0  0.49218  0.02824  0.60845  1.0000
  C   C115      1.0  0.06298  0.49358  0.53857  1.0000
  H   H183      1.0  0.01478  0.49081  0.54410  1.0000
  H   H184      1.0  0.49647  0.05239  0.46093  1.0000
  C   C116      1.0  0.38661  0.31911  0.64215  1.0000
  H   H185      1.0  0.36339  0.31714  0.65086  1.0000
  H   H186      1.0  0.39040  0.49236  0.64929  1.0000
  C   C117      1.0  0.00117  0.42737  0.32866  1.0000
  H   H187      1.0  0.43254  0.32099  0.65188  1.0000
  H   H188      1.0  0.49740  0.38047  0.34155  1.0000
  H   H189      1.0  0.49986  0.08941  0.36451  1.0000
  H   H190      1.0  0.05971  0.49661  0.63921  1.0000
  C   C118      1.0  0.28147  0.43113  0.65389  1.0000
  H   H191      1.0  0.43488  0.31587  0.71243  1.0000
  C   C119      1.0  0.39096  0.16857  0.91472  1.0000
  Fe  Fe24      1.0  0.06438  0.42410  0.91144  1.0000
  H   H192      1.0  0.47059  0.05924  0.95236  1.0000
  H   H193      1.0  0.44887  0.27288  0.67154  1.0000
  Fe  Fe25      1.0  0.12503  0.45808  0.95092  1.0000
  C   C120      1.0  0.35384  0.26103  0.72101  1.0000
  S   S45       1.0  0.35860  0.05033  0.66205  1.0000
  S   S46       1.0  0.08462  0.40391  0.94368  1.0000
  S   S47       1.0  0.02897  0.43020  0.93960  1.0000
  H   H194      1.0  0.31890  0.44424  0.89683  1.0000
  Fe  Fe26      1.0  0.39887  0.07332  0.87935  1.0000
  S   S48       1.0  0.44396  0.12573  0.88090  1.0000
  S   S49       1.0  0.36845  0.04267  0.91576  1.0000
  Fe  Fe27      1.0  0.40410  0.06979  0.81724  1.0000
  S   S50       1.0  0.44957  0.12241  0.81494  1.0000
  S   S51       1.0  0.38699  0.03078  0.78353  1.0000
  Fe  Fe28      1.0  0.46754  0.10631  0.85116  1.0000
  C   C121      1.0  0.45648  0.09373  0.65971  1.0000
  Fe  Fe29      1.0  0.42123  0.13674  0.84462  1.0000
  S   S52       1.0  0.41373  0.18273  0.84863  1.0000
  S   S53       1.0  0.42379  0.05340  0.85197  1.0000
  S   S54       1.0  0.37433  0.08465  0.84466  1.0000
  C   C122      1.0  0.44950  0.12353  0.65848  1.0000
  Fe  Fe30      1.0  0.42484  0.34543  0.77014  1.0000
  S   S55       1.0  0.37334  0.34058  0.76625  1.0000
  S   S56       1.0  0.43484  0.30087  0.76789  1.0000
  Fe  Fe31      1.0  0.46059  0.42318  0.76372  1.0000
  S   S57       1.0  0.41180  0.42325  0.75885  1.0000
  H   H195      1.0  0.00179  0.48350  0.94394  1.0000
  Fe  Fe32      1.0  0.39421  0.38659  0.79343  1.0000
  S   S58       1.0  0.36635  0.39865  0.82574  1.0000
  Fe  Fe33      1.0  0.39570  0.37785  0.73206  1.0000
  S   S59       1.0  0.36509  0.36499  0.69305  1.0000
  S   S60       1.0  0.44417  0.38887  0.79967  1.0000
  S   S61       1.0  0.44599  0.38034  0.73445  1.0000
  S   S62       1.0  0.39689  0.40496  0.95070  1.0000
  C   C123      1.0  0.33967  0.14906  0.94189  1.0000
  C   C124      1.0  0.37777  0.38932  0.66312  1.0000
  C   C125      1.0  0.49259  0.11554  0.70112  1.0000
  H   H196      1.0  0.43237  0.19859  0.94343  1.0000
  H   H197      1.0  0.42452  0.43007  0.67886  1.0000
  C   C126      1.0  0.37762  0.40225  0.86002  1.0000
  C   C127      1.0  0.37348  0.42503  0.87652  1.0000
  C   C128      1.0  0.38068  0.42727  0.90418  1.0000
  C   C129      1.0  0.39067  0.40569  0.91572  1.0000
  C   C130      1.0  0.39567  0.38361  0.89906  1.0000
  C   C131      1.0  0.38940  0.38204  0.87130  1.0000
  H   H198      1.0  0.36484  0.44109  0.86780  1.0000
  H   H199      1.0  0.37855  0.44565  0.91655  1.0000
  H   H200      1.0  0.40383  0.36713  0.90776  1.0000
  H   H201      1.0  0.39263  0.36438  0.85878  1.0000
  C   C132      1.0  0.41938  0.21501  0.82562  1.0000
  C   C133      1.0  0.41126  0.23971  0.83393  1.0000
  C   C134      1.0  0.41559  0.26605  0.81657  1.0000
  C   C135      1.0  0.42825  0.26806  0.79066  1.0000
  C   C136      1.0  0.43623  0.24327  0.78232  1.0000
  C   C137      1.0  0.43180  0.21687  0.79964  1.0000
  H   H202      1.0  0.40167  0.23857  0.85397  1.0000
  H   H203      1.0  0.40937  0.28489  0.82330  1.0000
  H   H204      1.0  0.30670  0.37596  0.90057  1.0000
  H   H205      1.0  0.43821  0.19815  0.79297  1.0000
  C   C138      1.0  0.38140  0.03848  0.74977  1.0000
  C   C139      1.0  0.37449  0.06403  0.74249  1.0000
  C   C140      1.0  0.36760  0.06746  0.71549  1.0000
  C   C141      1.0  0.36780  0.04555  0.69563  1.0000
  C   C142      1.0  0.37548  0.02052  0.70286  1.0000
  H   H206      1.0  0.43948  0.44405  0.83301  1.0000
  H   H207      1.0  0.37369  0.08063  0.75773  1.0000
  H   H208      1.0  0.36178  0.08696  0.71002  1.0000
  H   H209      1.0  0.46762  0.46836  0.80718  1.0000
  H   H210      1.0  0.26863  0.32886  0.87659  1.0000
  C   C143      1.0  0.38366  0.04577  0.94907  1.0000
  C   C144      1.0  0.41609  0.07122  0.95678  1.0000
  C   C145      1.0  0.36237  0.02234  0.96843  1.0000
  H   H211      1.0  0.43272  0.08953  0.94216  1.0000
  C   C146      1.0  0.00666  0.50060  0.87652  1.0000
  S   S63       1.0  0.04976  0.39681  0.87074  1.0000
  C   C147      1.0  0.40811  0.42029  0.66148  1.0000
  H   H212      1.0  0.47881  0.43610  0.88524  1.0000
  H   H213      1.0  0.46386  0.49410  0.76047  1.0000
  H   H214      1.0  0.28272  0.39121  0.88507  1.0000
  H   H215      1.0  0.28452  0.11914  0.93557  1.0000
  S   S64       1.0  0.10716  0.47770  0.91677  1.0000
  H   H216      1.0  0.30021  0.33779  0.93367  1.0000
  H   H217      1.0  0.44903  0.46539  0.87909  1.0000
  H   H218      1.0  0.34998  0.29027  0.68892  1.0000
  H   H219      1.0  0.34419  0.23552  0.71208  1.0000
  H   H220      1.0  0.41826  0.48329  0.83854  1.0000
  H   H221      1.0  0.47252  0.29236  0.70133  1.0000
  C   C148      1.0  0.38278  0.25572  0.66659  1.0000
  H   H222      1.0  0.42909  0.22202  0.91634  1.0000
  C   C149      1.0  0.29730  0.34966  0.95219  1.0000
  H   H223      1.0  0.34698  0.13209  0.87194  1.0000
  H   H224      1.0  0.30081  0.09447  0.95087  1.0000
  N   N7        1.0  0.27347  0.38340  0.92779  1.0000
  C   C150      1.0  0.30349  0.41717  0.93567  1.0000
  C   C151      1.0  0.26887  0.35854  0.94965  1.0000
  C   C152      1.0  0.24296  0.38812  0.92609  1.0000
  C   C153      1.0  0.28104  0.37332  0.90093  1.0000
  C   C154      1.0  0.31135  0.44751  0.91726  1.0000
  H   H225      1.0  0.49815  0.42029  0.86275  1.0000
  H   H226      1.0  0.35097  0.16528  0.96002  1.0000
  H   H227      1.0  0.01661  0.46625  0.81646  1.0000
  H   H228      1.0  0.30008  0.42451  0.95623  1.0000
  H   H229      1.0  0.32692  0.41564  0.93667  1.0000
  H   H230      1.0  0.24516  0.33390  0.94716  1.0000
  H   H231      1.0  0.00230  0.47776  0.86511  1.0000
  C   C155      1.0  0.45601  0.29417  0.68578  1.0000
  C   C156      1.0  0.43854  0.01659  0.91091  1.0000
  C   C157      1.0  0.01542  0.42587  0.79290  1.0000
  H   H232      1.0  0.26616  0.36829  0.96953  1.0000
  H   H233      1.0  0.46302  0.11144  0.73671  1.0000
  C   C158      1.0  0.45712  0.47049  0.82679  1.0000
  H   H234      1.0  0.28998  0.45256  0.91616  1.0000
  C   C159      1.0  0.19298  0.43089  0.97747  1.0000
  H   H235      1.0  0.24448  0.40655  0.94162  1.0000
  H   H236      1.0  0.41593  0.27099  0.71419  1.0000
  H   H237      1.0  0.49045  0.49468  0.89010  1.0000
  C   C160      1.0  0.48302  0.43327  0.86367  1.0000
  C   C161      1.0  0.43438  0.48587  0.82109  1.0000
  H   H238      1.0  0.29705  0.12558  0.96974  1.0000
  H   H239      1.0  0.45551  0.02923  0.89353  1.0000
  C   C162      1.0  0.41386  0.20130  0.93078  1.0000
  H   H240      1.0  0.31370  0.08954  0.87636  1.0000
  S   S65       1.0  0.01439  0.45157  0.68594  1.0000
  H   H241      1.0  0.40809  0.16130  0.90435  1.0000
  H   H242      1.0  0.47771  0.04381  0.84083  1.0000
  H   H243      1.0  0.49806  0.04392  0.96096  1.0000
  S   S66       1.0  0.37104  0.47253  0.97893  1.0000
  H   H244      1.0  0.44621  0.03522  0.69708  1.0000
  H   H245      1.0  0.30150  0.42514  0.65882  1.0000
  H   H246      1.0  0.44612  0.24461  0.76236  1.0000
  H   H247      1.0  0.43868  0.08205  0.71190  1.0000
  H   H248      1.0  0.37941  0.17635  0.89860  1.0000
  C   C163      1.0  0.35846  0.10135  0.97122  1.0000
  N   N8        1.0  0.48912  0.10115  0.67324  1.0000
  H   H249      1.0  0.33567  0.16532  0.92735  1.0000
  H   H250      1.0  0.37611  0.00379  0.68777  1.0000
  H   H251      1.0  0.38248  0.31418  0.71170  1.0000
  H   H252      1.0  0.42085  0.34285  0.67539  1.0000
  H   H253      1.0  0.20328  0.33504  0.91683  1.0000
  C   C164      1.0  0.42507  0.29252  0.69988  1.0000
  H   H254      1.0  0.37143  0.26465  0.73770  1.0000
  C   C165      1.0  0.03185  0.43670  0.84041  1.0000
  H   H255      1.0  0.47181  0.31888  0.67565  1.0000
  C   C166      1.0  0.45968  0.03528  0.67865  1.0000
  C   C167      1.0  0.34730  0.10943  0.91091  1.0000
  S   S67       1.0  0.00053  0.43710  0.76386  1.0000
  N   N9        1.0  0.36391  0.13891  0.93029  1.0000
  H   H256      1.0  0.44220  0.02773  0.66117  1.0000
  C   C168      1.0  0.38227  0.01706  0.72981  1.0000
  C   C169      1.0  0.03717  0.40901  0.84094  1.0000
  H   H257      1.0  0.46814  0.07504  0.73126  1.0000
  C   C170      1.0  0.37063  0.28984  0.70021  1.0000
  H   H258      1.0  0.39618  0.15260  0.96555  1.0000
  Fe  Fe34      1.0  0.05264  0.41462  0.97223  1.0000
  H   H259      1.0  0.48704  0.00373  0.90318  1.0000
  H   H260      1.0  0.39994  0.12411  0.94314  1.0000
  H   H261      1.0  0.39919  0.20975  0.94309  1.0000
  H   H262      1.0  0.28988  0.49191  0.98705  1.0000
  C   C171      1.0  0.32879  0.11427  0.88689  1.0000
  C   C172      1.0  0.42699  0.07315  0.98353  1.0000
  H   H263      1.0  0.32901  0.08542  0.92078  1.0000
  H   H264      1.0  0.27603  0.44058  0.67278  1.0000
  H   H265      1.0  0.32200  0.37189  0.95769  1.0000
  H   H266      1.0  0.34268  0.10810  0.98385  1.0000
  H   H267      1.0  0.31114  0.12309  0.89298  1.0000
  C   C173      1.0  0.46402  0.09438  0.72115  1.0000
  C   C174      1.0  0.41081  0.31882  0.66353  1.0000
  Fe  Fe35      1.0  0.38289  0.43054  0.98359  1.0000
  C   C175      1.0  0.38136  0.13044  0.95212  1.0000
  C   C176      1.0  0.20709  0.46514  0.97065  1.0000
  N   N10       1.0  0.39652  0.28862  0.68206  1.0000
  C   C177      1.0  0.26297  0.47479  0.98441  1.0000
  C   C178      1.0  0.25530  0.33773  0.89021  1.0000
  H   H268      1.0  0.20376  0.34824  0.95131  1.0000
  H   H269      1.0  0.03615  0.45160  0.85843  1.0000
  H   H270      1.0  0.45846  0.41597  0.85404  1.0000
  H   H271      1.0  0.33323  0.47076  0.92578  1.0000
  H   H272      1.0  0.44777  0.13257  0.67879  1.0000
  N   N11       1.0  0.48527  0.48852  0.84702  1.0000
  H   H273      1.0  0.36660  0.10385  0.90240  1.0000
  S   S68       1.0  0.18218  0.48236  0.95844  1.0000
  H   H274      1.0  0.23477  0.33840  0.87873  1.0000
  C   C179      1.0  0.30383  0.12005  0.94966  1.0000
  H   H275      1.0  0.18798  0.36316  0.92520  1.0000
  Fe  Fe36      1.0  0.07316  0.48249  0.94699  1.0000
  H   H276      1.0  0.24416  0.31815  0.90596  1.0000
  H   H277      1.0  0.34989  0.47795  0.66409  1.0000
  C   C180      1.0  0.49223  0.06958  0.67367  1.0000
  C   C181      1.0  0.20772  0.35646  0.93001  1.0000
  H   H278      1.0  0.34253  0.07694  0.96066  1.0000
  H   H279      1.0  0.32866  0.21685  0.66659  1.0000
  C   C182      1.0  0.48342  0.04591  0.94403  1.0000
  H   H280      1.0  0.33199  0.26173  0.73021  1.0000
  H   H281      1.0  0.24239  0.39949  0.90648  1.0000
  H   H282      1.0  0.42921  0.03392  0.91726  1.0000
  C   C183      1.0  0.02087  0.44493  0.81658  1.0000
  C   C184      1.0  0.24221  0.48689  0.97402  1.0000
  H   H283      1.0  0.38283  0.23582  0.67956  1.0000
  H   H284      1.0  0.29077  0.33097  0.96862  1.0000
  H   H285      1.0  0.33718  0.00259  0.96272  1.0000
  H   H286      1.0  0.41657  0.47105  0.80463  1.0000
  N   N12       1.0  0.45746  0.01137  0.93354  1.0000
  H   H287      1.0  0.43395  0.07266  0.66943  1.0000
  H   H288      1.0  0.37478  0.09699  0.98530  1.0000
  H   H289      1.0  0.49784  0.07872  0.90842  1.0000
  H   H290      1.0  0.46650  0.01515  0.68080  1.0000
  H   H291      1.0  0.33573  0.25715  0.65460  1.0000
  C   C185      1.0  0.03187  0.39002  0.81723  1.0000
  C   C186      1.0  0.02125  0.39846  0.79329  1.0000
  H   H292      1.0  0.16619  0.41365  0.97448  1.0000
  C   C187      1.0  0.47158  0.49040  0.87413  1.0000
  S   S69       1.0  0.09432  0.46741  0.98145  1.0000
  H   H293      1.0  0.03621  0.36872  0.81737  1.0000
  H   H294      1.0  0.01774  0.38389  0.77519  1.0000
  H   H295      1.0  0.49630  0.14167  0.70073  1.0000
  C   C188      1.0  0.34630  0.24003  0.65523  1.0000
  C   C189      1.0  0.49222  0.55073  0.20996  1.0000
  Fe  Fe37      1.0  0.09375  0.68095  0.18889  1.0000
  S   S70       1.0  0.04557  0.68188  0.19502  1.0000
  S   S71       1.0  0.09575  0.63230  0.18473  1.0000
  Fe  Fe38      1.0  0.13713  0.75872  0.18445  1.0000
  S   S72       1.0  0.09121  0.76469  0.18981  1.0000
  S   S73       1.0  0.19281  0.80145  0.18479  1.0000
  Fe  Fe39      1.0  0.07573  0.72578  0.22292  1.0000
  S   S74       1.0  0.05663  0.73591  0.26254  1.0000
  Fe  Fe40      1.0  0.06488  0.71993  0.16148  1.0000
  S   S75       1.0  0.02482  0.70972  0.12975  1.0000
  S   S76       1.0  0.12300  0.72223  0.21918  1.0000
  S   S77       1.0  0.11173  0.71674  0.15384  1.0000
  Fe  Fe41      1.0  0.34180  0.96117  0.10632  1.0000
  C   C190      1.0  0.03658  0.56098  0.10475  1.0000
  S   S78       1.0  0.28752  0.91693  0.10152  1.0000
  H   H296      1.0  0.45804  0.50961  0.10312  1.0000
  C   C191      1.0  0.25937  0.97830  0.19963  1.0000
  S   S79       1.0  0.38768  0.97076  0.08190  1.0000
  H   H297      1.0  0.04186  0.74915  0.31573  1.0000
  C   C192      1.0  0.02175  0.65589  0.31455  1.0000
  C   C193      1.0  0.49095  0.55666  0.01198  1.0000
  H   H298      1.0  0.11011  0.55067  0.28571  1.0000
  H   H299      1.0  0.30091  0.95381  0.22056  1.0000
  H   H300      1.0  0.05156  0.62627  0.14132  1.0000
  C   C194      1.0  0.21882  0.83152  0.16021  1.0000
  C   C195      1.0  0.25399  0.85098  0.16486  1.0000
  C   C196      1.0  0.27551  0.87671  0.14688  1.0000
  C   C197      1.0  0.26202  0.88348  0.12407  1.0000
  C   C198      1.0  0.22695  0.86367  0.11920  1.0000
  C   C199      1.0  0.20544  0.83785  0.13714  1.0000
  H   H301      1.0  0.26461  0.84622  0.18260  1.0000
  H   H302      1.0  0.30245  0.89140  0.15076  1.0000
  H   H303      1.0  0.21628  0.86850  0.10153  1.0000
  H   H304      1.0  0.17849  0.82313  0.13330  1.0000
  C   C200      1.0  0.01356  0.78563  0.98960  1.0000
  C   C201      1.0  0.03453  0.67601  0.29131  1.0000
  C   C202      1.0  0.05801  0.56322  0.17941  1.0000
  C   C203      1.0  0.05804  0.59284  0.18739  1.0000
  C   C204      1.0  0.00330  0.69098  0.07788  1.0000
  H   H305      1.0  0.10232  0.50719  0.31252  1.0000
  H   H306      1.0  0.08077  0.56502  0.17107  1.0000
  H   H307      1.0  0.17199  0.51285  0.04031  1.0000
  H   H308      1.0  0.03853  0.66539  0.27315  1.0000
  C   C205      1.0  0.04176  0.70974  0.29153  1.0000
  H   H309      1.0  0.47398  0.50268  0.30497  1.0000
  C   C206      1.0  0.02879  0.53120  0.18245  1.0000
  C   C207      1.0  0.45733  0.50283  0.08167  1.0000
  C   C208      1.0  0.04016  0.70226  0.03942  1.0000
  C   C209      1.0  0.03144  0.70636  0.09518  1.0000
  C   C210      1.0  0.06393  0.71898  0.08457  1.0000
  C   C211      1.0  0.06826  0.71733  0.05674  1.0000
  H   H310      1.0  0.08579  0.73095  0.09768  1.0000
  H   H311      1.0  0.09357  0.72822  0.04856  1.0000
  H   H312      1.0  0.17525  0.57988  0.00585  1.0000
  H   H313      1.0  0.02651  0.63851  0.07187  1.0000
  H   H314      1.0  0.42421  0.97890  0.99784  1.0000
  C   C212      1.0  0.25394  0.96685  0.15006  1.0000
  S   S80       1.0  0.37085  0.97878  0.14509  1.0000
  H   H315      1.0  0.20854  0.96376  0.21450  1.0000
  C   C213      1.0  0.09339  0.59176  0.25142  1.0000
  H   H316      1.0  0.04574  0.56901  0.08408  1.0000
  S   S81       1.0  0.46082  0.98639  0.13266  1.0000
  H   H317      1.0  0.22902  0.91271  0.20407  1.0000
  H   H318      1.0  0.28128  0.91296  0.20349  1.0000
  H   H319      1.0  0.49038  0.50929  0.04898  1.0000
  C   C214      1.0  0.02191  0.61260  0.07659  1.0000
  H   H320      1.0  0.48189  0.80403  0.29020  1.0000
  H   H321      1.0  0.48033  0.56174  0.19697  1.0000
  H   H322      1.0  0.04434  0.61231  0.06838  1.0000
  C   C215      1.0  0.03463  0.80356  0.04867  1.0000
  C   C216      1.0  0.08442  0.64510  0.10703  1.0000
  H   H323      1.0  0.36214  0.99876  0.24533  1.0000
  H   H324      1.0  0.04444  0.82371  0.03331  1.0000
  H   H325      1.0  0.10559  0.59268  0.23192  1.0000
  C   C217      1.0  0.23091  0.91895  0.18231  1.0000
  N   N13       1.0  0.25832  0.95528  0.17736  1.0000
  H   H326      1.0  0.02908  0.50857  0.17629  1.0000
  C   C218      1.0  0.29201  0.95645  0.17715  1.0000
  H   H327      1.0  0.25536  0.95032  0.13409  1.0000
  Fe  Fe42      1.0  0.41726  0.99368  0.11997  1.0000
  N   N14       1.0  0.01857  0.60698  0.10654  1.0000
  H   H328      1.0  0.19347  0.90611  0.15005  1.0000
  H   H329      1.0  0.26126  0.96823  0.21945  1.0000
  C   C219      1.0  0.06050  0.55742  0.25546  1.0000
  H   H330      1.0  0.08695  0.61230  0.25058  1.0000
  H   H331      1.0  0.32493  0.94290  0.19869  1.0000
  H   H332      1.0  0.04475  0.55271  0.23724  1.0000
  H   H333      1.0  0.48053  0.55989  0.30753  1.0000
  H   H334      1.0  0.17726  0.88180  0.17981  1.0000
  S   S82       1.0  0.44982  0.55067  0.01613  1.0000
  H   H335      1.0  0.21815  0.98522  0.18246  1.0000
  H   H336      1.0  0.18526  0.92445  0.17952  1.0000
  C   C220      1.0  0.02847  0.59030  0.19799  1.0000
  H   H337      1.0  0.05738  0.80481  0.05801  1.0000
  C   C221      1.0  0.08533  0.52418  0.23899  1.0000
  C   C222      1.0  0.29966  0.94050  0.20156  1.0000
  N   N15       1.0  0.06462  0.52712  0.26137  1.0000
  C   C223      1.0  0.08238  0.53298  0.28809  1.0000
  C   C224      1.0  0.19483  0.90785  0.17231  1.0000
  C   C225      1.0  0.49900  0.52460  0.30515  1.0000
  C   C226      1.0  0.46800  0.53259  0.23363  1.0000
  H   H338      1.0  0.07346  0.54589  0.30221  1.0000
  H   H339      1.0  0.02832  0.61285  0.20456  1.0000
  H   H340      1.0  0.46444  0.55028  0.24672  1.0000
  H   H341      1.0  0.05841  0.57017  0.11877  1.0000
  H   H342      1.0  0.14520  0.53575  0.00344  1.0000
  H   H343      1.0  0.08760  0.62359  0.10079  1.0000
  H   H344      1.0  0.11078  0.54732  0.23783  1.0000
  H   H345      1.0  0.11170  0.59800  0.26807  1.0000
  H   H346      1.0  0.10514  0.66027  0.12151  1.0000
  H   H347      1.0  0.02092  0.80962  0.06417  1.0000
  H   H348      1.0  0.08828  0.66168  0.08950  1.0000
  H   H349      1.0  0.04891  0.65796  0.12286  1.0000
  S   S83       1.0  0.04693  0.70379  0.00440  1.0000
  C   C227      1.0  0.05000  0.63414  0.12055  1.0000
  H   H350      1.0  0.04661  0.56180  0.27191  1.0000
  H   H351      1.0  0.29436  0.94358  0.15891  1.0000
  H   H352      1.0  0.22856  0.96407  0.14745  1.0000
  H   H353      1.0  0.23737  0.90114  0.17226  1.0000
  C   C228      1.0  0.22880  0.98385  0.20200  1.0000
  C   C229      1.0  0.49597  0.53253  0.99849  1.0000
  C   C230      1.0  0.00758  0.68829  0.05018  1.0000
  H   H354      1.0  0.01459  0.50206  0.30197  1.0000
  H   H355      1.0  0.07288  0.52206  0.21926  1.0000
  H   H356      1.0  0.44765  0.51733  0.07050  1.0000
  H   H357      1.0  0.49199  0.53014  0.19767  1.0000
  H   H358      1.0  0.06309  0.79101  0.00039  1.0000
  H   H359      1.0  0.02341  0.53278  0.10411  1.0000
  C   C231      1.0  0.01169  0.76757  0.03706  1.0000
  H   H360      1.0  0.31329  0.98303  0.17596  1.0000
  H   H361      1.0  0.46684  0.99360  0.98761  1.0000
  C   C232      1.0  0.03625  0.72307  0.31533  1.0000
  H   H362      1.0  0.02335  0.81328  0.99238  1.0000
  H   H363      1.0  0.47979  0.85555  0.31982  1.0000
  H   H364      1.0  0.01119  0.56979  0.13665  1.0000
  H   H365      1.0  0.44261  0.51402  0.22548  1.0000
  H   H366      1.0  0.47635  0.51775  0.24580  1.0000
  H   H367      1.0  0.02746  0.75561  0.03350  1.0000
  H   H368      1.0  0.01600  0.62978  0.31403  1.0000
  H   H369      1.0  0.47476  0.51067  0.98932  1.0000
  H   H370      1.0  0.00521  0.62833  0.15729  1.0000
  H   H371      1.0  0.47943  0.99780  0.31183  1.0000
  C   C233      1.0  0.49274  0.51278  0.07099  1.0000
  C   C234      1.0  0.01145  0.57202  0.11440  1.0000
  H   H372      1.0  0.48229  0.60363  0.22323  1.0000
  H   H373      1.0  0.48446  0.80507  0.25452  1.0000
  H   H374      1.0  0.47681  0.85221  0.27297  1.0000
  C   C235      1.0  0.49786  0.81898  0.27306  1.0000
  C   C236      1.0  0.07784  0.50130  0.30317  1.0000
  H   H375      1.0  0.24238  0.63950  0.99689  1.0000
  H   H376      1.0  0.13580  0.56518  0.98769  1.0000
  C   C237      1.0  0.15659  0.56001  0.99221  1.0000
  S   S84       1.0  0.09205  0.54552  0.47799  1.0000
  H   H377      1.0  0.35589  0.51076  0.62453  1.0000
  H   H378      1.0  0.21238  0.90151  0.57727  1.0000
  C   C238      1.0  0.43909  0.50335  0.41879  1.0000
  S   S85       1.0  0.00565  0.71530  0.61855  1.0000
  S   S86       1.0  0.01300  0.64658  0.44428  1.0000
  H   H379      1.0  0.30758  0.94432  0.41692  1.0000
  C   C239      1.0  0.05483  0.54842  0.47941  1.0000
  C   C240      1.0  0.04691  0.53652  0.38121  1.0000
  H   H380      1.0  0.48283  0.57463  0.41705  1.0000
  H   H381      1.0  0.05763  0.60232  0.37450  1.0000
  C   C241      1.0  0.05747  0.58038  0.47775  1.0000
  C   C242      1.0  0.03716  0.53207  0.58429  1.0000
  Fe  Fe43      1.0  0.04162  0.71753  0.65077  1.0000
  S   S87       1.0  0.03943  0.71819  0.49481  1.0000
  C   C243      1.0  0.06937  0.50260  0.59564  1.0000
  H   H382      1.0  0.10308  0.51925  0.63010  1.0000
  Fe  Fe44      1.0  0.32689  0.94708  0.60272  1.0000
  N   N16       1.0  0.43749  0.51047  0.38949  1.0000
  S   S88       1.0  0.28620  0.89084  0.60515  1.0000
  H   H383      1.0  0.05996  0.51473  0.41537  1.0000
  H   H384      1.0  0.46443  0.52138  0.42723  1.0000
  S   S89       1.0  0.36627  0.96427  0.56980  1.0000
  S   S90       1.0  0.45312  0.54359  0.48109  1.0000
  Fe  Fe45      1.0  0.40436  0.99274  0.60248  1.0000
  H   H385      1.0  0.07361  0.55920  0.41959  1.0000
  H   H386      1.0  0.08221  0.60294  0.47630  1.0000
  C   C244      1.0  0.24910  0.87092  0.62519  1.0000
  H   H387      1.0  0.49668  0.98875  0.39174  1.0000
  C   C245      1.0  0.06660  0.56204  0.56965  1.0000
  H   H388      1.0  0.00916  0.58088  0.35000  1.0000
  H   H389      1.0  0.09212  0.79809  0.63563  1.0000
  C   C246      1.0  0.02875  0.71509  0.52908  1.0000
  H   H390      1.0  0.47219  0.52647  0.35592  1.0000
  C   C247      1.0  0.04356  0.71358  0.57590  1.0000
  C   C248      1.0  0.05069  0.71421  0.54838  1.0000
  H   H391      1.0  0.06016  0.71207  0.59057  1.0000
  H   H392      1.0  0.07310  0.71371  0.54196  1.0000
  H   H393      1.0  0.49772  0.57709  0.38279  1.0000
  C   C249      1.0  0.32343  0.95469  0.39858  1.0000
  H   H394      1.0  0.02023  0.71384  0.35687  1.0000
  H   H395      1.0  0.48948  0.52163  0.38637  1.0000
  H   H396      1.0  0.09540  0.54590  0.39712  1.0000
  C   C250      1.0  0.23150  0.83531  0.62758  1.0000
  H   H397      1.0  0.37788  0.97467  0.39018  1.0000
  H   H398      1.0  0.06359  0.82054  0.56694  1.0000
  C   C251      1.0  0.17033  0.85007  0.58209  1.0000
  C   C252      1.0  0.34506  0.97879  0.34101  1.0000
  S   S91       1.0  0.31920  0.99184  0.59772  1.0000
  C   C253      1.0  0.07001  0.53935  0.40487  1.0000
  C   C254      1.0  0.02821  0.58331  0.47701  1.0000
  C   C255      1.0  0.49358  0.54736  0.48195  1.0000
  H   H399      1.0  0.37098  0.99180  0.33234  1.0000
  H   H400      1.0  0.47204  0.55081  0.54635  1.0000
  H   H401      1.0  0.04152  0.62019  0.39774  1.0000
  H   H402      1.0  0.07109  0.60891  0.40926  1.0000
  H   H403      1.0  0.03078  0.60807  0.47540  1.0000
  N   N17       1.0  0.13252  0.82821  0.58622  1.0000
  H   H404      1.0  0.06528  0.55763  0.54769  1.0000
  C   C256      1.0  0.12545  0.79282  0.59238  1.0000
  C   C257      1.0  0.12264  0.84231  0.60986  1.0000
  C   C258      1.0  0.11527  0.82966  0.56084  1.0000
  H   H405      1.0  0.18433  0.84572  0.59836  1.0000
  C   C259      1.0  0.13560  0.77562  0.57044  1.0000
  H   H406      1.0  0.12070  0.86481  0.60379  1.0000
  C   C260      1.0  0.07643  0.80694  0.55925  1.0000
  H   H407      1.0  0.01372  0.52895  0.57485  1.0000
  H   H408      1.0  0.43696  0.55064  0.36648  1.0000
  H   H409      1.0  0.09836  0.77522  0.59666  1.0000
  H   H410      1.0  0.13876  0.79304  0.61121  1.0000
  H   H411      1.0  0.18136  0.89917  0.60014  1.0000
  H   H412      1.0  0.09184  0.52000  0.58354  1.0000
  H   H413      1.0  0.12032  0.85591  0.55744  1.0000
  H   H414      1.0  0.12630  0.82448  0.54272  1.0000
  C   C261      1.0  0.02320  0.62088  0.53603  1.0000
  H   H415      1.0  0.31490  0.93221  0.38521  1.0000
  S   S92       1.0  0.09331  0.72483  0.64327  1.0000
  H   H416      1.0  0.12714  0.74912  0.57667  1.0000
  H   H417      1.0  0.12315  0.77411  0.55098  1.0000
  H   H418      1.0  0.16347  0.78836  0.56789  1.0000
  C   C262      1.0  0.00796  0.55727  0.34258  1.0000
  H   H419      1.0  0.02390  0.56323  0.42560  1.0000
  C   C263      1.0  0.01521  0.71536  0.58429  1.0000
  H   H420      1.0  0.07921  0.54038  0.62765  1.0000
  H   H421      1.0  0.06648  0.78268  0.56991  1.0000
  H   H422      1.0  0.06872  0.79952  0.53801  1.0000
  H   H423      1.0  0.06461  0.58514  0.57283  1.0000
  C   C264      1.0  0.25315  0.94530  0.39283  1.0000
  C   C265      1.0  0.20164  0.81831  0.64300  1.0000
  C   C266      1.0  0.07777  0.51555  0.62482  1.0000
  H   H424      1.0  0.34042  0.95357  0.34728  1.0000
  H   H425      1.0  0.06706  0.80571  0.61154  1.0000
  H   H426      1.0  0.04172  0.51349  0.36944  1.0000
  C   C267      1.0  0.01926  0.56584  0.40413  1.0000
  C   C268      1.0  0.02387  0.70307  0.33868  1.0000
  N   N18       1.0  0.01408  0.53485  0.38885  1.0000
  H   H427      1.0  0.09170  0.56802  0.57755  1.0000
  H   H428      1.0  0.17843  0.84314  0.56316  1.0000
  C   C269      1.0  0.49761  0.51890  0.48005  1.0000
  H   H429      1.0  0.08043  0.52119  0.53678  1.0000
  H   H430      1.0  0.18860  0.79094  0.64482  1.0000
  H   H431      1.0  0.17356  0.89615  0.56421  1.0000
  H   H432      1.0  0.22899  0.93524  0.38149  1.0000
  H   H433      1.0  0.24112  0.82078  0.61747  1.0000
  C   C270      1.0  0.04919  0.60068  0.39546  1.0000
  H   H434      1.0  0.06248  0.55799  0.36771  1.0000
  H   H435      1.0  0.14264  0.85156  0.62567  1.0000
  H   H436      1.0  0.37173  0.50692  0.39117  1.0000
  H   H437      1.0  0.25331  0.92315  0.40187  1.0000
  H   H438      1.0  0.08453  0.83239  0.64024  1.0000
  C   C271      1.0  0.46594  0.51025  0.37407  1.0000
  H   H439      1.0  0.42333  0.54806  0.40033  1.0000
  H   H440      1.0  0.03686  0.54034  0.60530  1.0000
  H   H441      1.0  0.04117  0.61129  0.53364  1.0000
  H   H442      1.0  0.34412  0.53183  0.58860  1.0000
  S   S93       1.0  0.36570  0.97167  0.63548  1.0000
  C   C272      1.0  0.00709  0.61206  0.56431  1.0000
  C   C273      1.0  0.02271  0.51957  0.48199  1.0000
  C   C274      1.0  0.08956  0.81789  0.62472  1.0000
  C   C275      1.0  0.44193  0.54562  0.38741  1.0000
  H   H443      1.0  0.30685  0.99309  0.42584  1.0000
  C   C276      1.0  0.28302  0.96452  0.37328  1.0000
  C   C277      1.0  0.20648  0.87241  0.65367  1.0000
  H   H444      1.0  0.24934  0.91676  0.63625  1.0000
  N   N19       1.0  0.31773  0.98147  0.38587  1.0000
  C   C278      1.0  0.18460  0.88882  0.58088  1.0000
  H   H445      1.0  0.03299  0.56254  0.33511  1.0000
  H   H446      1.0  0.47697  0.59967  0.39267  1.0000
  H   H447      1.0  0.42155  0.50830  0.43101  1.0000
  H   H448      1.0  0.25268  0.96191  0.40894  1.0000
  H   H449      1.0  0.28067  0.94565  0.35787  1.0000
  H   H450      1.0  0.36927  0.98723  0.42245  1.0000
  C   C279      1.0  0.47477  0.53109  0.55727  1.0000
  C   C280      1.0  0.23632  0.88941  0.63824  1.0000
  H   H451      1.0  0.03733  0.64879  0.53296  1.0000
  C   C281      1.0  0.01634  0.66927  0.33835  1.0000
  H   H452      1.0  0.36095  0.94500  0.41707  1.0000
  H   H453      1.0  0.30658  0.51859  0.56956  1.0000
  C   C282      1.0  0.36012  0.96652  0.40739  1.0000
  C   C283      1.0  0.47707  0.57551  0.39554  1.0000
  H   H454      1.0  0.30353  0.51632  0.60537  1.0000
  H   H455      1.0  0.02157  0.63558  0.57651  1.0000
  C   C284      1.0  0.31664  0.51290  0.58794  1.0000
  H   H456      1.0  0.45669  0.50651  0.54768  1.0000
  S   S94       1.0  0.45245  0.99074  0.60944  1.0000
  H   H457      1.0  0.48878  0.98368  0.55665  1.0000
  H   H458      1.0  0.46688  0.52974  0.57849  1.0000
  H   H459      1.0  0.00886  0.50696  0.42554  1.0000
  H   H460      1.0  0.27884  0.98321  0.36201  1.0000
  H   H461      1.0  0.01322  0.59369  0.57383  1.0000
  H   H462      1.0  0.32668  0.97534  0.32495  1.0000
  H   H463      1.0  0.00466  0.60971  0.51948  1.0000
  C   C285      1.0  0.34346  0.00052  0.36428  1.0000
  S   S95       1.0  0.07419  0.53252  0.95095  1.0000
  H   H464      1.0  0.26181  0.92974  0.68694  1.0000
  Fe  Fe46      1.0  0.07836  0.68423  0.67465  1.0000
  S   S96       1.0  0.02549  0.67439  0.67940  1.0000
  C   C286      1.0  0.19361  0.55242  0.90847  1.0000
  Fe  Fe47      1.0  0.10974  0.76127  0.67815  1.0000
  S   S97       1.0  0.05815  0.75577  0.68415  1.0000
  C   C287      1.0  0.49925  0.98888  0.94026  1.0000
  Fe  Fe48      1.0  0.04695  0.71307  0.71268  1.0000
  H   H465      1.0  0.30302  0.92614  0.77659  1.0000
  H   H466      1.0  0.45398  0.96563  0.91673  1.0000
  S   S98       1.0  0.09973  0.72120  0.70940  1.0000
  H   H467      1.0  0.21073  0.85860  0.71412  1.0000
  C   C288      1.0  0.04374  0.69035  0.79362  1.0000
  H   H468      1.0  0.04063  0.53517  0.84738  1.0000
  H   H469      1.0  0.49939  0.53761  0.82887  1.0000
  C   C289      1.0  0.05830  0.61102  0.90109  1.0000
  C   C290      1.0  0.05930  0.59859  0.83034  1.0000
  C   C291      1.0  0.21769  0.88193  0.72588  1.0000
  C   C292      1.0  0.01632  0.53008  0.85663  1.0000
  H   H470      1.0  0.30581  0.95337  0.68959  1.0000
  C   C293      1.0  0.05590  0.57012  0.67083  1.0000
  S   S99       1.0  0.02372  0.67157  0.87360  1.0000
  H   H471      1.0  0.33736  0.94471  0.72106  1.0000
  N   N20       1.0  0.01922  0.56206  0.86846  1.0000
  C   C294      1.0  0.49330  0.54863  0.76408  1.0000
  H   H472      1.0  0.14292  0.59129  0.94844  1.0000
  C   C295      1.0  0.30790  0.89534  0.67968  1.0000
  H   H473      1.0  0.25407  0.87654  0.74981  1.0000
  H   H474      1.0  0.19161  0.62500  0.97579  1.0000
  H   H475      1.0  0.30291  0.87245  0.66794  1.0000
  H   H476      1.0  0.41947  0.96360  0.95125  1.0000
  H   H477      1.0  0.05736  0.62928  0.88710  1.0000
  H   H478      1.0  0.38843  0.96948  0.91491  1.0000
  H   H479      1.0  0.02738  0.50650  0.89104  1.0000
  H   H480      1.0  0.21319  0.55215  0.89536  1.0000
  C   C296      1.0  0.02820  0.53696  0.66856  1.0000
  C   C297      1.0  0.48897  0.51581  0.76252  1.0000
  H   H481      1.0  0.18240  0.61002  0.89492  1.0000
  H   H482      1.0  0.26479  0.96138  0.73501  1.0000
  C   C298      1.0  0.28251  0.94052  0.70212  1.0000
  H   H483      1.0  0.47522  0.53446  0.89533  1.0000
  H   H484      1.0  0.41577  0.96742  0.88932  1.0000
  H   H485      1.0  0.41119  0.99747  0.95570  1.0000
  H   H486      1.0  0.08159  0.61048  0.84388  1.0000
  C   C299      1.0  0.04769  0.57604  0.88866  1.0000
  H   H487      1.0  0.08041  0.57401  0.67683  1.0000
  H   H488      1.0  0.01925  0.56624  0.71834  1.0000
  H   H489      1.0  0.39503  0.99129  0.88415  1.0000
  H   H490      1.0  0.32110  0.90566  0.73835  1.0000
  H   H491      1.0  0.14389  0.60946  0.90227  1.0000
  H   H492      1.0  0.25348  0.51339  0.96867  1.0000
  H   H493      1.0  0.05729  0.79526  0.96550  1.0000
  C   C300      1.0  0.04419  0.78096  0.98388  1.0000
  H   H494      1.0  0.17489  0.55376  0.89513  1.0000
  C   C301      1.0  0.02008  0.59281  0.65825  1.0000
  H   H495      1.0  0.25550  0.87461  0.68834  1.0000
  H   H496      1.0  0.30853  0.91378  0.66490  1.0000
  H   H497      1.0  0.33312  0.90542  0.68919  1.0000
  H   H498      1.0  0.18153  0.63941  0.91924  1.0000
  H   H499      1.0  0.22496  0.60633  0.91563  1.0000
  C   C302      1.0  0.02715  0.62277  0.73282  1.0000
  H   H500      1.0  0.08520  0.62323  0.90757  1.0000
  C   C303      1.0  0.16774  0.61306  0.91134  1.0000
  H   H501      1.0  0.02405  0.64500  0.73735  1.0000
  H   H502      1.0  0.03037  0.62278  0.71071  1.0000
  H   H503      1.0  0.06407  0.69447  0.78017  1.0000
  S   S100      1.0  0.15217  0.81700  0.67658  1.0000
  C   C304      1.0  0.46113  0.51768  0.87813  1.0000
  H   H504      1.0  0.21495  0.90047  0.71334  1.0000
  H   H505      1.0  0.46526  0.53405  0.86059  1.0000
  C   C305      1.0  0.28102  0.96951  0.71701  1.0000
  H   H506      1.0  0.06704  0.68239  0.82848  1.0000
  C   C306      1.0  0.27916  0.88518  0.70032  1.0000
  C   C307      1.0  0.00410  0.56159  0.73699  1.0000
  C   C308      1.0  0.43206  0.99139  0.95534  1.0000
  H   H507      1.0  0.15391  0.53302  0.95612  1.0000
  H   H508      1.0  0.34579  0.95552  0.76829  1.0000
  H   H509      1.0  0.04262  0.60820  0.91893  1.0000
  C   C309      1.0  0.25335  0.89716  0.73835  1.0000
  C   C310      1.0  0.31586  0.92658  0.73381  1.0000
  S   S101      1.0  0.01166  0.64346  0.94407  1.0000
  C   C311      1.0  0.04533  0.68349  0.82105  1.0000
  S   S102      1.0  0.08684  0.63945  0.67097  1.0000
  C   C312      1.0  0.06142  0.63098  0.74537  1.0000
  H   H510      1.0  0.47141  0.55191  0.76315  1.0000
  H   H511      1.0  0.18128  0.52802  0.91936  1.0000
  H   H512      1.0  0.31395  0.96552  0.75969  1.0000
  C   C313      1.0  0.05189  0.59821  0.66607  1.0000
  N   N21       1.0  0.28264  0.91307  0.71893  1.0000
  H   H513      1.0  0.48860  0.60179  0.96953  1.0000
  H   H514      1.0  0.27711  0.86337  0.71199  1.0000
  H   H515      1.0  0.00467  0.57452  0.83087  1.0000
  H   H516      1.0  0.25498  0.91539  0.75389  1.0000
  C   C314      1.0  0.31929  0.94441  0.76100  1.0000
  H   H517      1.0  0.06535  0.58673  0.96990  1.0000
  H   H518      1.0  0.06209  0.63529  0.76730  1.0000
  H   H519      1.0  0.06834  0.61138  0.74070  1.0000
  H   H520      1.0  0.08169  0.65499  0.73652  1.0000
  H   H521      1.0  0.01529  0.59393  0.97327  1.0000
  H   H522      1.0  0.03175  0.51584  0.67273  1.0000
  C   C315      1.0  0.00477  0.50756  0.95043  1.0000
  H   H523      1.0  0.19867  0.87415  0.74222  1.0000
  H   H524      1.0  0.48713  0.99485  0.84252  1.0000
  H   H525      1.0  0.38832  0.99773  0.73526  1.0000
  H   H526      1.0  0.01685  0.61425  0.65421  1.0000
  H   H527      1.0  0.43378  0.50522  0.88334  1.0000
  N   N22       1.0  0.18774  0.58634  0.94768  1.0000
  H   H528      1.0  0.23086  0.58029  0.93861  1.0000
  C   C316      1.0  0.01624  0.69274  0.78384  1.0000
  H   H529      1.0  0.04084  0.55851  0.90594  1.0000
  C   C317      1.0  0.01963  0.67910  0.83909  1.0000
  H   H530      1.0  0.30677  0.99021  0.72250  1.0000
  H   H531      1.0  0.07076  0.57665  0.88060  1.0000
  H   H532      1.0  0.44846  0.51245  0.81405  1.0000
  C   C318      1.0  0.02578  0.58632  0.84567  1.0000
  C   C319      1.0  0.04054  0.56570  0.96492  1.0000
  S   S103      1.0  0.01277  0.70171  0.74959  1.0000
  C   C320      1.0  0.21086  0.58292  0.92788  1.0000
  C   C321      1.0  0.40785  0.98403  0.89950  1.0000
  C   C322      1.0  0.03708  0.53470  0.95650  1.0000
  C   C323      1.0  0.01221  0.57006  0.96637  1.0000
  H   H533      1.0  0.05926  0.57790  0.81848  1.0000
  H   H534      1.0  0.03630  0.75405  0.98007  1.0000
  H   H535      1.0  0.06254  0.61852  0.81589  1.0000
  H   H536      1.0  0.14077  0.56117  0.92491  1.0000
  H   H537      1.0  0.19299  0.55003  0.97273  1.0000
  H   H538      1.0  0.48719  0.97380  0.95843  1.0000
  C   C324      1.0  0.47359  0.99200  0.92225  1.0000
  C   C325      1.0  0.15848  0.58654  0.93375  1.0000
  Fe  Fe49      1.0  0.00470  0.67610  0.97392  1.0000
  C   C326      1.0  0.18903  0.83680  0.65622  1.0000
  H   H539      1.0  0.01225  0.59561  0.78307  1.0000
  H   H540      1.0  0.02012  0.56072  0.75347  1.0000
  H   H541      1.0  0.02591  0.60964  0.85242  1.0000
  H   H542      1.0  0.26944  0.98033  0.70354  1.0000
  C   C327      1.0  0.17342  0.55640  0.96650  1.0000
  H   H543      1.0  0.21892  0.64109  0.94836  1.0000
  H   H544      1.0  0.19678  0.88694  0.66365  1.0000
  C   C328      1.0  0.20797  0.61941  0.96259  1.0000
  H   H545      1.0  0.26187  0.63488  0.96674  1.0000
  C   C329      1.0  0.23842  0.62316  0.97906  1.0000
  H   H546      1.0  0.23463  0.59887  0.98705  1.0000
  C   C330      1.0  0.44494  0.99724  0.98464  1.0000
  C   C331      1.0  0.56104  0.02088  0.21625  1.0000
  S   S104      1.0  0.94354  0.39832  0.22436  1.0000
  H   H547      1.0  0.52651  0.09358  0.25483  1.0000
  C   C332      1.0  0.61366  0.03476  0.24135  1.0000
  S   S105      1.0  0.94872  0.40849  0.15882  1.0000
  Fe  Fe50      1.0  0.96799  0.44173  0.19536  1.0000
  C   C333      1.0  0.57766  0.07076  0.02482  1.0000
  Fe  Fe51      1.0  0.92814  0.36444  0.18757  1.0000
  S   S106      1.0  0.87227  0.32249  0.18625  1.0000
  H   H548      1.0  0.60547  0.00731  0.24000  1.0000
  S   S107      1.0  0.70230  0.06703  0.29948  1.0000
  Fe  Fe52      1.0  0.65508  0.11140  0.13154  1.0000
  S   S108      1.0  0.64765  0.06039  0.12168  1.0000
  S   S109      1.0  0.60919  0.11388  0.14675  1.0000
  Fe  Fe53      1.0  0.73093  0.14611  0.11764  1.0000
  S   S110      1.0  0.72657  0.09578  0.10634  1.0000
  S   S111      1.0  0.78519  0.19081  0.11351  1.0000
  Fe  Fe54      1.0  0.67851  0.08431  0.08472  1.0000
  S   S112      1.0  0.64949  0.05202  0.04823  1.0000
  Fe  Fe55      1.0  0.69581  0.07714  0.14415  1.0000
  S   S113      1.0  0.69671  0.04015  0.17397  1.0000
  S   S114      1.0  0.68435  0.13558  0.09365  1.0000
  S   S115      1.0  0.70209  0.12737  0.15641  1.0000
  C   C334      1.0  0.53841  0.11451  0.24010  1.0000
  C   C335      1.0  0.53952  0.08249  0.14566  1.0000
  C   C336      1.0  0.56786  0.07832  0.14282  1.0000
  C   C337      1.0  0.56263  0.04586  0.13738  1.0000
  C   C338      1.0  0.52972  0.01791  0.13522  1.0000
  H   H549      1.0  0.54322  0.10746  0.14986  1.0000
  H   H550      1.0  0.58369  0.04185  0.13485  1.0000
  C   C339      1.0  0.70014  0.05897  0.26473  1.0000
  C   C340      1.0  0.68773  0.02610  0.25462  1.0000
  C   C341      1.0  0.68714  0.02070  0.22674  1.0000
  C   C342      1.0  0.69806  0.04792  0.20881  1.0000
  C   C343      1.0  0.70974  0.08065  0.21895  1.0000
  C   C344      1.0  0.71128  0.08621  0.24681  1.0000
  H   H551      1.0  0.71784  0.10167  0.20535  1.0000
  H   H552      1.0  0.72047  0.11158  0.25459  1.0000
  C   C345      1.0  0.66280  0.05447  0.01440  1.0000
  H   H553      1.0  0.98112  0.47082  0.28151  1.0000
  H   H554      1.0  0.71435  0.09409  0.02079  1.0000
  H   H555      1.0  0.88915  0.30451  0.09921  1.0000
  C   C346      1.0  0.84881  0.28564  0.16614  1.0000
  C   C347      1.0  0.81328  0.26725  0.16854  1.0000
  C   C348      1.0  0.79343  0.23787  0.15295  1.0000
  C   C349      1.0  0.80891  0.22685  0.13443  1.0000
  C   C350      1.0  0.84447  0.24514  0.13210  1.0000
  C   C351      1.0  0.86437  0.27417  0.14807  1.0000
  H   H556      1.0  0.80101  0.27590  0.18251  1.0000
  H   H557      1.0  0.76613  0.22416  0.15490  1.0000
  H   H558      1.0  0.85669  0.23667  0.11794  1.0000
  H   H559      1.0  0.89169  0.28776  0.14634  1.0000
  H   H560      1.0  0.53786  0.33060  0.24664  1.0000
  H   H561      1.0  0.60680  0.09325  0.08765  1.0000
  C   C352      1.0  0.69591  0.07721  0.00624  1.0000
  H   H562      1.0  0.55794  0.41363  0.25298  1.0000
  H   H563      1.0  0.93859  0.31807  0.07398  1.0000
  Fe  Fe56      1.0  0.99241  0.39779  0.22267  1.0000
  H   H564      1.0  0.97368  0.42895  0.08996  1.0000
  H   H565      1.0  0.94397  0.36992  0.10445  1.0000
  H   H566      1.0  0.82702  0.33474  0.09500  1.0000
  H   H567      1.0  0.56222  0.11592  0.23323  1.0000
  H   H568      1.0  0.55595  0.49336  0.07530  1.0000
  H   H569      1.0  0.58523  0.04244  0.06980  1.0000
  C   C353      1.0  0.55801  0.08804  0.31625  1.0000
  N   N23       1.0  0.55326  0.05686  0.04815  1.0000
  C   C354      1.0  0.55828  0.03136  0.06368  1.0000
  H   H570      1.0  0.61568  0.12070  0.05891  1.0000
  H   H571      1.0  0.88342  0.37933  0.11102  1.0000
  C   C355      1.0  0.91475  0.30968  0.06261  1.0000
  H   H572      1.0  0.88206  0.38540  0.06350  1.0000
  H   H573      1.0  0.59577  0.08787  0.20355  1.0000
  H   H574      1.0  0.57969  0.44495  0.27929  1.0000
  H   H575      1.0  0.54232  0.44033  0.26422  1.0000
  H   H576      1.0  0.53690  0.04942  0.23057  1.0000
  H   H577      1.0  0.55213  0.02235  0.19569  1.0000
  C   C356      1.0  0.84141  0.32875  0.10977  1.0000
  C   C357      1.0  0.53197  0.39994  0.29240  1.0000
  H   H578      1.0  0.94101  0.42278  0.06708  1.0000
  C   C358      1.0  0.51720  0.04246  0.03859  1.0000
  H   H579      1.0  0.60902  0.05480  0.17627  1.0000
  C   C359      1.0  0.64363  0.10837  0.22436  1.0000
  H   H580      1.0  0.54572  0.13895  0.25028  1.0000
  N   N24       1.0  0.50969  0.49452  0.08272  1.0000
  C   C360      1.0  0.88237  0.36149  0.05926  1.0000
  H   H581      1.0  0.52797  0.41486  0.30826  1.0000
  H   H582      1.0  0.51435  0.06236  0.02788  1.0000
  H   H583      1.0  0.62844  0.04741  0.28316  1.0000
  H   H584      1.0  0.64154  0.04737  0.23945  1.0000
  H   H585      1.0  0.88674  0.33979  0.02096  1.0000
  H   H586      1.0  0.60025  0.12860  0.08931  1.0000
  H   H587      1.0  0.67936  0.00499  0.26829  1.0000
  H   H588      1.0  0.65834  0.11051  0.20605  1.0000
  C   C361      1.0  0.53776  0.02619  0.23568  1.0000
  C   C362      1.0  0.61519  0.04285  0.19303  1.0000
  H   H589      1.0  0.58421  0.01753  0.27841  1.0000
  H   H590      1.0  0.89171  0.34878  0.12577  1.0000
  C   C363      1.0  0.93457  0.37598  0.08579  1.0000
  H   H591      1.0  0.53089  0.12811  0.20065  1.0000
  C   C364      1.0  0.52708  0.33979  0.26236  1.0000
  H   H592      1.0  0.83464  0.30181  0.10768  1.0000
  H   H593      1.0  0.50084  0.14735  0.25238  1.0000
  S   S116      1.0  0.52357  0.48003  0.30229  1.0000
  N   N25       1.0  0.54541  0.37860  0.30437  1.0000
  H   H594      1.0  0.86401  0.29914  0.07051  1.0000
  C   C365      1.0  0.52578  0.08433  0.31288  1.0000
  H   H595      1.0  0.92062  0.32214  0.04280  1.0000
  H   H596      1.0  0.58245  0.09651  0.01923  1.0000
  N   N26       1.0  0.89703  0.35182  0.08239  1.0000
  S   S117      1.0  0.96364  0.48881  0.20055  1.0000
  C   C366      1.0  0.53350  0.02664  0.31775  1.0000
  C   C367      1.0  0.51530  0.10823  0.21562  1.0000
  H   H597      1.0  0.85510  0.34233  0.05651  1.0000
  H   H598      1.0  0.99585  0.33995  0.05396  1.0000
  Fe  Fe57      1.0  0.99732  0.40725  0.16107  1.0000
  S   S118      1.0  0.97588  0.36088  0.18761  1.0000
  H   H599      1.0  0.54577  0.07692  0.08561  1.0000
  C   C368      1.0  0.94586  0.41414  0.08649  1.0000
  C   C369      1.0  0.88969  0.31565  0.07927  1.0000
  C   C370      1.0  0.89868  0.36471  0.03149  1.0000
  H   H600      1.0  0.51656  0.35395  0.25193  1.0000
  N   N27       1.0  0.81784  0.17064  0.20579  1.0000
  C   C371      1.0  0.82575  0.20660  0.21072  1.0000
  C   C372      1.0  0.85016  0.17130  0.19819  1.0000
  C   C373      1.0  0.80344  0.14914  0.23054  1.0000
  C   C374      1.0  0.79192  0.15546  0.18362  1.0000
  C   C375      1.0  0.79635  0.21069  0.22174  1.0000
  C   C376      1.0  0.86680  0.18969  0.17172  1.0000
  C   C377      1.0  0.82462  0.16306  0.25644  1.0000
  C   C378      1.0  0.78428  0.12035  0.17311  1.0000
  H   H601      1.0  0.84778  0.22028  0.22452  1.0000
  H   H602      1.0  0.83379  0.22141  0.19181  1.0000
  H   H603      1.0  0.84615  0.14509  0.19696  1.0000
  H   H604      1.0  0.86979  0.18429  0.21400  1.0000
  H   H605      1.0  0.77755  0.14455  0.23483  1.0000
  H   H606      1.0  0.80013  0.12343  0.22740  1.0000
  H   H607      1.0  0.76729  0.15245  0.19019  1.0000
  H   H608      1.0  0.79949  0.17277  0.16614  1.0000
  H   H609      1.0  0.78710  0.19830  0.24146  1.0000
  H   H610      1.0  0.80565  0.23820  0.22477  1.0000
  H   H611      1.0  0.77497  0.20124  0.20734  1.0000
  H   H612      1.0  0.87596  0.21730  0.17301  1.0000
  H   H613      1.0  0.88938  0.18711  0.16776  1.0000
  H   H614      1.0  0.84981  0.17872  0.15411  1.0000
  H   H615      1.0  0.84955  0.16451  0.25477  1.0000
  H   H616      1.0  0.81083  0.14528  0.27313  1.0000
  H   H617      1.0  0.82824  0.18813  0.26247  1.0000
  H   H618      1.0  0.80640  0.12146  0.16288  1.0000
  H   H619      1.0  0.76376  0.11136  0.15793  1.0000
  H   H620      1.0  0.77508  0.10082  0.18903  1.0000
  H   H621      1.0  0.59276  0.08445  0.23864  1.0000
  H   H622      1.0  0.98072  0.41615  0.28825  1.0000
  H   H623      1.0  0.59733  0.41969  0.30787  1.0000
  C   C379      1.0  0.59812  0.10807  0.07589  1.0000
  H   H624      1.0  0.65549  0.10380  0.24208  1.0000
  H   H625      1.0  0.60286  0.07431  0.03055  1.0000
  H   H626      1.0  0.54466  0.02518  0.08309  1.0000
  C   C380      1.0  0.60596  0.08104  0.22133  1.0000
  H   H627      1.0  0.60159  0.06235  0.27276  1.0000
  H   H628      1.0  0.64557  0.13349  0.22733  1.0000
  H   H629      1.0  0.57769  0.38082  0.27144  1.0000
  H   H630      1.0  0.64327  0.05764  0.19457  1.0000
  H   H631      1.0  0.92643  0.37544  0.03217  1.0000
  H   H632      1.0  0.89508  0.38291  0.01909  1.0000
  C   C381      1.0  0.87999  0.35360  0.10790  1.0000
  H   H633      1.0  0.83260  0.33130  0.13001  1.0000
  H   H634      1.0  0.93409  0.42094  0.10298  1.0000
  H   H635      1.0  0.53701  0.49922  0.11972  1.0000
  C   C382      1.0  0.51414  0.49994  0.11277  1.0000
  H   H636      1.0  0.99940  0.35787  0.10173  1.0000
  C   C383      1.0  0.55466  0.42594  0.27106  1.0000
  H   H637      1.0  0.94953  0.37336  0.06944  1.0000
  H   H638      1.0  0.90357  0.28199  0.05898  1.0000
  H   H639      1.0  0.51005  0.02197  0.02360  1.0000
  N   N28       1.0  0.59873  0.04497  0.21874  1.0000
  H   H640      1.0  0.54476  0.02697  0.25698  1.0000
  H   H641      1.0  0.55346  0.10365  0.05742  1.0000
  C   C384      1.0  0.60606  0.04085  0.27029  1.0000
  C   C385      1.0  0.50151  0.02223  0.13706  1.0000
  C   C386      1.0  0.60615  0.00682  0.18374  1.0000
  C   C387      1.0  0.55515  0.36176  0.28279  1.0000
  C   C388      1.0  0.50645  0.05463  0.14243  1.0000
  H   H642      1.0  0.50645  0.38367  0.28334  1.0000
  C   C389      1.0  0.99976  0.41706  0.30171  1.0000
  H   H643      1.0  0.56020  0.02342  0.00103  1.0000
  H   H644      1.0  0.50994  0.08392  0.20595  1.0000
  C   C390      1.0  0.56085  0.08610  0.06683  1.0000
  H   H645      1.0  0.62092  0.00891  0.16542  1.0000
  H   H646      1.0  0.51323  0.16375  0.21982  1.0000
  C   C391      1.0  0.56715  0.05020  0.99841  1.0000
  H   H647      1.0  0.61361  0.01480  0.00128  1.0000
  S   S119      1.0  0.52166  0.12092  0.31086  1.0000
  H   H648      1.0  0.51145  0.00461  0.23344  1.0000
  H   H649      1.0  0.58005  0.11321  0.31741  1.0000
  C   C392      1.0  0.50145  0.02295  0.31321  1.0000
  H   H650      1.0  0.56299  0.34441  0.29177  1.0000
  C   C393      1.0  0.56178  0.05935  0.31914  1.0000
  C   C394      1.0  0.63920  0.03267  0.99517  1.0000
  H   H651      1.0  0.51442  0.44946  0.04070  1.0000
  H   H652      1.0  0.50618  0.31687  0.27191  1.0000
  H   H653      1.0  0.54617  0.05165  0.98848  1.0000
  H   H654      1.0  0.50071  0.44345  0.08770  1.0000
  S   S120      1.0  0.63092  0.04528  0.34822  1.0000
  S   S121      1.0  0.95050  0.39851  0.64654  1.0000
  C   C395      1.0  0.59117  0.38322  0.33755  1.0000
  S   S122      1.0  0.63648  0.04865  0.42240  1.0000
  C   C396      1.0  0.78032  0.19070  0.54511  1.0000
  C   C397      1.0  0.65335  0.05324  0.45526  1.0000
  C   C398      1.0  0.65188  0.07675  0.47286  1.0000
  C   C399      1.0  0.66382  0.08064  0.49946  1.0000
  C   C400      1.0  0.66713  0.03377  0.46452  1.0000
  H   H655      1.0  0.64152  0.09214  0.46584  1.0000
  H   H656      1.0  0.56727  0.06530  0.53483  1.0000
  C   C401      1.0  0.99560  0.37763  0.55918  1.0000
  H   H657      1.0  0.96689  0.45366  0.57077  1.0000
  H   H658      1.0  0.78183  0.23874  0.53928  1.0000
  C   C402      1.0  0.58881  0.06482  0.54467  1.0000
  H   H659      1.0  0.66848  0.01563  0.45121  1.0000
  H   H660      1.0  0.58247  0.06272  0.42814  1.0000
  H   H661      1.0  0.57233  0.15445  0.64999  1.0000
  Fe  Fe58      1.0  0.64384  0.11760  0.60831  1.0000
  S   S123      1.0  0.63999  0.06676  0.60541  1.0000
  S   S124      1.0  0.59747  0.12328  0.60330  1.0000
  Fe  Fe59      1.0  0.72117  0.15519  0.61495  1.0000
  S   S125      1.0  0.72219  0.10617  0.61280  1.0000
  S   S126      1.0  0.77016  0.20661  0.61096  1.0000
  Fe  Fe60      1.0  0.68529  0.09167  0.57843  1.0000
  S   S127      1.0  0.69134  0.06372  0.54245  1.0000
  H   H662      1.0  0.55728  0.08670  0.45591  1.0000
  S   S128      1.0  0.68676  0.14160  0.57871  1.0000
  H   H663      1.0  0.50932  0.02518  0.37138  1.0000
  C   C403      1.0  0.50713  0.07814  0.45217  1.0000
  C   C404      1.0  0.52883  0.08681  0.59487  1.0000
  C   C405      1.0  0.55708  0.08666  0.60587  1.0000
  C   C406      1.0  0.55269  0.05740  0.61859  1.0000
  C   C407      1.0  0.52038  0.02822  0.61970  1.0000
  H   H664      1.0  0.53209  0.10938  0.58498  1.0000
  H   H665      1.0  0.57420  0.05718  0.62748  1.0000
  C   C408      1.0  0.67684  0.06059  0.50892  1.0000
  C   C409      1.0  0.67876  0.03743  0.49123  1.0000
  H   H666      1.0  0.66280  0.09902  0.51267  1.0000
  H   H667      1.0  0.61193  0.08886  0.53902  1.0000
  H   H668      1.0  0.52491  0.33214  0.32770  1.0000
  C   C410      1.0  0.51668  0.01570  0.38909  1.0000
  C   C411      1.0  0.82860  0.26593  0.62404  1.0000
  H   H669      1.0  0.58704  0.06571  0.56670  1.0000
  H   H670      1.0  0.75555  0.12493  0.55936  1.0000
  H   H671      1.0  0.83194  0.26942  0.60258  1.0000
  H   H672      1.0  0.74187  0.11021  0.47780  1.0000
  Fe  Fe61      1.0  0.67671  0.08520  0.63996  1.0000
  C   C412      1.0  0.76073  0.11855  0.49437  1.0000
  H   H673      1.0  0.80219  0.22902  0.51275  1.0000
  C   C413      1.0  0.95892  0.49538  0.41503  1.0000
  H   H674      1.0  0.82037  0.19049  0.49840  1.0000
  N   N29       1.0  0.54390  0.07345  0.41398  1.0000
  S   S129      1.0  0.67114  0.00521  0.36432  1.0000
  H   H675      1.0  0.58665  0.06271  0.32235  1.0000
  H   H676      1.0  0.57314  0.36597  0.35282  1.0000
  H   H677      1.0  0.79758  0.12812  0.59004  1.0000
  H   H678      1.0  0.55449  0.11831  0.43711  1.0000
  H   H679      1.0  0.60949  0.12985  0.39661  1.0000
  C   C414      1.0  0.78205  0.13808  0.55168  1.0000
  C   C415      1.0  0.51876  0.03583  0.41470  1.0000
  C   C416      1.0  0.80566  0.15003  0.57631  1.0000
  H   H680      1.0  0.85627  0.23509  0.52506  1.0000
  C   C417      1.0  0.85289  0.29080  0.64144  1.0000
  H   H681      1.0  0.60962  0.12680  0.43298  1.0000
  C   C418      1.0  0.82131  0.18043  0.51855  1.0000
  H   H682      1.0  0.59471  0.03755  0.51277  1.0000
  H   H683      1.0  0.55918  0.01488  0.58275  1.0000
  H   H684      1.0  0.87461  0.20931  0.52993  1.0000
  H   H685      1.0  0.54629  0.08295  0.37104  1.0000
  H   H686      1.0  0.55650  0.11845  0.39087  1.0000
  H   H687      1.0  0.58212  0.06705  0.39273  1.0000
  H   H688      1.0  0.75313  0.09579  0.50692  1.0000
  C   C419      1.0  0.54242  0.09031  0.43979  1.0000
  H   H689      1.0  0.50074  0.10552  0.39765  1.0000
  H   H690      1.0  0.54052  0.01559  0.38495  1.0000
  H   H691      1.0  0.61743  0.03915  0.54240  1.0000
  C   C420      1.0  0.60899  0.11417  0.41375  1.0000
  H   H692      1.0  0.78574  0.12684  0.48507  1.0000
  H   H693      1.0  0.75544  0.17784  0.55560  1.0000
  H   H694      1.0  0.68911  0.02202  0.49828  1.0000
  C   C421      1.0  0.53894  0.09054  0.38999  1.0000
  C   C422      1.0  0.78033  0.21783  0.52665  1.0000
  H   H695      1.0  0.73408  0.13663  0.51910  1.0000
  H   H696      1.0  0.97032  0.36181  0.55124  1.0000
  H   H697      1.0  0.87462  0.31308  0.63331  1.0000
  H   H698      1.0  0.84843  0.21087  0.55554  1.0000
  H   H699      1.0  0.82851  0.16070  0.51493  1.0000
  C   C423      1.0  0.59250  0.03471  0.53491  1.0000
  H   H700      1.0  0.79891  0.20469  0.56118  1.0000
  C   C424      1.0  0.57879  0.07746  0.41200  1.0000
  H   H701      1.0  0.97879  0.37207  0.60043  1.0000
  H   H702      1.0  0.76177  0.16580  0.49474  1.0000
  C   C425      1.0  0.50762  0.36365  0.34661  1.0000
  H   H703      1.0  0.61388  0.40263  0.34859  1.0000
  H   H704      1.0  0.75633  0.20729  0.51509  1.0000
  C   C426      1.0  0.85114  0.21042  0.53354  1.0000
  H   H705      1.0  0.80417  0.16988  0.58816  1.0000
  H   H706      1.0  0.53305  0.50055  0.47978  1.0000
  H   H707      1.0  0.78570  0.11801  0.54222  1.0000
  N   N30       1.0  0.78682  0.16481  0.53156  1.0000
  C   C427      1.0  0.75990  0.14739  0.51020  1.0000
  H   H708      1.0  0.63290  0.11330  0.41272  1.0000
  H   H709      1.0  0.94982  0.47569  0.43092  1.0000
  H   H710      1.0  0.98319  0.43456  0.33570  1.0000
  S   S130      1.0  0.67787  0.13511  0.64467  1.0000
  H   H711      1.0  0.52454  0.02387  0.43185  1.0000
  H   H712      1.0  0.83218  0.15837  0.57061  1.0000
  H   H713      1.0  0.94062  0.48438  0.39819  1.0000
  Fe  Fe62      1.0  0.63525  0.01889  0.38477  1.0000
  C   C428      1.0  0.79999  0.23677  0.63414  1.0000
  Fe  Fe63      1.0  0.66249  0.02757  0.32679  1.0000
  C   C429      1.0  0.57637  0.40133  0.32091  1.0000
  H   H714      1.0  0.58924  0.00184  0.58037  1.0000
  H   H715      1.0  0.52863  0.37659  0.36121  1.0000
  C   C430      1.0  0.51056  0.00477  0.54603  1.0000
  H   H716      1.0  0.57110  0.41723  0.33497  1.0000
  C   C431      1.0  0.51801  0.35134  0.32134  1.0000
  H   H717      1.0  0.59954  0.36882  0.32477  1.0000
  H   H718      1.0  0.95316  0.44450  0.60469  1.0000
  H   H719      1.0  0.51409  0.11992  0.63491  1.0000
  C   C432      1.0  0.97222  0.46439  0.59137  1.0000
  H   H720      1.0  0.99260  0.48088  0.39657  1.0000
  H   H721      1.0  0.52512  0.02548  0.56045  1.0000
  H   H722      1.0  0.53478  0.00151  0.50977  1.0000
  H   H723      1.0  0.50959  0.09544  0.46892  1.0000
  C   C433      1.0  0.50353  0.08619  0.38604  1.0000
  H   H724      1.0  0.51721  0.00553  0.62932  1.0000
  H   H725      1.0  0.96768  0.48610  0.59271  1.0000
  H   H726      1.0  0.96872  0.49993  0.48272  1.0000
  H   H727      1.0  0.50195  0.06627  0.65412  1.0000
  C   C434      1.0  0.82030  0.25767  0.67938  1.0000
  S   S131      1.0  0.93699  0.41270  0.70817  1.0000
  H   H728      1.0  0.53560  0.00987  0.78289  1.0000
  H   H729      1.0  0.65562  0.00863  0.76472  1.0000
  Fe  Fe64      1.0  0.96459  0.44445  0.67251  1.0000
  H   H730      1.0  0.52532  0.07378  0.78940  1.0000
  Fe  Fe65      1.0  0.92810  0.36708  0.68384  1.0000
  S   S132      1.0  0.87841  0.31767  0.69224  1.0000
  H   H731      1.0  0.52330  0.05868  0.91369  1.0000
  S   S133      1.0  0.64197  0.04939  0.86094  1.0000
  C   C435      1.0  0.50701  0.01969  0.84892  1.0000
  Fe  Fe66      1.0  0.66349  0.02774  0.89009  1.0000
  S   S134      1.0  0.69515  0.05811  0.92625  1.0000
  Fe  Fe67      1.0  0.66338  0.03192  0.82806  1.0000
  S   S135      1.0  0.69067  0.07157  0.79584  1.0000
  S   S136      1.0  0.66277  0.04383  0.67094  1.0000
  C   C436      1.0  0.68482  0.06302  0.76108  1.0000
  C   C437      1.0  0.66592  0.02991  0.75107  1.0000
  H   H732      1.0  0.56133  0.14623  0.68456  1.0000
  C   C438      1.0  0.67269  0.05188  0.70539  1.0000
  C   C439      1.0  0.69197  0.08494  0.71538  1.0000
  C   C440      1.0  0.69822  0.09043  0.74311  1.0000
  H   H733      1.0  0.70200  0.10625  0.70176  1.0000
  H   H734      1.0  0.71307  0.11610  0.75073  1.0000
  C   C441      1.0  0.68167  0.05643  0.95991  1.0000
  H   H735      1.0  0.90587  0.34820  0.81590  1.0000
  H   H736      1.0  0.52687  0.48205  0.86102  1.0000
  H   H737      1.0  0.92894  0.30070  0.72082  1.0000
  H   H738      1.0  0.95161  0.49142  0.94609  1.0000
  C   C442      1.0  0.52696  0.07969  0.85639  1.0000
  C   C443      1.0  0.55828  0.08406  0.86478  1.0000
  C   C444      1.0  0.56384  0.05632  0.86543  1.0000
  C   C445      1.0  0.53823  0.02401  0.85745  1.0000
  C   C446      1.0  0.84885  0.28688  0.66926  1.0000
  H   H739      1.0  0.57819  0.10892  0.87110  1.0000
  H   H740      1.0  0.58772  0.05995  0.87262  1.0000
  H   H741      1.0  0.96992  0.32113  0.79356  1.0000
  H   H742      1.0  0.85713  0.30265  0.79134  1.0000
  H   H743      1.0  0.74906  0.00864  0.93421  1.0000
  C   C447      1.0  0.93160  0.33055  0.75619  1.0000
  H   H744      1.0  0.86863  0.32166  0.75894  1.0000
  H   H745      1.0  0.65555  0.13889  0.80897  1.0000
  H   H746      1.0  0.85730  0.25059  0.77196  1.0000
  N   N31       1.0  0.59681  0.07127  0.76821  1.0000
  H   H747      1.0  0.77423  0.21051  0.67009  1.0000
  C   C448      1.0  0.59089  0.04332  0.78754  1.0000
  H   H748      1.0  0.52125  0.01394  0.94553  1.0000
  H   H749      1.0  0.91846  0.27592  0.75024  1.0000
  H   H750      1.0  0.95783  0.35131  0.76077  1.0000
  H   H751      1.0  0.58901  0.06160  0.98436  1.0000
  S   S137      1.0  0.52070  0.11500  0.85635  1.0000
  H   H752      1.0  0.51614  0.11922  0.71084  1.0000
  S   S138      1.0  0.51261  0.47040  0.76425  1.0000
  H   H753      1.0  0.57965  0.03848  0.73291  1.0000
  H   H754      1.0  0.73103  0.09565  0.97307  1.0000
  H   H755      1.0  0.65143  0.10374  0.76955  1.0000
  H   H756      1.0  0.63006  0.01702  0.95344  1.0000
  C   C449      1.0  0.61536  0.08810  0.71868  1.0000
  H   H757      1.0  0.94665  0.36813  0.80086  1.0000
  H   H758      1.0  0.56591  0.11065  0.79658  1.0000
  H   H759      1.0  0.62903  0.12609  0.76604  1.0000
  Fe  Fe68      1.0  0.98657  0.41736  0.72055  1.0000
  C   C450      1.0  0.66004  0.02439  0.72327  1.0000
  C   C451      1.0  0.55285  0.08311  0.79169  1.0000
  C   C452      1.0  0.60295  0.06085  0.74089  1.0000
  H   H760      1.0  0.55701  0.11268  0.66218  1.0000
  C   C453      1.0  0.50145  0.04740  0.84826  1.0000
  H   H761      1.0  0.82925  0.26137  0.75590  1.0000
  H   H762      1.0  0.61883  0.07698  0.69985  1.0000
  H   H763      1.0  0.61328  0.03958  0.78774  1.0000
  H   H764      1.0  0.58870  0.04983  0.80861  1.0000
  H   H765      1.0  0.95890  0.33405  0.82462  1.0000
  C   C454      1.0  0.63397  0.11260  0.80646  1.0000
  C   C455      1.0  0.93504  0.30174  0.74253  1.0000
  H   H766      1.0  0.64138  0.09580  0.81691  1.0000
  H   H767      1.0  0.90660  0.27347  0.79137  1.0000
  H   H768      1.0  0.61189  0.11141  0.81663  1.0000
  C   C456      1.0  0.85649  0.27025  0.75951  1.0000
  H   H769      1.0  0.51124  0.07203  0.68886  1.0000
  C   C457      1.0  0.91907  0.35393  0.79615  1.0000
  H   H770      1.0  0.92283  0.38574  0.76157  1.0000
  H   H771      1.0  0.96171  0.30742  0.74365  1.0000
  C   C458      1.0  0.87271  0.30533  0.77329  1.0000
  C   C459      1.0  0.70529  0.07804  0.97916  1.0000
  C   C460      1.0  0.62824  0.10398  0.77624  1.0000
  C   C461      1.0  0.79604  0.23273  0.66197  1.0000
  H   H772      1.0  0.55453  0.06903  0.80892  1.0000
  H   H773      1.0  0.95298  0.29250  0.82117  1.0000
  C   C462      1.0  0.55388  0.13524  0.66414  1.0000
  H   H774      1.0  0.57283  0.09830  0.75251  1.0000
  C   C463      1.0  0.64848  0.03375  0.96804  1.0000
  H   H775      1.0  0.81681  0.25432  0.70083  1.0000
  S   S139      1.0  0.97704  0.37052  0.69753  1.0000
  H   H776      1.0  0.62199  0.05259  0.74231  1.0000
  C   C464      1.0  0.91471  0.29880  0.79999  1.0000
  H   H777      1.0  0.86754  0.27169  0.73942  1.0000
  C   C465      1.0  0.91179  0.37963  0.78191  1.0000
  C   C466      1.0  0.95134  0.31281  0.81017  1.0000
  H   H778      1.0  0.59678  0.09633  0.71423  1.0000
  H   H779      1.0  0.92237  0.34147  0.74061  1.0000
  H   H780      1.0  0.98286  0.49321  0.88755  1.0000
  H   H781      1.0  0.72804  0.01096  0.97749  1.0000
  H   H782      1.0  0.88426  0.37064  0.78098  1.0000
  H   H783      1.0  0.64044  0.11044  0.72344  1.0000
  H   H784      1.0  0.89821  0.29329  0.81796  1.0000
  H   H785      1.0  0.92383  0.40382  0.79349  1.0000
  H   H786      1.0  0.54515  0.05455  0.75516  1.0000
  C   C467      1.0  0.56667  0.07630  0.76570  1.0000
  N   N32       1.0  0.90965  0.32156  0.78090  1.0000
  C   C468      1.0  0.55918  0.00849  0.78214  1.0000
  S   S140      1.0  0.96067  0.49004  0.65866  1.0000
  C   C469      1.0  0.73352  0.00220  0.91576  1.0000
  S   S141      1.0  0.68921  0.01485  0.85729  1.0000
  H   H787      1.0  0.73683  0.02632  0.90747  1.0000
  H   H788      1.0  0.51053  0.46339  0.82925  1.0000
  C   C470      1.0  0.50965  0.07012  0.92360  1.0000
  H   H789      1.0  0.52896  0.09337  0.93416  1.0000
  H   H790      1.0  0.51859  0.15233  0.65731  1.0000
  C   C471      1.0  0.51785  0.12754  0.65647  1.0000
  C   C472      1.0  0.50293  0.46800  0.84946  1.0000
  Fe  Fe69      1.0  0.99970  0.40464  0.66144  1.0000
  H   H791      1.0  0.99492  0.75240  0.05383  1.0000
  Fe  Fe70      1.0  0.62697  0.74876  0.28171  1.0000
  S   S142      1.0  0.67388  0.74596  0.27112  1.0000
  S   S143      1.0  0.63103  0.80081  0.27623  1.0000
  Fe  Fe71      1.0  0.58764  0.67286  0.29564  1.0000
  S   S144      1.0  0.63205  0.66662  0.28668  1.0000
  H   H792      1.0  0.53336  0.60622  0.18162  1.0000
  H   H793      1.0  0.51200  0.86505  0.25210  1.0000
  Fe  Fe72      1.0  0.63868  0.69698  0.24934  1.0000
  S   S145      1.0  0.64043  0.66761  0.21221  1.0000
  H   H794      1.0  0.56757  0.94102  0.26306  1.0000
  S   S146      1.0  0.59245  0.70143  0.25758  1.0000
  H   H795      1.0  0.56633  0.56127  0.17961  1.0000
  Fe  Fe73      1.0  0.68712  0.67667  0.05287  1.0000
  S   S147      1.0  0.68078  0.62454  0.04982  1.0000
  S   S148      1.0  0.69272  0.70705  0.09117  1.0000
  Fe  Fe74      1.0  0.72246  0.64679  0.01865  1.0000
  S   S149      1.0  0.76342  0.63167  0.02132  1.0000
  Fe  Fe75      1.0  0.64513  0.61647  0.01570  1.0000
  C   C473      1.0  0.55646  0.56490  0.00839  1.0000
  S   S150      1.0  0.73086  0.69954  0.02364  1.0000
  S   S151      1.0  0.64838  0.66694  0.02082  1.0000
  C   C474      1.0  0.55196  0.57293  0.17146  1.0000
  H   H796      1.0  0.55495  0.62363  0.24072  1.0000
  H   H797      1.0  0.72748  0.85219  0.31036  1.0000
  H   H798      1.0  0.96200  0.61437  0.15029  1.0000
  H   H799      1.0  0.57321  0.61196  0.02970  1.0000
  H   H800      1.0  0.57905  0.99107  0.17815  1.0000
  C   C475      1.0  0.71463  0.82429  0.31277  1.0000
  H   H801      1.0  0.73325  0.81540  0.31195  1.0000
  C   C476      1.0  0.54449  0.55957  0.23111  1.0000
  H   H802      1.0  0.92695  0.78571  0.00507  1.0000
  C   C477      1.0  0.96812  0.77890  0.01973  1.0000
  H   H803      1.0  0.53815  0.95546  0.26627  1.0000
  H   H804      1.0  0.57115  0.99998  0.03826  1.0000
  C   C478      1.0  0.58286  0.58163  0.23666  1.0000
  H   H805      1.0  0.58901  0.60403  0.24935  1.0000
  C   C479      1.0  0.65443  0.67919  0.17848  1.0000
  C   C480      1.0  0.67125  0.71294  0.16987  1.0000
  C   C481      1.0  0.68242  0.72081  0.14306  1.0000
  C   C482      1.0  0.67668  0.69514  0.12439  1.0000
  C   C483      1.0  0.65973  0.66132  0.13295  1.0000
  C   C484      1.0  0.64882  0.65347  0.15985  1.0000
  H   H806      1.0  0.67584  0.73302  0.18390  1.0000
  H   H807      1.0  0.69560  0.74706  0.13672  1.0000
  H   H808      1.0  0.65525  0.64131  0.11891  1.0000
  H   H809      1.0  0.63600  0.62730  0.16632  1.0000
  N   N33       1.0  0.99114  0.76523  0.01263  1.0000
  H   H810      1.0  0.60369  0.91120  0.26907  1.0000
  Fe  Fe76      1.0  0.69126  0.68488  0.99139  1.0000
  H   H811      1.0  0.65257  0.87173  0.27252  1.0000
  S   S152      1.0  0.61791  0.97903  0.31197  1.0000
  C   C485      1.0  0.55958  0.88310  0.29499  1.0000
  H   H812      1.0  0.52747  0.55298  0.16308  1.0000
  C   C486      1.0  0.50277  0.55715  0.30688  1.0000
  H   H813      1.0  0.52238  0.81941  0.27364  1.0000
  H   H814      1.0  0.59153  0.56626  0.24779  1.0000
  C   C487      1.0  0.81743  0.62612  0.00271  1.0000
  H   H815      1.0  0.54239  0.93030  0.30773  1.0000
  H   H816      1.0  0.57219  0.61714  0.19733  1.0000
  H   H817      1.0  0.80587  0.60235  0.01353  1.0000
  C   C488      1.0  0.52608  0.91251  0.29174  1.0000
  H   H818      1.0  0.51794  0.59169  0.25625  1.0000
  H   H819      1.0  0.90176  0.67814  0.31525  1.0000
  H   H820      1.0  0.97807  0.68095  0.08599  1.0000
  H   H821      1.0  0.52158  0.63748  0.20928  1.0000
  H   H822      1.0  0.58221  0.86658  0.26373  1.0000
  N   N34       1.0  0.77480  0.67531  0.10921  1.0000
  C   C489      1.0  0.74297  0.64303  0.11724  1.0000
  C   C490      1.0  0.78468  0.69940  0.13278  1.0000
  C   C491      1.0  0.80216  0.66655  0.10411  1.0000
  C   C492      1.0  0.76725  0.68885  0.08413  1.0000
  C   C493      1.0  0.73194  0.61197  0.09866  1.0000
  C   C494      1.0  0.75841  0.70966  0.14102  1.0000
  C   C495      1.0  0.83744  0.69595  0.09643  1.0000
  C   C496      1.0  0.79095  0.72691  0.07754  1.0000
  H   H823      1.0  0.74560  0.63493  0.13776  1.0000
  H   H824      1.0  0.72091  0.64722  0.11836  1.0000
  H   H825      1.0  0.80878  0.72329  0.12952  1.0000
  H   H826      1.0  0.78969  0.68809  0.15078  1.0000
  H   H827      1.0  0.80539  0.65384  0.12204  1.0000
  H   H828      1.0  0.79502  0.64813  0.08718  1.0000
  H   H829      1.0  0.76692  0.67393  0.06629  1.0000
  H   H830      1.0  0.74121  0.68510  0.08510  1.0000
  H   H831      1.0  0.70523  0.59257  0.10305  1.0000
  H   H832      1.0  0.73340  0.61853  0.07717  1.0000
  H   H833      1.0  0.74754  0.59989  0.10225  1.0000
  H   H834      1.0  0.76936  0.72941  0.15698  1.0000
  H   H835      1.0  0.75154  0.72072  0.12409  1.0000
  H   H836      1.0  0.73514  0.68805  0.14956  1.0000
  H   H837      1.0  0.84843  0.71640  0.11172  1.0000
  H   H838      1.0  0.83703  0.70624  0.07638  1.0000
  H   H839      1.0  0.85507  0.68585  0.09471  1.0000
  H   H840      1.0  0.79831  0.72939  0.05605  1.0000
  H   H841      1.0  0.81472  0.74008  0.08912  1.0000
  H   H842      1.0  0.77707  0.74106  0.07992  1.0000
  C   C497      1.0  0.54022  0.93215  0.26537  1.0000
  H   H843      1.0  0.54189  0.97761  0.06500  1.0000
  H   H844      1.0  0.54041  0.53691  0.21944  1.0000
  C   C498      1.0  0.94149  0.70462  0.02257  1.0000
  H   H845      1.0  0.93617  0.65912  0.28981  1.0000
  H   H846      1.0  0.92972  0.67835  0.01451  1.0000
  H   H847      1.0  0.50042  0.90938  0.29470  1.0000
  S   S153      1.0  0.59632  0.56744  0.00734  1.0000
  C   C499      1.0  0.80164  0.64595  0.00282  1.0000
  C   C500      1.0  0.53507  0.58614  0.30733  1.0000
  C   C501      1.0  0.57806  0.88827  0.26780  1.0000
  C   C502      1.0  0.93707  0.66056  0.31208  1.0000
  H   H848      1.0  0.58202  0.54682  0.30481  1.0000
  H   H849      1.0  0.98577  0.67609  0.03711  1.0000
  C   C503      1.0  0.54686  0.59508  0.19235  1.0000
  H   H850      1.0  0.67817  0.99532  0.21903  1.0000
  H   H851      1.0  0.98541  0.55199  0.10854  1.0000
  C   C504      1.0  0.99931  0.55828  0.20116  1.0000
  H   H852      1.0  0.99579  0.51442  0.27529  1.0000
  H   H853      1.0  0.88246  0.63360  0.31192  1.0000
  H   H854      1.0  0.95862  0.68595  0.31730  1.0000
  H   H855      1.0  0.92704  0.75012  0.99001  1.0000
  H   H856      1.0  0.57651  0.90481  0.30817  1.0000
  C   C505      1.0  0.55979  0.54956  0.30531  1.0000
  C   C506      1.0  0.50953  0.62144  0.22713  1.0000
  N   N35       1.0  0.52451  0.87872  0.29435  1.0000
  H   H857      1.0  0.98322  0.80622  0.02542  1.0000
  H   H858      1.0  0.97467  0.58340  0.15441  1.0000
  H   H859      1.0  0.69802  0.81334  0.29494  1.0000
  H   H860      1.0  0.98508  0.56045  0.06313  1.0000
  C   C507      1.0  0.94372  0.77650  0.99721  1.0000
  C   C508      1.0  0.63986  0.86301  0.29161  1.0000
  Fe  Fe77      1.0  0.66195  0.71547  0.30917  1.0000
  C   C509      1.0  0.55181  0.58988  0.02087  1.0000
  C   C510      1.0  0.62684  0.82883  0.29896  1.0000
  C   C511      1.0  0.52848  0.53640  0.99706  1.0000
  C   C512      1.0  0.99954  0.52861  0.19383  1.0000
  H   H861      1.0  0.55895  0.86071  0.30461  1.0000
  H   H862      1.0  0.53246  0.54946  0.25090  1.0000
  H   H863      1.0  0.56700  0.58935  0.15447  1.0000
  H   H864      1.0  0.51546  0.60466  0.03292  1.0000
  H   H865      1.0  0.94994  0.70396  0.04327  1.0000
  H   H866      1.0  0.97678  0.55645  0.21001  1.0000
  H   H867      1.0  0.92101  0.71097  0.02301  1.0000
  H   H868      1.0  0.98795  0.71747  0.00221  1.0000
  N   N36       1.0  0.52801  0.57714  0.21743  1.0000
  C   C513      1.0  0.51909  0.58570  0.02270  1.0000
  H   H869      1.0  0.52570  0.91782  0.24744  1.0000
  H   H870      1.0  0.95285  0.76613  0.03789  1.0000
  C   C514      1.0  0.52747  0.52062  0.30430  1.0000
  H   H871      1.0  0.54268  0.50883  0.04783  1.0000
  H   H872      1.0  0.59795  0.59025  0.21796  1.0000
  H   H873      1.0  0.96477  0.59038  0.10676  1.0000
  C   C515      1.0  0.63682  0.88612  0.30879  1.0000
  H   H874      1.0  0.58859  0.60403  0.30728  1.0000
  H   H875      1.0  0.55502  0.99412  0.21877  1.0000
  H   H876      1.0  0.56559  0.89166  0.25012  1.0000
  C   C516      1.0  0.54440  0.50920  0.07016  1.0000
  C   C517      1.0  0.56356  0.58216  0.30647  1.0000
  H   H877      1.0  0.52677  0.98788  0.03625  1.0000
  H   H878      1.0  0.64733  0.91236  0.30293  1.0000
  H   H879      1.0  0.61318  0.99362  0.19885  1.0000
  S   S154      1.0  0.53857  0.62661  0.30879  1.0000
  C   C518      1.0  0.52851  0.60320  0.23648  1.0000
  H   H880      1.0  0.57672  0.66537  0.99593  1.0000
  H   H881      1.0  0.56314  0.56458  0.07071  1.0000
  H   H882      1.0  0.50831  0.54062  0.07425  1.0000
  H   H883      1.0  0.52614  0.99292  0.13120  1.0000
  C   C519      1.0  0.97109  0.72849  0.00404  1.0000
  H   H884      1.0  0.51087  0.63883  0.24344  1.0000
  H   H885      1.0  0.69903  0.98314  0.00153  1.0000
  H   H886      1.0  0.57583  0.54980  0.09974  1.0000
  H   H887      1.0  0.51862  0.52562  0.11823  1.0000
  H   H888      1.0  0.94288  0.64105  0.31916  1.0000
  C   C520      1.0  0.54907  0.99763  0.04956  1.0000
  C   C521      1.0  0.57059  0.54626  0.07791  1.0000
  H   H889      1.0  0.59502  0.55331  0.06789  1.0000
  H   H890      1.0  0.85905  0.62040  0.98798  1.0000
  H   H891      1.0  0.96892  0.58981  0.06255  1.0000
  C   C522      1.0  0.98278  0.60895  0.14619  1.0000
  C   C523      1.0  0.81715  0.67679  0.98899  1.0000
  H   H892      1.0  0.80577  0.69269  0.98941  1.0000
  H   H893      1.0  0.99187  0.63511  0.10862  1.0000
  C   C524      1.0  0.50254  0.85500  0.27236  1.0000
  C   C525      1.0  0.98892  0.61059  0.11563  1.0000
  C   C526      1.0  0.99150  0.58703  0.05949  1.0000
  C   C527      1.0  0.50715  0.86319  0.32066  1.0000
  S   S155      1.0  0.61701  0.72031  0.32059  1.0000
  C   C528      1.0  0.84771  0.63635  0.98830  1.0000
  H   H894      1.0  0.99824  0.59234  0.03790  1.0000
  Fe  Fe78      1.0  0.96304  0.60528  0.45877  1.0000
  S   S156      1.0  0.95863  0.55658  0.47463  1.0000
  Fe  Fe79      1.0  0.92711  0.64563  0.44480  1.0000
  C   C529      1.0  0.94698  0.71043  0.36669  1.0000
  S   S157      1.0  0.87673  0.64394  0.43684  1.0000
  H   H895      1.0  0.68191  0.78379  0.33930  1.0000
  H   H896      1.0  0.67057  0.81531  0.33449  1.0000
  H   H897      1.0  0.88462  0.69181  0.35456  1.0000
  S   S158      1.0  0.93529  0.60727  0.42231  1.0000
  S   S159      1.0  0.94979  0.63895  0.48284  1.0000
  C   C530      1.0  0.51088  0.53658  0.55464  1.0000
  Fe  Fe80      1.0  0.62415  0.95704  0.35056  1.0000
  C   C531      1.0  0.88042  0.61488  0.36075  1.0000
  S   S160      1.0  0.61476  0.90280  0.35573  1.0000
  S   S161      1.0  0.58888  0.96947  0.37361  1.0000
  Fe  Fe81      1.0  0.99899  0.68074  0.46657  1.0000
  S   S162      1.0  0.68969  0.64135  0.47608  1.0000
  S   S163      1.0  0.67668  0.71894  0.46561  1.0000
  C   C532      1.0  0.69182  0.71692  0.37463  1.0000
  C   C533      1.0  0.66839  0.72521  0.38500  1.0000
  C   C534      1.0  0.66359  0.72523  0.41290  1.0000
  C   C535      1.0  0.68173  0.71635  0.43067  1.0000
  C   C536      1.0  0.70434  0.70691  0.42027  1.0000
  C   C537      1.0  0.70967  0.70764  0.39238  1.0000
  H   H898      1.0  0.65442  0.73226  0.37157  1.0000
  H   H899      1.0  0.64592  0.73236  0.42080  1.0000
  H   H900      1.0  0.71870  0.70032  0.43377  1.0000
  H   H901      1.0  0.72799  0.70134  0.38456  1.0000
  H   H902      1.0  0.97115  0.71736  0.57130  1.0000
  C   C538      1.0  0.99305  0.52917  0.36397  1.0000
  N   N37       1.0  0.96963  0.59965  0.56557  1.0000
  H   H903      1.0  0.59411  0.83219  0.35973  1.0000
  H   H904      1.0  0.96815  0.52658  0.36917  1.0000
  H   H905      1.0  0.63554  0.64925  0.35943  1.0000
  H   H906      1.0  0.76479  0.71619  0.62156  1.0000
  C   C539      1.0  0.84784  0.64544  0.46025  1.0000
  C   C540      1.0  0.79473  0.64563  0.46829  1.0000
  C   C541      1.0  0.81841  0.64461  0.45056  1.0000
  H   H907      1.0  0.77228  0.64498  0.46049  1.0000
  H   H908      1.0  0.81387  0.64318  0.42918  1.0000
  C   C542      1.0  0.75529  0.69676  0.60534  1.0000
  H   H909      1.0  0.56706  0.52590  0.58400  1.0000
  Fe  Fe82      1.0  0.68277  0.68303  0.49340  1.0000
  Fe  Fe83      1.0  0.67104  0.65466  0.55122  1.0000
  S   S164      1.0  0.67612  0.61052  0.53662  1.0000
  S   S165      1.0  0.65364  0.64749  0.59519  1.0000
  Fe  Fe84      1.0  0.72134  0.64862  0.51295  1.0000
  S   S166      1.0  0.77113  0.64855  0.51951  1.0000
  Fe  Fe85      1.0  0.64421  0.60783  0.50144  1.0000
  S   S167      1.0  0.59940  0.55872  0.48626  1.0000
  S   S168      1.0  0.71756  0.69322  0.52898  1.0000
  S   S169      1.0  0.63606  0.64905  0.51732  1.0000
  C   C543      1.0  0.55896  0.55498  0.48432  1.0000
  C   C544      1.0  0.53020  0.52274  0.48103  1.0000
  H   H910      1.0  0.50894  0.51205  0.56041  1.0000
  C   C545      1.0  0.52241  0.57968  0.48423  1.0000
  C   C546      1.0  0.55493  0.58347  0.48562  1.0000
  H   H911      1.0  0.72996  0.69276  0.59949  1.0000
  H   H912      1.0  0.57681  0.60851  0.48745  1.0000
  C   C547      1.0  0.95932  0.54102  0.54986  1.0000
  H   H913      1.0  0.82201  0.62122  0.35978  1.0000
  C   C548      1.0  0.65963  0.67222  0.62471  1.0000
  C   C549      1.0  0.68098  0.70749  0.62553  1.0000
  H   H914      1.0  0.57236  0.55927  0.62433  1.0000
  H   H915      1.0  0.69382  0.72094  0.60749  1.0000
  C   C550      1.0  0.85330  0.64731  0.48800  1.0000
  C   C551      1.0  0.82959  0.64827  0.50572  1.0000
  C   C552      1.0  0.80015  0.64743  0.49604  1.0000
  H   H916      1.0  0.87576  0.64800  0.49581  1.0000
  H   H917      1.0  0.83412  0.64968  0.52711  1.0000
  H   H918      1.0  0.83756  0.64109  0.32728  1.0000
  H   H919      1.0  0.94872  0.66423  0.36313  1.0000
  H   H920      1.0  0.97353  0.63525  0.53518  1.0000
  H   H921      1.0  0.74733  0.87802  0.34966  1.0000
  C   C553      1.0  0.60711  0.84100  0.34075  1.0000
  H   H922      1.0  0.52103  0.53020  0.60342  1.0000
  C   C554      1.0  0.68602  0.81325  0.38784  1.0000
  H   H923      1.0  0.62502  0.55662  0.41865  1.0000
  H   H924      1.0  0.69386  0.83169  0.40482  1.0000
  C   C555      1.0  0.72802  0.65173  0.63859  1.0000
  H   H925      1.0  0.54250  0.51186  0.40026  1.0000
  H   H926      1.0  0.98288  0.71664  0.52269  1.0000
  C   C556      1.0  0.69257  0.81180  0.33828  1.0000
  H   H927      1.0  0.80629  0.72427  0.58760  1.0000
  H   H928      1.0  0.80838  0.64261  0.60232  1.0000
  H   H929      1.0  0.51139  0.56327  0.60710  1.0000
  N   N38       1.0  0.75205  0.66386  0.61497  1.0000
  H   H930      1.0  0.51433  0.96355  0.52885  1.0000
  C   C557      1.0  0.62024  0.87519  0.33344  1.0000
  H   H931      1.0  0.58321  0.95374  0.49483  1.0000
  H   H932      1.0  0.91118  0.59955  0.54165  1.0000
  H   H933      1.0  0.70192  0.64462  0.63214  1.0000
  C   C558      1.0  0.97067  0.61979  0.61449  1.0000
  H   H934      1.0  0.68084  0.87219  0.37067  1.0000
  C   C559      1.0  0.83777  0.64561  0.34916  1.0000
  H   H935      1.0  0.77211  0.86045  0.39686  1.0000
  H   H936      1.0  0.92442  0.66489  0.39030  1.0000
  C   C560      1.0  0.57472  0.97474  0.53137  1.0000
  H   H937      1.0  0.59926  0.64782  0.34464  1.0000
  H   H938      1.0  0.77698  0.82396  0.39565  1.0000
  H   H939      1.0  0.54877  0.53785  0.37167  1.0000
  N   N39       1.0  0.59754  0.60015  0.40043  1.0000
  C   C561      1.0  0.56997  0.56581  0.40971  1.0000
  C   C562      1.0  0.60419  0.62590  0.42221  1.0000
  C   C563      1.0  0.57180  0.56994  0.56157  1.0000
  C   C564      1.0  0.58615  0.60890  0.37482  1.0000
  C   C565      1.0  0.57555  0.63390  0.42756  1.0000
  C   C566      1.0  0.92703  0.61995  0.55618  1.0000
  H   H940      1.0  0.57646  0.55933  0.42950  1.0000
  H   H941      1.0  0.54595  0.56589  0.41322  1.0000
  H   H942      1.0  0.62759  0.65043  0.41793  1.0000
  H   H943      1.0  0.60928  0.61747  0.44172  1.0000
  H   H944      1.0  0.58375  0.59115  0.35852  1.0000
  C   C567      1.0  0.99330  0.71629  0.56497  1.0000
  H   H945      1.0  0.91558  0.61324  0.57643  1.0000
  H   H946      1.0  0.56079  0.51935  0.54801  1.0000
  H   H947      1.0  0.68685  0.79113  0.39627  1.0000
  H   H948      1.0  0.55164  0.61118  0.43368  1.0000
  H   H949      1.0  0.58344  0.65240  0.44443  1.0000
  H   H950      1.0  0.57066  0.64591  0.41016  1.0000
  H   H951      1.0  0.69066  0.87126  0.33546  1.0000
  H   H952      1.0  0.87503  0.61225  0.38275  1.0000
  H   H953      1.0  0.99866  0.63553  0.61512  1.0000
  C   C568      1.0  0.95794  0.59011  0.59418  1.0000
  H   H954      1.0  0.95978  0.63637  0.61052  1.0000
  H   H955      1.0  0.55507  0.94815  0.53605  1.0000
  H   H956      1.0  0.71591  0.90771  0.35561  1.0000
  C   C569      1.0  0.64165  0.58453  0.41722  1.0000
  C   C570      1.0  0.99491  0.50398  0.40649  1.0000
  H   H957      1.0  0.92197  0.55630  0.55281  1.0000
  C   C571      1.0  0.53141  0.55788  0.60002  1.0000
  C   C572      1.0  0.78588  0.66884  0.62397  1.0000
  C   C573      1.0  0.99602  0.55428  0.47804  1.0000
  C   C574      1.0  0.64801  0.79980  0.38263  1.0000
  H   H958      1.0  0.75074  0.64458  0.57453  1.0000
  C   C575      1.0  0.94949  0.56879  0.54802  1.0000
  H   H959      1.0  0.64307  0.81904  0.37374  1.0000
  C   C576      1.0  0.73566  0.63744  0.59317  1.0000
  H   H960      1.0  0.51716  0.53963  0.53295  1.0000
  C   C577      1.0  0.92958  0.67138  0.36867  1.0000
  Fe  Fe86      1.0  0.98513  0.65114  0.40892  1.0000
  H   H961      1.0  0.58328  0.53348  0.38494  1.0000
  H   H962      1.0  0.97354  0.72198  0.37391  1.0000
  C   C578      1.0  0.70140  0.87950  0.35587  1.0000
  C   C579      1.0  0.64315  0.65534  0.64845  1.0000
  H   H963      1.0  0.56046  0.60577  0.37710  1.0000
  H   H964      1.0  0.54958  0.89638  0.34771  1.0000
  H   H965      1.0  0.95072  0.57591  0.52658  1.0000
  H   H966      1.0  0.95835  0.51758  0.42366  1.0000
  H   H967      1.0  0.59862  0.97878  0.54094  1.0000
  H   H968      1.0  0.95834  0.53243  0.57078  1.0000
  N   N40       1.0  0.89733  0.65177  0.35272  1.0000
  H   H969      1.0  0.71122  0.63534  0.58703  1.0000
  H   H970      1.0  0.93417  0.72027  0.37988  1.0000
  C   C580      1.0  0.56196  0.57604  0.61938  1.0000
  S   S170      1.0  0.97608  0.69014  0.42971  1.0000
  C   C581      1.0  0.53765  0.96104  0.58380  1.0000
  H   H971      1.0  0.83597  0.68673  0.60666  1.0000
  C   C582      1.0  0.72798  0.60136  0.60042  1.0000
  H   H972      1.0  0.74132  0.82105  0.41266  1.0000
  C   C583      1.0  0.63006  0.60003  0.39502  1.0000
  H   H973      1.0  0.77325  0.69781  0.56372  1.0000
  H   H974      1.0  0.92654  0.64308  0.54979  1.0000
  H   H975      1.0  0.64285  0.59593  0.43708  1.0000
  H   H976      1.0  0.96589  0.57231  0.60205  1.0000
  C   C584      1.0  0.56458  0.63118  0.57524  1.0000
  H   H977      1.0  0.65145  0.62641  0.39201  1.0000
  C   C585      1.0  0.56102  0.53591  0.39029  1.0000
  S   S171      1.0  0.70057  0.71954  0.33985  1.0000
  H   H978      1.0  0.57671  0.57799  0.54019  1.0000
  H   H979      1.0  0.98471  0.54964  0.54109  1.0000
  H   H980      1.0  0.62691  0.62806  0.64828  1.0000
  C   C586      1.0  0.53698  0.59730  0.56322  1.0000
  H   H981      1.0  0.63684  0.77687  0.36959  1.0000
  C   C587      1.0  0.77949  0.71430  0.58167  1.0000
  N   N41       1.0  0.71012  0.82826  0.36432  1.0000
  H   H982      1.0  0.53816  0.60047  0.54099  1.0000
  H   H983      1.0  0.72853  0.79264  0.36636  1.0000
  S   S172      1.0  0.53713  0.98990  0.32153  1.0000
  H   H984      1.0  0.92977  0.57588  0.59545  1.0000
  H   H985      1.0  0.59054  0.63704  0.57002  1.0000
  N   N42       1.0  0.53830  0.56582  0.57050  1.0000
  C   C588      1.0  0.60979  0.64477  0.36380  1.0000
  H   H986      1.0  0.94758  0.71918  0.34588  1.0000
  H   H987      1.0  0.61148  0.66470  0.37751  1.0000
  H   H988      1.0  0.74988  0.60120  0.60982  1.0000
  H   H989      1.0  0.75790  0.83246  0.35211  1.0000
  C   C589      1.0  0.52189  0.88564  0.34593  1.0000
  H   H990      1.0  0.96223  0.60933  0.63494  1.0000
  C   C590      1.0  0.72543  0.86633  0.36368  1.0000
  C   C591      1.0  0.96406  0.62775  0.55599  1.0000
  H   H991      1.0  0.51956  0.60188  0.48536  1.0000
  H   H992      1.0  0.77733  0.73657  0.57548  1.0000
  S   S173      1.0  0.99928  0.64227  0.36669  1.0000
  H   H993      1.0  0.99581  0.56772  0.40368  1.0000
  H   H994      1.0  0.56163  0.65208  0.56672  1.0000
  C   C592      1.0  0.75796  0.83239  0.39497  1.0000
  H   H995      1.0  0.78199  0.64894  0.63880  1.0000
  H   H996      1.0  0.59994  0.79171  0.32953  1.0000
  H   H997      1.0  0.62848  0.58648  0.37594  1.0000
  C   C593      1.0  0.87402  0.66491  0.36081  1.0000
  H   H998      1.0  0.54550  0.94188  0.58031  1.0000
  H   H999      1.0  0.82534  0.66099  0.35251  1.0000
  H   H1000     1.0  0.63418  0.79205  0.40202  1.0000
  H   H1001     1.0  0.87161  0.66496  0.38309  1.0000
  H   H1002     1.0  0.85548  0.59975  0.35066  1.0000
  C   C594      1.0  0.89966  0.59599  0.35426  1.0000
  H   H1003     1.0  0.80053  0.69350  0.63481  1.0000
  H   H1004     1.0  0.55305  0.58090  0.63877  1.0000
  H   H1005     1.0  0.97936  0.65103  0.56797  1.0000
  H   H1006     1.0  0.60227  0.54542  0.56134  1.0000
  H   H1007     1.0  0.92587  0.60905  0.36210  1.0000
  H   H1008     1.0  0.66756  0.58948  0.41255  1.0000
  C   C595      1.0  0.80926  0.66745  0.60199  1.0000
  Fe  Fe87      1.0  0.58690  0.99555  0.33613  1.0000
  H   H1009     1.0  0.72155  0.58586  0.58175  1.0000
  H   H1010     1.0  0.80452  0.67265  0.58130  1.0000
  H   H1011     1.0  0.73611  0.87774  0.38362  1.0000
  C   C596      1.0  0.57525  0.53805  0.56409  1.0000
  H   H1012     1.0  0.59349  0.59050  0.57252  1.0000
  H   H1013     1.0  0.88641  0.57067  0.36401  1.0000
  H   H1014     1.0  0.51193  0.95173  0.57555  1.0000
  H   H1015     1.0  0.70557  0.58856  0.61378  1.0000
  C   C597      1.0  0.73845  0.82053  0.36810  1.0000
  H   H1016     1.0  0.58262  0.60081  0.61248  1.0000
  H   H1017     1.0  0.55813  0.97321  0.48924  1.0000
  C   C598      1.0  0.58002  0.97555  0.50070  1.0000
  C   C599      1.0  0.99345  0.52250  0.48133  1.0000
  H   H1018     1.0  0.94104  0.51868  0.53780  1.0000
  H   H1019     1.0  0.99067  0.54884  0.32496  1.0000
  H   H1020     1.0  0.56169  0.63218  0.59726  1.0000
  C   C600      1.0  0.53123  0.99158  0.53061  1.0000
  H   H1021     1.0  0.53595  0.96316  0.60591  1.0000
  H   H1022     1.0  0.72577  0.62816  0.64721  1.0000
  C   C601      1.0  0.61043  0.81797  0.32369  1.0000
  H   H1023     1.0  0.51025  0.86994  0.36408  1.0000
  H   H1024     1.0  0.51583  0.90642  0.34651  1.0000
  H   H1025     1.0  0.96776  0.55556  0.65013  1.0000
  C   C602      1.0  0.68592  0.72545  0.64988  1.0000
  H   H1026     1.0  0.89952  0.59129  0.33240  1.0000
  C   C603      1.0  0.99978  0.71566  0.53745  1.0000
  H   H1027     1.0  0.51259  0.59508  0.56964  1.0000
  H   H1028     1.0  0.98738  0.50487  0.35400  1.0000
  H   H1029     1.0  0.70274  0.75267  0.65036  1.0000
  C   C604      1.0  0.56395  0.99611  0.57265  1.0000
  H   H1030     1.0  0.50781  0.83950  0.32485  1.0000
  C   C605      1.0  0.90309  0.65580  0.32274  1.0000
  N   N43       1.0  0.56488  0.99955  0.54253  1.0000
  H   H1031     1.0  0.60358  0.99868  0.49443  1.0000
  Fe  Fe88      1.0  0.95773  0.60533  0.95228  1.0000
  H   H1032     1.0  0.98454  0.54193  0.90212  1.0000
  Fe  Fe89      1.0  0.93660  0.65948  0.95048  1.0000
  H   H1033     1.0  0.66254  0.84950  0.67931  1.0000
  S   S174      1.0  0.89989  0.68024  0.95414  1.0000
  H   H1034     1.0  0.72999  0.60444  0.92228  1.0000
  S   S175      1.0  0.99046  0.70068  0.94124  1.0000
  H   H1035     1.0  0.64770  0.89487  0.73986  1.0000
  S   S176      1.0  0.93756  0.62383  0.91889  1.0000
  H   H1036     1.0  0.66664  0.87362  0.93135  1.0000
  C   C606      1.0  0.51123  0.62304  0.95984  1.0000
  Fe  Fe90      1.0  0.64150  0.96357  0.85540  1.0000
  H   H1037     1.0  0.57877  0.69104  0.96768  1.0000
  S   S177      1.0  0.64978  0.91796  0.85962  1.0000
  S   S178      1.0  0.61725  0.97578  0.89005  1.0000
  S   S179      1.0  0.61725  0.98004  0.82371  1.0000
  Fe  Fe91      1.0  0.61798  0.74169  0.78592  1.0000
  S   S180      1.0  0.66957  0.74681  0.78097  1.0000
  S   S181      1.0  0.60517  0.78448  0.78837  1.0000
  Fe  Fe92      1.0  0.58209  0.66483  0.77277  1.0000
  S   S182      1.0  0.63102  0.66542  0.76631  1.0000
  S   S183      1.0  0.52999  0.61793  0.76917  1.0000
  Fe  Fe93      1.0  0.64748  0.69750  0.80397  1.0000
  S   S184      1.0  0.67019  0.67867  0.83556  1.0000
  Fe  Fe94      1.0  0.64811  0.71403  0.74375  1.0000
  S   S185      1.0  0.67743  0.73213  0.70401  1.0000
  S   S186      1.0  0.59742  0.69453  0.81138  1.0000
  S   S187      1.0  0.59780  0.71131  0.74770  1.0000
  N   N44       1.0  0.78085  0.67592  0.90812  1.0000
  S   S188      1.0  0.69597  0.72108  0.95837  1.0000
  C   C607      1.0  0.52576  0.57722  0.76677  1.0000
  H   H1038     1.0  0.53190  0.51710  0.98719  1.0000
  H   H1039     1.0  0.97324  0.58460  0.70276  1.0000
  C   C608      1.0  0.54959  0.53990  0.76622  1.0000
  C   C609      1.0  0.55391  0.57271  0.76787  1.0000
  H   H1040     1.0  0.53099  0.54997  0.87465  1.0000
  H   H1041     1.0  0.57150  0.53665  0.76727  1.0000
  H   H1042     1.0  0.57900  0.59444  0.77006  1.0000
  C   C610      1.0  0.66933  0.70851  0.67361  1.0000
  H   H1043     1.0  0.99718  0.52006  0.84013  1.0000
  H   H1044     1.0  0.63496  0.65986  0.69074  1.0000
  H   H1045     1.0  0.59361  0.63276  0.97286  1.0000
  C   C611      1.0  0.67322  0.68969  0.86983  1.0000
  C   C612      1.0  0.68177  0.72244  0.87805  1.0000
  C   C613      1.0  0.68838  0.73165  0.90531  1.0000
  C   C614      1.0  0.68584  0.70804  0.92457  1.0000
  C   C615      1.0  0.67583  0.67488  0.91649  1.0000
  C   C616      1.0  0.67006  0.66590  0.88917  1.0000
  H   H1046     1.0  0.68454  0.74102  0.86327  1.0000
  H   H1047     1.0  0.69592  0.75732  0.91144  1.0000
  H   H1048     1.0  0.67326  0.65636  0.93118  1.0000
  H   H1049     1.0  0.66356  0.64055  0.88289  1.0000
  C   C617      1.0  0.63782  0.88155  0.83900  1.0000
  C   C618      1.0  0.65000  0.85944  0.84546  1.0000
  C   C619      1.0  0.64061  0.82979  0.83016  1.0000
  C   C620      1.0  0.61853  0.82167  0.80835  1.0000
  C   C621      1.0  0.60651  0.84387  0.80181  1.0000
  C   C622      1.0  0.61618  0.87369  0.81692  1.0000
  H   H1050     1.0  0.66675  0.86522  0.86248  1.0000
  H   H1051     1.0  0.65012  0.81306  0.83544  1.0000
  H   H1052     1.0  0.58937  0.83786  0.78502  1.0000
  H   H1053     1.0  0.60650  0.89031  0.81173  1.0000
  H   H1054     1.0  0.69715  0.61471  0.92384  1.0000
  C   C623      1.0  0.99182  0.68078  0.82919  1.0000
  H   H1055     1.0  0.55493  0.57161  0.84561  1.0000
  H   H1056     1.0  0.96025  0.72604  0.98363  1.0000
  H   H1057     1.0  0.99658  0.60303  0.89553  1.0000
  H   H1058     1.0  0.72741  0.85061  0.72921  1.0000
  C   C624      1.0  0.86283  0.66682  0.97401  1.0000
  C   C625      1.0  0.96711  0.58488  0.72437  1.0000
  C   C626      1.0  0.84765  0.68721  0.97483  1.0000
  C   C627      1.0  0.70281  0.98772  0.97958  1.0000
  H   H1059     1.0  0.85947  0.71112  0.96424  1.0000
  H   H1060     1.0  0.75973  0.70376  0.85110  1.0000
  C   C628      1.0  0.64774  0.67332  0.67267  1.0000
  C   C629      1.0  0.70242  0.95680  0.96598  1.0000
  C   C630      1.0  0.57923  0.61566  0.91934  1.0000
  C   C631      1.0  0.56408  0.65978  0.91951  1.0000
  H   H1061     1.0  0.60682  0.67699  0.89109  1.0000
  H   H1062     1.0  0.95109  0.57507  0.80103  1.0000
  C   C632      1.0  0.58146  0.58622  0.93266  1.0000
  C   C633      1.0  0.59701  0.68755  0.90645  1.0000
  H   H1063     1.0  0.62719  0.75743  0.70076  1.0000
  H   H1064     1.0  0.56227  0.60492  0.90153  1.0000
  H   H1065     1.0  0.60484  0.63287  0.91110  1.0000
  H   H1066     1.0  0.97182  0.67740  0.84272  1.0000
  C   C634      1.0  0.97638  0.51210  0.95163  1.0000
  H   H1067     1.0  0.76617  0.72749  0.92840  1.0000
  C   C635      1.0  0.99625  0.53144  0.66118  1.0000
  C   C636      1.0  0.73728  0.67671  0.66238  1.0000
  C   C637      1.0  0.97373  0.52525  0.73364  1.0000
  H   H1068     1.0  0.54559  0.64604  0.90304  1.0000
  H   H1069     1.0  0.58997  0.57422  0.91743  1.0000
  H   H1070     1.0  0.71018  0.84735  0.76259  1.0000
  C   C638      1.0  0.95568  0.61134  0.72793  1.0000
  H   H1071     1.0  0.99877  0.77912  0.97055  1.0000
  H   H1072     1.0  0.68919  0.93477  0.97977  1.0000
  C   C639      1.0  0.95857  0.56464  0.78382  1.0000
  C   C640      1.0  0.64936  0.92442  0.93921  1.0000
  C   C641      1.0  0.67397  0.80976  0.73397  1.0000
  H   H1073     1.0  0.64797  0.84295  0.75663  1.0000
  H   H1074     1.0  0.55710  0.99067  0.79820  1.0000
  H   H1075     1.0  0.69363  0.92322  0.90252  1.0000
  H   H1076     1.0  0.99170  0.61805  0.77531  1.0000
  H   H1077     1.0  0.69259  0.83054  0.65553  1.0000
  C   C642      1.0  0.67852  0.84445  0.69332  1.0000
  H   H1078     1.0  0.59164  0.70572  0.89576  1.0000
  N   N45       1.0  0.68733  0.94725  0.93813  1.0000
  C   C643      1.0  0.69345  0.82572  0.67727  1.0000
  H   H1079     1.0  0.96873  0.68917  0.79442  1.0000
  C   C644      1.0  0.97654  0.58042  0.88520  1.0000
  S   S189      1.0  0.54394  0.98839  0.85839  1.0000
  H   H1080     1.0  0.73425  0.67367  0.92131  1.0000
  C   C645      1.0  0.65933  0.85411  0.73685  1.0000
  H   H1081     1.0  0.73002  0.94321  0.92338  1.0000
  N   N46       1.0  0.65889  0.82739  0.71844  1.0000
  H   H1082     1.0  0.51788  0.59001  0.93334  1.0000
  H   H1083     1.0  0.94824  0.61271  0.74888  1.0000
  C   C646      1.0  0.69314  0.89337  0.93607  1.0000
  H   H1084     1.0  0.52297  0.51941  0.81769  1.0000
  H   H1085     1.0  0.73240  0.69768  0.65762  1.0000
  C   C647      1.0  0.98578  0.55241  0.88179  1.0000
  C   C648      1.0  0.64106  0.87269  0.72659  1.0000
  C   C649      1.0  0.72218  0.62239  0.91468  1.0000
  H   H1086     1.0  0.72093  0.81677  0.75111  1.0000
  C   C650      1.0  0.98020  0.54376  0.95877  1.0000
  H   H1087     1.0  0.62000  0.66483  0.95077  1.0000
  H   H1088     1.0  0.68579  0.87434  0.74136  1.0000
  H   H1089     1.0  0.60782  0.79103  0.73083  1.0000
  N   N47       1.0  0.56770  0.63488  0.93715  1.0000
  C   C651      1.0  0.74765  0.65925  0.92308  1.0000
  C   C652      1.0  0.74967  0.68627  0.86850  1.0000
  H   H1090     1.0  0.93309  0.60398  0.71513  1.0000
  H   H1091     1.0  0.70057  0.86981  0.69843  1.0000
  H   H1092     1.0  0.63885  0.91658  0.91852  1.0000
  H   H1093     1.0  0.56091  0.99711  0.76293  1.0000
  C   C653      1.0  0.53371  0.60939  0.94873  1.0000
  H   H1094     1.0  0.55663  0.56601  0.94024  1.0000
  H   H1095     1.0  0.80926  0.76002  0.92906  1.0000
  H   H1096     1.0  0.79006  0.74410  0.89737  1.0000
  H   H1097     1.0  0.74166  0.69881  0.88338  1.0000
  H   H1098     1.0  0.71843  0.61945  0.89266  1.0000
  H   H1099     1.0  0.74342  0.99166  0.90041  1.0000
  H   H1100     1.0  0.65781  0.79642  0.75158  1.0000
  H   H1101     1.0  0.75220  0.65911  0.94507  1.0000
  H   H1102     1.0  0.68015  0.79785  0.67958  1.0000
  H   H1103     1.0  0.60983  0.81461  0.70187  1.0000
  C   C654      1.0  0.62236  0.80210  0.71200  1.0000
  C   C655      1.0  0.71027  0.83286  0.74463  1.0000
  C   C656      1.0  0.99016  0.68748  0.80175  1.0000
  H   H1104     1.0  0.72691  0.66320  0.86071  1.0000
  H   H1105     1.0  0.64869  0.88243  0.70591  1.0000
  S   S190      1.0  0.94528  0.55054  0.95650  1.0000
  H   H1106     1.0  0.68294  0.96931  0.90114  1.0000
  H   H1107     1.0  0.55321  0.67333  0.93043  1.0000
  C   C657      1.0  0.79742  0.65482  0.91330  1.0000
  C   C658      1.0  0.80360  0.71085  0.91973  1.0000
  C   C659      1.0  0.77670  0.67759  0.87818  1.0000
  C   C660      1.0  0.83381  0.66915  0.90252  1.0000
  H   H1108     1.0  0.79815  0.65034  0.93520  1.0000
  H   H1109     1.0  0.78239  0.62911  0.90416  1.0000
  H   H1110     1.0  0.80894  0.70886  0.94122  1.0000
  H   H1111     1.0  0.82856  0.72359  0.90941  1.0000
  H   H1112     1.0  0.80127  0.69630  0.86890  1.0000
  H   H1113     1.0  0.76976  0.65269  0.86870  1.0000
  H   H1114     1.0  0.84157  0.64975  0.90522  1.0000
  H   H1115     1.0  0.83576  0.67510  0.88083  1.0000
  H   H1116     1.0  0.85246  0.69177  0.91403  1.0000
  H   H1117     1.0  0.61693  0.70242  0.92154  1.0000
  H   H1118     1.0  0.68308  0.99327  0.97280  1.0000
  C   C661      1.0  0.59381  0.65200  0.95903  1.0000
  C   C662      1.0  0.54017  0.54621  0.85511  1.0000
  C   C663      1.0  0.61575  0.77232  0.69336  1.0000
  S   S191      1.0  0.95146  0.63680  0.98440  1.0000
  H   H1119     1.0  0.68508  0.99292  0.92951  1.0000
  H   H1120     1.0  0.55825  0.53701  0.85835  1.0000
  C   C664      1.0  0.69552  0.97767  0.92105  1.0000
  H   H1121     1.0  0.61311  0.85621  0.72782  1.0000
  H   H1122     1.0  0.64237  0.90058  0.95014  1.0000
  H   H1123     1.0  0.67435  0.78933  0.72228  1.0000
  H   H1124     1.0  0.98328  0.50705  0.73298  1.0000
  Fe  Fe95      1.0  0.59737  0.99683  0.85858  1.0000
  H   H1125     1.0  0.72071  0.83638  0.68209  1.0000
  H   H1126     1.0  0.96419  0.53177  0.87039  1.0000
  C   C665      1.0  0.51711  0.51130  0.76371  1.0000
  C   C666      1.0  0.79087  0.73645  0.91832  1.0000
  H   H1127     1.0  0.63397  0.94149  0.97519  1.0000
  H   H1128     1.0  0.96053  0.52224  0.71422  1.0000
  H   H1129     1.0  0.62421  0.78109  0.67258  1.0000
  H   H1130     1.0  0.52400  0.64279  0.97539  1.0000
  H   H1131     1.0  0.60047  0.59526  0.94907  1.0000
  C   C667      1.0  0.70186  0.92797  0.92393  1.0000
  H   H1132     1.0  0.58799  0.75440  0.69233  1.0000
  H   H1133     1.0  0.76383  0.68713  0.66913  1.0000
  H   H1134     1.0  0.94418  0.55985  0.72772  1.0000
  H   H1135     1.0  0.93630  0.55354  0.77036  1.0000
  H   H1136     1.0  0.95770  0.79283  0.97992  1.0000
  H   H1137     1.0  0.97525  0.63691  0.72129  1.0000
  H   H1138     1.0  0.70958  0.88463  0.92670  1.0000
  Fe  Fe96      1.0  0.99215  0.66361  0.91184  1.0000
  C   C668      1.0  0.62910  0.93878  0.95326  1.0000
  C   C669      1.0  0.51101  0.52277  0.83600  1.0000
  H   H1139     1.0  0.72938  0.96308  0.96552  1.0000
  H   H1140     1.0  0.72057  0.66309  0.67965  1.0000
  H   H1141     1.0  0.69756  0.89485  0.95802  1.0000
  H   H1142     1.0  0.96304  0.54424  0.79125  1.0000
  H   H1143     1.0  0.53698  0.59500  0.96527  1.0000
  H   H1144     1.0  0.63374  0.96309  0.94464  1.0000
  H   H1145     1.0  0.60162  0.92049  0.95058  1.0000
  N   N48       1.0  0.99652  0.59002  0.74163  1.0000
  C   C670      1.0  0.99088  0.59357  0.77097  1.0000
  H   H1146     1.0  0.61650  0.69834  0.98295  1.0000
  H   H1147     1.0  0.95536  0.51741  0.75026  1.0000
  H   H1148     1.0  0.95335  0.57046  0.89771  1.0000
  S   S192      1.0  0.68587  0.63375  0.98428  1.0000
  C   C671      1.0  0.59067  0.67779  0.97724  1.0000
  H   H1149     1.0  0.64521  0.99874  0.71563  1.0000
  H   H1150     1.0  0.97055  0.58793  0.86570  1.0000
  H   H1151     1.0  0.50965  0.97506  0.92888  1.0000
  C   C672      1.0  0.99240  0.55955  0.65578  1.0000
  H   H1152     1.0  0.50146  0.63244  0.94359  1.0000
