data_image0
_chemical_formula_structural       HCHNSH4SHC3FeCHCH3CH3C3SCHSH4CHNC3H7CH3C2H4FeH2NSCHSHC3H5C3H3CH5CFeHCHSHCHCHFeS2FeS2FeSFeS4FeSHCFeS2FeS2FeHFeS3FeS2FeS2FeSFeS3HSH2CHCH2C6HCH2C6H4C6H4C2HC3H4CHCH3C5H4C6H4NC8H22C2HNHCHCH6CH2NFeCH2CH2C2H2CFeH2C2H5NH2NC2H9CH2C2H2CH3C2H4C2H11SHC2HNC2H3SH3CHCH4C2SH3C2HCHC2H3CHC2H5NH5CHC2H3CH2SH2CHC2H3CHCFeS2FeS2FeSFeS4FeSFeSFeS2FeS2FeCFeS3FeS2FeS2FeSFeS3HNC2HCHSHC6H4C6H4C6H4C6H4C2H2NH2C4H4C6H4CH2CH3SHCHCNH3C2H6CHC2HFeH2C2H2CHCHCH5SHC2H8NC8H23CH2FeHCHC2H3CHC3HCHNH3C2HCH4CH2CH2CH3CHCHCHNH6C6HCH4CH4CH8NH7CHSH3CHCH5NH2SH4CH3C4H2CH2CH2CHCHFeS2FeS2HCHCNFeS2FeSFeSHCHSH2FeHC7H4C6H4C6H6SH2CSH4C2HFeHCH2CH2NC6HCH3CH8CHSHCH3CH5CH3CNH4CH5SCH3C2H3CHC3HSCH2CH6C2H2FeS2FeHSH6S2FeSFeSH2CHCHSCHC6H4C6H4C4HCHCH4CH2SH5SCH2SCHFeNH2SCHCH2C4H5NC8H11SH3SH2SH2C2FeCHCH2CHFeH2NCH3CH2C2H2C4H5NCH5C2HCH3CH4SFeS2FeS2FeSFeS4HFeSFeSHCH2C6H4C6H4C6H7FeHNC8H20NC8H21SHCH2CH4CH2CH9SHFeCH2NCHC3H2CH2CH2CHSH4CH2CHNHCHC4HC2H2CH2C2SFeS2FeS2FeSFeS3CHFeSFeSHNH2C6H4C6H4C6H5CH2CHSNH2C2H3C2HCH2CHCNH2CHCH4CH2NH2C3HC2H2C2H2FeCHC2H3CHCH5CH2NC8H11SH5CHCH8FeHCH5CHCHSHSH9SH2FeS2FeS2FeSFeS3FeS2FeS2FeSFeS3FeS2CFeSFeSCHSHFeSFeSC6H4CHC4H4C6H4C3HC2H4C6H4C4HC6H4C2H4NC8H10FeHCH5CN2C8H20NH3CHCH3CH4SH3CSCHCH3C2HCH3NSH4CH2FeH3CH2CHCHCH2CH2C3SCH3CH2CH3FeHCH7SH3SCH2C2H3SH2FeS2FeS2FeSFeS3FeS2FeS2FeHFeS3FeS3FeSFeSHCH2FeHFeHC6H5C6H3C6H4C3HC2H4C6H4C3H2C6H4SCH5CHCHCHC3NH2CH6CH4CH6NC3HCH3CH5CH2CH2C2H3CSCH2CH2NHCSH5C2HC2HCHCH3C3HNCH7C2H2CH3CH2CH2CHCH7CH4CFeH2CH2C2HC2HCH6CH2NHCH3SHNHC2SH2SH6CH2CH3SCHSCHNH4C2H5CH2CH8NSH2CH2C3H2SCHCHCH2CHCHNCHCH2CHCH9C2H2C2HCH3SH2C2H2CHFeHCH2CH3CHSCH2CHC3H3CSH2FeH2CH6CH2C2HSCH2C
_chemical_formula_sum              "H1152 C672 N48 S192 Fe96"
_cell_length_a       54.1565
_cell_length_b       54.1946
_cell_length_c       47.3611
_cell_angle_alpha    89.5373
_cell_angle_beta     90.2533
_cell_angle_gamma    120.627

_space_group_name_H-M_alt    "P 1"
_space_group_IT_number       1

loop_
  _space_group_symop_operation_xyz
  'x, y, z'

loop_
  _atom_site_type_symbol
  _atom_site_label
  _atom_site_symmetry_multiplicity
  _atom_site_fract_x
  _atom_site_fract_y
  _atom_site_fract_z
  _atom_site_occupancy
  H   H1        1.0  0.48037  0.08175  0.08013  1.0000
  C   C1        1.0  0.48307  0.06876  0.34512  1.0000
  H   H2        1.0  0.46169  0.04953  0.34148  1.0000
  N   N1        1.0  0.50132  0.04274  0.08536  1.0000
  S   S1        1.0  0.50586  0.13165  0.04449  1.0000
  H   H3        1.0  0.50167  0.29525  0.41821  1.0000
  H   H4        1.0  0.48951  0.02337  0.42409  1.0000
  H   H5        1.0  0.45679  0.08520  0.37971  1.0000
  H   H6        1.0  0.49500  0.00950  0.03548  1.0000
  S   S2        1.0  0.45228  0.05583  0.01594  1.0000
  H   H7        1.0  0.45949  0.02968  0.06767  1.0000
  C   C2        1.0  0.47135  0.03773  0.08791  1.0000
  C   C3        1.0  0.44909  0.08524  0.42341  1.0000
  C   C4        1.0  0.46945  0.02341  0.49488  1.0000
  Fe  Fe1       1.0  0.49000  0.10100  0.00798  1.0000
  C   C5        1.0  0.49775  0.26841  0.04969  1.0000
  H   H8        1.0  0.45860  0.02060  0.10371  1.0000
  C   C6        1.0  0.49552  0.06836  0.37439  1.0000
  H   H9        1.0  0.48136  0.06297  0.44534  1.0000
  H   H10       1.0  0.45607  0.01843  0.38769  1.0000
  H   H11       1.0  0.45795  0.08576  0.44462  1.0000
  C   C7        1.0  0.46918  0.06416  0.09565  1.0000
  H   H12       1.0  0.48836  0.10771  0.39961  1.0000
  H   H13       1.0  0.47747  0.07220  0.11711  1.0000
  H   H14       1.0  0.48215  0.08856  0.34179  1.0000
  C   C8        1.0  0.43349  0.01880  0.42436  1.0000
  C   C9        1.0  0.50349  0.22749  0.03808  1.0000
  C   C10       1.0  0.50602  0.04609  0.42777  1.0000
  S   S3        1.0  0.50025  0.14026  0.47495  1.0000
  C   C11       1.0  0.48815  0.24202  0.03592  1.0000
  H   H15       1.0  0.50335  0.28084  0.49186  1.0000
  S   S4        1.0  0.49107  0.19507  0.01907  1.0000
  H   H16       1.0  0.42703  0.06653  0.42151  1.0000
  H   H17       1.0  0.44714  0.10465  0.42183  1.0000
  H   H18       1.0  0.43552  0.03346  0.44139  1.0000
  H   H19       1.0  0.43439  0.03400  0.38183  1.0000
  C   C12       1.0  0.46849  0.08605  0.39934  1.0000
  H   H20       1.0  0.48485  0.03921  0.14397  1.0000
  N   N2        1.0  0.47629  0.06298  0.39956  1.0000
  C   C13       1.0  0.49370  0.06621  0.42571  1.0000
  C   C14       1.0  0.44999  0.03348  0.39687  1.0000
  C   C15       1.0  0.45013  0.02415  0.00318  1.0000
  H   H21       1.0  0.44625  0.05809  0.09531  1.0000
  H   H22       1.0  0.48581  0.27938  0.04768  1.0000
  H   H23       1.0  0.46878  0.23288  0.02333  1.0000
  H   H24       1.0  0.50180  0.05179  0.37302  1.0000
  H   H25       1.0  0.49772  0.06900  0.32858  1.0000
  H   H26       1.0  0.49795  0.26859  0.44276  1.0000
  H   H27       1.0  0.49066  0.04213  0.49588  1.0000
  C   C16       1.0  0.49931  0.01412  0.08212  1.0000
  H   H28       1.0  0.50153  0.05437  0.04129  1.0000
  H   H29       1.0  0.50776  0.26768  0.40680  1.0000
  H   H30       1.0  0.50535  0.02129  0.14134  1.0000
  C   C17       1.0  0.50629  0.04217  0.13974  1.0000
  C   C18       1.0  0.47506  0.23788  0.54451  1.0000
  H   H31       1.0  0.48890  0.08360  0.87702  1.0000
  H   H32       1.0  0.45200  0.22848  0.54462  1.0000
  H   H33       1.0  0.42768  0.04938  0.84391  1.0000
  H   H34       1.0  0.47307  0.19914  0.52971  1.0000
  Fe  Fe2       1.0  0.50096  0.33575  0.56990  1.0000
  H   H35       1.0  0.48027  0.04300  0.92744  1.0000
  H   H36       1.0  0.49075  0.04544  0.98160  1.0000
  N   N3        1.0  0.44353  0.04607  0.91473  1.0000
  S   S5        1.0  0.44878  0.06039  0.50276  1.0000
  C   C19       1.0  0.47168  0.02509  0.98626  1.0000
  H   H37       1.0  0.46913  0.03148  0.89272  1.0000
  S   S6        1.0  0.47682  0.28754  0.56095  1.0000
  H   H38       1.0  0.50323  0.09399  0.91249  1.0000
  C   C20       1.0  0.49273  0.26680  0.55227  1.0000
  C   C21       1.0  0.49550  0.07687  0.89640  1.0000
  C   C22       1.0  0.48696  0.22117  0.53608  1.0000
  H   H39       1.0  0.48618  0.16874  0.60110  1.0000
  H   H40       1.0  0.50639  0.01455  0.69706  1.0000
  H   H41       1.0  0.44293  0.03035  0.85844  1.0000
  H   H42       1.0  0.40482  0.01630  0.86259  1.0000
  H   H43       1.0  0.43017  0.08356  0.96717  1.0000
  C   C23       1.0  0.42637  0.03603  0.86243  1.0000
  C   C24       1.0  0.47163  0.04785  0.90813  1.0000
  C   C25       1.0  0.42218  0.01667  0.92629  1.0000
  H   H44       1.0  0.40941  0.04589  0.96272  1.0000
  H   H45       1.0  0.44434  0.07669  0.88402  1.0000
  H   H46       1.0  0.40964  0.07003  0.93568  1.0000
  C   C26       1.0  0.43131  0.05347  0.88958  1.0000
  H   H47       1.0  0.46279  0.09015  0.92914  1.0000
  H   H48       1.0  0.46227  0.06600  0.95490  1.0000
  H   H49       1.0  0.48768  0.03602  0.62606  1.0000
  H   H50       1.0  0.39994  0.01281  0.92516  1.0000
  H   H51       1.0  0.42622  0.01517  0.94911  1.0000
  C   C27       1.0  0.42284  0.06635  0.95115  1.0000
  Fe  Fe3       1.0  0.49174  0.10260  0.50286  1.0000
  H   H52       1.0  0.41003  0.05063  0.89489  1.0000
  C   C28       1.0  0.44946  0.06786  0.93744  1.0000
  H   H53       1.0  0.49419  0.28840  0.95493  1.0000
  S   S7        1.0  0.48969  0.13376  0.97886  1.0000
  H   H54       1.0  0.50360  0.29705  0.99120  1.0000
  C   C29       1.0  0.50833  0.18444  0.59406  1.0000
  H   H55       1.0  0.50618  0.26836  0.97476  1.0000
  C   C30       1.0  0.44540  0.02621  0.49846  1.0000
  H   H56       1.0  0.50170  0.00833  0.65244  1.0000
  Fe  Fe4       1.0  0.13869  0.59455  0.37532  1.0000
  S   S8        1.0  0.14801  0.63903  0.38584  1.0000
  S   S9        1.0  0.12321  0.57808  0.33066  1.0000
  Fe  Fe5       1.0  0.13642  0.57892  0.43870  1.0000
  S   S10       1.0  0.14520  0.62193  0.45282  1.0000
  S   S11       1.0  0.48969  0.60157  0.41360  1.0000
  Fe  Fe6       1.0  0.11358  0.61669  0.41893  1.0000
  S   S12       1.0  0.07703  0.62499  0.42638  1.0000
  Fe  Fe7       1.0  0.17887  0.63989  0.41871  1.0000
  S   S13       1.0  0.10297  0.57286  0.40700  1.0000
  S   S14       1.0  0.17150  0.59628  0.40602  1.0000
  S   S15       1.0  0.46809  0.62033  0.33707  1.0000
  S   S16       1.0  0.48611  0.57017  0.33525  1.0000
  Fe  Fe8       1.0  0.46755  0.58918  0.30541  1.0000
  S   S17       1.0  0.42819  0.56447  0.27807  1.0000
  H   H57       1.0  0.09867  0.64148  0.32477  1.0000
  C   C31       1.0  0.47361  0.65762  0.40553  1.0000
  Fe  Fe9       1.0  0.38299  0.47643  0.07813  1.0000
  S   S18       1.0  0.42885  0.51089  0.07974  1.0000
  S   S19       1.0  0.37157  0.43175  0.06494  1.0000
  Fe  Fe10      1.0  0.36094  0.51619  0.09595  1.0000
  S   S20       1.0  0.40650  0.55386  0.09882  1.0000
  S   S21       1.0  0.32717  0.52877  0.10617  1.0000
  Fe  Fe11      1.0  0.41450  0.53832  0.05788  1.0000
  H   H58       1.0  0.42111  0.45722  0.12615  1.0000
  Fe  Fe12      1.0  0.41693  0.52326  0.12031  1.0000
  S   S22       1.0  0.44959  0.53391  0.15510  1.0000
  S   S23       1.0  0.36868  0.50281  0.05326  1.0000
  S   S24       1.0  0.37134  0.48656  0.12044  1.0000
  Fe  Fe13      1.0  0.15595  0.52232  0.18823  1.0000
  S   S25       1.0  0.13481  0.47482  0.18015  1.0000
  S   S26       1.0  0.17561  0.53965  0.23150  1.0000
  Fe  Fe14      1.0  0.15416  0.53526  0.12504  1.0000
  S   S27       1.0  0.13377  0.48908  0.11360  1.0000
  S   S28       1.0  0.16544  0.56980  0.09185  1.0000
  Fe  Fe15      1.0  0.10501  0.48105  0.15110  1.0000
  S   S29       1.0  0.05710  0.45956  0.14059  1.0000
  Fe  Fe16      1.0  0.16581  0.48812  0.14345  1.0000
  S   S30       1.0  0.19241  0.46727  0.13274  1.0000
  S   S31       1.0  0.12471  0.52793  0.16150  1.0000
  S   S32       1.0  0.18784  0.53496  0.15266  1.0000
  H   H59       1.0  0.45622  0.60828  0.14098  1.0000
  S   S33       1.0  0.44334  0.36812  0.05980  1.0000
  H   H60       1.0  0.38505  0.43783  0.42942  1.0000
  H   H61       1.0  0.17304  0.49177  0.03746  1.0000
  C   C32       1.0  0.02344  0.43220  0.15396  1.0000
  H   H62       1.0  0.20983  0.54314  0.48767  1.0000
  C   C33       1.0  0.44185  0.56802  0.48464  1.0000
  H   H63       1.0  0.03995  0.41687  0.18676  1.0000
  H   H64       1.0  0.42848  0.60214  0.21547  1.0000
  C   C34       1.0  0.39362  0.41624  0.06495  1.0000
  C   C35       1.0  0.37997  0.38664  0.06086  1.0000
  C   C36       1.0  0.39575  0.37274  0.05962  1.0000
  C   C37       1.0  0.42564  0.38807  0.06220  1.0000
  C   C38       1.0  0.43977  0.41799  0.06567  1.0000
  C   C39       1.0  0.42372  0.43206  0.06738  1.0000
  H   H65       1.0  0.35686  0.37421  0.05869  1.0000
  C   C40       1.0  0.45096  0.44763  0.48576  1.0000
  H   H66       1.0  0.46293  0.43024  0.06643  1.0000
  H   H67       1.0  0.43459  0.45504  0.07006  1.0000
  C   C41       1.0  0.28977  0.51069  0.11410  1.0000
  C   C42       1.0  0.27771  0.52714  0.12255  1.0000
  C   C43       1.0  0.24811  0.51424  0.12827  1.0000
  C   C44       1.0  0.22996  0.48458  0.12556  1.0000
  C   C45       1.0  0.24203  0.46805  0.11738  1.0000
  C   C46       1.0  0.27172  0.48098  0.11168  1.0000
  H   H68       1.0  0.29144  0.55011  0.12463  1.0000
  H   H69       1.0  0.23936  0.52731  0.13477  1.0000
  H   H70       1.0  0.22832  0.44507  0.11534  1.0000
  H   H71       1.0  0.28059  0.46797  0.10522  1.0000
  C   C47       1.0  0.43379  0.55466  0.24436  1.0000
  C   C48       1.0  0.41166  0.54428  0.22426  1.0000
  C   C49       1.0  0.41614  0.53766  0.19678  1.0000
  C   C50       1.0  0.44271  0.54112  0.18944  1.0000
  C   C51       1.0  0.46465  0.55102  0.20970  1.0000
  C   C52       1.0  0.46023  0.55779  0.23707  1.0000
  H   H72       1.0  0.39112  0.54170  0.22985  1.0000
  H   H73       1.0  0.39910  0.52998  0.18128  1.0000
  H   H74       1.0  0.48524  0.55372  0.20411  1.0000
  H   H75       1.0  0.47731  0.56550  0.25250  1.0000
  C   C53       1.0  0.46008  0.58141  0.43632  1.0000
  C   C54       1.0  0.46465  0.58386  0.46568  1.0000
  H   H76       1.0  0.07107  0.64474  0.34316  1.0000
  C   C55       1.0  0.41421  0.54964  0.47434  1.0000
  C   C56       1.0  0.40961  0.54728  0.44498  1.0000
  C   C57       1.0  0.43243  0.56308  0.42602  1.0000
  H   H77       1.0  0.48600  0.59801  0.47381  1.0000
  H   H78       1.0  0.06988  0.57920  0.46491  1.0000
  H   H79       1.0  0.38826  0.53314  0.43685  1.0000
  H   H80       1.0  0.42864  0.56104  0.40347  1.0000
  C   C58       1.0  0.03932  0.60105  0.42459  1.0000
  H   H81       1.0  0.45313  0.47604  0.14613  1.0000
  C   C59       1.0  0.04255  0.56728  0.27632  1.0000
  H   H82       1.0  0.03152  0.63520  0.43419  1.0000
  H   H83       1.0  0.38459  0.34975  0.05658  1.0000
  H   H84       1.0  0.48398  0.65471  0.16343  1.0000
  C   C60       1.0  0.02185  0.61268  0.42919  1.0000
  C   C61       1.0  0.16911  0.58374  0.03579  1.0000
  C   C62       1.0  0.15946  0.56134  0.05560  1.0000
  C   C63       1.0  0.14574  0.53300  0.04605  1.0000
  C   C64       1.0  0.14179  0.52719  0.01696  1.0000
  H   H85       1.0  0.10291  0.55641  0.27530  1.0000
  H   H86       1.0  0.17993  0.60573  0.04294  1.0000
  H   H87       1.0  0.13794  0.51552  0.06100  1.0000
  H   H88       1.0  0.43064  0.62086  0.41114  1.0000
  C   C65       1.0  0.13824  0.56727  0.30365  1.0000
  C   C66       1.0  0.16446  0.56837  0.30688  1.0000
  C   C67       1.0  0.17554  0.55977  0.28459  1.0000
  C   C68       1.0  0.16055  0.54998  0.25892  1.0000
  C   C69       1.0  0.13426  0.54874  0.25575  1.0000
  C   C70       1.0  0.12320  0.55736  0.27801  1.0000
  H   H89       1.0  0.17624  0.57596  0.32647  1.0000
  H   H90       1.0  0.19590  0.56083  0.28723  1.0000
  H   H91       1.0  0.12254  0.54126  0.23612  1.0000
  H   H92       1.0  0.36765  0.45818  0.42671  1.0000
  N   N4        1.0  0.23276  0.49524  0.21873  1.0000
  C   C71       1.0  0.25599  0.49372  0.20264  1.0000
  C   C72       1.0  0.22664  0.51577  0.20287  1.0000
  C   C73       1.0  0.20626  0.46574  0.21821  1.0000
  C   C74       1.0  0.24294  0.50467  0.24860  1.0000
  C   C75       1.0  0.26428  0.47203  0.21372  1.0000
  C   C76       1.0  0.25233  0.54656  0.19916  1.0000
  C   C77       1.0  0.17960  0.46203  0.23363  1.0000
  C   C78       1.0  0.22878  0.51891  0.26499  1.0000
  H   H93       1.0  0.24977  0.48837  0.18011  1.0000
  H   H94       1.0  0.27628  0.51488  0.20242  1.0000
  H   H95       1.0  0.20933  0.51773  0.21273  1.0000
  H   H96       1.0  0.21818  0.50734  0.18145  1.0000
  H   H97       1.0  0.19983  0.45867  0.19594  1.0000
  H   H98       1.0  0.21047  0.44961  0.22816  1.0000
  H   H99       1.0  0.24027  0.48620  0.26152  1.0000
  H   H100      1.0  0.26639  0.52069  0.24857  1.0000
  H   H101      1.0  0.24756  0.44964  0.20873  1.0000
  H   H102      1.0  0.28407  0.47600  0.20267  1.0000
  H   H103      1.0  0.26902  0.47426  0.23665  1.0000
  H   H104      1.0  0.26728  0.54756  0.18262  1.0000
  H   H105      1.0  0.24425  0.56076  0.19200  1.0000
  H   H106      1.0  0.26426  0.55550  0.21907  1.0000
  H   H107      1.0  0.18280  0.46361  0.25683  1.0000
  H   H108      1.0  0.16122  0.44018  0.22938  1.0000
  H   H109      1.0  0.17295  0.47720  0.22623  1.0000
  H   H110      1.0  0.22719  0.51286  0.28766  1.0000
  H   H111      1.0  0.20687  0.51283  0.25825  1.0000
  H   H112      1.0  0.24257  0.54265  0.26444  1.0000
  H   H113      1.0  0.43543  0.63890  0.37820  1.0000
  H   H114      1.0  0.46163  0.43873  0.47283  1.0000
  C   C79       1.0  0.06921  0.51043  0.04965  1.0000
  C   C80       1.0  0.43503  0.62512  0.21732  1.0000
  H   H115      1.0  0.44725  0.44854  0.01218  1.0000
  N   N5        1.0  0.41600  0.46670  0.48077  1.0000
  H   H116      1.0  0.41673  0.48928  0.44244  1.0000
  C   C81       1.0  0.43211  0.45598  0.14553  1.0000
  H   H117      1.0  0.39193  0.48692  0.46782  1.0000
  C   C82       1.0  0.24504  0.56873  0.00672  1.0000
  H   H118      1.0  0.29002  0.55082  0.06237  1.0000
  H   H119      1.0  0.35914  0.43418  0.45580  1.0000
  H   H120      1.0  0.19358  0.47736  0.05378  1.0000
  H   H121      1.0  0.26957  0.58012  0.06105  1.0000
  H   H122      1.0  0.47266  0.39976  0.17195  1.0000
  H   H123      1.0  0.43480  0.65129  0.25287  1.0000
  C   C83       1.0  0.49243  0.46923  0.11883  1.0000
  H   H124      1.0  0.05757  0.53696  0.44689  1.0000
  H   H125      1.0  0.06438  0.54951  0.35666  1.0000
  N   N6        1.0  0.06390  0.53221  0.00253  1.0000
  Fe  Fe17      1.0  0.49053  0.60421  0.36541  1.0000
  C   C84       1.0  0.01072  0.59805  0.34911  1.0000
  H   H126      1.0  0.19708  0.56777  0.48847  1.0000
  H   H127      1.0  0.36527  0.46228  0.01038  1.0000
  C   C85       1.0  0.45327  0.39929  0.16315  1.0000
  H   H128      1.0  0.07443  0.49504  0.04003  1.0000
  H   H129      1.0  0.20595  0.55466  0.03035  1.0000
  C   C86       1.0  0.44133  0.37644  0.13966  1.0000
  C   C87       1.0  0.43152  0.62973  0.24882  1.0000
  H   H130      1.0  0.06705  0.61506  0.49440  1.0000
  H   H131      1.0  0.48013  0.64438  0.39343  1.0000
  C   C88       1.0  0.45586  0.50587  0.00477  1.0000
  Fe  Fe18      1.0  0.48789  0.37699  0.07165  1.0000
  H   H132      1.0  0.07932  0.58275  0.30377  1.0000
  H   H133      1.0  0.02039  0.55351  0.35946  1.0000
  C   C89       1.0  0.23565  0.58282  0.08080  1.0000
  C   C90       1.0  0.45488  0.43976  0.20663  1.0000
  H   H134      1.0  0.47567  0.61279  0.21961  1.0000
  H   H135      1.0  0.04610  0.49941  0.05507  1.0000
  H   H136      1.0  0.41884  0.45594  0.16338  1.0000
  H   H137      1.0  0.33893  0.42758  0.99881  1.0000
  H   H138      1.0  0.28579  0.52576  0.03609  1.0000
  N   N7        1.0  0.46017  0.42912  0.15467  1.0000
  H   H139      1.0  0.47327  0.42447  0.11286  1.0000
  H   H140      1.0  0.24287  0.50834  0.06591  1.0000
  N   N8        1.0  0.23034  0.53916  0.05358  1.0000
  C   C91       1.0  0.22119  0.54701  0.02647  1.0000
  C   C92       1.0  0.02630  0.57171  0.41807  1.0000
  H   H141      1.0  0.00898  0.46139  0.27323  1.0000
  H   H142      1.0  0.47497  0.47028  0.10761  1.0000
  H   H143      1.0  0.42708  0.41889  0.12346  1.0000
  H   H144      1.0  0.02167  0.55998  0.47801  1.0000
  H   H145      1.0  0.08525  0.59667  0.35115  1.0000
  H   H146      1.0  0.50258  0.48637  0.13481  1.0000
  H   H147      1.0  0.46985  0.60198  0.17276  1.0000
  H   H148      1.0  0.03957  0.56248  0.41424  1.0000
  H   H149      1.0  0.41530  0.41523  0.00234  1.0000
  C   C93       1.0  0.04652  0.53873  0.34140  1.0000
  H   H150      1.0  0.19046  0.53001  0.07364  1.0000
  H   H151      1.0  0.40925  0.61387  0.25546  1.0000
  C   C94       1.0  0.24903  0.56501  0.07155  1.0000
  C   C95       1.0  0.42370  0.48259  0.00494  1.0000
  H   H152      1.0  0.47700  0.50959  0.47351  1.0000
  H   H153      1.0  0.21881  0.57121  0.09697  1.0000
  C   C96       1.0  0.40115  0.47460  0.45852  1.0000
  H   H154      1.0  0.47464  0.53551  0.49439  1.0000
  H   H155      1.0  0.03546  0.50016  0.45556  1.0000
  H   H156      1.0  0.02004  0.52247  0.45588  1.0000
  C   C97       1.0  0.46217  0.51677  0.48039  1.0000
  C   C98       1.0  0.03979  0.52196  0.46084  1.0000
  H   H157      1.0  0.10011  0.64620  0.36206  1.0000
  H   H158      1.0  0.25241  0.60284  0.09096  1.0000
  H   H159      1.0  0.13107  0.50522  0.00978  1.0000
  H   H160      1.0  0.44591  0.62597  0.26258  1.0000
  C   C99       1.0  0.03306  0.52354  0.00782  1.0000
  C   C100      1.0  0.46324  0.63923  0.17368  1.0000
  H   H161      1.0  0.02602  0.61272  0.36513  1.0000
  H   H162      1.0  0.47739  0.65444  0.42807  1.0000
  H   H163      1.0  0.28436  0.55680  0.02581  1.0000
  H   H164      1.0  0.41951  0.46960  0.02456  1.0000
  H   H165      1.0  0.43691  0.39046  0.18023  1.0000
  H   H166      1.0  0.03136  0.53799  0.02328  1.0000
  H   H167      1.0  0.45819  0.37987  0.12428  1.0000
  H   H168      1.0  0.05640  0.57061  0.25772  1.0000
  H   H169      1.0  0.02612  0.57247  0.26943  1.0000
  H   H170      1.0  0.03660  0.61672  0.31164  1.0000
  H   H171      1.0  0.41860  0.62729  0.20515  1.0000
  S   S34       1.0  0.44541  0.56901  0.02467  1.0000
  H   H172      1.0  0.43270  0.59264  0.17028  1.0000
  C   C101      1.0  0.08526  0.63560  0.34406  1.0000
  C   C102      1.0  0.44083  0.64243  0.40102  1.0000
  H   H173      1.0  0.46498  0.45758  0.22205  1.0000
  N   N9        1.0  0.46459  0.64401  0.20510  1.0000
  C   C103      1.0  0.43281  0.42772  0.14515  1.0000
  C   C104      1.0  0.18305  0.49005  0.05728  1.0000
  H   H174      1.0  0.46451  0.50840  0.02655  1.0000
  H   H175      1.0  0.05906  0.59901  0.37069  1.0000
  H   H176      1.0  0.23580  0.50842  0.02926  1.0000
  S   S35       1.0  0.12388  0.54197  0.46930  1.0000
  H   H177      1.0  0.41677  0.43369  0.45598  1.0000
  H   H178      1.0  0.41452  0.41222  0.15861  1.0000
  H   H179      1.0  0.45885  0.52688  0.99806  1.0000
  C   C105      1.0  0.37696  0.44942  0.44196  1.0000
  H   H180      1.0  0.07215  0.60927  0.29168  1.0000
  C   C106      1.0  0.24554  0.52278  0.04777  1.0000
  H   H181      1.0  0.25549  0.55828  0.09113  1.0000
  H   H182      1.0  0.20906  0.51586  0.09183  1.0000
  H   H183      1.0  0.44581  0.46875  0.44914  1.0000
  H   H184      1.0  0.45326  0.42061  0.21715  1.0000
  C   C107      1.0  0.02084  0.41415  0.17651  1.0000
  C   C108      1.0  0.06868  0.60291  0.34937  1.0000
  S   S36       1.0  0.49555  0.35572  0.10909  1.0000
  H   H185      1.0  0.17170  0.53054  0.49031  1.0000
  H   H186      1.0  0.22691  0.58923  0.06284  1.0000
  H   H187      1.0  0.20831  0.52761  0.01337  1.0000
  C   C109      1.0  0.07868  0.53723  0.03086  1.0000
  C   C110      1.0  0.20351  0.51976  0.07029  1.0000
  H   H188      1.0  0.48074  0.47083  0.17526  1.0000
  C   C111      1.0  0.43200  0.45428  0.46641  1.0000
  H   H189      1.0  0.06839  0.52724  0.49492  1.0000
  C   C112      1.0  0.48190  0.43910  0.13113  1.0000
  C   C113      1.0  0.45507  0.60874  0.16437  1.0000
  H   H190      1.0  0.43092  0.65398  0.41025  1.0000
  H   H191      1.0  0.16528  0.47728  0.07229  1.0000
  H   H192      1.0  0.26327  0.58656  0.01785  1.0000
  C   C114      1.0  0.04825  0.52781  0.49225  1.0000
  H   H193      1.0  0.45558  0.52472  0.46189  1.0000
  C   C115      1.0  0.47376  0.44817  0.17992  1.0000
  C   C116      1.0  0.06153  0.58704  0.30031  1.0000
  H   H194      1.0  0.44708  0.64343  0.16375  1.0000
  H   H195      1.0  0.43309  0.43586  0.20212  1.0000
  H   H196      1.0  0.48799  0.64292  0.24175  1.0000
  H   H197      1.0  0.41200  0.49422  0.00868  1.0000
  H   H198      1.0  0.42282  0.37529  0.12834  1.0000
  N   N10       1.0  0.04638  0.58496  0.32763  1.0000
  H   H199      1.0  0.10234  0.54759  0.02809  1.0000
  H   H200      1.0  0.07551  0.55242  0.04384  1.0000
  H   H201      1.0  0.50123  0.43845  0.13811  1.0000
  H   H202      1.0  0.43379  0.35500  0.14927  1.0000
  H   H203      1.0  0.08127  0.51725  0.06991  1.0000
  C   C117      1.0  0.27823  0.54046  0.04262  1.0000
  H   H204      1.0  0.49389  0.44852  0.18587  1.0000
  C   C118      1.0  0.02957  0.55443  0.33826  1.0000
  C   C119      1.0  0.48486  0.63640  0.21922  1.0000
  H   H205      1.0  0.38147  0.42350  0.49071  1.0000
  H   H206      1.0  0.05517  0.53651  0.32102  1.0000
  H   H207      1.0  0.10287  0.62645  0.48508  1.0000
  C   C120      1.0  0.16490  0.57793  0.00674  1.0000
  H   H208      1.0  0.09551  0.57823  0.48759  1.0000
  H   H209      1.0  0.03218  0.54427  0.28206  1.0000
  S   S37       1.0  0.22596  0.67292  0.42898  1.0000
  H   H210      1.0  0.01073  0.54119  0.32445  1.0000
  H   H211      1.0  0.02152  0.50225  0.01854  1.0000
  C   C121      1.0  0.07975  0.58586  0.99852  1.0000
  H   H212      1.0  0.09162  0.59277  0.01878  1.0000
  C   C122      1.0  0.02579  0.59552  0.32260  1.0000
  C   C123      1.0  0.07583  0.57989  0.48749  1.0000
  H   H213      1.0  0.05765  0.58179  0.00108  1.0000
  H   H214      1.0  0.38268  0.42740  0.00577  1.0000
  H   H215      1.0  0.03198  0.51673  0.34967  1.0000
  C   C124      1.0  0.43616  0.49338  0.49700  1.0000
  H   H216      1.0  0.46820  0.46702  0.49625  1.0000
  C   C125      1.0  0.15098  0.54963  0.99722  1.0000
  Fe  Fe19      1.0  0.15583  0.60210  0.87262  1.0000
  S   S38       1.0  0.15261  0.63957  0.88828  1.0000
  S   S39       1.0  0.16473  0.60429  0.82535  1.0000
  Fe  Fe20      1.0  0.14882  0.57767  0.93267  1.0000
  S   S40       1.0  0.14490  0.61318  0.95158  1.0000
  S   S41       1.0  0.14404  0.54165  0.96099  1.0000
  Fe  Fe21      1.0  0.11575  0.60615  0.91465  1.0000
  S   S42       1.0  0.07260  0.60331  0.92123  1.0000
  Fe  Fe22      1.0  0.18211  0.64262  0.92365  1.0000
  S   S43       1.0  0.11760  0.56888  0.89717  1.0000
  S   S44       1.0  0.18729  0.60689  0.90635  1.0000
  S   S45       1.0  0.44358  0.60225  0.82095  1.0000
  S   S46       1.0  0.47754  0.56764  0.83096  1.0000
  Fe  Fe23      1.0  0.46568  0.58555  0.79397  1.0000
  S   S47       1.0  0.44405  0.55283  0.75946  1.0000
  Fe  Fe24      1.0  0.45921  0.58801  0.85817  1.0000
  S   S48       1.0  0.42569  0.56233  0.89180  1.0000
  Fe  Fe25      1.0  0.38199  0.48208  0.58871  1.0000
  S   S49       1.0  0.41984  0.52004  0.56873  1.0000
  S   S50       1.0  0.38223  0.44036  0.59484  1.0000
  Fe  Fe26      1.0  0.34862  0.51450  0.59769  1.0000
  S   S51       1.0  0.38502  0.55429  0.57760  1.0000
  S   S52       1.0  0.31554  0.52451  0.61672  1.0000
  Fe  Fe27      1.0  0.38682  0.52535  0.54499  1.0000
  C   C126      1.0  0.39467  0.44465  0.50111  1.0000
  Fe  Fe28      1.0  0.41428  0.54491  0.60340  1.0000
  S   S53       1.0  0.45118  0.57970  0.62861  1.0000
  S   S54       1.0  0.34859  0.48586  0.56332  1.0000
  S   S55       1.0  0.37824  0.50668  0.62503  1.0000
  Fe  Fe29      1.0  0.12417  0.50050  0.69061  1.0000
  S   S56       1.0  0.11365  0.45679  0.67566  1.0000
  S   S57       1.0  0.12037  0.50092  0.73859  1.0000
  Fe  Fe30      1.0  0.13046  0.52219  0.62995  1.0000
  S   S58       1.0  0.12017  0.48014  0.61143  1.0000
  S   S59       1.0  0.14114  0.56031  0.60175  1.0000
  Fe  Fe31      1.0  0.08503  0.46093  0.64406  1.0000
  S   S60       1.0  0.04073  0.42442  0.63179  1.0000
  Fe  Fe32      1.0  0.14994  0.48017  0.64465  1.0000
  S   S61       1.0  0.17953  0.46288  0.63389  1.0000
  S   S62       1.0  0.09333  0.50320  0.66042  1.0000
  S   S63       1.0  0.16254  0.52362  0.66166  1.0000
  H   H217      1.0  0.45326  0.51673  0.95079  1.0000
  N   N11       1.0  0.48325  0.43984  0.65350  1.0000
  C   C127      1.0  0.08943  0.58440  0.78567  1.0000
  C   C128      1.0  0.19593  0.54924  0.52972  1.0000
  H   H218      1.0  0.42666  0.45381  0.65747  1.0000
  C   C129      1.0  0.06294  0.50722  0.95530  1.0000
  H   H219      1.0  0.11073  0.62387  0.75974  1.0000
  S   S64       1.0  0.48380  0.35726  0.59803  1.0000
  H   H220      1.0  0.47699  0.52641  0.74160  1.0000
  C   C130      1.0  0.41030  0.43525  0.58273  1.0000
  C   C131      1.0  0.40745  0.40802  0.58520  1.0000
  C   C132      1.0  0.42931  0.40322  0.57562  1.0000
  C   C133      1.0  0.45409  0.42558  0.56314  1.0000
  C   C134      1.0  0.45697  0.45280  0.56082  1.0000
  C   C135      1.0  0.43540  0.45770  0.57084  1.0000
  H   H221      1.0  0.38814  0.39048  0.59440  1.0000
  H   H222      1.0  0.02227  0.46099  0.60524  1.0000
  H   H223      1.0  0.47607  0.47025  0.55124  1.0000
  H   H224      1.0  0.43814  0.47881  0.56917  1.0000
  C   C136      1.0  0.27754  0.50684  0.62061  1.0000
  C   C137      1.0  0.26518  0.52289  0.62964  1.0000
  C   C138      1.0  0.23531  0.50985  0.63388  1.0000
  C   C139      1.0  0.21736  0.48049  0.62919  1.0000
  C   C140      1.0  0.22965  0.46443  0.62014  1.0000
  C   C141      1.0  0.25953  0.47751  0.61576  1.0000
  H   H225      1.0  0.27874  0.54567  0.63299  1.0000
  H   H226      1.0  0.22620  0.52253  0.64062  1.0000
  H   H227      1.0  0.21596  0.44170  0.61635  1.0000
  H   H228      1.0  0.26862  0.46483  0.60884  1.0000
  C   C142      1.0  0.44890  0.56121  0.72328  1.0000
  C   C143      1.0  0.46462  0.58949  0.71329  1.0000
  C   C144      1.0  0.46620  0.59503  0.68404  1.0000
  C   C145      1.0  0.45194  0.57239  0.66484  1.0000
  C   C146      1.0  0.43739  0.54418  0.67492  1.0000
  C   C147      1.0  0.43581  0.53863  0.70400  1.0000
  H   H229      1.0  0.47494  0.60703  0.72806  1.0000
  H   H230      1.0  0.47774  0.61692  0.67631  1.0000
  H   H231      1.0  0.42715  0.52658  0.66030  1.0000
  H   H232      1.0  0.42385  0.51671  0.71162  1.0000
  C   C148      1.0  0.43170  0.56448  0.92864  1.0000
  C   C149      1.0  0.40824  0.54873  0.94680  1.0000
  C   C150      1.0  0.41210  0.54958  0.97628  1.0000
  C   C151      1.0  0.05060  0.53129  0.55266  1.0000
  C   C152      1.0  0.46293  0.58227  0.96962  1.0000
  C   C153      1.0  0.45913  0.58108  0.94014  1.0000
  H   H233      1.0  0.38695  0.53578  0.93802  1.0000
  H   H234      1.0  0.39869  0.62120  0.65362  1.0000
  H   H235      1.0  0.43055  0.51135  0.92152  1.0000
  H   H236      1.0  0.47740  0.59294  0.92634  1.0000
  C   C154      1.0  0.03827  0.57315  0.91356  1.0000
  C   C155      1.0  0.09157  0.60197  0.75901  1.0000
  H   H237      1.0  0.45298  0.64236  0.87228  1.0000
  H   H238      1.0  0.05384  0.54630  0.89833  1.0000
  N   N12       1.0  0.19596  0.52472  0.54514  1.0000
  H   H239      1.0  0.35431  0.45619  0.97359  1.0000
  H   H240      1.0  0.21989  0.51441  0.51577  1.0000
  C   C156      1.0  0.14573  0.57898  0.54694  1.0000
  C   C157      1.0  0.13434  0.55510  0.56514  1.0000
  C   C158      1.0  0.11870  0.52759  0.55373  1.0000
  C   C159      1.0  0.11543  0.52396  0.52433  1.0000
  H   H241      1.0  0.17316  0.60294  0.76586  1.0000
  H   H242      1.0  0.15786  0.60036  0.55558  1.0000
  H   H243      1.0  0.10924  0.50906  0.56747  1.0000
  H   H244      1.0  0.39388  0.53749  0.99009  1.0000
  C   C160      1.0  0.15291  0.57517  0.80177  1.0000
  C   C161      1.0  0.13571  0.54673  0.81070  1.0000
  C   C162      1.0  0.12590  0.52431  0.79100  1.0000
  C   C163      1.0  0.13299  0.53009  0.76221  1.0000
  C   C164      1.0  0.15009  0.55854  0.75325  1.0000
  C   C165      1.0  0.16001  0.58095  0.77298  1.0000
  H   H245      1.0  0.13001  0.54200  0.83276  1.0000
  H   H246      1.0  0.11268  0.50234  0.79810  1.0000
  H   H247      1.0  0.15569  0.56327  0.73116  1.0000
  H   H248      1.0  0.40548  0.60473  0.62523  1.0000
  C   C166      1.0  0.49899  0.66617  0.92530  1.0000
  H   H249      1.0  0.16218  0.46182  0.79481  1.0000
  H   H250      1.0  0.37887  0.59862  0.74509  1.0000
  C   C167      1.0  0.10086  0.62344  0.81812  1.0000
  H   H251      1.0  0.24108  0.54680  0.53454  1.0000
  H   H252      1.0  0.09448  0.59145  0.74030  1.0000
  H   H253      1.0  0.42017  0.66055  0.93913  1.0000
  S   S65       1.0  0.38492  0.52869  0.49717  1.0000
  H   H254      1.0  0.03719  0.56684  0.79550  1.0000
  C   C168      1.0  0.20710  0.47563  0.75409  1.0000
  H   H255      1.0  0.49326  0.46246  0.69319  1.0000
  C   C169      1.0  0.44084  0.66075  0.93882  1.0000
  N   N13       1.0  0.07999  0.59212  0.81253  1.0000
  H   H256      1.0  0.42704  0.61312  0.65680  1.0000
  H   H257      1.0  0.17981  0.46360  0.54377  1.0000
  H   H258      1.0  0.07667  0.57927  0.85678  1.0000
  C   C170      1.0  0.01351  0.57469  0.91863  1.0000
  C   C171      1.0  0.12751  0.54777  0.50608  1.0000
  H   H259      1.0  0.21588  0.56996  0.53418  1.0000
  H   H260      1.0  0.44948  0.45642  0.68617  1.0000
  H   H261      1.0  0.22262  0.48568  0.79745  1.0000
  H   H262      1.0  0.42663  0.38206  0.57723  1.0000
  H   H263      1.0  0.10281  0.56569  0.98353  1.0000
  H   H264      1.0  0.44420  0.48803  0.92574  1.0000
  C   C172      1.0  0.22272  0.52441  0.53689  1.0000
  H   H265      1.0  0.38595  0.47173  0.52884  1.0000
  C   C173      1.0  0.46223  0.44882  0.64428  1.0000
  C   C174      1.0  0.19439  0.52939  0.57632  1.0000
  H   H266      1.0  0.37148  0.56209  0.74821  1.0000
  Fe  Fe33      1.0  0.48628  0.64345  0.82237  1.0000
  H   H267      1.0  0.42831  0.63333  0.97629  1.0000
  H   H268      1.0  0.42431  0.42191  0.67088  1.0000
  C   C175      1.0  0.02541  0.55728  0.50067  1.0000
  C   C176      1.0  0.21874  0.55803  0.58801  1.0000
  H   H269      1.0  0.05602  0.57322  0.54595  1.0000
  H   H270      1.0  0.48611  0.53083  0.79162  1.0000
  C   C177      1.0  0.00946  0.41766  0.65023  1.0000
  H   H271      1.0  0.35957  0.43465  0.52990  1.0000
  C   C178      1.0  0.06161  0.55879  0.53462  1.0000
  H   H272      1.0  0.10102  0.63707  0.80040  1.0000
  C   C179      1.0  0.35920  0.44725  0.99252  1.0000
  H   H273      1.0  0.49028  0.64365  0.91895  1.0000
  H   H274      1.0  0.39319  0.46449  0.93899  1.0000
  H   H275      1.0  0.17810  0.55197  0.53730  1.0000
  H   H276      1.0  0.25290  0.55783  0.99274  1.0000
  H   H277      1.0  0.49479  0.50684  0.73639  1.0000
  S   S66       1.0  0.50087  0.62987  0.86137  1.0000
  H   H278      1.0  0.40214  0.59983  0.87972  1.0000
  C   C180      1.0  0.43520  0.43422  0.99439  1.0000
  C   C181      1.0  0.43455  0.63278  0.95409  1.0000
  H   H279      1.0  0.45433  0.37486  0.63944  1.0000
  H   H280      1.0  0.19395  0.51221  0.58947  1.0000
  H   H281      1.0  0.14988  0.49904  0.54040  1.0000
  H   H282      1.0  0.37358  0.42291  0.96941  1.0000
  H   H283      1.0  0.34427  0.58953  0.64555  1.0000
  H   H284      1.0  0.45323  0.62980  0.95498  1.0000
  H   H285      1.0  0.17187  0.50522  0.71852  1.0000
  H   H286      1.0  0.42820  0.37011  0.66575  1.0000
  N   N14       1.0  0.37149  0.57300  0.68888  1.0000
  C   C182      1.0  0.35008  0.54192  0.69533  1.0000
  C   C183      1.0  0.35627  0.58975  0.69034  1.0000
  C   C184      1.0  0.39581  0.58531  0.70979  1.0000
  C   C185      1.0  0.38382  0.57487  0.65994  1.0000
  C   C186      1.0  0.36262  0.52236  0.70098  1.0000
  C   C187      1.0  0.33418  0.58347  0.66675  1.0000
  C   C188      1.0  0.38726  0.58410  0.74102  1.0000
  C   C189      1.0  0.40503  0.60532  0.64867  1.0000
  H   H287      1.0  0.33659  0.53979  0.71390  1.0000
  H   H288      1.0  0.33467  0.53200  0.67752  1.0000
  H   H289      1.0  0.37173  0.61325  0.69059  1.0000
  H   H290      1.0  0.34437  0.58534  0.71062  1.0000
  H   H291      1.0  0.40837  0.57444  0.70808  1.0000
  H   H292      1.0  0.41140  0.60824  0.70487  1.0000
  H   H293      1.0  0.39581  0.56329  0.65958  1.0000
  H   H294      1.0  0.36691  0.56331  0.64379  1.0000
  H   H295      1.0  0.37600  0.52264  0.68330  1.0000
  H   H296      1.0  0.37527  0.52791  0.72081  1.0000
  H   H297      1.0  0.34470  0.49987  0.70335  1.0000
  H   H298      1.0  0.31701  0.56060  0.66680  1.0000
  H   H299      1.0  0.32375  0.59630  0.67037  1.0000
  H   H300      1.0  0.50407  0.47535  0.60379  1.0000
  H   H301      1.0  0.40672  0.59158  0.75435  1.0000
  H   H302      1.0  0.08547  0.56947  0.53615  1.0000
  H   H303      1.0  0.19912  0.45360  0.76256  1.0000
  H   H304      1.0  0.22608  0.48067  0.74080  1.0000
  H   H305      1.0  0.03164  0.50883  0.50402  1.0000
  H   H306      1.0  0.18797  0.42733  0.72194  1.0000
  H   H307      1.0  0.18093  0.42787  0.68512  1.0000
  H   H308      1.0  0.17381  0.52845  0.58132  1.0000
  H   H309      1.0  0.45936  0.41214  0.68905  1.0000
  C   C190      1.0  0.09544  0.63630  0.84458  1.0000
  H   H310      1.0  0.04946  0.48719  0.99623  1.0000
  H   H311      1.0  0.01564  0.59391  0.92780  1.0000
  Fe  Fe34      1.0  0.49767  0.39149  0.56459  1.0000
  H   H312      1.0  0.24041  0.51532  0.77415  1.0000
  C   C191      1.0  0.21899  0.49660  0.77931  1.0000
  H   H313      1.0  0.07454  0.56158  0.78003  1.0000
  C   C192      1.0  0.50696  0.54071  0.68819  1.0000
  C   C193      1.0  0.43947  0.56652  0.98781  1.0000
  H   H314      1.0  0.48420  0.59535  0.97843  1.0000
  H   H315      1.0  0.24025  0.56226  0.58174  1.0000
  H   H316      1.0  0.21603  0.57622  0.58138  1.0000
  C   C194      1.0  0.17588  0.43252  0.70646  1.0000
  H   H317      1.0  0.20570  0.47652  0.69729  1.0000
  C   C195      1.0  0.14987  0.46585  0.77850  1.0000
  C   C196      1.0  0.03513  0.54810  0.90182  1.0000
  C   C197      1.0  0.03175  0.58143  0.83555  1.0000
  H   H318      1.0  0.49719  0.66753  0.94849  1.0000
  C   C198      1.0  0.40879  0.47977  0.95469  1.0000
  H   H319      1.0  0.48225  0.42191  0.61256  1.0000
  N   N15       1.0  0.05213  0.55537  0.50400  1.0000
  H   H320      1.0  0.22145  0.54931  0.71807  1.0000
  H   H321      1.0  0.23613  0.57930  0.99332  1.0000
  H   H322      1.0  0.23664  0.52737  0.72584  1.0000
  C   C199      1.0  0.44162  0.63811  0.89289  1.0000
  C   C200      1.0  0.18419  0.46431  0.70743  1.0000
  H   H323      1.0  0.21669  0.52251  0.69353  1.0000
  C   C201      1.0  0.44497  0.38581  0.65117  1.0000
  H   H324      1.0  0.50509  0.55123  0.66870  1.0000
  H   H325      1.0  0.06176  0.48724  0.94790  1.0000
  H   H326      1.0  0.18881  0.51645  0.75126  1.0000
  H   H327      1.0  0.04163  0.53416  0.82672  1.0000
  C   C202      1.0  0.43608  0.49997  0.93768  1.0000
  H   H328      1.0  0.04354  0.50692  0.94757  1.0000
  H   H329      1.0  0.12680  0.45194  0.78395  1.0000
  C   C203      1.0  0.08232  0.57442  0.83598  1.0000
  H   H330      1.0  0.39609  0.62106  0.90450  1.0000
  H   H331      1.0  0.21683  0.49313  0.57154  1.0000
  C   C204      1.0  0.40921  0.62214  0.88615  1.0000
  H   H332      1.0  0.25165  0.52547  0.57022  1.0000
  H   H333      1.0  0.02705  0.51736  0.55230  1.0000
  H   H334      1.0  0.24201  0.49819  0.54506  1.0000
  C   C205      1.0  0.01082  0.43453  0.67304  1.0000
  H   H335      1.0  0.10370  0.50256  0.51566  1.0000
  C   C206      1.0  0.23331  0.50940  0.55744  1.0000
  H   H336      1.0  0.17277  0.59545  0.99175  1.0000
  C   C207      1.0  0.06423  0.54160  0.83222  1.0000
  H   H337      1.0  0.40474  0.63240  0.86801  1.0000
  N   N16       1.0  0.18429  0.47626  0.73619  1.0000
  H   H338      1.0  0.36040  0.45572  0.50033  1.0000
  H   H339      1.0  0.39972  0.49304  0.96184  1.0000
  H   H340      1.0  0.15243  0.41799  0.70937  1.0000
  H   H341      1.0  0.07379  0.53416  0.81612  1.0000
  H   H342      1.0  0.21774  0.55729  0.61145  1.0000
  H   H343      1.0  0.07194  0.60309  0.75537  1.0000
  C   C208      1.0  0.42941  0.45044  0.97083  1.0000
  C   C209      1.0  0.21785  0.52727  0.71641  1.0000
  C   C210      1.0  0.37412  0.45247  0.51553  1.0000
  C   C211      1.0  0.04983  0.58642  0.80854  1.0000
  C   C212      1.0  0.06582  0.50861  0.98777  1.0000
  C   C213      1.0  0.18951  0.50613  0.73146  1.0000
  H   H344      1.0  0.10502  0.57997  0.83849  1.0000
  C   C214      1.0  0.46842  0.41115  0.66831  1.0000
  H   H345      1.0  0.16934  0.46673  0.69291  1.0000
  H   H346      1.0  0.44613  0.62272  0.90391  1.0000
  H   H347      1.0  0.15441  0.48817  0.77970  1.0000
  H   H348      1.0  0.45071  0.46655  0.96245  1.0000
  C   C215      1.0  0.50434  0.46212  0.67362  1.0000
  H   H349      1.0  0.20495  0.50430  0.78716  1.0000
  H   H350      1.0  0.06421  0.53094  0.85237  1.0000
  H   H351      1.0  0.14959  0.43511  0.75109  1.0000
  H   H352      1.0  0.13815  0.45718  0.73463  1.0000
  C   C216      1.0  0.15486  0.45770  0.74888  1.0000
  H   H353      1.0  0.44449  0.48803  0.51617  1.0000
  H   H354      1.0  0.09479  0.62485  0.86423  1.0000
  H   H355      1.0  0.41634  0.61348  0.94440  1.0000
  H   H356      1.0  0.11082  0.58652  0.78860  1.0000
  H   H357      1.0  0.08700  0.51056  0.99204  1.0000
  H   H358      1.0  0.11347  0.65871  0.84707  1.0000
  H   H359      1.0  0.05018  0.60430  0.79644  1.0000
  H   H360      1.0  0.41881  0.43527  0.95301  1.0000
  N   N17       1.0  0.45282  0.66559  0.90918  1.0000
  H   H361      1.0  0.03141  0.45178  0.68014  1.0000
  H   H362      1.0  0.40587  0.44055  0.51862  1.0000
  H   H363      1.0  0.47222  0.49462  0.78152  1.0000
  H   H364      1.0  0.14257  0.45160  0.54372  1.0000
  H   H365      1.0  0.02630  0.53686  0.96507  1.0000
  H   H366      1.0  0.42459  0.50396  0.50507  1.0000
  H   H367      1.0  0.07202  0.55778  0.96401  1.0000
  C   C217      1.0  0.43960  0.44490  0.66630  1.0000
  H   H368      1.0  0.45053  0.43735  0.62496  1.0000
  S   S67       1.0  0.50743  0.62750  0.79234  1.0000
  H   H369      1.0  0.46957  0.50100  0.99163  1.0000
  H   H370      1.0  0.06058  0.51878  0.54587  1.0000
  H   H371      1.0  0.12319  0.62742  0.81968  1.0000
  C   C218      1.0  0.49816  0.43751  0.62776  1.0000
  H   H372      1.0  0.48506  0.52258  0.69279  1.0000
  C   C219      1.0  0.38217  0.43912  0.98662  1.0000
  H   H373      1.0  0.16293  0.46982  0.57396  1.0000
  H   H374      1.0  0.44566  0.57004  0.50717  1.0000
  H   H375      1.0  0.01656  0.55819  0.83915  1.0000
  H   H376      1.0  0.44866  0.42596  0.98584  1.0000
  H   H377      1.0  0.08224  0.52523  0.94517  1.0000
  N   N18       1.0  0.41184  0.46363  0.97933  1.0000
  H   H378      1.0  0.43362  0.39210  0.63593  1.0000
  H   H379      1.0  0.16938  0.49361  0.51344  1.0000
  S   S68       1.0  0.48103  0.42028  0.54825  1.0000
  H   H380      1.0  0.48415  0.40454  0.67412  1.0000
  H   H381      1.0  0.02799  0.57670  0.51126  1.0000
  H   H382      1.0  0.50356  0.57101  0.71433  1.0000
  H   H383      1.0  0.07567  0.63749  0.84241  1.0000
  C   C220      1.0  0.49123  0.51655  0.77955  1.0000
  H   H384      1.0  0.09152  0.61397  0.52014  1.0000
  H   H385      1.0  0.47361  0.47184  0.63791  1.0000
  H   H386      1.0  0.04408  0.59100  0.85504  1.0000
  C   C221      1.0  0.14240  0.57535  0.51749  1.0000
  C   C222      1.0  0.08447  0.61029  0.49779  1.0000
  C   C223      1.0  0.16386  0.46938  0.55063  1.0000
  C   C224      1.0  0.16925  0.49737  0.53647  1.0000
  H   H387      1.0  0.05722  0.53741  0.57497  1.0000
  H   H388      1.0  0.15203  0.59388  0.50367  1.0000
  C   C225      1.0  0.01453  0.52096  0.98190  1.0000
  H   H389      1.0  0.43822  0.43124  0.50204  1.0000
  H   H390      1.0  0.01800  0.59097  0.83239  1.0000
  C   C226      1.0  0.49620  0.52526  0.74809  1.0000
  H   H391      1.0  0.01361  0.46772  0.57116  1.0000
  H   H392      1.0  0.50369  0.45422  0.98340  1.0000
  C   C227      1.0  0.08000  0.55983  0.98595  1.0000
  H   H393      1.0  0.09087  0.60430  0.98367  1.0000
  C   C228      1.0  0.19354  0.54711  0.49722  1.0000
  H   H394      1.0  0.50556  0.88360  0.35561  1.0000
  Fe  Fe35      1.0  0.40841  0.84029  0.45562  1.0000
  S   S69       1.0  0.38580  0.86351  0.44277  1.0000
  S   S70       1.0  0.43322  0.82944  0.42457  1.0000
  Fe  Fe36      1.0  0.39355  0.84398  0.01247  1.0000
  S   S71       1.0  0.37122  0.86818  0.00073  1.0000
  S   S72       1.0  0.38687  0.82579  0.05726  1.0000
  H   H395      1.0  0.36673  0.78506  0.41832  1.0000
  C   C229      1.0  0.42564  0.99745  0.00926  1.0000
  H   H396      1.0  0.32755  0.75281  0.32636  1.0000
  C   C230      1.0  0.32857  0.77201  0.33603  1.0000
  N   N19       1.0  0.33091  0.77086  0.36771  1.0000
  Fe  Fe37      1.0  0.34977  0.83067  0.47022  1.0000
  S   S73       1.0  0.48756  0.88274  0.23419  1.0000
  S   S74       1.0  0.44576  0.81327  0.22894  1.0000
  Fe  Fe38      1.0  0.47791  0.84931  0.20123  1.0000
  S   S75       1.0  0.48040  0.86361  0.15525  1.0000
  Fe  Fe39      1.0  0.45915  0.84620  0.26328  1.0000
  S   S76       1.0  0.42949  0.85154  0.29300  1.0000
  H   H397      1.0  0.45852  0.71371  0.41560  1.0000
  C   C231      1.0  0.27594  0.73360  0.36672  1.0000
  H   H398      1.0  0.50083  0.95181  0.30561  1.0000
  S   S77       1.0  0.47101  0.76172  0.24945  1.0000
  H   H399      1.0  0.28078  0.70670  0.45543  1.0000
  H   H400      1.0  0.35827  0.75274  0.36216  1.0000
  Fe  Fe40      1.0  0.40481  0.88962  0.48220  1.0000
  H   H401      1.0  0.48709  0.99956  0.09997  1.0000
  C   C232      1.0  0.48371  0.70096  0.28671  1.0000
  C   C233      1.0  0.43226  0.83608  0.38813  1.0000
  C   C234      1.0  0.44601  0.82732  0.36907  1.0000
  C   C235      1.0  0.44527  0.83187  0.33988  1.0000
  C   C236      1.0  0.43088  0.84536  0.32950  1.0000
  C   C237      1.0  0.41704  0.85403  0.34853  1.0000
  C   C238      1.0  0.41784  0.84954  0.37772  1.0000
  H   H402      1.0  0.45702  0.81667  0.37689  1.0000
  H   H403      1.0  0.45536  0.82438  0.32546  1.0000
  H   H404      1.0  0.40590  0.86454  0.34070  1.0000
  H   H405      1.0  0.40733  0.85656  0.39206  1.0000
  C   C239      1.0  0.41314  0.83674  0.08431  1.0000
  C   C240      1.0  0.44166  0.85831  0.07990  1.0000
  C   C241      1.0  0.46185  0.86621  0.10192  1.0000
  C   C242      1.0  0.45380  0.85272  0.12856  1.0000
  C   C243      1.0  0.42526  0.83124  0.13302  1.0000
  C   C244      1.0  0.40505  0.82329  0.11096  1.0000
  H   H406      1.0  0.44816  0.86879  0.05950  1.0000
  H   H407      1.0  0.48386  0.88282  0.09823  1.0000
  H   H408      1.0  0.41879  0.82067  0.15338  1.0000
  H   H409      1.0  0.38305  0.80658  0.11458  1.0000
  C   C245      1.0  0.24560  0.70995  0.43830  1.0000
  C   C246      1.0  0.23588  0.72887  0.43202  1.0000
  C   C247      1.0  0.25360  0.75853  0.43739  1.0000
  C   C248      1.0  0.28117  0.76968  0.44922  1.0000
  C   C249      1.0  0.29057  0.75064  0.45608  1.0000
  C   C250      1.0  0.27297  0.72106  0.45052  1.0000
  H   H410      1.0  0.21499  0.72077  0.42248  1.0000
  H   H411      1.0  0.24601  0.77298  0.43207  1.0000
  H   H412      1.0  0.46923  0.91726  0.30040  1.0000
  H   H413      1.0  0.30412  0.74481  0.40233  1.0000
  H   H414      1.0  0.38358  0.76602  0.40712  1.0000
  H   H415      1.0  0.47696  0.68175  0.35350  1.0000
  S   S78       1.0  0.49443  0.84013  0.27999  1.0000
  H   H416      1.0  0.48495  0.97729  0.05456  1.0000
  H   H417      1.0  0.49604  0.68912  0.19934  1.0000
  C   C251      1.0  0.35299  0.79870  0.32123  1.0000
  S   S79       1.0  0.37161  0.80615  0.48093  1.0000
  H   H418      1.0  0.35627  0.81894  0.33032  1.0000
  H   H419      1.0  0.30937  0.72500  0.37594  1.0000
  H   H420      1.0  0.34743  0.79860  0.29860  1.0000
  H   H421      1.0  0.48226  0.89937  0.38191  1.0000
  C   C252      1.0  0.36341  0.76661  0.40544  1.0000
  C   C253      1.0  0.48733  0.74520  0.26832  1.0000
  H   H422      1.0  0.31157  0.75870  0.46530  1.0000
  Fe  Fe41      1.0  0.48289  0.80873  0.24448  1.0000
  H   H423      1.0  0.29169  0.79339  0.39005  1.0000
  C   C254      1.0  0.35799  0.77028  0.37404  1.0000
  H   H424      1.0  0.21811  0.70629  0.03942  1.0000
  H   H425      1.0  0.30836  0.77082  0.32939  1.0000
  C   C255      1.0  0.50691  0.91365  0.31053  1.0000
  H   H426      1.0  0.34608  0.74633  0.41477  1.0000
  H   H427      1.0  0.30243  0.80041  0.35339  1.0000
  N   N20       1.0  0.28160  0.77360  0.04128  1.0000
  C   C256      1.0  0.27046  0.79064  0.02612  1.0000
  C   C257      1.0  0.26144  0.74241  0.03440  1.0000
  C   C258      1.0  0.31141  0.78336  0.03032  1.0000
  C   C259      1.0  0.28253  0.77958  0.07243  1.0000
  C   C260      1.0  0.28998  0.82359  0.02683  1.0000
  C   C261      1.0  0.23015  0.72957  0.04435  1.0000
  H   H428      1.0  0.47457  0.92761  0.38140  1.0000
  C   C262      1.0  0.29107  0.76259  0.09243  1.0000
  H   H429      1.0  0.31481  0.77332  0.09433  1.0000
  H   H430      1.0  0.24951  0.78595  0.03497  1.0000
  H   H431      1.0  0.26884  0.72832  0.04331  1.0000
  C   C263      1.0  0.48253  0.91623  0.36824  1.0000
  H   H432      1.0  0.31318  0.78936  0.00759  1.0000
  H   H433      1.0  0.32766  0.80332  0.04111  1.0000
  H   H434      1.0  0.29845  0.80250  0.07670  1.0000
  H   H435      1.0  0.26200  0.77720  0.08003  1.0000
  H   H436      1.0  0.25970  0.71461  0.37884  1.0000
  H   H437      1.0  0.29312  0.83222  0.04851  1.0000
  H   H438      1.0  0.26979  0.75008  0.36829  1.0000
  H   H439      1.0  0.37732  0.79044  0.36692  1.0000
  C   C264      1.0  0.49291  0.92999  0.29762  1.0000
  H   H440      1.0  0.21902  0.73908  0.03298  1.0000
  S   S80       1.0  0.42947  0.86768  0.49367  1.0000
  H   H441      1.0  0.46719  0.90616  0.35063  1.0000
  C   C265      1.0  0.32198  0.76176  0.03232  1.0000
  H   H442      1.0  0.45604  0.68975  0.37607  1.0000
  H   H443      1.0  0.28214  0.73998  0.08631  1.0000
  H   H444      1.0  0.28200  0.76147  0.11372  1.0000
  C   C266      1.0  0.46913  0.70794  0.43228  1.0000
  H   H445      1.0  0.33231  0.79370  0.40556  1.0000
  H   H446      1.0  0.44913  0.70343  0.26656  1.0000
  H   H447      1.0  0.31966  0.82796  0.37824  1.0000
  H   H448      1.0  0.27419  0.72646  0.34454  1.0000
  H   H449      1.0  0.48892  0.89151  0.31499  1.0000
  C   C267      1.0  0.31018  0.80451  0.37539  1.0000
  H   H450      1.0  0.45366  0.68694  0.44184  1.0000
  H   H451      1.0  0.39340  0.95521  0.49217  1.0000
  H   H452      1.0  0.22868  0.73148  0.06749  1.0000
  C   C268      1.0  0.33322  0.79666  0.38222  1.0000
  N   N21       1.0  0.49159  0.68890  0.39689  1.0000
  H   H453      1.0  0.37336  0.79851  0.32156  1.0000
  H   H454      1.0  0.50765  0.94370  0.16344  1.0000
  H   H455      1.0  0.27964  0.83335  0.01438  1.0000
  H   H456      1.0  0.47110  0.67811  0.29055  1.0000
  C   C269      1.0  0.47130  0.71539  0.27326  1.0000
  H   H457      1.0  0.34505  0.77281  0.02657  1.0000
  H   H458      1.0  0.32030  0.75300  0.05380  1.0000
  H   H459      1.0  0.26634  0.78448  0.00343  1.0000
  H   H460      1.0  0.31104  0.83094  0.01679  1.0000
  H   H461      1.0  0.26086  0.73917  0.01114  1.0000
  S   S81       1.0  0.30346  0.80750  0.45387  1.0000
  C   C270      1.0  0.41461  0.97410  0.49290  1.0000
  H   H462      1.0  0.31050  0.74399  0.01708  1.0000
  H   H463      1.0  0.35467  0.81616  0.37885  1.0000
  H   H464      1.0  0.40886  0.99652  0.02237  1.0000
  C   C271      1.0  0.30590  0.74338  0.37916  1.0000
  C   C272      1.0  0.47529  0.67529  0.21034  1.0000
  H   H465      1.0  0.40306  0.95159  0.00220  1.0000
  H   H466      1.0  0.46536  0.70930  0.20658  1.0000
  H   H467      1.0  0.48188  0.72844  0.34310  1.0000
  C   C273      1.0  0.47841  0.69531  0.37177  1.0000
  H   H468      1.0  0.49452  0.74162  0.37766  1.0000
  C   C274      1.0  0.46613  0.99630  0.48989  1.0000
  C   C275      1.0  0.42231  0.97194  0.99791  1.0000
  C   C276      1.0  0.45528  0.68629  0.20079  1.0000
  H   H469      1.0  0.47556  0.72416  0.44921  1.0000
  S   S82       1.0  0.43660  0.93813  0.48290  1.0000
  C   C277      1.0  0.43876  0.97150  0.48882  1.0000
  H   H470      1.0  0.46133  0.99107  0.05444  1.0000
  H   H471      1.0  0.49653  0.93210  0.27444  1.0000
  C   C278      1.0  0.48430  0.99745  0.05500  1.0000
  H   H472      1.0  0.45226  0.68512  0.17758  1.0000
  H   H473      1.0  0.48019  0.68047  0.23307  1.0000
  H   H474      1.0  0.48496  0.99452  0.48699  1.0000
  H   H475      1.0  0.41021  0.00560  0.41955  1.0000
  H   H476      1.0  0.43960  0.00335  0.43250  1.0000
  H   H477      1.0  0.43415  0.67501  0.21146  1.0000
  C   C279      1.0  0.49393  0.72677  0.36136  1.0000
  C   C280      1.0  0.49601  0.70820  0.42147  1.0000
  H   H478      1.0  0.50480  0.70244  0.44000  1.0000
  H   H479      1.0  0.47325  0.94112  0.88380  1.0000
  Fe  Fe42      1.0  0.40959  0.84225  0.95039  1.0000
  S   S83       1.0  0.38791  0.86562  0.93522  1.0000
  S   S84       1.0  0.43127  0.82686  0.92025  1.0000
  Fe  Fe43      1.0  0.39045  0.83616  0.51789  1.0000
  H   H480      1.0  0.47931  0.72900  0.89808  1.0000
  S   S85       1.0  0.38773  0.81904  0.56270  1.0000
  H   H481      1.0  0.45925  0.92079  0.82729  1.0000
  H   H482      1.0  0.48458  0.00069  0.96086  1.0000
  H   H483      1.0  0.46910  0.90870  0.56129  1.0000
  H   H484      1.0  0.46520  0.92518  0.52963  1.0000
  H   H485      1.0  0.27194  0.69772  0.89255  1.0000
  H   H486      1.0  0.31077  0.80035  0.86989  1.0000
  S   S86       1.0  0.47660  0.88206  0.73761  1.0000
  S   S87       1.0  0.45775  0.81495  0.72544  1.0000
  Fe  Fe44      1.0  0.48322  0.85765  0.70329  1.0000
  S   S88       1.0  0.48557  0.86941  0.65659  1.0000
  Fe  Fe45      1.0  0.45535  0.84040  0.76170  1.0000
  S   S89       1.0  0.41614  0.82976  0.78754  1.0000
  H   H487      1.0  0.36844  0.76838  0.82171  1.0000
  H   H488      1.0  0.28518  0.75330  0.86095  1.0000
  C   C281      1.0  0.33336  0.80544  0.86990  1.0000
  H   H489      1.0  0.43609  0.93528  0.64547  1.0000
  C   C282      1.0  0.48785  0.75588  0.79099  1.0000
  H   H490      1.0  0.31299  0.72932  0.91775  1.0000
  S   S90       1.0  0.30513  0.81333  0.95151  1.0000
  C   C283      1.0  0.50356  0.76071  0.76610  1.0000
  H   H491      1.0  0.33051  0.78557  0.91023  1.0000
  C   C284      1.0  0.42750  0.82871  0.88338  1.0000
  C   C285      1.0  0.44054  0.81825  0.86539  1.0000
  C   C286      1.0  0.43740  0.81875  0.83595  1.0000
  C   C287      1.0  0.42094  0.82950  0.82429  1.0000
  C   C288      1.0  0.40796  0.84005  0.84223  1.0000
  C   C289      1.0  0.41157  0.84003  0.87165  1.0000
  H   H492      1.0  0.45297  0.80954  0.87426  1.0000
  H   H493      1.0  0.44723  0.81026  0.82230  1.0000
  H   H494      1.0  0.39536  0.84856  0.83333  1.0000
  H   H495      1.0  0.40169  0.84842  0.88517  1.0000
  C   C290      1.0  0.41532  0.83251  0.58836  1.0000
  C   C291      1.0  0.44408  0.85084  0.58114  1.0000
  C   C292      1.0  0.46530  0.86186  0.60234  1.0000
  C   C293      1.0  0.45801  0.85453  0.63088  1.0000
  C   C294      1.0  0.42928  0.83603  0.63811  1.0000
  C   C295      1.0  0.40806  0.82499  0.61689  1.0000
  H   H496      1.0  0.44994  0.85639  0.55921  1.0000
  H   H497      1.0  0.48751  0.87607  0.59655  1.0000
  H   H498      1.0  0.42338  0.83030  0.66001  1.0000
  H   H499      1.0  0.38583  0.81076  0.62263  1.0000
  C   C296      1.0  0.24604  0.71515  0.94510  1.0000
  C   C297      1.0  0.27397  0.72707  0.95600  1.0000
  C   C298      1.0  0.29236  0.75697  0.95766  1.0000
  C   C299      1.0  0.28275  0.77545  0.94926  1.0000
  H   H500      1.0  0.35912  0.73221  0.92571  1.0000
  C   C300      1.0  0.23635  0.73354  0.93654  1.0000
  H   H501      1.0  0.28162  0.71301  0.96277  1.0000
  C   C301      1.0  0.47077  0.91290  0.81452  1.0000
  H   H502      1.0  0.34107  0.80656  0.84803  1.0000
  H   H503      1.0  0.47558  0.94465  0.56135  1.0000
  H   H504      1.0  0.36103  0.79365  0.89042  1.0000
  H   H505      1.0  0.47041  0.80308  0.62709  1.0000
  C   C302      1.0  0.36297  0.76139  0.84409  1.0000
  H   H506      1.0  0.43454  0.90266  0.65550  1.0000
  H   H507      1.0  0.45650  0.74874  0.59974  1.0000
  S   S91       1.0  0.43875  0.94236  0.96214  1.0000
  H   H508      1.0  0.47607  0.88587  0.88778  1.0000
  H   H509      1.0  0.27376  0.70232  0.85446  1.0000
  H   H510      1.0  0.46621  0.80814  0.66321  1.0000
  H   H511      1.0  0.44807  0.74043  0.67290  1.0000
  H   H512      1.0  0.32293  0.71483  0.88953  1.0000
  S   S92       1.0  0.22491  0.67728  0.94240  1.0000
  C   C303      1.0  0.48617  0.74167  0.68612  1.0000
  H   H513      1.0  0.24785  0.70551  0.87468  1.0000
  H   H514      1.0  0.21485  0.72467  0.92820  1.0000
  S   S93       1.0  0.49555  0.84768  0.78293  1.0000
  C   C304      1.0  0.48742  0.90939  0.88387  1.0000
  H   H515      1.0  0.42065  0.78036  0.63619  1.0000
  Fe  Fe46      1.0  0.40936  0.89470  0.97236  1.0000
  N   N22       1.0  0.50421  0.91704  0.85664  1.0000
  H   H516      1.0  0.32399  0.76109  0.83325  1.0000
  H   H517      1.0  0.41204  0.95805  0.55616  1.0000
  S   S94       1.0  0.43281  0.87223  0.98637  1.0000
  C   C305      1.0  0.48161  0.73222  0.80861  1.0000
  H   H518      1.0  0.24686  0.77763  0.93233  1.0000
  C   C306      1.0  0.49189  0.77003  0.63015  1.0000
  H   H519      1.0  0.45484  0.89622  0.80012  1.0000
  H   H520      1.0  0.42226  0.76313  0.66773  1.0000
  C   C307      1.0  0.46816  0.99967  0.97459  1.0000
  C   C308      1.0  0.48520  0.68104  0.90946  1.0000
  C   C309      1.0  0.48521  0.89971  0.83230  1.0000
  C   C310      1.0  0.47005  0.75754  0.67854  1.0000
  H   H521      1.0  0.49753  0.89511  0.81654  1.0000
  H   H522      1.0  0.46730  0.76691  0.69833  1.0000
  H   H523      1.0  0.48681  0.93058  0.80091  1.0000
  H   H524      1.0  0.48661  0.72887  0.66820  1.0000
  H   H525      1.0  0.49448  0.70237  0.91958  1.0000
  N   N23       1.0  0.42231  0.91875  0.58678  1.0000
  C   C311      1.0  0.39026  0.90617  0.58841  1.0000
  C   C312      1.0  0.43656  0.95088  0.58957  1.0000
  C   C313      1.0  0.43289  0.90746  0.61014  1.0000
  C   C314      1.0  0.42937  0.91044  0.55899  1.0000
  C   C315      1.0  0.37181  0.87318  0.59016  1.0000
  C   C316      1.0  0.43444  0.96691  0.56347  1.0000
  C   C317      1.0  0.42585  0.91218  0.64040  1.0000
  C   C318      1.0  0.46163  0.92293  0.55282  1.0000
  H   H526      1.0  0.38436  0.91476  0.60682  1.0000
  H   H527      1.0  0.38244  0.91262  0.56958  1.0000
  H   H528      1.0  0.45968  0.96077  0.59502  1.0000
  H   H529      1.0  0.42720  0.95653  0.60753  1.0000
  H   H530      1.0  0.42437  0.88417  0.60763  1.0000
  H   H531      1.0  0.45662  0.91733  0.60906  1.0000
  H   H532      1.0  0.41950  0.88676  0.55776  1.0000
  H   H533      1.0  0.41946  0.91545  0.54084  1.0000
  H   H534      1.0  0.34882  0.86679  0.59145  1.0000
  H   H535      1.0  0.37398  0.86292  0.57101  1.0000
  H   H536      1.0  0.37649  0.86414  0.60912  1.0000
  S   S95       1.0  0.36647  0.85928  0.50873  1.0000
  H   H537      1.0  0.44300  0.98980  0.56875  1.0000
  H   H538      1.0  0.44766  0.96661  0.54584  1.0000
  H   H539      1.0  0.40242  0.90130  0.64420  1.0000
  S   S96       1.0  0.48279  0.68390  0.82515  1.0000
  H   H540      1.0  0.45424  0.91149  0.90727  1.0000
  H   H541      1.0  0.31400  0.76562  0.96533  1.0000
  S   S97       1.0  0.37282  0.81145  0.97774  1.0000
  H   H542      1.0  0.49366  0.68533  0.88741  1.0000
  H   H543      1.0  0.31949  0.72790  0.84278  1.0000
  C   C319      1.0  0.44337  0.97300  0.98011  1.0000
  C   C320      1.0  0.49060  0.71281  0.80147  1.0000
  Fe  Fe47      1.0  0.49961  0.82471  0.74543  1.0000
  C   C321      1.0  0.32779  0.73542  0.89942  1.0000
  H   H544      1.0  0.44681  0.90584  0.87054  1.0000
  C   C322      1.0  0.25457  0.76355  0.93888  1.0000
  H   H545      1.0  0.48088  0.77062  0.79690  1.0000
  H   H546      1.0  0.36212  0.76640  0.92753  1.0000
  C   C323      1.0  0.33759  0.78439  0.88848  1.0000
  H   H547      1.0  0.46983  0.72903  0.82798  1.0000
  Fe  Fe48      1.0  0.35229  0.83656  0.96487  1.0000
  H   H548      1.0  0.46811  0.87843  0.83986  1.0000
  H   H549      1.0  0.36789  0.74419  0.84855  1.0000
  N   N24       1.0  0.32249  0.75364  0.87872  1.0000
  C   C324      1.0  0.46427  0.91771  0.88598  1.0000
  H   H550      1.0  0.37549  0.75681  0.89717  1.0000
  H   H551      1.0  0.28411  0.74892  0.89804  1.0000
  H   H552      1.0  0.44467  0.72468  0.89424  1.0000
  C   C325      1.0  0.45646  0.71507  0.90424  1.0000
  H   H553      1.0  0.34627  0.82730  0.87891  1.0000
  H   H554      1.0  0.45212  0.72697  0.63060  1.0000
  C   C326      1.0  0.33105  0.75077  0.84923  1.0000
  C   C327      1.0  0.29068  0.74294  0.87829  1.0000
  H   H555      1.0  0.40353  0.97061  0.92199  1.0000
  H   H556      1.0  0.37748  0.78045  0.85649  1.0000
  C   C328      1.0  0.27039  0.71026  0.87471  1.0000
  C   C329      1.0  0.35797  0.74881  0.91282  1.0000
  C   C330      1.0  0.43157  0.76991  0.64625  1.0000
  C   C331      1.0  0.46408  0.79170  0.64785  1.0000
  H   H557      1.0  0.45413  0.71566  0.92742  1.0000
  H   H558      1.0  0.42620  0.75090  0.63343  1.0000
  H   H559      1.0  0.44138  0.99001  0.91795  1.0000
  H   H560      1.0  0.47471  0.72647  0.70378  1.0000
  H   H561      1.0  0.50265  0.86377  0.84712  1.0000
  N   N25       1.0  0.48362  0.78037  0.65586  1.0000
  C   C332      1.0  0.46787  0.74297  0.61569  1.0000
  H   H562      1.0  0.41849  0.98952  0.88969  1.0000
  H   H563      1.0  0.50581  0.86917  0.88494  1.0000
  H   H564      1.0  0.50279  0.95556  0.84659  1.0000
  H   H565      1.0  0.47746  0.73171  0.60487  1.0000
  H   H566      1.0  0.50209  0.91907  0.90221  1.0000
  C   C333      1.0  0.44417  0.68427  0.89316  1.0000
  C   C334      1.0  0.42164  0.99056  0.91279  1.0000
  H   H567      1.0  0.45037  0.68609  0.87051  1.0000
  C   C335      1.0  0.50593  0.71738  0.77637  1.0000
  H   H568      1.0  0.50547  0.81275  0.68789  1.0000
  H   H569      1.0  0.45552  0.67889  0.95271  1.0000
  H   H570      1.0  0.50054  0.78692  0.61344  1.0000
  C   C336      1.0  0.41795  0.00138  0.49760  1.0000
  H   H571      1.0  0.50830  0.75620  0.69366  1.0000
  H   H572      1.0  0.39916  0.00328  0.50031  1.0000
  H   H573      1.0  0.42044  0.67449  0.89322  1.0000
  H   H574      1.0  0.56353  0.16302  0.35984  1.0000
  S   S98       1.0  0.79268  0.27040  0.16232  1.0000
  Fe  Fe49      1.0  0.61772  0.07944  0.23149  1.0000
  S   S99       1.0  0.57540  0.07399  0.24387  1.0000
  S   S100      1.0  0.62088  0.04116  0.21712  1.0000
  Fe  Fe50      1.0  0.65068  0.14498  0.24173  1.0000
  S   S101      1.0  0.60992  0.14312  0.25536  1.0000
  S   S102      1.0  0.69048  0.18983  0.24698  1.0000
  Fe  Fe51      1.0  0.59963  0.10343  0.27993  1.0000
  S   S103      1.0  0.58489  0.09018  0.32555  1.0000
  Fe  Fe52      1.0  0.58976  0.11410  0.21807  1.0000
  S   S104      1.0  0.55968  0.12070  0.18986  1.0000
  S   S105      1.0  0.64165  0.10681  0.26882  1.0000
  S   S106      1.0  0.63085  0.11805  0.20302  1.0000
  S   S107      1.0  0.86504  0.33073  0.13327  1.0000
  H   H575      1.0  0.56121  0.07552  0.06837  1.0000
  Fe  Fe53      1.0  0.54190  0.14246  0.46510  1.0000
  S   S108      1.0  0.55690  0.15564  0.41962  1.0000
  Fe  Fe54      1.0  0.54943  0.14284  0.02896  1.0000
  S   S109      1.0  0.58268  0.14275  0.05821  1.0000
  H   H576      1.0  0.85624  0.29066  0.17898  1.0000
  C   C337      1.0  0.56013  0.29224  0.99741  1.0000
  H   H577      1.0  0.55718  0.27481  0.08118  1.0000
  H   H578      1.0  0.51479  0.04748  0.44932  1.0000
  C   C338      1.0  0.56529  0.12533  0.15306  1.0000
  C   C339      1.0  0.55015  0.13528  0.13712  1.0000
  C   C340      1.0  0.55475  0.14003  0.10786  1.0000
  C   C341      1.0  0.57459  0.13489  0.09436  1.0000
  C   C342      1.0  0.58935  0.12444  0.11021  1.0000
  C   C343      1.0  0.58466  0.11959  0.13944  1.0000
  H   H579      1.0  0.53507  0.13972  0.14750  1.0000
  H   H580      1.0  0.54349  0.14839  0.09596  1.0000
  H   H581      1.0  0.60462  0.12028  0.09985  1.0000
  H   H582      1.0  0.59612  0.11151  0.15141  1.0000
  C   C344      1.0  0.57755  0.10897  0.35139  1.0000
  C   C345      1.0  0.57595  0.10084  0.37992  1.0000
  C   C346      1.0  0.57001  0.11510  0.40120  1.0000
  C   C347      1.0  0.56543  0.13754  0.39405  1.0000
  C   C348      1.0  0.56721  0.14577  0.36555  1.0000
  C   C349      1.0  0.57306  0.13145  0.34428  1.0000
  H   H583      1.0  0.57940  0.08344  0.38559  1.0000
  H   H584      1.0  0.56889  0.10871  0.42308  1.0000
  H   H585      1.0  0.82299  0.24109  0.17398  1.0000
  H   H586      1.0  0.57374  0.13757  0.32236  1.0000
  C   C350      1.0  0.76410  0.24872  0.18600  1.0000
  C   C351      1.0  0.74509  0.21979  0.17915  1.0000
  C   C352      1.0  0.72248  0.20147  0.19748  1.0000
  C   C353      1.0  0.71855  0.21189  0.22295  1.0000
  C   C354      1.0  0.73769  0.24078  0.22991  1.0000
  C   C355      1.0  0.76027  0.25912  0.21155  1.0000
  H   H587      1.0  0.74796  0.21142  0.15956  1.0000
  H   H588      1.0  0.70817  0.17926  0.19193  1.0000
  H   H589      1.0  0.73496  0.24910  0.24959  1.0000
  H   H590      1.0  0.77470  0.28128  0.21719  1.0000
  H   H591      1.0  0.85218  0.20791  0.24143  1.0000
  H   H592      1.0  0.84280  0.29848  0.26231  1.0000
  H   H593      1.0  0.84199  0.23003  0.26062  1.0000
  Fe  Fe55      1.0  0.50975  0.16571  0.01413  1.0000
  H   H594      1.0  0.80514  0.30784  0.00993  1.0000
  N   N26       1.0  0.66617  0.18750  0.34203  1.0000
  C   C356      1.0  0.64562  0.17960  0.31761  1.0000
  C   C357      1.0  0.68139  0.17079  0.33970  1.0000
  C   C358      1.0  0.68832  0.21907  0.34151  1.0000
  C   C359      1.0  0.64932  0.18054  0.36915  1.0000
  C   C360      1.0  0.63050  0.19715  0.31458  1.0000
  C   C361      1.0  0.66248  0.13800  0.34348  1.0000
  C   C362      1.0  0.70499  0.23083  0.31352  1.0000
  C   C363      1.0  0.66627  0.18390  0.39654  1.0000
  H   H595      1.0  0.65651  0.18114  0.29727  1.0000
  H   H596      1.0  0.62828  0.15675  0.31919  1.0000
  H   H597      1.0  0.69936  0.17859  0.35512  1.0000
  H   H598      1.0  0.69156  0.17412  0.31854  1.0000
  H   H599      1.0  0.67849  0.23217  0.34684  1.0000
  H   H600      1.0  0.70487  0.22425  0.35805  1.0000
  H   H601      1.0  0.63986  0.19442  0.37167  1.0000
  H   H602      1.0  0.63066  0.15825  0.36884  1.0000
  H   H603      1.0  0.61671  0.19427  0.33299  1.0000
  H   H604      1.0  0.64578  0.22028  0.31095  1.0000
  H   H605      1.0  0.61612  0.18935  0.29588  1.0000
  H   H606      1.0  0.67616  0.12826  0.34166  1.0000
  H   H607      1.0  0.65181  0.13155  0.36435  1.0000
  H   H608      1.0  0.64612  0.12837  0.32666  1.0000
  H   H609      1.0  0.69087  0.22872  0.29556  1.0000
  H   H610      1.0  0.71748  0.22050  0.30799  1.0000
  H   H611      1.0  0.72068  0.25410  0.31588  1.0000
  H   H612      1.0  0.67454  0.16895  0.39749  1.0000
  H   H613      1.0  0.65158  0.17861  0.41484  1.0000
  H   H614      1.0  0.68423  0.20616  0.39948  1.0000
  N   N27       1.0  0.65097  0.21086  0.15268  1.0000
  C   C364      1.0  0.67360  0.20497  0.14170  1.0000
  C   C365      1.0  0.66584  0.24217  0.16045  1.0000
  C   C366      1.0  0.62937  0.20438  0.12927  1.0000
  C   C367      1.0  0.63690  0.19159  0.17793  1.0000
  C   C368      1.0  0.66262  0.17480  0.12941  1.0000
  C   C369      1.0  0.68978  0.25229  0.18292  1.0000
  C   C370      1.0  0.61412  0.22192  0.12829  1.0000
  C   C371      1.0  0.61467  0.19589  0.19379  1.0000
  H   H615      1.0  0.68669  0.22083  0.12494  1.0000
  H   H616      1.0  0.68887  0.20748  0.15866  1.0000
  H   H617      1.0  0.65043  0.24821  0.16845  1.0000
  H   H618      1.0  0.67565  0.25575  0.14127  1.0000
  H   H619      1.0  0.63960  0.20796  0.10807  1.0000
  H   H620      1.0  0.61240  0.18137  0.12970  1.0000
  H   H621      1.0  0.62534  0.16868  0.17168  1.0000
  H   H622      1.0  0.65328  0.19368  0.19354  1.0000
  H   H623      1.0  0.64819  0.17028  0.11106  1.0000
  H   H624      1.0  0.68129  0.17353  0.12172  1.0000
  H   H625      1.0  0.65183  0.15767  0.14556  1.0000
  H   H626      1.0  0.70877  0.25182  0.17496  1.0000
  H   H627      1.0  0.69743  0.27501  0.18818  1.0000
  H   H628      1.0  0.68214  0.23988  0.20291  1.0000
  H   H629      1.0  0.60455  0.22249  0.14865  1.0000
  H   H630      1.0  0.59637  0.21209  0.11262  1.0000
  H   H631      1.0  0.62903  0.24424  0.12105  1.0000
  H   H632      1.0  0.62388  0.21784  0.20222  1.0000
  H   H633      1.0  0.60669  0.18107  0.21221  1.0000
  H   H634      1.0  0.59563  0.19006  0.18050  1.0000
  H   H635      1.0  0.51989  0.08395  0.06399  1.0000
  S   S110      1.0  0.53680  0.31421  0.08290  1.0000
  H   H636      1.0  0.52422  0.05274  0.41301  1.0000
  C   C372      1.0  0.54601  0.24778  0.44446  1.0000
  H   H637      1.0  0.54309  0.04523  0.04471  1.0000
  H   H638      1.0  0.78916  0.21805  0.21266  1.0000
  C   C373      1.0  0.85638  0.29254  0.24994  1.0000
  H   H639      1.0  0.87030  0.26034  0.15102  1.0000
  H   H640      1.0  0.54054  0.05971  0.10982  1.0000
  H   H641      1.0  0.83980  0.33919  0.01834  1.0000
  H   H642      1.0  0.86684  0.28518  0.26527  1.0000
  C   C374      1.0  0.58687  0.31087  0.45633  1.0000
  H   H643      1.0  0.51951  0.25563  0.47221  1.0000
  H   H644      1.0  0.50923  0.31115  0.46991  1.0000
  C   C375      1.0  0.54345  0.30181  0.43093  1.0000
  H   H645      1.0  0.64433  0.01026  0.24353  1.0000
  H   H646      1.0  0.53819  0.24942  0.42330  1.0000
  H   H647      1.0  0.89151  0.27181  0.23327  1.0000
  H   H648      1.0  0.59584  0.30738  0.47621  1.0000
  H   H649      1.0  0.51586  0.08920  0.37654  1.0000
  H   H650      1.0  0.55506  0.29901  0.41300  1.0000
  H   H651      1.0  0.84151  0.22279  0.18204  1.0000
  H   H652      1.0  0.80939  0.32997  0.03948  1.0000
  H   H653      1.0  0.54031  0.28130  0.01020  1.0000
  S   S111      1.0  0.55487  0.17933  0.00107  1.0000
  H   H654      1.0  0.88211  0.24338  0.21017  1.0000
  Fe  Fe56      1.0  0.82745  0.31820  0.16228  1.0000
  C   C376      1.0  0.51099  0.28197  0.42486  1.0000
  H   H655      1.0  0.59230  0.30039  0.43933  1.0000
  H   H656      1.0  0.55339  0.08046  0.03308  1.0000
  N   N28       1.0  0.85237  0.25889  0.20943  1.0000
  C   C377      1.0  0.87002  0.28347  0.18933  1.0000
  H   H657      1.0  0.54040  0.22856  0.05646  1.0000
  C   C378      1.0  0.83101  0.23367  0.19195  1.0000
  C   C379      1.0  0.87250  0.25201  0.22496  1.0000
  C   C380      1.0  0.88550  0.27751  0.16536  1.0000
  H   H658      1.0  0.79154  0.19223  0.19193  1.0000
  H   H659      1.0  0.52094  0.01646  0.08320  1.0000
  C   C381      1.0  0.85968  0.22989  0.24926  1.0000
  H   H660      1.0  0.87293  0.31241  0.23939  1.0000
  H   H661      1.0  0.88706  0.30243  0.20066  1.0000
  C   C382      1.0  0.83709  0.26867  0.22896  1.0000
  H   H662      1.0  0.87648  0.23516  0.26552  1.0000
  H   H663      1.0  0.90176  0.27262  0.17349  1.0000
  C   C383      1.0  0.80376  0.21015  0.20689  1.0000
  H   H664      1.0  0.82466  0.27623  0.21648  1.0000
  S   S112      1.0  0.53220  0.10343  0.49082  1.0000
  H   H665      1.0  0.56052  0.33582  0.47902  1.0000
  H   H666      1.0  0.52306  0.07953  0.11280  1.0000
  H   H667      1.0  0.89738  0.29728  0.15225  1.0000
  H   H668      1.0  0.58782  0.33462  0.04025  1.0000
  C   C384      1.0  0.81627  0.33032  0.01732  1.0000
  H   H669      1.0  0.82073  0.25095  0.24214  1.0000
  H   H670      1.0  0.51214  0.08862  0.42729  1.0000
  C   C385      1.0  0.53788  0.26573  0.06852  1.0000
  H   H671      1.0  0.54828  0.32433  0.42892  1.0000
  N   N29       1.0  0.55471  0.29762  0.45868  1.0000
  H   H672      1.0  0.80838  0.20102  0.22569  1.0000
  C   C386      1.0  0.54490  0.06560  0.05147  1.0000
  H   H673      1.0  0.52065  0.05586  0.15698  1.0000
  C   C387      1.0  0.54908  0.31242  0.48248  1.0000
  C   C388      1.0  0.51574  0.06192  0.06014  1.0000
  C   C389      1.0  0.52842  0.23949  0.05453  1.0000
  C   C390      1.0  0.51893  0.05730  0.11124  1.0000
  H   H674      1.0  0.55293  0.26487  0.48634  1.0000
  C   C391      1.0  0.52277  0.28046  0.06602  1.0000
  C   C392      1.0  0.54255  0.26652  0.46663  1.0000
  H   H675      1.0  0.54136  0.32476  0.01851  1.0000
  H   H676      1.0  0.57737  0.29769  0.01321  1.0000
  C   C393      1.0  0.51767  0.30401  0.48756  1.0000
  H   H677      1.0  0.56856  0.25284  0.44302  1.0000
  H   H678      1.0  0.53319  0.22495  0.45129  1.0000
  C   C394      1.0  0.56137  0.33736  0.00597  1.0000
  C   C395      1.0  0.76265  0.30623  0.95969  1.0000
  S   S113      1.0  0.78881  0.28263  0.65611  1.0000
  Fe  Fe57      1.0  0.62017  0.09197  0.73468  1.0000
  S   S114      1.0  0.58024  0.09091  0.74827  1.0000
  S   S115      1.0  0.61741  0.05212  0.71594  1.0000
  Fe  Fe58      1.0  0.65772  0.15734  0.74495  1.0000
  S   S116      1.0  0.61965  0.16034  0.75928  1.0000
  S   S117      1.0  0.70348  0.19549  0.74926  1.0000
  Fe  Fe59      1.0  0.60658  0.11967  0.78387  1.0000
  S   S118      1.0  0.59330  0.10621  0.82962  1.0000
  Fe  Fe60      1.0  0.59698  0.13118  0.72228  1.0000
  S   S119      1.0  0.56570  0.13341  0.69180  1.0000
  S   S120      1.0  0.64597  0.11823  0.77164  1.0000
  S   S121      1.0  0.63579  0.13086  0.70659  1.0000
  C   C396      1.0  0.57064  0.05950  0.63563  1.0000
  H   H679      1.0  0.77616  0.11505  0.71782  1.0000
  Fe  Fe61      1.0  0.53465  0.14574  0.96716  1.0000
  S   S122      1.0  0.54573  0.15766  0.92077  1.0000
  Fe  Fe62      1.0  0.55093  0.13329  0.52795  1.0000
  S   S123      1.0  0.58237  0.13227  0.55915  1.0000
  H   H680      1.0  0.59148  0.03601  0.77194  1.0000
  N   N30       1.0  0.56359  0.31892  0.98355  1.0000
  H   H681      1.0  0.75601  0.11256  0.74775  1.0000
  H   H682      1.0  0.74077  0.08405  0.72203  1.0000
  C   C397      1.0  0.57027  0.13170  0.65512  1.0000
  C   C398      1.0  0.59690  0.13900  0.64363  1.0000
  C   C399      1.0  0.60016  0.13866  0.61421  1.0000
  C   C400      1.0  0.57689  0.13108  0.59602  1.0000
  C   C401      1.0  0.55009  0.12319  0.60755  1.0000
  C   C402      1.0  0.54688  0.12378  0.63697  1.0000
  H   H683      1.0  0.61521  0.14571  0.65726  1.0000
  H   H684      1.0  0.62097  0.14482  0.60547  1.0000
  H   H685      1.0  0.53188  0.11688  0.59379  1.0000
  H   H686      1.0  0.52620  0.11811  0.64570  1.0000
  C   C403      1.0  0.58132  0.12182  0.85482  1.0000
  C   C404      1.0  0.57799  0.11248  0.88311  1.0000
  C   C405      1.0  0.56771  0.12365  0.90373  1.0000
  C   C406      1.0  0.56029  0.14403  0.89614  1.0000
  C   C407      1.0  0.56379  0.15350  0.86790  1.0000
  C   C408      1.0  0.57433  0.14254  0.84733  1.0000
  H   H687      1.0  0.58339  0.09650  0.88908  1.0000
  H   H688      1.0  0.56522  0.11626  0.92539  1.0000
  H   H689      1.0  0.55814  0.16929  0.86187  1.0000
  H   H690      1.0  0.57673  0.14986  0.82566  1.0000
  C   C409      1.0  0.76512  0.25866  0.68217  1.0000
  C   C410      1.0  0.73748  0.23675  0.67429  1.0000
  C   C411      1.0  0.71821  0.21720  0.69450  1.0000
  C   C412      1.0  0.72670  0.21908  0.72270  1.0000
  C   C413      1.0  0.75460  0.24049  0.73041  1.0000
  C   C414      1.0  0.77363  0.26036  0.71036  1.0000
  H   H691      1.0  0.73085  0.23509  0.65246  1.0000
  H   H692      1.0  0.69686  0.20077  0.68822  1.0000
  H   H693      1.0  0.76153  0.24181  0.75208  1.0000
  H   H694      1.0  0.79501  0.27677  0.71660  1.0000
  H   H695      1.0  0.68999  0.30028  0.73479  1.0000
  C   C415      1.0  0.55839  0.24837  0.62813  1.0000
  H   H696      1.0  0.75673  0.18790  0.73465  1.0000
  H   H697      1.0  0.57606  0.02231  0.66984  1.0000
  C   C416      1.0  0.60053  0.21078  0.57396  1.0000
  H   H698      1.0  0.76688  0.31486  0.72840  1.0000
  S   S124      1.0  0.53345  0.21448  0.52263  1.0000
  N   N31       1.0  0.56119  0.20494  0.60913  1.0000
  H   H699      1.0  0.58633  0.20305  0.67761  1.0000
  H   H700      1.0  0.54438  0.30365  0.94209  1.0000
  C   C417      1.0  0.51962  0.02545  0.64015  1.0000
  C   C418      1.0  0.56846  0.19535  0.58213  1.0000
  H   H701      1.0  0.76263  0.18093  0.76993  1.0000
  H   H702      1.0  0.77879  0.29796  0.76493  1.0000
  H   H703      1.0  0.55223  0.26961  0.95623  1.0000
  C   C419      1.0  0.79522  0.32099  0.95493  1.0000
  C   C420      1.0  0.51067  0.04750  0.63226  1.0000
  H   H704      1.0  0.73831  0.28197  0.71722  1.0000
  C   C421      1.0  0.52988  0.18416  0.61527  1.0000
  H   H705      1.0  0.55722  0.19798  0.56385  1.0000
  H   H706      1.0  0.55770  0.30925  0.50272  1.0000
  C   C422      1.0  0.52177  0.03734  0.70138  1.0000
  H   H707      1.0  0.58302  0.18521  0.62925  1.0000
  C   C423      1.0  0.59609  0.01850  0.73302  1.0000
  N   N32       1.0  0.54804  0.03743  0.65519  1.0000
  H   H708      1.0  0.77141  0.31346  0.79524  1.0000
  H   H709      1.0  0.74211  0.31060  0.67988  1.0000
  C   C424      1.0  0.68073  0.25695  0.73396  1.0000
  H   H710      1.0  0.55805  0.23724  0.58428  1.0000
  C   C425      1.0  0.52250  0.27864  0.55210  1.0000
  H   H711      1.0  0.68997  0.25726  0.71302  1.0000
  H   H712      1.0  0.60179  0.22311  0.63154  1.0000
  H   H713      1.0  0.68114  0.24047  0.74770  1.0000
  H   H714      1.0  0.56935  0.05023  0.61436  1.0000
  C   C426      1.0  0.53437  0.26201  0.54356  1.0000
  H   H715      1.0  0.60996  0.05797  0.64468  1.0000
  H   H716      1.0  0.52577  0.16182  0.61642  1.0000
  N   N33       1.0  0.72766  0.30077  0.75202  1.0000
  H   H717      1.0  0.65774  0.24976  0.73051  1.0000
  H   H718      1.0  0.76427  0.27754  0.79643  1.0000
  C   C427      1.0  0.56742  0.23514  0.60453  1.0000
  C   C428      1.0  0.73956  0.32970  0.76583  1.0000
  C   C429      1.0  0.56915  0.20072  0.66301  1.0000
  H   H719      1.0  0.61596  0.09142  0.63135  1.0000
  C   C430      1.0  0.74327  0.30332  0.72488  1.0000
  C   C431      1.0  0.50947  0.29016  0.97163  1.0000
  H   H720      1.0  0.77586  0.16910  0.74176  1.0000
  H   H721      1.0  0.79818  0.32226  0.93161  1.0000
  C   C432      1.0  0.59233  0.33419  0.96906  1.0000
  C   C433      1.0  0.54912  0.05172  0.68280  1.0000
  H   H722      1.0  0.56706  0.07775  0.63206  1.0000
  H   H723      1.0  0.53636  0.30078  0.55812  1.0000
  Fe  Fe63      1.0  0.82190  0.32948  0.66489  1.0000
  C   C434      1.0  0.76365  0.29380  0.78247  1.0000
  H   H724      1.0  0.71701  0.31564  0.69835  1.0000
  C   C435      1.0  0.56061  0.26993  0.97763  1.0000
  C   C436      1.0  0.69568  0.28685  0.74783  1.0000
  H   H725      1.0  0.61365  0.20728  0.58975  1.0000
  H   H726      1.0  0.56716  0.05393  0.69605  1.0000
  H   H727      1.0  0.60267  0.20158  0.55386  1.0000
  C   C437      1.0  0.57987  0.20378  0.63234  1.0000
  H   H728      1.0  0.71884  0.27665  0.79124  1.0000
  C   C438      1.0  0.60206  0.07323  0.64566  1.0000
  H   H729      1.0  0.59081  0.25009  0.60153  1.0000
  H   H730      1.0  0.60955  0.23401  0.57015  1.0000
  H   H731      1.0  0.51417  0.07476  0.89053  1.0000
  H   H732      1.0  0.54032  0.33157  0.95528  1.0000
  H   H733      1.0  0.70657  0.07746  0.75514  1.0000
  C   C439      1.0  0.73889  0.31912  0.69994  1.0000
  H   H734      1.0  0.55744  0.27164  0.54307  1.0000
  H   H735      1.0  0.68492  0.28461  0.76850  1.0000
  N   N34       1.0  0.71914  0.12738  0.72135  1.0000
  C   C440      1.0  0.71289  0.14577  0.70187  1.0000
  C   C441      1.0  0.72908  0.14296  0.74911  1.0000
  C   C442      1.0  0.69154  0.09904  0.72536  1.0000
  C   C443      1.0  0.74171  0.12315  0.70752  1.0000
  C   C444      1.0  0.69872  0.13231  0.67329  1.0000
  C   C445      1.0  0.75774  0.17178  0.74832  1.0000
  C   C446      1.0  0.68864  0.08140  0.75220  1.0000
  C   C447      1.0  0.75392  0.10763  0.72498  1.0000
  H   H736      1.0  0.69849  0.15189  0.71243  1.0000
  H   H737      1.0  0.73277  0.16632  0.69660  1.0000
  H   H738      1.0  0.73169  0.12990  0.76564  1.0000
  H   H739      1.0  0.71240  0.14706  0.75779  1.0000
  H   H740      1.0  0.67295  0.10246  0.72613  1.0000
  H   H741      1.0  0.68734  0.08470  0.70699  1.0000
  H   H742      1.0  0.73307  0.11031  0.68795  1.0000
  H   H743      1.0  0.76005  0.14384  0.69970  1.0000
  H   H744      1.0  0.69487  0.14785  0.66147  1.0000
  H   H745      1.0  0.71278  0.12798  0.65988  1.0000
  H   H746      1.0  0.67748  0.11251  0.67591  1.0000
  S   S125      1.0  0.51009  0.13063  0.54148  1.0000
  H   H747      1.0  0.72599  0.26077  0.76227  1.0000
  H   H748      1.0  0.75215  0.28473  0.94972  1.0000
  H   H749      1.0  0.66870  0.06008  0.75058  1.0000
  H   H750      1.0  0.68616  0.09165  0.77133  1.0000
  H   H751      1.0  0.60508  0.08207  0.66720  1.0000
  C   C448      1.0  0.51674  0.23329  0.53524  1.0000
  H   H752      1.0  0.56376  0.21712  0.66878  1.0000
  C   C449      1.0  0.73252  0.28178  0.77204  1.0000
  H   H753      1.0  0.55045  0.17894  0.66701  1.0000
  H   H754      1.0  0.58270  0.27369  0.97569  1.0000
  H   H755      1.0  0.80212  0.30596  0.96257  1.0000
  H   H756      1.0  0.55402  0.07407  0.67887  1.0000
  H   H757      1.0  0.57580  0.25931  0.64395  1.0000
  H   H758      1.0  0.73551  0.32720  0.78904  1.0000
  H   H759      1.0  0.54640  0.24803  0.98643  1.0000
  H   H760      1.0  0.75352  0.31817  0.94931  1.0000
  Fe  Fe64      1.0  0.52264  0.16855  0.51236  1.0000
  H   H761      1.0  0.56081  0.17209  0.58292  1.0000
  C   C450      1.0  0.55478  0.01387  0.65958  1.0000
  H   H762      1.0  0.53829  0.23287  0.63894  1.0000
  H   H763      1.0  0.51330  0.06177  0.65007  1.0000
  H   H764      1.0  0.59322  0.32059  0.95206  1.0000
  H   H765      1.0  0.52332  0.18778  0.63621  1.0000
  H   H766      1.0  0.51986  0.01475  0.62022  1.0000
  C   C451      1.0  0.54035  0.31184  0.96196  1.0000
  H   H767      1.0  0.52293  0.06067  0.61372  1.0000
  C   C452      1.0  0.58629  0.01666  0.76066  1.0000
  H   H768      1.0  0.55376  0.26443  0.61863  1.0000
  S   S126      1.0  0.56476  0.17238  0.50096  1.0000
  H   H769      1.0  0.51068  0.17782  0.57270  1.0000
  S   S127      1.0  0.53338  0.11049  0.99374  1.0000
  H   H770      1.0  0.75680  0.30260  0.98236  1.0000
  H   H771      1.0  0.52818  0.03829  0.72385  1.0000
  H   H772      1.0  0.51059  0.04974  0.70022  1.0000
  H   H773      1.0  0.51676  0.31538  0.50661  1.0000
  H   H774      1.0  0.70547  0.34040  0.76247  1.0000
  H   H775      1.0  0.60983  0.33782  0.98393  1.0000
  H   H776      1.0  0.50994  0.20566  0.59290  1.0000
  H   H777      1.0  0.53437  0.47787  0.46339  1.0000
  H   H778      1.0  0.79385  0.36579  0.47471  1.0000
  S   S128      1.0  0.56513  0.59762  0.30429  1.0000
  H   H779      1.0  0.53680  0.53070  0.22525  1.0000
  H   H780      1.0  0.92327  0.45173  0.25456  1.0000
  Fe  Fe65      1.0  0.62559  0.45246  0.30508  1.0000
  S   S129      1.0  0.65204  0.49815  0.31975  1.0000
  S   S130      1.0  0.62867  0.44443  0.25840  1.0000
  Fe  Fe66      1.0  0.60980  0.43014  0.36614  1.0000
  S   S131      1.0  0.63588  0.47407  0.38439  1.0000
  S   S132      1.0  0.58268  0.39191  0.39454  1.0000
  Fe  Fe67      1.0  0.61586  0.48715  0.35002  1.0000
  S   S133      1.0  0.59019  0.50733  0.36465  1.0000
  Fe  Fe68      1.0  0.66940  0.48026  0.35255  1.0000
  S   S134      1.0  0.71795  0.50291  0.35970  1.0000
  S   S135      1.0  0.58819  0.44262  0.33300  1.0000
  S   S136      1.0  0.64448  0.43520  0.33660  1.0000
  Fe  Fe69      1.0  0.90613  0.50158  0.40837  1.0000
  S   S137      1.0  0.91466  0.46533  0.40866  1.0000
  S   S138      1.0  0.94080  0.54808  0.41566  1.0000
  Fe  Fe70      1.0  0.84085  0.46219  0.39995  1.0000
  S   S139      1.0  0.84582  0.42335  0.39940  1.0000
  S   S140      1.0  0.79281  0.44760  0.39848  1.0000
  Fe  Fe71      1.0  0.87555  0.44266  0.43631  1.0000
  S   S141      1.0  0.87238  0.41222  0.47153  1.0000
  Fe  Fe72      1.0  0.88412  0.44909  0.37179  1.0000
  S   S142      1.0  0.89463  0.42784  0.33649  1.0000
  S   S143      1.0  0.86876  0.48011  0.43876  1.0000
  S   S144      1.0  0.87767  0.48691  0.36949  1.0000
  Fe  Fe73      1.0  0.89341  0.35839  0.16823  1.0000
  S   S145      1.0  0.89193  0.39709  0.15398  1.0000
  S   S146      1.0  0.93417  0.35953  0.18279  1.0000
  C   C453      1.0  0.99341  0.39204  0.18528  1.0000
  Fe  Fe74      1.0  0.86121  0.36873  0.12039  1.0000
  S   S147      1.0  0.87043  0.37943  0.07348  1.0000
  Fe  Fe75      1.0  0.85296  0.37983  0.18183  1.0000
  S   S148      1.0  0.84809  0.41032  0.21068  1.0000
  C   C454      1.0  0.79199  0.54072  0.00167  1.0000
  H   H781      1.0  0.76695  0.45038  0.45937  1.0000
  S   S149      1.0  0.56365  0.39269  0.09250  1.0000
  H   H782      1.0  0.00356  0.43024  0.25566  1.0000
  Fe  Fe76      1.0  0.55042  0.40942  0.05524  1.0000
  S   S150      1.0  0.58265  0.44060  0.02326  1.0000
  Fe  Fe77      1.0  0.53297  0.39970  0.11828  1.0000
  S   S151      1.0  0.53410  0.41560  0.16323  1.0000
  C   C455      1.0  0.87856  0.42152  0.30282  1.0000
  C   C456      1.0  0.86884  0.43894  0.29138  1.0000
  C   C457      1.0  0.85900  0.43498  0.26325  1.0000
  C   C458      1.0  0.85865  0.41351  0.24650  1.0000
  C   C459      1.0  0.86749  0.39556  0.25835  1.0000
  C   C460      1.0  0.87758  0.39970  0.28628  1.0000
  H   H783      1.0  0.86960  0.45590  0.30396  1.0000
  H   H784      1.0  0.85205  0.44887  0.25430  1.0000
  H   H785      1.0  0.86688  0.37868  0.24595  1.0000
  H   H786      1.0  0.88479  0.38598  0.29516  1.0000
  C   C461      1.0  0.85041  0.43361  0.01289  1.0000
  H   H787      1.0  0.81444  0.51707  0.00080  1.0000
  C   C462      1.0  0.87798  0.41117  0.02565  1.0000
  C   C463      1.0  0.86384  0.40224  0.05182  1.0000
  C   C464      1.0  0.84344  0.40974  0.05878  1.0000
  C   C465      1.0  0.83674  0.42534  0.03934  1.0000
  H   H788      1.0  0.76902  0.53419  0.00382  1.0000
  H   H789      1.0  0.89388  0.40555  0.02018  1.0000
  H   H790      1.0  0.83235  0.40291  0.07881  1.0000
  H   H791      1.0  0.82055  0.43059  0.04467  1.0000
  C   C466      1.0  0.73840  0.48726  0.37089  1.0000
  C   C467      1.0  0.76858  0.50406  0.37067  1.0000
  C   C468      1.0  0.78566  0.49235  0.37877  1.0000
  C   C469      1.0  0.77270  0.46365  0.38737  1.0000
  C   C470      1.0  0.74251  0.44684  0.38750  1.0000
  C   C471      1.0  0.72545  0.45850  0.37929  1.0000
  H   H792      1.0  0.77885  0.52634  0.36424  1.0000
  H   H793      1.0  0.80881  0.50559  0.37860  1.0000
  H   H794      1.0  0.73222  0.42460  0.39400  1.0000
  H   H795      1.0  0.70229  0.44528  0.37956  1.0000
  C   C472      1.0  0.58586  0.39860  0.43112  1.0000
  C   C473      1.0  0.61153  0.42001  0.44303  1.0000
  C   C474      1.0  0.61364  0.42441  0.47240  1.0000
  H   H796      1.0  0.82669  0.48440  0.48303  1.0000
  C   C475      1.0  0.56436  0.38644  0.47802  1.0000
  C   C476      1.0  0.56236  0.38172  0.44874  1.0000
  H   H797      1.0  0.62997  0.43281  0.42971  1.0000
  H   H798      1.0  0.59826  0.49485  0.42182  1.0000
  H   H799      1.0  0.59356  0.46260  0.49141  1.0000
  H   H800      1.0  0.53290  0.43467  0.45847  1.0000
  C   C477      1.0  0.60146  0.43463  0.23248  1.0000
  C   C478      1.0  0.57370  0.42815  0.23948  1.0000
  C   C479      1.0  0.55307  0.42141  0.21806  1.0000
  C   C480      1.0  0.55990  0.42106  0.18950  1.0000
  C   C481      1.0  0.58746  0.42693  0.18257  1.0000
  C   C482      1.0  0.60811  0.43371  0.20397  1.0000
  H   H801      1.0  0.56812  0.42818  0.26137  1.0000
  H   H802      1.0  0.53161  0.41623  0.22364  1.0000
  H   H803      1.0  0.59303  0.42676  0.16069  1.0000
  H   H804      1.0  0.62946  0.43853  0.19833  1.0000
  C   C483      1.0  0.98522  0.45251  0.23322  1.0000
  C   C484      1.0  0.96838  0.38794  0.17180  1.0000
  C   C485      1.0  0.97101  0.40641  0.14974  1.0000
  C   C486      1.0  0.54844  0.44296  0.41611  1.0000
  H   H805      1.0  0.95202  0.40344  0.13901  1.0000
  C   C487      1.0  0.57297  0.57388  0.32269  1.0000
  C   C488      1.0  0.55409  0.55448  0.34276  1.0000
  C   C489      1.0  0.55995  0.53451  0.35560  1.0000
  C   C490      1.0  0.58455  0.53350  0.34829  1.0000
  C   C491      1.0  0.60376  0.55324  0.32859  1.0000
  C   C492      1.0  0.59804  0.57347  0.31599  1.0000
  H   H806      1.0  0.53480  0.55468  0.34817  1.0000
  H   H807      1.0  0.54503  0.51945  0.37089  1.0000
  H   H808      1.0  0.62309  0.55309  0.32326  1.0000
  H   H809      1.0  0.61300  0.58878  0.30083  1.0000
  C   C493      1.0  0.99199  0.59580  0.42675  1.0000
  C   C494      1.0  0.97870  0.56672  0.41989  1.0000
  H   H810      1.0  0.73063  0.43288  0.47120  1.0000
  H   H811      1.0  0.97903  0.60553  0.42990  1.0000
  H   H812      1.0  0.98593  0.53204  0.41044  1.0000
  H   H813      1.0  0.54504  0.50144  0.19085  1.0000
  N   N35       1.0  0.56307  0.50545  0.25594  1.0000
  C   C495      1.0  0.54383  0.50066  0.28097  1.0000
  C   C496      1.0  0.57576  0.53630  0.24674  1.0000
  C   C497      1.0  0.58678  0.50055  0.26591  1.0000
  C   C498      1.0  0.54525  0.48446  0.23317  1.0000
  C   C499      1.0  0.53252  0.47207  0.29717  1.0000
  C   C500      1.0  0.55386  0.54570  0.23980  1.0000
  C   C501      1.0  0.61042  0.50628  0.24448  1.0000
  C   C502      1.0  0.55642  0.49227  0.20244  1.0000
  H   H814      1.0  0.55501  0.51807  0.29660  1.0000
  H   H815      1.0  0.52456  0.50166  0.27454  1.0000
  H   H816      1.0  0.58983  0.54170  0.22807  1.0000
  H   H817      1.0  0.59021  0.55090  0.26343  1.0000
  H   H818      1.0  0.59758  0.51391  0.28483  1.0000
  H   H819      1.0  0.57804  0.47793  0.27282  1.0000
  H   H820      1.0  0.54202  0.46294  0.23808  1.0000
  H   H821      1.0  0.52336  0.48157  0.23277  1.0000
  H   H822      1.0  0.52304  0.45331  0.28293  1.0000
  H   H823      1.0  0.53332  0.45010  0.40997  1.0000
  Fe  Fe78      1.0  0.51141  0.65099  0.31884  1.0000
  H   H824      1.0  0.56817  0.45366  0.40309  1.0000
  C   C503      1.0  0.99294  0.44258  0.26095  1.0000
  H   H825      1.0  0.74082  0.41524  0.44632  1.0000
  H   H826      1.0  0.62157  0.52848  0.23605  1.0000
  H   H827      1.0  0.60205  0.49038  0.22719  1.0000
  H   H828      1.0  0.62700  0.50335  0.25536  1.0000
  H   H829      1.0  0.75093  0.37072  0.46529  1.0000
  C   C504      1.0  0.93059  0.39360  0.24161  1.0000
  N   N36       1.0  0.78016  0.41086  0.48617  1.0000
  N   N37       1.0  0.73248  0.46282  0.28546  1.0000
  C   C505      1.0  0.75420  0.45926  0.30244  1.0000
  C   C506      1.0  0.70362  0.44403  0.29909  1.0000
  C   C507      1.0  0.74063  0.49394  0.28695  1.0000
  C   C508      1.0  0.73348  0.45426  0.25545  1.0000
  C   C509      1.0  0.78610  0.48030  0.29550  1.0000
  C   C510      1.0  0.69274  0.41162  0.29965  1.0000
  C   C511      1.0  0.71675  0.50092  0.28119  1.0000
  C   C512      1.0  0.71056  0.45258  0.23476  1.0000
  H   H830      1.0  0.75158  0.46148  0.32540  1.0000
  H   H831      1.0  0.75087  0.43737  0.29993  1.0000
  H   H832      1.0  0.68645  0.44636  0.28891  1.0000
  H   H833      1.0  0.70412  0.45088  0.32130  1.0000
  H   H834      1.0  0.74887  0.50264  0.30841  1.0000
  H   H835      1.0  0.75853  0.50732  0.27213  1.0000
  H   H836      1.0  0.75447  0.46963  0.24563  1.0000
  H   H837      1.0  0.73300  0.43348  0.25457  1.0000
  H   H838      1.0  0.79141  0.47856  0.27331  1.0000
  H   H839      1.0  0.95689  0.48558  0.29160  1.0000
  H   H840      1.0  0.80633  0.44454  0.45601  1.0000
  H   H841      1.0  0.69145  0.40304  0.27819  1.0000
  H   H842      1.0  0.70597  0.40644  0.31366  1.0000
  H   H843      1.0  0.67064  0.40010  0.30846  1.0000
  H   H844      1.0  0.70551  0.49250  0.26094  1.0000
  H   H845      1.0  0.72639  0.52457  0.28063  1.0000
  H   H846      1.0  0.70085  0.49291  0.29860  1.0000
  H   H847      1.0  0.71805  0.47359  0.22420  1.0000
  H   H848      1.0  0.68931  0.44504  0.24437  1.0000
  H   H849      1.0  0.70645  0.43646  0.21826  1.0000
  N   N38       1.0  0.95543  0.44814  0.23093  1.0000
  H   H850      1.0  0.98669  0.46733  0.17854  1.0000
  H   H851      1.0  0.52820  0.64376  0.21946  1.0000
  H   H852      1.0  0.58157  0.36369  0.04276  1.0000
  C   C513      1.0  0.58613  0.35098  0.02757  1.0000
  H   H853      1.0  0.97473  0.42867  0.27488  1.0000
  C   C514      1.0  0.77260  0.39002  0.46209  1.0000
  H   H854      1.0  0.78641  0.36520  0.43790  1.0000
  H   H855      1.0  0.97021  0.49089  0.21430  1.0000
  H   H856      1.0  0.57979  0.50664  0.20008  1.0000
  C   C515      1.0  0.99594  0.55448  0.41584  1.0000
  H   H857      1.0  0.81550  0.39678  0.45255  1.0000
  H   H858      1.0  0.56546  0.50836  0.47652  1.0000
  H   H859      1.0  0.99704  0.60701  0.34286  1.0000
  H   H860      1.0  0.82149  0.37150  0.00812  1.0000
  S   S152      1.0  0.82162  0.35446  0.14694  1.0000
  H   H861      1.0  0.53768  0.41987  0.41056  1.0000
  H   H862      1.0  0.62701  0.34945  0.44506  1.0000
  H   H863      1.0  0.91252  0.37302  0.23376  1.0000
  C   C516      1.0  0.55771  0.49229  0.45923  1.0000
  S   S153      1.0  0.85629  0.34279  0.19852  1.0000
  C   C517      1.0  0.56034  0.50934  0.43203  1.0000
  H   H864      1.0  0.94992  0.39151  0.24099  1.0000
  C   C518      1.0  0.55433  0.44579  0.44812  1.0000
  H   H865      1.0  0.93994  0.41319  0.20121  1.0000
  H   H866      1.0  0.64189  0.53045  0.44072  1.0000
  H   H867      1.0  0.60702  0.36609  0.01764  1.0000
  C   C519      1.0  0.80724  0.43824  0.47823  1.0000
  C   C520      1.0  0.94502  0.45466  0.25783  1.0000
  H   H868      1.0  0.92515  0.39558  0.26359  1.0000
  C   C521      1.0  0.95552  0.46814  0.20842  1.0000
  H   H869      1.0  0.77146  0.39978  0.44171  1.0000
  H   H870      1.0  0.91245  0.41543  0.21895  1.0000
  H   H871      1.0  0.96215  0.50130  0.25739  1.0000
  N   N39       1.0  0.57306  0.47554  0.45982  1.0000
  S   S154      1.0  0.53430  0.63733  0.34937  1.0000
  H   H872      1.0  0.54969  0.47224  0.31028  1.0000
  H   H873      1.0  0.99163  0.37787  0.20238  1.0000
  H   H874      1.0  0.00161  0.47568  0.23058  1.0000
  H   H875      1.0  0.98916  0.44151  0.21548  1.0000
  C   C522      1.0  0.93405  0.41798  0.22199  1.0000
  H   H876      1.0  0.79951  0.47490  0.30911  1.0000
  H   H877      1.0  0.73515  0.39408  0.49473  1.0000
  Fe  Fe79      1.0  0.52856  0.60427  0.31769  1.0000
  H   H878      1.0  0.94176  0.43949  0.27514  1.0000
  H   H879      1.0  0.54235  0.36528  0.43969  1.0000
  H   H880      1.0  0.79264  0.50282  0.30033  1.0000
  C   C523      1.0  0.96424  0.48503  0.26984  1.0000
  H   H881      1.0  0.63489  0.51488  0.47528  1.0000
  H   H882      1.0  0.55103  0.47228  0.19107  1.0000
  C   C524      1.0  0.79348  0.37903  0.45691  1.0000
  H   H883      1.0  0.98707  0.49114  0.27118  1.0000
  C   C525      1.0  0.57958  0.47215  0.49020  1.0000
  H   H884      1.0  0.58248  0.52756  0.42869  1.0000
  C   C526      1.0  0.87142  0.42689  0.00633  1.0000
  H   H885      1.0  0.00007  0.44204  0.12336  1.0000
  H   H886      1.0  0.96686  0.48281  0.16494  1.0000
  C   C527      1.0  0.59003  0.40770  0.49003  1.0000
  H   H887      1.0  0.61019  0.47584  0.44265  1.0000
  H   H888      1.0  0.80234  0.54731  0.02275  1.0000
  C   C528      1.0  0.74828  0.42918  0.46518  1.0000
  C   C529      1.0  0.60115  0.49025  0.44403  1.0000
  C   C530      1.0  0.96524  0.46527  0.17858  1.0000
  S   S155      1.0  0.52356  0.42102  0.08203  1.0000
  C   C531      1.0  0.62473  0.51880  0.45670  1.0000
  H   H889      1.0  0.56415  0.43262  0.45300  1.0000
  H   H890      1.0  0.93375  0.46549  0.20624  1.0000
  H   H891      1.0  0.94945  0.44503  0.16822  1.0000
  C   C532      1.0  0.80870  0.34951  0.99948  1.0000
  H   H892      1.0  0.61644  0.53293  0.46286  1.0000
  H   H893      1.0  0.82577  0.43478  0.47806  1.0000
  C   C533      1.0  0.99834  0.42828  0.14085  1.0000
  H   H894      1.0  0.63364  0.44087  0.48148  1.0000
  H   H895      1.0  0.54403  0.54816  0.25933  1.0000
  H   H896      1.0  0.54633  0.51871  0.43379  1.0000
  Fe  Fe80      1.0  0.52552  0.34964  0.08094  1.0000
  H   H897      1.0  0.78614  0.34269  0.00459  1.0000
  C   C534      1.0  0.75493  0.41506  0.49024  1.0000
  H   H898      1.0  0.60546  0.35670  0.46762  1.0000
  H   H899      1.0  0.00824  0.58091  0.30811  1.0000
  H   H900      1.0  0.56517  0.56718  0.22949  1.0000
  H   H901      1.0  0.50915  0.47390  0.10272  1.0000
  H   H902      1.0  0.55351  0.49591  0.41300  1.0000
  H   H903      1.0  0.51553  0.46934  0.31211  1.0000
  H   H904      1.0  0.77710  0.49614  0.00090  1.0000
  S   S156      1.0  0.50959  0.62083  0.28556  1.0000
  H   H905      1.0  0.54614  0.37325  0.49125  1.0000
  H   H906      1.0  0.99621  0.57683  0.35890  1.0000
  H   H907      1.0  0.52486  0.66511  0.41823  1.0000
  S   S157      1.0  0.51405  0.36635  0.04245  1.0000
  C   C535      1.0  0.60447  0.34336  0.44951  1.0000
  H   H908      1.0  0.59659  0.34924  0.43046  1.0000
  H   H909      1.0  0.51493  0.64252  0.18470  1.0000
  C   C536      1.0  0.51522  0.65015  0.20641  1.0000
  C   C537      1.0  0.81645  0.46493  0.49670  1.0000
  H   H910      1.0  0.52653  0.67389  0.20654  1.0000
  H   H911      1.0  0.72708  0.55129  0.77575  1.0000
  H   H912      1.0  0.80373  0.48658  0.93049  1.0000
  S   S158      1.0  0.56138  0.61261  0.83500  1.0000
  H   H913      1.0  0.53098  0.56943  0.78348  1.0000
  H   H914      1.0  0.83057  0.35303  0.81638  1.0000
  Fe  Fe81      1.0  0.62293  0.45109  0.80101  1.0000
  S   S159      1.0  0.64486  0.49846  0.80913  1.0000
  S   S160      1.0  0.62740  0.43788  0.75649  1.0000
  Fe  Fe82      1.0  0.60767  0.43727  0.86411  1.0000
  S   S161      1.0  0.62919  0.48360  0.87589  1.0000
  S   S162      1.0  0.58261  0.40256  0.89668  1.0000
  Fe  Fe83      1.0  0.60735  0.48838  0.83737  1.0000
  S   S163      1.0  0.57330  0.50140  0.83952  1.0000
  Fe  Fe84      1.0  0.66445  0.48863  0.84679  1.0000
  S   S164      1.0  0.71240  0.51679  0.85617  1.0000
  S   S165      1.0  0.58433  0.44137  0.82674  1.0000
  S   S166      1.0  0.64414  0.44188  0.83752  1.0000
  Fe  Fe85      1.0  0.90301  0.48501  0.89827  1.0000
  S   S167      1.0  0.87994  0.44189  0.91998  1.0000
  S   S168      1.0  0.94938  0.49900  0.88622  1.0000
  Fe  Fe86      1.0  0.84540  0.48417  0.88934  1.0000
  S   S169      1.0  0.81933  0.44102  0.90973  1.0000
  S   S170      1.0  0.82666  0.51069  0.87207  1.0000
  Fe  Fe87      1.0  0.85449  0.45788  0.94241  1.0000
  H   H915      1.0  0.72973  0.35260  0.73257  1.0000
  Fe  Fe88      1.0  0.84730  0.42930  0.88546  1.0000
  S   S171      1.0  0.83203  0.38724  0.86337  1.0000
  S   S172      1.0  0.87958  0.50219  0.92334  1.0000
  S   S173      1.0  0.87116  0.47124  0.86246  1.0000
  Fe  Fe89      1.0  0.88188  0.37814  0.68062  1.0000
  S   S174      1.0  0.86806  0.41061  0.67736  1.0000
  S   S175      1.0  0.92764  0.39950  0.69720  1.0000
  S   S176      1.0  0.80488  0.35940  0.65971  1.0000
  Fe  Fe90      1.0  0.84619  0.38868  0.63711  1.0000
  S   S177      1.0  0.85075  0.41991  0.60217  1.0000
  Fe  Fe91      1.0  0.82838  0.37865  0.70008  1.0000
  S   S178      1.0  0.80887  0.39352  0.73304  1.0000
  H   H916      1.0  0.96426  0.44904  0.75835  1.0000
  C   C538      1.0  0.98598  0.55178  0.91145  1.0000
  H   H917      1.0  0.59194  0.49337  0.50070  1.0000
  H   H918      1.0  0.56058  0.45636  0.53156  1.0000
  Fe  Fe92      1.0  0.55357  0.39176  0.55443  1.0000
  H   H919      1.0  0.80573  0.39832  0.51115  1.0000
  Fe  Fe93      1.0  0.52911  0.38282  0.61474  1.0000
  H   H920      1.0  0.82167  0.49294  0.96350  1.0000
  C   C539      1.0  0.82572  0.38892  0.82712  1.0000
  C   C540      1.0  0.82646  0.36936  0.80839  1.0000
  C   C541      1.0  0.82240  0.37122  0.77925  1.0000
  C   C542      1.0  0.81667  0.39208  0.76892  1.0000
  C   C543      1.0  0.81542  0.41121  0.78774  1.0000
  C   C544      1.0  0.82035  0.40993  0.81668  1.0000
  H   H921      1.0  0.83245  0.46721  0.51276  1.0000
  H   H922      1.0  0.75746  0.42819  0.50900  1.0000
  H   H923      1.0  0.81073  0.42720  0.77989  1.0000
  H   H924      1.0  0.81940  0.42489  0.83099  1.0000
  H   H925      1.0  0.92694  0.37501  0.55957  1.0000
  C   C545      1.0  0.86665  0.43876  0.51872  1.0000
  C   C546      1.0  0.86159  0.43986  0.54768  1.0000
  C   C547      1.0  0.85599  0.41693  0.56584  1.0000
  C   C548      1.0  0.85520  0.39272  0.55478  1.0000
  C   C549      1.0  0.85993  0.39149  0.52574  1.0000
  C   C550      1.0  0.72799  0.34900  0.75561  1.0000
  H   H926      1.0  0.86245  0.45876  0.55617  1.0000
  H   H927      1.0  0.85087  0.37493  0.56855  1.0000
  H   H928      1.0  0.85930  0.37267  0.51730  1.0000
  C   C551      1.0  0.74239  0.51195  0.86070  1.0000
  C   C552      1.0  0.76958  0.53648  0.85797  1.0000
  C   C553      1.0  0.79455  0.53509  0.86116  1.0000
  C   C554      1.0  0.79319  0.50921  0.86772  1.0000
  C   C555      1.0  0.76600  0.48424  0.87058  1.0000
  C   C556      1.0  0.74056  0.48559  0.86694  1.0000
  H   H929      1.0  0.77141  0.55693  0.85323  1.0000
  H   H930      1.0  0.81525  0.55448  0.85882  1.0000
  H   H931      1.0  0.76457  0.46404  0.87551  1.0000
  H   H932      1.0  0.71969  0.46643  0.86917  1.0000
  C   C557      1.0  0.58308  0.41319  0.93186  1.0000
  C   C558      1.0  0.55945  0.39632  0.94939  1.0000
  C   C559      1.0  0.55915  0.40438  0.97748  1.0000
  H   H933      1.0  0.54255  0.52973  0.72280  1.0000
  C   C560      1.0  0.60639  0.44593  0.97091  1.0000
  C   C561      1.0  0.60663  0.43799  0.94274  1.0000
  H   H934      1.0  0.54106  0.37726  0.94103  1.0000
  H   H935      1.0  0.94272  0.45571  0.51460  1.0000
  H   H936      1.0  0.62467  0.46513  0.97920  1.0000
  H   H937      1.0  0.62513  0.45090  0.92954  1.0000
  C   C562      1.0  0.60018  0.42567  0.73024  1.0000
  C   C563      1.0  0.57227  0.41905  0.73664  1.0000
  C   C564      1.0  0.55103  0.40867  0.71544  1.0000
  C   C565      1.0  0.55745  0.40518  0.68752  1.0000
  C   C566      1.0  0.58543  0.41201  0.68103  1.0000
  C   C567      1.0  0.60663  0.42206  0.70235  1.0000
  H   H938      1.0  0.56692  0.42145  0.75803  1.0000
  H   H939      1.0  0.84488  0.34234  0.92098  1.0000
  H   H940      1.0  0.59068  0.40938  0.65968  1.0000
  H   H941      1.0  0.62812  0.42703  0.69719  1.0000
  C   C568      1.0  0.95714  0.38973  0.65506  1.0000
  C   C569      1.0  0.95857  0.40646  0.67806  1.0000
  C   C570      1.0  0.98551  0.42875  0.68703  1.0000
  H   H942      1.0  0.93659  0.37212  0.64835  1.0000
  H   H943      1.0  0.97431  0.44143  0.62327  1.0000
  C   C571      1.0  0.56482  0.58176  0.83722  1.0000
  C   C572      1.0  0.54090  0.55434  0.84102  1.0000
  C   C573      1.0  0.54415  0.53019  0.84188  1.0000
  C   C574      1.0  0.57130  0.53304  0.83894  1.0000
  C   C575      1.0  0.59537  0.56045  0.83553  1.0000
  C   C576      1.0  0.59209  0.58470  0.83470  1.0000
  H   H944      1.0  0.52154  0.53260  0.68330  1.0000
  H   H945      1.0  0.81348  0.55660  0.94579  1.0000
  H   H946      1.0  0.61641  0.56297  0.83333  1.0000
  H   H947      1.0  0.61077  0.60584  0.83187  1.0000
  S   S179      1.0  0.86211  0.35760  0.63889  1.0000
  C   C577      1.0  0.98297  0.52718  0.89874  1.0000
  H   H948      1.0  0.99806  0.53021  0.53544  1.0000
  H   H949      1.0  0.92108  0.40126  0.85144  1.0000
  H   H950      1.0  0.96721  0.55353  0.91502  1.0000
  H   H951      1.0  0.53612  0.42553  0.89654  1.0000
  H   H952      1.0  0.79342  0.52516  0.78721  1.0000
  C   C578      1.0  0.71918  0.52917  0.76808  1.0000
  H   H953      1.0  0.78705  0.50563  0.75431  1.0000
  C   C579      1.0  0.78459  0.50366  0.77757  1.0000
  H   H954      1.0  0.73336  0.46470  0.73806  1.0000
  C   C580      1.0  0.70280  0.46868  0.78801  1.0000
  H   H955      1.0  0.62216  0.53253  0.93096  1.0000
  C   C581      1.0  0.95530  0.42810  0.76932  1.0000
  C   C582      1.0  0.79505  0.51565  0.99087  1.0000
  C   C583      1.0  0.69251  0.43640  0.78638  1.0000
  N   N40       1.0  0.73083  0.48842  0.77330  1.0000
  H   H956      1.0  0.75697  0.45026  0.95474  1.0000
  H   H957      1.0  0.51067  0.57934  0.76248  1.0000
  C   C584      1.0  0.77840  0.45805  0.96427  1.0000
  H   H958      1.0  0.71923  0.53029  0.74470  1.0000
  H   H959      1.0  0.70432  0.47425  0.81080  1.0000
  H   H960      1.0  0.99177  0.51136  0.50207  1.0000
  H   H961      1.0  0.94389  0.47302  0.77148  1.0000
  H   H962      1.0  0.68792  0.45151  0.72364  1.0000
  H   H963      1.0  0.53735  0.45694  0.88337  1.0000
  C   C585      1.0  0.75322  0.48325  0.78671  1.0000
  H   H964      1.0  0.79807  0.49504  0.78557  1.0000
  H   H965      1.0  0.60088  0.37876  0.97028  1.0000
  H   H966      1.0  0.76192  0.40490  0.54654  1.0000
  H   H967      1.0  0.70436  0.43056  0.80161  1.0000
  C   C586      1.0  0.58267  0.42917  0.98842  1.0000
  H   H968      1.0  0.55872  0.44748  0.94081  1.0000
  H   H969      1.0  0.97224  0.47966  0.55730  1.0000
  H   H970      1.0  0.75269  0.48458  0.81012  1.0000
  H   H971      1.0  0.66945  0.42369  0.79226  1.0000
  H   H972      1.0  0.98685  0.44160  0.70496  1.0000
  H   H973      1.0  0.70671  0.48410  0.70459  1.0000
  N   N41       1.0  0.92414  0.43880  0.80287  1.0000
  C   C587      1.0  0.91707  0.43695  0.83395  1.0000
  C   C588      1.0  0.93913  0.47002  0.79442  1.0000
  C   C589      1.0  0.94464  0.42790  0.79942  1.0000
  H   H974      1.0  0.76056  0.53423  0.76916  1.0000
  C   C590      1.0  0.85436  0.36312  0.93214  1.0000
  H   H975      1.0  0.84954  0.34323  0.97238  1.0000
  H   H976      1.0  0.74870  0.46120  0.78220  1.0000
  H   H977      1.0  0.93645  0.45206  0.84636  1.0000
  C   C591      1.0  0.80810  0.37222  0.95397  1.0000
  H   H978      1.0  0.56686  0.56638  0.72653  1.0000
  H   H979      1.0  0.96047  0.48212  0.80499  1.0000
  H   H980      1.0  0.74816  0.48806  0.96195  1.0000
  H   H981      1.0  0.93462  0.40519  0.80647  1.0000
  H   H982      1.0  0.90100  0.44355  0.83777  1.0000
  C   C592      1.0  0.93434  0.41093  0.58588  1.0000
  H   H983      1.0  0.76816  0.37414  0.51348  1.0000
  H   H984      1.0  0.00567  0.50650  0.88442  1.0000
  C   C593      1.0  0.52921  0.57581  0.76164  1.0000
  H   H985      1.0  0.74102  0.37045  0.76546  1.0000
  H   H986      1.0  0.91385  0.45611  0.63755  1.0000
  C   C594      1.0  0.55972  0.54105  0.76427  1.0000
  C   C595      1.0  0.76546  0.50285  0.94718  1.0000
  H   H987      1.0  0.85084  0.55617  0.97793  1.0000
  H   H988      1.0  0.82796  0.39383  0.95412  1.0000
  H   H989      1.0  0.76176  0.49037  0.92748  1.0000
  C   C596      1.0  0.70152  0.47509  0.72635  1.0000
  S   S180      1.0  0.51006  0.36750  0.53471  1.0000
  C   C597      1.0  0.92775  0.44766  0.63076  1.0000
  H   H990      1.0  0.91386  0.43161  0.74256  1.0000
  H   H991      1.0  0.80316  0.56032  0.98855  1.0000
  C   C598      1.0  0.51871  0.56301  0.71218  1.0000
  H   H992      1.0  0.68851  0.48320  0.73595  1.0000
  H   H993      1.0  0.87590  0.41209  0.74546  1.0000
  N   N42       1.0  0.79476  0.51195  0.95934  1.0000
  H   H994      1.0  0.55894  0.55246  0.78307  1.0000
  C   C599      1.0  0.89585  0.42920  0.75549  1.0000
  S   S181      1.0  0.54528  0.35912  0.58865  1.0000
  H   H995      1.0  0.58491  0.51819  0.97009  1.0000
  H   H996      1.0  0.99930  0.43116  0.58388  1.0000
  H   H997      1.0  0.69707  0.51594  0.77622  1.0000
  H   H998      1.0  0.68503  0.47125  0.78002  1.0000
  H   H999      1.0  0.55536  0.61550  0.73662  1.0000
  C   C600      1.0  0.57164  0.53889  0.92132  1.0000
  C   C601      1.0  0.55332  0.45375  0.50926  1.0000
  H   H1000     1.0  0.77180  0.53894  0.92021  1.0000
  C   C602      1.0  0.78474  0.39739  0.51224  1.0000
  C   C603      1.0  0.90441  0.40708  0.84789  1.0000
  H   H1001     1.0  0.62221  0.37279  0.94581  1.0000
  C   C604      1.0  0.00458  0.45306  0.58955  1.0000
  H   H1002     1.0  0.58313  0.48482  0.97320  1.0000
  C   C605      1.0  0.80107  0.48830  0.95361  1.0000
  H   H1003     1.0  0.86302  0.57066  0.94339  1.0000
  H   H1004     1.0  0.87178  0.45685  0.50507  1.0000
  H   H1005     1.0  0.55893  0.61986  0.77379  1.0000
  C   C606      1.0  0.93449  0.44710  0.53607  1.0000
  C   C607      1.0  0.78501  0.37730  0.96720  1.0000
  C   C608      1.0  0.55656  0.60514  0.75643  1.0000
  H   H1006     1.0  0.92128  0.45632  0.54258  1.0000
  N   N43       1.0  0.52340  0.55281  0.74043  1.0000
  C   C609      1.0  0.98254  0.39520  0.64138  1.0000
  H   H1007     1.0  0.57616  0.60353  0.75674  1.0000
  H   H1008     1.0  0.97950  0.53580  0.50733  1.0000
  H   H1009     1.0  0.79040  0.39974  0.55774  1.0000
  H   H1010     1.0  0.74226  0.52345  0.80203  1.0000
  H   H1011     1.0  0.76422  0.35746  0.97074  1.0000
  H   H1012     1.0  0.88239  0.43350  0.98624  1.0000
  H   H1013     1.0  0.85655  0.53577  0.95117  1.0000
  C   C610      1.0  0.56006  0.46225  0.92377  1.0000
  C   C611      1.0  0.58560  0.50131  0.95747  1.0000
  H   H1014     1.0  0.84951  0.37781  0.92025  1.0000
  H   H1015     1.0  0.98140  0.38178  0.62405  1.0000
  C   C612      1.0  0.54831  0.54793  0.73728  1.0000
  H   H1016     1.0  0.89594  0.40761  0.86907  1.0000
  H   H1017     1.0  0.91562  0.42429  0.63512  1.0000
  H   H1018     1.0  0.61952  0.49803  0.93505  1.0000
  C   C613      1.0  0.72979  0.48291  0.74197  1.0000
  H   H1019     1.0  0.52201  0.43869  0.69615  1.0000
  H   H1020     1.0  0.54820  0.50039  0.89765  1.0000
  C   C614      1.0  0.86571  0.41449  0.50761  1.0000
  H   H1021     1.0  0.78517  0.44266  0.95812  1.0000
  H   H1022     1.0  0.53697  0.46024  0.50786  1.0000
  C   C615      1.0  0.84451  0.35915  0.96328  1.0000
  H   H1023     1.0  0.89956  0.47260  0.79667  1.0000
  C   C616      1.0  0.53521  0.44474  0.90301  1.0000
  H   H1024     1.0  0.93142  0.40252  0.60785  1.0000
  H   H1025     1.0  0.81745  0.53463  0.92155  1.0000
  H   H1026     1.0  0.92555  0.49182  0.82409  1.0000
  H   H1027     1.0  0.94543  0.47824  0.59665  1.0000
  H   H1028     1.0  0.87803  0.37273  0.93155  1.0000
  H   H1029     1.0  0.52542  0.50909  0.84465  1.0000
  H   H1030     1.0  0.69440  0.42968  0.76488  1.0000
  C   C617      1.0  0.56676  0.50940  0.91242  1.0000
  H   H1031     1.0  0.53621  0.49999  0.96205  1.0000
  H   H1032     1.0  0.55228  0.53703  0.93132  1.0000
  H   H1033     1.0  0.53898  0.58158  0.70403  1.0000
  H   H1034     1.0  0.82308  0.35617  0.76489  1.0000
  C   C618      1.0  0.95993  0.45581  0.55629  1.0000
  Fe  Fe94      1.0  0.51818  0.61018  0.83120  1.0000
  H   H1035     1.0  0.97444  0.45023  0.54540  1.0000
  H   H1036     1.0  0.89091  0.39776  0.78662  1.0000
  C   C619      1.0  0.75913  0.52671  0.93898  1.0000
  H   H1037     1.0  0.58535  0.51312  0.89925  1.0000
  H   H1038     1.0  0.53906  0.46109  0.98984  1.0000
  C   C620      1.0  0.81761  0.53862  0.94456  1.0000
  C   C621      1.0  0.52310  0.45660  0.97294  1.0000
  H   H1039     1.0  0.73620  0.51669  0.93273  1.0000
  C   C622      1.0  0.89670  0.42066  0.78655  1.0000
  C   C623      1.0  0.92281  0.48570  0.80146  1.0000
  H   H1040     1.0  0.54335  0.43057  0.50449  1.0000
  C   C624      1.0  0.97914  0.45378  0.60316  1.0000
  H   H1041     1.0  0.74762  0.50177  0.73093  1.0000
  H   H1042     1.0  0.52938  0.40301  0.72085  1.0000
  H   H1043     1.0  0.93184  0.50588  0.78895  1.0000
  H   H1044     1.0  0.53545  0.48150  0.62374  1.0000
  H   H1045     1.0  0.58289  0.54860  0.76163  1.0000
  H   H1046     1.0  0.52535  0.46109  0.59208  1.0000
  C   C625      1.0  0.73947  0.51915  0.77895  1.0000
  H   H1047     1.0  0.85887  0.37966  0.97427  1.0000
  H   H1048     1.0  0.54822  0.51762  0.76869  1.0000
  N   N44       1.0  0.95224  0.44326  0.58569  1.0000
  H   H1049     1.0  0.57606  0.55241  0.90207  1.0000
  C   C626      1.0  0.93461  0.45448  0.59905  1.0000
  H   H1050     1.0  0.98778  0.47652  0.60946  1.0000
  H   H1051     1.0  0.91348  0.44574  0.58834  1.0000
  H   H1052     1.0  0.89494  0.44915  0.75393  1.0000
  S   S182      1.0  0.84325  0.34733  0.70677  1.0000
  H   H1053     1.0  0.79910  0.43321  0.54257  1.0000
  N   N45       1.0  0.56159  0.48854  0.93607  1.0000
  H   H1054     1.0  0.87837  0.42074  0.79694  1.0000
  C   C627      1.0  0.61629  0.51431  0.94560  1.0000
  C   C628      1.0  0.78392  0.40993  0.54110  1.0000
  S   S183      1.0  0.59324  0.41421  0.52675  1.0000
  H   H1055     1.0  0.51676  0.43562  0.96327  1.0000
  H   H1056     1.0  0.80259  0.36717  0.93122  1.0000
  S   S184      1.0  0.54210  0.41771  0.58236  1.0000
  H   H1057     1.0  0.54050  0.39165  0.99045  1.0000
  H   H1058     1.0  0.91193  0.40334  0.57881  1.0000
  H   H1059     1.0  0.88631  0.39015  0.83560  1.0000
  H   H1060     1.0  0.79872  0.46558  0.50730  1.0000
  H   H1061     1.0  0.94725  0.45809  0.64418  1.0000
  H   H1062     1.0  0.96391  0.44035  0.81304  1.0000
  C   C629      1.0  0.53395  0.48103  0.95075  1.0000
  H   H1063     1.0  0.93801  0.41081  0.75659  1.0000
  H   H1064     1.0  0.92093  0.42350  0.53407  1.0000
  C   C630      1.0  0.60038  0.36310  0.95504  1.0000
  H   H1065     1.0  0.63175  0.52274  0.96344  1.0000
  H   H1066     1.0  0.54270  0.45835  0.66549  1.0000
  H   H1067     1.0  0.57996  0.46801  0.91199  1.0000
  S   S185      1.0  0.52971  0.39258  0.66177  1.0000
  C   C631      1.0  0.94550  0.39434  0.56895  1.0000
  H   H1068     1.0  0.95697  0.38700  0.58301  1.0000
  S   S186      1.0  0.83970  0.45101  0.98809  1.0000
  C   C632      1.0  0.84858  0.55060  0.95523  1.0000
  H   H1069     1.0  0.58562  0.36017  0.93739  1.0000
  N   N46       1.0  0.81345  0.35012  0.96803  1.0000
  H   H1070     1.0  0.95953  0.40617  0.55097  1.0000
  H   H1071     1.0  0.97278  0.42307  0.77037  1.0000
  H   H1072     1.0  0.59040  0.55058  0.93544  1.0000
  H   H1073     1.0  0.51185  0.42833  0.63321  1.0000
  C   C633      1.0  0.99736  0.53192  0.51223  1.0000
  C   C634      1.0  0.51673  0.46573  0.61126  1.0000
  H   H1074     1.0  0.76283  0.54159  0.95644  1.0000
  H   H1075     1.0  0.76326  0.34241  0.76346  1.0000
  H   H1076     1.0  0.51384  0.43687  0.91258  1.0000
  H   H1077     1.0  0.79260  0.38887  0.98754  1.0000
  H   H1078     1.0  0.51376  0.48403  0.66438  1.0000
  C   C635      1.0  0.52952  0.45840  0.68331  1.0000
  H   H1079     1.0  0.78112  0.39131  0.95288  1.0000
  H   H1080     1.0  0.54404  0.47664  0.69706  1.0000
  C   C636      1.0  0.00772  0.52546  0.89412  1.0000
  H   H1081     1.0  0.51987  0.55169  0.84335  1.0000
  H   H1082     1.0  0.75478  0.34248  0.70075  1.0000
  H   H1083     1.0  0.77685  0.45697  0.98763  1.0000
  H   H1084     1.0  0.55949  0.35512  0.99638  1.0000
  H   H1085     1.0  0.99750  0.52541  0.98843  1.0000
  H   H1086     1.0  0.00403  0.49902  0.97296  1.0000
  H   H1087     1.0  0.50945  0.51614  0.78955  1.0000
  H   H1088     1.0  0.51641  0.47517  0.93515  1.0000
  N   N47       1.0  0.56795  0.93609  0.15489  1.0000
  S   S187      1.0  0.56595  0.91247  0.26006  1.0000
  H   H1089     1.0  0.51237  0.73080  0.41614  1.0000
  H   H1090     1.0  0.56473  0.94124  0.31295  1.0000
  C   C637      1.0  0.55963  0.91368  0.17780  1.0000
  H   H1091     1.0  0.56044  0.99688  0.22682  1.0000
  H   H1092     1.0  0.55680  0.68949  0.39979  1.0000
  C   C638      1.0  0.57930  0.94905  0.25121  1.0000
  C   C639      1.0  0.56168  0.95975  0.24247  1.0000
  C   C640      1.0  0.60898  0.96787  0.25259  1.0000
  H   H1093     1.0  0.53872  0.94551  0.24144  1.0000
  H   H1094     1.0  0.62281  0.95993  0.25933  1.0000
  S   S188      1.0  0.51427  0.84279  0.21446  1.0000
  C   C641      1.0  0.51249  0.71613  0.29498  1.0000
  H   H1095     1.0  0.59770  0.92786  0.13169  1.0000
  C   C642      1.0  0.57399  0.98897  0.23451  1.0000
  H   H1096     1.0  0.58437  0.94621  0.11219  1.0000
  C   C643      1.0  0.55595  0.90038  0.11407  1.0000
  H   H1097     1.0  0.55896  0.92259  0.19862  1.0000
  H   H1098     1.0  0.59558  0.98189  0.14857  1.0000
  C   C644      1.0  0.52064  0.69423  0.38781  1.0000
  H   H1099     1.0  0.52852  0.78339  0.27369  1.0000
  C   C645      1.0  0.55901  0.97707  0.31559  1.0000
  H   H1100     1.0  0.56708  0.89413  0.09856  1.0000
  N   N48       1.0  0.52529  0.92615  0.33655  1.0000
  C   C646      1.0  0.55535  0.94929  0.32869  1.0000
  H   H1101     1.0  0.53521  0.71695  0.38153  1.0000
  C   C647      1.0  0.61961  0.96849  0.17424  1.0000
  H   H1102     1.0  0.55264  0.98879  0.33009  1.0000
  H   H1103     1.0  0.51201  0.95642  0.34901  1.0000
  C   C648      1.0  0.57801  0.92884  0.12825  1.0000
  H   H1104     1.0  0.53742  0.90965  0.37280  1.0000
  C   C649      1.0  0.59084  0.96525  0.16505  1.0000
  H   H1105     1.0  0.61708  0.95572  0.19358  1.0000
  H   H1106     1.0  0.54733  0.95424  0.12972  1.0000
  H   H1107     1.0  0.58032  0.89616  0.20395  1.0000
  H   H1108     1.0  0.56734  0.87797  0.17162  1.0000
  H   H1109     1.0  0.63020  0.96336  0.15723  1.0000
  H   H1110     1.0  0.55062  0.75800  0.29708  1.0000
  H   H1111     1.0  0.58337  0.97175  0.18375  1.0000
  H   H1112     1.0  0.53739  0.89568  0.17417  1.0000
  H   H1113     1.0  0.60038  0.91226  0.17285  1.0000
  C   C650      1.0  0.52839  0.74600  0.29053  1.0000
  C   C651      1.0  0.62122  0.99655  0.24388  1.0000
  H   H1114     1.0  0.54024  0.87068  0.34680  1.0000
  H   H1115     1.0  0.54774  0.97310  0.29512  1.0000
  C   C652      1.0  0.51293  0.93784  0.35746  1.0000
  C   C653      1.0  0.52822  0.94623  0.17116  1.0000
  H   H1116     1.0  0.63448  0.99125  0.18004  1.0000
  C   C654      1.0  0.57831  0.89969  0.18110  1.0000
  H   H1117     1.0  0.58212  0.99177  0.31081  1.0000
  H   H1118     1.0  0.56964  0.95561  0.34755  1.0000
  H   H1119     1.0  0.52717  0.94647  0.37630  1.0000
  S   S189      1.0  0.52929  0.69897  0.31167  1.0000
  H   H1120     1.0  0.52453  0.91766  0.13876  1.0000
  H   H1121     1.0  0.53749  0.88546  0.31394  1.0000
  C   C655      1.0  0.52732  0.90249  0.35159  1.0000
  C   C656      1.0  0.54204  0.93832  0.14710  1.0000
  H   H1122     1.0  0.53960  0.90277  0.10211  1.0000
  H   H1123     1.0  0.51588  0.73422  0.35357  1.0000
  C   C657      1.0  0.54421  0.89075  0.33619  1.0000
  H   H1124     1.0  0.51838  0.68130  0.36879  1.0000
  Fe  Fe95      1.0  0.52207  0.87474  0.24858  1.0000
  H   H1125     1.0  0.51939  0.91099  0.29346  1.0000
  C   C658      1.0  0.53735  0.68736  0.40999  1.0000
  H   H1126     1.0  0.56769  0.90607  0.33704  1.0000
  H   H1127     1.0  0.54484  0.88244  0.12938  1.0000
  C   C659      1.0  0.51589  0.76050  0.27737  1.0000
  H   H1128     1.0  0.52282  0.93176  0.18968  1.0000
  H   H1129     1.0  0.54488  0.70271  0.42775  1.0000
  H   H1130     1.0  0.54179  0.96890  0.17768  1.0000
  C   C660      1.0  0.60397  0.00736  0.23461  1.0000
  H   H1131     1.0  0.54182  0.91699  0.84120  1.0000
  S   S190      1.0  0.54528  0.93112  0.77844  1.0000
  C   C661      1.0  0.58930  0.99314  0.71879  1.0000
  H   H1132     1.0  0.56387  0.98874  0.79583  1.0000
  H   H1133     1.0  0.52496  0.74488  0.73997  1.0000
  C   C662      1.0  0.53391  0.98829  0.67825  1.0000
  H   H1134     1.0  0.54513  0.84891  0.66155  1.0000
  C   C663      1.0  0.56357  0.96433  0.75994  1.0000
  C   C664      1.0  0.57052  0.98975  0.77417  1.0000
  C   C665      1.0  0.57269  0.96613  0.73199  1.0000
  H   H1135     1.0  0.54129  0.92060  0.87851  1.0000
  H   H1136     1.0  0.56779  0.94677  0.72091  1.0000
  H   H1137     1.0  0.59701  0.99432  0.69752  1.0000
  C   C666      1.0  0.51252  0.74128  0.75895  1.0000
  S   S191      1.0  0.52558  0.86625  0.72101  1.0000
  H   H1138     1.0  0.52994  0.96613  0.89325  1.0000
  H   H1139     1.0  0.51472  0.83968  0.63990  1.0000
  Fe  Fe96      1.0  0.51726  0.88825  0.75659  1.0000
  H   H1140     1.0  0.53510  0.99478  0.70061  1.0000
  H   H1141     1.0  0.54063  0.97203  0.67813  1.0000
  C   C667      1.0  0.52738  0.90954  0.86002  1.0000
  H   H1142     1.0  0.55946  0.96739  0.87371  1.0000
  H   H1143     1.0  0.52230  0.67767  0.92040  1.0000
  H   H1144     1.0  0.52594  0.79818  0.67511  1.0000
  H   H1145     1.0  0.53868  0.82660  0.63167  1.0000
  H   H1146     1.0  0.53060  0.95332  0.82962  1.0000
  H   H1147     1.0  0.51152  0.97724  0.67049  1.0000
  C   C668      1.0  0.52792  0.83130  0.64891  1.0000
  H   H1148     1.0  0.53574  0.87446  0.86457  1.0000
  H   H1149     1.0  0.51325  0.70287  0.77066  1.0000
  C   C669      1.0  0.51685  0.87734  0.86437  1.0000
  C   C670      1.0  0.51867  0.94866  0.84994  1.0000
  H   H1150     1.0  0.55628  0.00509  0.63886  1.0000
  S   S192      1.0  0.51286  0.79070  0.74340  1.0000
  C   C671      1.0  0.53999  0.96917  0.87220  1.0000
  H   H1151     1.0  0.54748  0.99161  0.86551  1.0000
  H   H1152     1.0  0.51016  0.76663  0.63472  1.0000
  C   C672      1.0  0.51062  0.80496  0.66836  1.0000
