data_image0
_chemical_formula_structural       FeS2FeS2Fe2S3FeHSHC2H2SCHSCHC2H2CHCH2C6H4NH4C2H3C3H11C2HNC3H3CH5CH6C5HCH2NC2H3CH13CH3CHCH4C2HC2H3CSHCH2CHCHFeS2FeS2Fe2S3FeHSCH3CSNSCH2CHCH2NCH2C6H4NC8H21C3H10CH2C2HC2HCFeHC2HSHC2H3SC2SH6CH2FeH4NHFeHSCH3CSFeS2FeS2FeSFeS3C3H2CHCH2C6H6C7H5CHCNC8H22CH6CH2C2H2CHCH5NH2CH3NCH2CH2CH2C2H3C2H6CH2CHFeHSC3HS2FeS2FeS2FeSFeS3CHC2HC3HC7H4CH2C5H5FeHCH4CH3C2NHCH3CH6SH6NC8H20CH3C3HC2H6CNH8CHCHNSFeSFeS2FeSHFeS2FeSFeS3FeS2FeS2FeHFeS3C6H4C6H4C6H3CNH4CHC2HCH6CHC5HCH3SNH2C4H5CH4CH7CSH3CHCH2CHFeSH5CH2CH2FeCH3NH2CH2CH2CH4C2SH3CH3CH2SH2NH3CH2CH5C3HCH7C2HC2HCH2SCH3C2HCH2CH3CH3SH2FeS2FeS2FeS2FeSFeS3FeS2FeS2FeCFeS3C6H4C6H4C6H4C3H2C2NH3CHC2HFeC5H5C3H5CH2CH2C2H2CH2C2HSHC2H5CH4CH3NHC2HCHCHCHNH5C2H3NC8H21NFeH3CSCSH2NCNH2CH3C2HC3H3CH7C4HC3H5CHSH7SH3CH2CHCH3CHCH2CH2CH2FeHCS2CSH2CFeSC2FeS2FeS2FeSFeCS3FeSHSH4CH2CHCHCHC6H4C3HCH2C4H4C4SH3C3HNHC2H3CH2FeC2H2CHFeCSH3C2SHC2HFeHCH2C2H5NH2CHC3H3C3FeHCH3CNHNH3C2H2C2H3CH4SCH2C2SH4CH5CHSCHC2H6CSHSH3CH2SHCFeCH4FeC4HS2H9CSCH2CHNHC2SHSC2H2CH2C2H4C3HCHSHCSCFeSFeSHSFeS2FeS2FeSFeCS3FeSFeSCH2C3HC2H4C6H4C3H6C3H2C6H4C2HCHC2HC2SHC3H3C2H3C2SHC2H4CH2SHC2HFeH7CNCH4CH2CSHFeH3CH9CH3C3HCHCHC4H2CH2CHCFeH3NC3H4CH3SC2H2CHSH2CHCNHCSH3FeH7CH5CH4C3HCHFeCNCH3CH3CHCHC2H2C2H3CH5FeH2NSHCHCFeSH2S2FeS2FeSFeS3C2H2C2HCH2C4HCHCH3C2H3C3HCH4SH2CHC2HCH2CHCH6CH4CH2CH5CHSC2NH2NH2FeH2CH3CH2CHCH3CH3CHCH2C2HCHN2H6CHC2H3FeCHCHCH2C3HC2H3CH2SHFeC2S3H2FeSC2SH2SHFeSFeHSHC2H2C2H4C4FeCHSH2SCHCHC2H3SH9CSCHNC8H20CH5C4HFeHC2HCHCHNH10CH2C2SCHC2FeS2CS2Fe2S3C2SFe2SH2C7H6CH2CH2CHSH2CH15NH2C2H4CNSH4CHCH4C2H2CH6C2HC2H3C3H5FeS2CS2Fe2H2S2HSHFeSH2C7H4CHCH2C2HCSHSH2CHCHC2H3CH2C3HCH3NFeCNHCH2C2H3C2H2C2NCH2CH2CH8SCNH10CHCH4SH5CH3FeH2CH3NCH5C2H2CHC
_chemical_formula_sum              "Fe96 S192 H1152 C672 N48"
_cell_length_a       50.9143
_cell_length_b       50.6031
_cell_length_c       40.8545
_cell_angle_alpha    89.9427
_cell_angle_beta     90.1347
_cell_angle_gamma    119.968

_space_group_name_H-M_alt    "P 1"
_space_group_IT_number       1

loop_
  _space_group_symop_operation_xyz
  'x, y, z'

loop_
  _atom_site_type_symbol
  _atom_site_label
  _atom_site_symmetry_multiplicity
  _atom_site_fract_x
  _atom_site_fract_y
  _atom_site_fract_z
  _atom_site_occupancy
  Fe  Fe1       1.0  0.13767  0.41457  0.30641  1.0000
  S   S1        1.0  0.13444  0.45518  0.32377  1.0000
  S   S2        1.0  0.16736  0.39581  0.32691  1.0000
  Fe  Fe2       1.0  0.08233  0.39343  0.25911  1.0000
  S   S3        1.0  0.07534  0.43196  0.27380  1.0000
  S   S4        1.0  0.05087  0.35617  0.22325  1.0000
  Fe  Fe3       1.0  0.12588  0.46106  0.27084  1.0000
  Fe  Fe4       1.0  0.08413  0.42280  0.32513  1.0000
  S   S5        1.0  0.05474  0.42570  0.36453  1.0000
  S   S6        1.0  0.13283  0.42285  0.25278  1.0000
  S   S7        1.0  0.08735  0.38181  0.31118  1.0000
  Fe  Fe5       1.0  0.31595  0.42690  0.43851  1.0000
  H   H1        1.0  0.10568  0.32716  0.38427  1.0000
  S   S8        1.0  0.28072  0.44112  0.42471  1.0000
  H   H2        1.0  0.04010  0.34720  0.01086  1.0000
  C   C1        1.0  0.13322  0.36782  0.41352  1.0000
  C   C2        1.0  0.12397  0.41104  0.40514  1.0000
  H   H3        1.0  0.28534  0.28476  0.47043  1.0000
  H   H4        1.0  0.25233  0.26719  0.21470  1.0000
  S   S9        1.0  0.30958  0.38439  0.46405  1.0000
  C   C3        1.0  0.29942  0.32395  0.13227  1.0000
  H   H5        1.0  0.13297  0.35201  0.43267  1.0000
  S   S10       1.0  0.14186  0.50464  0.24200  1.0000
  C   C4        1.0  0.12642  0.44121  0.41667  1.0000
  H   H6        1.0  0.28187  0.24832  0.46377  1.0000
  C   C5        1.0  0.32742  0.10742  0.26771  1.0000
  C   C6        1.0  0.01495  0.35070  0.06950  1.0000
  H   H7        1.0  0.02528  0.43471  0.07430  1.0000
  H   H8        1.0  0.07498  0.36746  0.48514  1.0000
  C   C7        1.0  0.03425  0.39451  0.39081  1.0000
  H   H9        1.0  0.09983  0.39573  0.39866  1.0000
  C   C8        1.0  0.03562  0.36770  0.38785  1.0000
  H   H10       1.0  0.30020  0.32459  0.07923  1.0000
  H   H11       1.0  0.04934  0.36569  0.36901  1.0000
  C   C9        1.0  0.25140  0.42898  0.39453  1.0000
  C   C10       1.0  0.24155  0.44931  0.38459  1.0000
  C   C11       1.0  0.21688  0.44011  0.36274  1.0000
  C   C12       1.0  0.20096  0.41002  0.35134  1.0000
  C   C13       1.0  0.21106  0.38980  0.36090  1.0000
  C   C14       1.0  0.23618  0.39921  0.38212  1.0000
  H   H12       1.0  0.25307  0.47239  0.39400  1.0000
  H   H13       1.0  0.20965  0.45607  0.35553  1.0000
  H   H14       1.0  0.19911  0.36652  0.35214  1.0000
  H   H15       1.0  0.24323  0.38318  0.38959  1.0000
  N   N1        1.0  0.13532  0.39607  0.42884  1.0000
  H   H16       1.0  0.29690  0.04559  0.24968  1.0000
  H   H17       1.0  0.03077  0.49990  0.21692  1.0000
  H   H18       1.0  0.27795  0.25422  0.20198  1.0000
  H   H19       1.0  0.08416  0.34352  0.39969  1.0000
  C   C15       1.0  0.11884  0.38870  0.46117  1.0000
  C   C16       1.0  0.29933  0.30927  0.09927  1.0000
  H   H20       1.0  0.11014  0.36117  0.36631  1.0000
  H   H21       1.0  0.18779  0.38801  0.44093  1.0000
  H   H22       1.0  0.17661  0.39765  0.47927  1.0000
  C   C17       1.0  0.18616  0.40607  0.45462  1.0000
  C   C18       1.0  0.16835  0.41850  0.43555  1.0000
  C   C19       1.0  0.05890  0.49100  0.24984  1.0000
  H   H23       1.0  0.18061  0.42805  0.41226  1.0000
  H   H24       1.0  0.17108  0.43849  0.44974  1.0000
  H   H25       1.0  0.13652  0.41578  0.38153  1.0000
  H   H26       1.0  0.15370  0.37397  0.39840  1.0000
  H   H27       1.0  0.03947  0.42490  0.10944  1.0000
  H   H28       1.0  0.31402  0.34495  0.29780  1.0000
  H   H29       1.0  0.03179  0.31751  0.06612  1.0000
  H   H30       1.0  0.11539  0.44862  0.39818  1.0000
  H   H31       1.0  0.12599  0.37562  0.47717  1.0000
  H   H32       1.0  0.02947  0.32971  0.29690  1.0000
  H   H33       1.0  0.31499  0.13057  0.30433  1.0000
  C   C20       1.0  0.31959  0.27146  0.14728  1.0000
  C   C21       1.0  0.32638  0.35642  0.19554  1.0000
  H   H34       1.0  0.09193  0.36891  0.10989  1.0000
  N   N2        1.0  0.04631  0.37809  0.07286  1.0000
  C   C22       1.0  0.04456  0.40591  0.06255  1.0000
  C   C23       1.0  0.06916  0.37634  0.05085  1.0000
  C   C24       1.0  0.05714  0.38277  0.10797  1.0000
  H   H35       1.0  0.11446  0.43860  0.44011  1.0000
  H   H36       1.0  0.07412  0.36706  0.14783  1.0000
  H   H37       1.0  0.27777  0.32871  0.19114  1.0000
  C   C25       1.0  0.06978  0.36275  0.12113  1.0000
  H   H38       1.0  0.06770  0.42607  0.05958  1.0000
  H   H39       1.0  0.03861  0.37943  0.12480  1.0000
  H   H40       1.0  0.32640  0.06135  0.30522  1.0000
  H   H41       1.0  0.07419  0.35836  0.05862  1.0000
  H   H42       1.0  0.09143  0.39788  0.05244  1.0000
  C   C26       1.0  0.08400  0.37029  0.45986  1.0000
  H   H43       1.0  0.01432  0.48381  0.25456  1.0000
  H   H44       1.0  0.03335  0.40252  0.21142  1.0000
  H   H45       1.0  0.23907  0.23437  0.18921  1.0000
  H   H46       1.0  0.31141  0.03130  0.21916  1.0000
  H   H47       1.0  0.07566  0.40677  0.11183  1.0000
  H   H48       1.0  0.27853  0.28701  0.09525  1.0000
  C   C27       1.0  0.32570  0.33780  0.31464  1.0000
  C   C28       1.0  0.10650  0.34902  0.38994  1.0000
  C   C29       1.0  0.29752  0.32487  0.19172  1.0000
  C   C30       1.0  0.06027  0.37008  0.01438  1.0000
  C   C31       1.0  0.33835  0.32045  0.30321  1.0000
  H   H49       1.0  0.31315  0.25220  0.16450  1.0000
  C   C32       1.0  0.31796  0.04678  0.24068  1.0000
  H   H50       1.0  0.15034  0.45984  0.41846  1.0000
  H   H51       1.0  0.30409  0.26367  0.12606  1.0000
  N   N3        1.0  0.29672  0.30590  0.16275  1.0000
  C   C33       1.0  0.32276  0.29970  0.16562  1.0000
  C   C34       1.0  0.26612  0.27718  0.16300  1.0000
  H   H52       1.0  0.32087  0.34611  0.13242  1.0000
  H   H53       1.0  0.05500  0.47959  0.27402  1.0000
  H   H54       1.0  0.02076  0.32285  0.40769  1.0000
  C   C35       1.0  0.25883  0.25734  0.19409  1.0000
  H   H55       1.0  0.26304  0.26222  0.14189  1.0000
  H   H56       1.0  0.32732  0.37302  0.17715  1.0000
  H   H57       1.0  0.29544  0.31270  0.21507  1.0000
  H   H58       1.0  0.12497  0.41003  0.47487  1.0000
  H   H59       1.0  0.24773  0.28289  0.16008  1.0000
  H   H60       1.0  0.32652  0.29634  0.19180  1.0000
  H   H61       1.0  0.03334  0.40233  0.03823  1.0000
  H   H62       1.0  0.31392  0.28147  0.44748  1.0000
  H   H63       1.0  0.31991  0.30725  0.09638  1.0000
  H   H64       1.0  0.31903  0.35997  0.35650  1.0000
  H   H65       1.0  0.33247  0.08526  0.20846  1.0000
  H   H66       1.0  0.07433  0.38224  0.44592  1.0000
  H   H67       1.0  0.05649  0.47454  0.23045  1.0000
  C   C36       1.0  0.32863  0.34643  0.34778  1.0000
  H   H68       1.0  0.31586  0.11168  0.24684  1.0000
  H   H69       1.0  0.28092  0.32966  0.13136  1.0000
  H   H70       1.0  0.07551  0.34701  0.45022  1.0000
  C   C37       1.0  0.02728  0.41593  0.08591  1.0000
  H   H71       1.0  0.30942  0.08630  0.27912  1.0000
  C   C38       1.0  0.33595  0.13328  0.29284  1.0000
  H   H72       1.0  0.32712  0.03732  0.25899  1.0000
  H   H73       1.0  0.05380  0.33810  0.11842  1.0000
  H   H74       1.0  0.32669  0.33319  0.48003  1.0000
  H   H75       1.0  0.01843  0.36705  0.31154  1.0000
  C   C39       1.0  0.01976  0.38308  0.19586  1.0000
  C   C40       1.0  0.02410  0.35788  0.19661  1.0000
  H   H76       1.0  0.01485  0.41734  0.41742  1.0000
  C   C41       1.0  0.03588  0.50180  0.24363  1.0000
  C   C42       1.0  0.01938  0.34344  0.40970  1.0000
  H   H77       1.0  0.20988  0.42492  0.45812  1.0000
  H   H78       1.0  0.01608  0.29482  0.27520  1.0000
  H   H79       1.0  0.32595  0.36584  0.21997  1.0000
  C   C43       1.0  0.01608  0.39670  0.41515  1.0000
  S   S11       1.0  0.33609  0.31121  0.26147  1.0000
  H   H80       1.0  0.05622  0.38762  0.00301  1.0000
  C   C44       1.0  0.29844  0.27267  0.46880  1.0000
  H   H81       1.0  0.07908  0.37017  0.00056  1.0000
  H   H82       1.0  0.01216  0.40835  0.30956  1.0000
  C   C45       1.0  0.01158  0.31880  0.07323  1.0000
  H   H83       1.0  0.01170  0.36624  0.26886  1.0000
  C   C46       1.0  0.00932  0.30702  0.29288  1.0000
  H   H84       1.0  0.00924  0.31317  0.17662  1.0000
  Fe  Fe6       1.0  0.12845  0.41719  0.80553  1.0000
  S   S12       1.0  0.11782  0.45313  0.82350  1.0000
  S   S13       1.0  0.17164  0.41376  0.81356  1.0000
  Fe  Fe7       1.0  0.07335  0.38932  0.75751  1.0000
  S   S14       1.0  0.05847  0.42207  0.77316  1.0000
  S   S15       1.0  0.05498  0.35699  0.71340  1.0000
  Fe  Fe8       1.0  0.10739  0.45815  0.77115  1.0000
  Fe  Fe9       1.0  0.06934  0.41463  0.82451  1.0000
  S   S16       1.0  0.03779  0.41679  0.86200  1.0000
  S   S17       1.0  0.12207  0.42603  0.75266  1.0000
  S   S18       1.0  0.08007  0.37811  0.80950  1.0000
  Fe  Fe10      1.0  0.29306  0.40397  0.93762  1.0000
  H   H85       1.0  0.25736  0.50239  0.94018  1.0000
  S   S19       1.0  0.24809  0.40461  0.93460  1.0000
  C   C47       1.0  0.07997  0.49934  0.89097  1.0000
  H   H86       1.0  0.01624  0.49951  0.64116  1.0000
  H   H87       1.0  0.06207  0.43642  0.63266  1.0000
  H   H88       1.0  0.33767  0.32471  0.81486  1.0000
  C   C48       1.0  0.07689  0.50509  0.85435  1.0000
  S   S20       1.0  0.29819  0.36454  0.95595  1.0000
  N   N4        1.0  0.02257  0.44182  0.63918  1.0000
  S   S21       1.0  0.33040  0.43708  0.97115  1.0000
  C   C49       1.0  0.05663  0.43816  0.68429  1.0000
  H   H89       1.0  0.29650  0.47480  0.96442  1.0000
  H   H90       1.0  0.24858  0.46325  0.93510  1.0000
  C   C50       1.0  0.29505  0.49430  0.95355  1.0000
  H   H91       1.0  0.06422  0.48322  0.78941  1.0000
  C   C51       1.0  0.04241  0.47590  0.63561  1.0000
  H   H92       1.0  0.04084  0.33799  0.64598  1.0000
  H   H93       1.0  0.33263  0.25412  0.89981  1.0000
  N   N5        1.0  0.34075  0.30651  0.50982  1.0000
  C   C52       1.0  0.03144  0.36943  0.90143  1.0000
  H   H94       1.0  0.07219  0.46306  0.68673  1.0000
  H   H95       1.0  0.04771  0.36796  0.88568  1.0000
  C   C53       1.0  0.22687  0.40645  0.90044  1.0000
  C   C54       1.0  0.19955  0.40642  0.90620  1.0000
  C   C55       1.0  0.18242  0.40878  0.88015  1.0000
  C   C56       1.0  0.19242  0.41129  0.84780  1.0000
  C   C57       1.0  0.21981  0.41144  0.84206  1.0000
  C   C58       1.0  0.23684  0.40894  0.86808  1.0000
  H   H96       1.0  0.19152  0.40454  0.93106  1.0000
  H   H97       1.0  0.16146  0.40856  0.88515  1.0000
  H   H98       1.0  0.22797  0.41355  0.81725  1.0000
  H   H99       1.0  0.25771  0.40897  0.86308  1.0000
  N   N6        1.0  0.13067  0.33068  0.74916  1.0000
  C   C59       1.0  0.12342  0.33490  0.71426  1.0000
  C   C60       1.0  0.12226  0.29767  0.75250  1.0000
  C   C61       1.0  0.16436  0.35113  0.75423  1.0000
  C   C62       1.0  0.11295  0.33954  0.77178  1.0000
  C   C63       1.0  0.13388  0.36791  0.70353  1.0000
  C   C64       1.0  0.08826  0.27422  0.74815  1.0000
  C   C65       1.0  0.17830  0.34644  0.78570  1.0000
  C   C66       1.0  0.11003  0.32953  0.80809  1.0000
  H   H100      1.0  0.13351  0.32568  0.69661  1.0000
  H   H101      1.0  0.09850  0.32202  0.70974  1.0000
  H   H102      1.0  0.12898  0.29263  0.77640  1.0000
  H   H103      1.0  0.13509  0.29203  0.73440  1.0000
  H   H104      1.0  0.17713  0.34875  0.73339  1.0000
  H   H105      1.0  0.17040  0.37556  0.75462  1.0000
  H   H106      1.0  0.12298  0.36475  0.77189  1.0000
  H   H107      1.0  0.08949  0.33099  0.76231  1.0000
  H   H108      1.0  0.29823  0.26515  0.52085  1.0000
  H   H109      1.0  0.12551  0.36760  0.67831  1.0000
  H   H110      1.0  0.12408  0.37852  0.71923  1.0000
  H   H111      1.0  0.08437  0.25112  0.75417  1.0000
  H   H112      1.0  0.07378  0.27875  0.76479  1.0000
  H   H113      1.0  0.08067  0.27324  0.72249  1.0000
  H   H114      1.0  0.20292  0.36348  0.78595  1.0000
  H   H115      1.0  0.17670  0.32381  0.78678  1.0000
  H   H116      1.0  0.16895  0.35084  0.80810  1.0000
  H   H117      1.0  0.12246  0.34987  0.82410  1.0000
  H   H118      1.0  0.11835  0.31379  0.81414  1.0000
  H   H119      1.0  0.08584  0.31806  0.81559  1.0000
  H   H120      1.0  0.02163  0.45991  0.84035  1.0000
  C   C67       1.0  0.26106  0.48411  0.95010  1.0000
  C   C68       1.0  0.02759  0.49363  0.62161  1.0000
  C   C69       1.0  0.02461  0.35206  0.68741  1.0000
  H   H121      1.0  0.30126  0.45890  0.91102  1.0000
  H   H122      1.0  0.06318  0.48206  0.62109  1.0000
  H   H123      1.0  0.28646  0.30071  0.53026  1.0000
  H   H124      1.0  0.32421  0.02057  0.94631  1.0000
  H   H125      1.0  0.02433  0.47128  0.78614  1.0000
  H   H126      1.0  0.04300  0.42084  0.58253  1.0000
  H   H127      1.0  0.07039  0.42705  0.68903  1.0000
  H   H128      1.0  0.27741  0.47114  0.89276  1.0000
  H   H129      1.0  0.30706  0.46186  0.85275  1.0000
  H   H130      1.0  0.01516  0.42094  0.55623  1.0000
  C   C70       1.0  0.32732  0.02360  0.91949  1.0000
  H   H131      1.0  0.02548  0.33254  0.93292  1.0000
  H   H132      1.0  0.15893  0.38233  0.70286  1.0000
  C   C71       1.0  0.31541  0.27503  0.50102  1.0000
  C   C72       1.0  0.02278  0.39118  0.89512  1.0000
  H   H133      1.0  0.31142  0.33541  0.55177  1.0000
  C   C73       1.0  0.33104  0.33002  0.50604  1.0000
  C   C74       1.0  0.30375  0.32498  0.52716  1.0000
  H   H134      1.0  0.02037  0.47404  0.87931  1.0000
  C   C75       1.0  0.02315  0.34200  0.65494  1.0000
  Fe  Fe11      1.0  0.33846  0.39851  0.98580  1.0000
  H   H135      1.0  0.06706  0.47458  0.89668  1.0000
  C   C76       1.0  0.01886  0.34944  0.92818  1.0000
  C   C77       1.0  0.02165  0.47948  0.85274  1.0000
  H   H136      1.0  0.04368  0.45634  0.57299  1.0000
  S   S22       1.0  0.32441  0.41408  0.89516  1.0000
  H   H137      1.0  0.05174  0.48655  0.65984  1.0000
  C   C78       1.0  0.02903  0.43175  0.57848  1.0000
  C   C79       1.0  0.04262  0.42916  0.64967  1.0000
  H   H138      1.0  0.02987  0.40380  0.64867  1.0000
  H   H139      1.0  0.07581  0.48532  0.84121  1.0000
  H   H140      1.0  0.32956  0.29879  0.56139  1.0000
  S   S23       1.0  0.11536  0.49947  0.74201  1.0000
  C   C80       1.0  0.31769  0.48389  0.86621  1.0000
  C   C81       1.0  0.30137  0.47881  0.89923  1.0000
  S   S24       1.0  0.33026  0.34188  0.87980  1.0000
  H   H141      1.0  0.33011  0.27771  0.86772  1.0000
  H   H142      1.0  0.03919  0.43009  0.70375  1.0000
  H   H143      1.0  0.05149  0.50015  0.75991  1.0000
  H   H144      1.0  0.25046  0.47815  0.97473  1.0000
  H   H145      1.0  0.01150  0.48172  0.60146  1.0000
  H   H146      1.0  0.29186  0.33566  0.51495  1.0000
  C   C82       1.0  0.04769  0.49104  0.78527  1.0000
  H   H147      1.0  0.32415  0.25887  0.49868  1.0000
  H   H148      1.0  0.30636  0.01983  0.90704  1.0000
  Fe  Fe12      1.0  0.33221  0.37722  0.91513  1.0000
  H   H149      1.0  0.31463  0.50005  0.85056  1.0000
  H   H150      1.0  0.32491  0.01017  0.62238  1.0000
  H   H151      1.0  0.34043  0.25555  0.82629  1.0000
  H   H152      1.0  0.00844  0.45064  0.68614  1.0000
  N   N7        1.0  0.31379  0.50542  0.92266  1.0000
  H   H153      1.0  0.18430  0.76008  0.12001  1.0000
  Fe  Fe13      1.0  0.31595  0.87562  0.13981  1.0000
  H   H154      1.0  0.27495  0.80037  0.27478  1.0000
  S   S25       1.0  0.27436  0.82727  0.14694  1.0000
  C   C83       1.0  0.27204  0.71890  0.27826  1.0000
  H   H155      1.0  0.20158  0.67474  0.21542  1.0000
  H   H156      1.0  0.04957  0.67183  0.21546  1.0000
  H   H157      1.0  0.24156  0.72704  0.22926  1.0000
  C   C84       1.0  0.22277  0.69843  0.30731  1.0000
  S   S26       1.0  0.31712  0.91650  0.11528  1.0000
  Fe  Fe14      1.0  0.13658  0.64735  0.29851  1.0000
  S   S27       1.0  0.14542  0.68970  0.32512  1.0000
  S   S28       1.0  0.16190  0.62376  0.31517  1.0000
  Fe  Fe15      1.0  0.08790  0.64802  0.25715  1.0000
  S   S29       1.0  0.09259  0.69024  0.28120  1.0000
  S   S30       1.0  0.05672  0.61799  0.21716  1.0000
  Fe  Fe16      1.0  0.14307  0.70807  0.27560  1.0000
  S   S31       1.0  0.17839  0.75761  0.26233  1.0000
  Fe  Fe17      1.0  0.09458  0.66793  0.32870  1.0000
  S   S32       1.0  0.07768  0.66727  0.38104  1.0000
  S   S33       1.0  0.13785  0.66695  0.24892  1.0000
  S   S34       1.0  0.08633  0.62467  0.30460  1.0000
  C   C85       1.0  0.21571  0.67910  0.23771  1.0000
  C   C86       1.0  0.09570  0.71053  0.49186  1.0000
  C   C87       1.0  0.04239  0.64236  0.40038  1.0000
  H   H158      1.0  0.28538  0.73235  0.25671  1.0000
  H   H159      1.0  0.33106  0.94110  0.22852  1.0000
  C   C88       1.0  0.03477  0.62828  0.19267  1.0000
  H   H160      1.0  0.24823  0.72142  0.35275  1.0000
  C   C89       1.0  0.07220  0.53864  0.31209  1.0000
  H   H161      1.0  0.21586  0.72598  0.34426  1.0000
  H   H162      1.0  0.22905  0.75363  0.29114  1.0000
  C   C90       1.0  0.24894  0.80829  0.18019  1.0000
  C   C91       1.0  0.24649  0.82397  0.20714  1.0000
  C   C92       1.0  0.22485  0.80806  0.23189  1.0000
  C   C93       1.0  0.20550  0.77622  0.23038  1.0000
  C   C94       1.0  0.20829  0.76041  0.20374  1.0000
  C   C95       1.0  0.22970  0.77636  0.17880  1.0000
  H   H163      1.0  0.26092  0.84848  0.20863  1.0000
  H   H164      1.0  0.22302  0.82064  0.25232  1.0000
  H   H165      1.0  0.19387  0.73596  0.20220  1.0000
  H   H166      1.0  0.23137  0.76393  0.15814  1.0000
  H   H167      1.0  0.28269  0.71414  0.32933  1.0000
  H   H168      1.0  0.33038  0.96680  0.39277  1.0000
  C   C96       1.0  0.14686  0.53737  0.26273  1.0000
  C   C97       1.0  0.14760  0.53888  0.29690  1.0000
  C   C98       1.0  0.15224  0.56551  0.31276  1.0000
  C   C99       1.0  0.15512  0.59036  0.29461  1.0000
  C   C100      1.0  0.15385  0.58870  0.26043  1.0000
  C   C101      1.0  0.15010  0.56238  0.24453  1.0000
  C   C102      1.0  0.07891  0.55914  0.20713  1.0000
  H   H169      1.0  0.15348  0.56681  0.33921  1.0000
  H   H170      1.0  0.15625  0.60782  0.24623  1.0000
  H   H171      1.0  0.14959  0.56131  0.21808  1.0000
  H   H172      1.0  0.09007  0.56302  0.31014  1.0000
  H   H173      1.0  0.07822  0.58036  0.25272  1.0000
  C   C103      1.0  0.22706  0.71215  0.24939  1.0000
  H   H174      1.0  0.20694  0.71536  0.25041  1.0000
  C   C104      1.0  0.27197  0.77824  0.26605  1.0000
  N   N8        1.0  0.12481  0.73837  0.14575  1.0000
  C   C105      1.0  0.15316  0.76918  0.14955  1.0000
  C   C106      1.0  0.10306  0.73601  0.17214  1.0000
  C   C107      1.0  0.11136  0.73788  0.11263  1.0000
  C   C108      1.0  0.13338  0.71383  0.14824  1.0000
  C   C109      1.0  0.17784  0.77784  0.12319  1.0000
  C   C110      1.0  0.11483  0.73924  0.20758  1.0000
  C   C111      1.0  0.08101  0.70925  0.10385  1.0000
  C   C112      1.0  0.10806  0.68153  0.15830  1.0000
  H   H175      1.0  0.14744  0.78777  0.15015  1.0000
  H   H176      1.0  0.16460  0.77075  0.17329  1.0000
  H   H177      1.0  0.08145  0.71416  0.17105  1.0000
  H   H178      1.0  0.09644  0.75375  0.16852  1.0000
  H   H179      1.0  0.10791  0.75789  0.11005  1.0000
  H   H180      1.0  0.12712  0.73999  0.09268  1.0000
  H   H181      1.0  0.14313  0.71165  0.12471  1.0000
  H   H182      1.0  0.15159  0.72045  0.16687  1.0000
  H   H183      1.0  0.02546  0.54919  0.44079  1.0000
  H   H184      1.0  0.19868  0.79901  0.13097  1.0000
  H   H185      1.0  0.06287  0.64881  0.44807  1.0000
  H   H186      1.0  0.09561  0.73220  0.22479  1.0000
  H   H187      1.0  0.12500  0.72472  0.21251  1.0000
  H   H188      1.0  0.13161  0.76330  0.21361  1.0000
  H   H189      1.0  0.01932  0.54054  0.21761  1.0000
  H   H190      1.0  0.06272  0.70414  0.12169  1.0000
  H   H191      1.0  0.08385  0.68912  0.10015  1.0000
  H   H192      1.0  0.11200  0.66426  0.14596  1.0000
  H   H193      1.0  0.08478  0.67585  0.15187  1.0000
  H   H194      1.0  0.10926  0.67769  0.18490  1.0000
  H   H195      1.0  0.33643  0.94674  0.46176  1.0000
  H   H196      1.0  0.03819  0.55040  0.30313  1.0000
  C   C113      1.0  0.22498  0.71014  0.34267  1.0000
  H   H197      1.0  0.08136  0.52414  0.30361  1.0000
  H   H198      1.0  0.20126  0.66173  0.25603  1.0000
  H   H199      1.0  0.23474  0.67553  0.23075  1.0000
  H   H200      1.0  0.09300  0.55569  0.25510  1.0000
  H   H201      1.0  0.26640  0.69501  0.27331  1.0000
  H   H202      1.0  0.10225  0.57786  0.20171  1.0000
  C   C114      1.0  0.25051  0.75283  0.28979  1.0000
  H   H203      1.0  0.30140  0.75334  0.31480  1.0000
  H   H204      1.0  0.17104  0.78313  0.09935  1.0000
  C   C115      1.0  0.03573  0.65624  0.19639  1.0000
  C   C116      1.0  0.04176  0.63841  0.43457  1.0000
  H   H205      1.0  0.26268  0.77516  0.24096  1.0000
  H   H206      1.0  0.29483  0.78066  0.26530  1.0000
  C   C117      1.0  0.01331  0.54768  0.41771  1.0000
  H   H207      1.0  0.19858  0.68940  0.30051  1.0000
  C   C118      1.0  0.01894  0.66408  0.17503  1.0000
  H   H208      1.0  0.22550  0.67791  0.30849  1.0000
  H   H209      1.0  0.07294  0.71319  0.08003  1.0000
  H   H210      1.0  0.21057  0.69042  0.35878  1.0000
  H   H211      1.0  0.02371  0.56281  0.01881  1.0000
  H   H212      1.0  0.33549  0.90606  0.48481  1.0000
  N   N9        1.0  0.24360  0.72084  0.28179  1.0000
  H   H213      1.0  0.06335  0.56470  0.19372  1.0000
  H   H214      1.0  0.26110  0.76019  0.31430  1.0000
  C   C119      1.0  0.29343  0.72930  0.30804  1.0000
  H   H215      1.0  0.02058  0.53726  0.39843  1.0000
  H   H216      1.0  0.07713  0.53786  0.19737  1.0000
  H   H217      1.0  0.01986  0.68579  0.17770  1.0000
  N   N10       1.0  0.04382  0.53275  0.25676  1.0000
  C   C120      1.0  0.02017  0.54023  0.24479  1.0000
  H   H218      1.0  0.31388  0.72778  0.30187  1.0000
  H   H219      1.0  0.14527  0.51979  0.31110  1.0000
  C   C121      1.0  0.07410  0.55762  0.24451  1.0000
  H   H220      1.0  0.08279  0.50934  0.24812  1.0000
  H   H221      1.0  0.02599  0.56356  0.25288  1.0000
  C   C122      1.0  0.04312  0.53259  0.29382  1.0000
  H   H222      1.0  0.01490  0.63129  0.35696  1.0000
  H   H223      1.0  0.02050  0.57133  0.40962  1.0000
  C   C123      1.0  0.01490  0.62836  0.38320  1.0000
  C   C124      1.0  0.33925  0.94515  0.43496  1.0000
  H   H224      1.0  0.03733  0.68146  0.47477  1.0000
  H   H225      1.0  0.01553  0.58629  0.16528  1.0000
  H   H226      1.0  0.31900  0.92339  0.42708  1.0000
  C   C125      1.0  0.01406  0.62146  0.45147  1.0000
  C   C126      1.0  0.01649  0.60801  0.16818  1.0000
  H   H227      1.0  0.08667  0.70860  0.46668  1.0000
  H   H228      1.0  0.01389  0.61845  0.47765  1.0000
  H   H229      1.0  0.33397  0.94676  0.28912  1.0000
  H   H230      1.0  0.06715  0.53394  0.33858  1.0000
  H   H231      1.0  0.31725  0.97255  0.43106  1.0000
  H   H232      1.0  0.03278  0.71334  0.48264  1.0000
  C   C127      1.0  0.33617  0.97124  0.41917  1.0000
  H   H233      1.0  0.02441  0.51047  0.30310  1.0000
  H   H234      1.0  0.12018  0.72791  0.49071  1.0000
  C   C128      1.0  0.02943  0.69168  0.49361  1.0000
  H   H235      1.0  0.07502  0.53639  0.80355  1.0000
  Fe  Fe18      1.0  0.30006  0.86648  0.64224  1.0000
  H   H236      1.0  0.08837  0.57382  0.84006  1.0000
  S   S35       1.0  0.25266  0.82470  0.65015  1.0000
  C   C129      1.0  0.30479  0.93028  0.95640  1.0000
  C   C130      1.0  0.03386  0.65531  0.69357  1.0000
  C   C131      1.0  0.08059  0.56478  0.86501  1.0000
  H   H237      1.0  0.04688  0.67242  0.71184  1.0000
  S   S36       1.0  0.31816  0.86956  0.59101  1.0000
  S   S37       1.0  0.31534  0.91691  0.64330  1.0000
  Fe  Fe19      1.0  0.12319  0.64436  0.80620  1.0000
  S   S38       1.0  0.13478  0.68735  0.83289  1.0000
  S   S39       1.0  0.14939  0.62069  0.81955  1.0000
  Fe  Fe20      1.0  0.07288  0.64603  0.76886  1.0000
  S   S40       1.0  0.08076  0.68966  0.79283  1.0000
  S   S41       1.0  0.03545  0.61308  0.73531  1.0000
  Fe  Fe21      1.0  0.13057  0.70567  0.78408  1.0000
  S   S42       1.0  0.17004  0.75418  0.77428  1.0000
  Fe  Fe22      1.0  0.08460  0.66783  0.83965  1.0000
  S   S43       1.0  0.07040  0.67058  0.89219  1.0000
  S   S44       1.0  0.12202  0.66337  0.75697  1.0000
  S   S45       1.0  0.07361  0.62351  0.81616  1.0000
  C   C132      1.0  0.03473  0.64916  0.91199  1.0000
  H   H238      1.0  0.02085  0.65378  0.54765  1.0000
  C   C133      1.0  0.02334  0.66319  0.66537  1.0000
  C   C134      1.0  0.02652  0.62502  0.69859  1.0000
  H   H239      1.0  0.02840  0.68647  0.66194  1.0000
  C   C135      1.0  0.33940  0.95647  0.89589  1.0000
  C   C136      1.0  0.00828  0.62919  0.89493  1.0000
  C   C137      1.0  0.05021  0.53445  0.86419  1.0000
  H   H240      1.0  0.08125  0.74223  0.50664  1.0000
  C   C138      1.0  0.26470  0.95646  0.91074  1.0000
  C   C139      1.0  0.23017  0.80552  0.68512  1.0000
  C   C140      1.0  0.23758  0.81791  0.71665  1.0000
  C   C141      1.0  0.21863  0.80205  0.74339  1.0000
  C   C142      1.0  0.19234  0.77336  0.73920  1.0000
  C   C143      1.0  0.18514  0.76075  0.70775  1.0000
  C   C144      1.0  0.20376  0.77690  0.68090  1.0000
  H   H241      1.0  0.25764  0.83992  0.72035  1.0000
  H   H242      1.0  0.22445  0.81208  0.76757  1.0000
  H   H243      1.0  0.16499  0.73882  0.70402  1.0000
  H   H244      1.0  0.19771  0.76712  0.65663  1.0000
  C   C145      1.0  0.05240  0.51658  0.80926  1.0000
  H   H245      1.0  0.31031  0.54587  0.92896  1.0000
  H   H246      1.0  0.29361  0.96748  0.86821  1.0000
  C   C146      1.0  0.14028  0.53934  0.79372  1.0000
  C   C147      1.0  0.14820  0.56662  0.81035  1.0000
  C   C148      1.0  0.14032  0.58741  0.79745  1.0000
  C   C149      1.0  0.12511  0.58123  0.76745  1.0000
  C   C150      1.0  0.11807  0.55441  0.75030  1.0000
  H   H247      1.0  0.30380  0.51242  0.97258  1.0000
  H   H248      1.0  0.16008  0.57141  0.83351  1.0000
  H   H249      1.0  0.11893  0.59716  0.75734  1.0000
  H   H250      1.0  0.10655  0.54982  0.72695  1.0000
  H   H251      1.0  0.27132  0.97561  0.92789  1.0000
  Fe  Fe23      1.0  0.33687  0.92038  0.59395  1.0000
  H   H252      1.0  0.07753  0.58218  0.87835  1.0000
  C   C151      1.0  0.00953  0.60294  0.67490  1.0000
  H   H253      1.0  0.25063  0.93445  0.92363  1.0000
  H   H254      1.0  0.29860  0.92785  0.98276  1.0000
  H   H255      1.0  0.32657  0.95494  0.84359  1.0000
  H   H256      1.0  0.03603  0.52414  0.80229  1.0000
  C   C152      1.0  0.03509  0.71143  0.54901  1.0000
  H   H257      1.0  0.31915  0.97649  0.75759  1.0000
  H   H258      1.0  0.31344  0.98117  0.65347  1.0000
  H   H259      1.0  0.04541  0.51518  0.61040  1.0000
  C   C153      1.0  0.05217  0.72329  0.58171  1.0000
  C   C154      1.0  0.07996  0.72110  0.51665  1.0000
  N   N11       1.0  0.04756  0.69793  0.52489  1.0000
  H   H260      1.0  0.05327  0.66793  0.95942  1.0000
  C   C155      1.0  0.31111  0.53159  0.90865  1.0000
  H   H261      1.0  0.28927  0.52279  0.89513  1.0000
  H   H262      1.0  0.03389  0.73082  0.53759  1.0000
  H   H263      1.0  0.01145  0.69437  0.55590  1.0000
  C   C156      1.0  0.06662  0.66970  0.56361  1.0000
  H   H264      1.0  0.04268  0.52762  0.88987  1.0000
  H   H265      1.0  0.14621  0.52327  0.80393  1.0000
  H   H266      1.0  0.00926  0.62647  0.86878  1.0000
  H   H267      1.0  0.30441  0.97229  0.95835  1.0000
  H   H268      1.0  0.32691  0.56158  0.86615  1.0000
  H   H269      1.0  0.09417  0.68869  0.49907  1.0000
  S   S46       1.0  0.33186  0.94790  0.55225  1.0000
  H   H270      1.0  0.07577  0.74216  0.57862  1.0000
  H   H271      1.0  0.05142  0.70474  0.59678  1.0000
  H   H272      1.0  0.04036  0.73269  0.59639  1.0000
  H   H273      1.0  0.04511  0.65453  0.51666  1.0000
  H   H274      1.0  0.09868  0.52467  0.84593  1.0000
  H   H275      1.0  0.03334  0.54003  0.85372  1.0000
  N   N12       1.0  0.22673  0.71100  0.76183  1.0000
  C   C157      1.0  0.20624  0.70381  0.79120  1.0000
  C   C158      1.0  0.20644  0.69704  0.73239  1.0000
  C   C159      1.0  0.24511  0.74532  0.75853  1.0000
  C   C160      1.0  0.24695  0.69765  0.76797  1.0000
  C   C161      1.0  0.22161  0.72029  0.82344  1.0000
  C   C162      1.0  0.18828  0.66182  0.73157  1.0000
  C   C163      1.0  0.25902  0.75861  0.72478  1.0000
  C   C164      1.0  0.26741  0.69891  0.73951  1.0000
  H   H276      1.0  0.18805  0.70937  0.78607  1.0000
  H   H277      1.0  0.19433  0.67908  0.79693  1.0000
  H   H278      1.0  0.21916  0.70403  0.70908  1.0000
  H   H279      1.0  0.19005  0.70554  0.73040  1.0000
  H   H280      1.0  0.23089  0.75566  0.76461  1.0000
  H   H281      1.0  0.26406  0.75511  0.77658  1.0000
  H   H282      1.0  0.26255  0.70946  0.78879  1.0000
  H   H283      1.0  0.23363  0.67352  0.77648  1.0000
  H   H284      1.0  0.20424  0.71183  0.84312  1.0000
  H   H285      1.0  0.23958  0.71547  0.83147  1.0000
  H   H286      1.0  0.23070  0.74526  0.82179  1.0000
  H   H287      1.0  0.20336  0.65196  0.72943  1.0000
  H   H288      1.0  0.17339  0.65184  0.75311  1.0000
  H   H289      1.0  0.17326  0.65433  0.70970  1.0000
  H   H290      1.0  0.27337  0.78379  0.72702  1.0000
  H   H291      1.0  0.24129  0.75465  0.70649  1.0000
  H   H292      1.0  0.27368  0.75009  0.71529  1.0000
  H   H293      1.0  0.28998  0.71993  0.74096  1.0000
  H   H294      1.0  0.25757  0.69741  0.71499  1.0000
  H   H295      1.0  0.27070  0.67883  0.74104  1.0000
  C   C165      1.0  0.33685  0.55394  0.88568  1.0000
  H   H296      1.0  0.07839  0.65756  0.55478  1.0000
  H   H297      1.0  0.28413  0.91490  0.94222  1.0000
  H   H298      1.0  0.01695  0.52184  0.98315  1.0000
  C   C166      1.0  0.32747  0.99098  0.63116  1.0000
  C   C167      1.0  0.31829  0.96396  0.94623  1.0000
  C   C168      1.0  0.12533  0.53326  0.76358  1.0000
  H   H299      1.0  0.28304  0.93175  0.88695  1.0000
  C   C169      1.0  0.03296  0.65252  0.94600  1.0000
  C   C170      1.0  0.29114  0.95622  0.89240  1.0000
  H   H300      1.0  0.09866  0.56272  0.87794  1.0000
  H   H301      1.0  0.32183  0.92281  0.95397  1.0000
  H   H302      1.0  0.31691  0.97296  0.61212  1.0000
  H   H303      1.0  0.07252  0.51137  0.90777  1.0000
  H   H304      1.0  0.05408  0.65760  0.58611  1.0000
  H   H305      1.0  0.09476  0.72907  0.53850  1.0000
  C   C171      1.0  0.04393  0.66820  0.53732  1.0000
  N   N13       1.0  0.32135  0.97014  0.90985  1.0000
  H   H306      1.0  0.24934  0.95800  0.89242  1.0000
  H   H307      1.0  0.03458  0.59138  0.93327  1.0000
  H   H308      1.0  0.33336  0.94942  0.71657  1.0000
  H   H309      1.0  0.32706  0.93125  0.89893  1.0000
  H   H310      1.0  0.08422  0.69274  0.57120  1.0000
  H   H311      1.0  0.04069  0.56667  0.95922  1.0000
  H   H312      1.0  0.32742  0.98486  0.50193  1.0000
  H   H313      1.0  0.02610  0.59045  0.97542  1.0000
  C   C172      1.0  0.02537  0.57590  0.95475  1.0000
  H   H314      1.0  0.34072  0.97696  0.95841  1.0000
  C   C173      1.0  0.33951  0.00412  0.90408  1.0000
  H   H315      1.0  0.10427  0.50815  0.89679  1.0000
  N   N14       1.0  0.05026  0.50889  0.84521  1.0000
  S   S47       1.0  0.38434  0.41557  0.46278  1.0000
  Fe  Fe24      1.0  0.38532  0.45569  0.43824  1.0000
  S   S48       1.0  0.61226  0.48008  0.19702  1.0000
  Fe  Fe25      1.0  0.64303  0.07196  0.39118  1.0000
  S   S49       1.0  0.60378  0.07372  0.41493  1.0000
  S   S50       1.0  0.63780  0.02982  0.36701  1.0000
  Fe  Fe26      1.0  0.37846  0.31318  0.24223  1.0000
  S   S51       1.0  0.37879  0.28017  0.20567  1.0000
  H   H316      1.0  0.38799  0.04047  0.02154  1.0000
  Fe  Fe27      1.0  0.44607  0.35696  0.23649  1.0000
  S   S52       1.0  0.45171  0.32728  0.19957  1.0000
  S   S53       1.0  0.47901  0.40472  0.25464  1.0000
  Fe  Fe28      1.0  0.40919  0.32217  0.17603  1.0000
  S   S54       1.0  0.40409  0.32624  0.12070  1.0000
  Fe  Fe29      1.0  0.42086  0.28760  0.23271  1.0000
  S   S55       1.0  0.43222  0.24912  0.24130  1.0000
  S   S56       1.0  0.40579  0.35414  0.21087  1.0000
  S   S57       1.0  0.41829  0.31830  0.27122  1.0000
  Fe  Fe30      1.0  0.42861  0.07237  0.41671  1.0000
  S   S58       1.0  0.43650  0.04422  0.37982  1.0000
  S   S59       1.0  0.43207  0.06107  0.47042  1.0000
  Fe  Fe31      1.0  0.42392  0.11322  0.36228  1.0000
  S   S60       1.0  0.43132  0.08713  0.32216  1.0000
  S   S61       1.0  0.41134  0.15076  0.35356  1.0000
  Fe  Fe32      1.0  0.39977  0.04518  0.35063  1.0000
  H   H317      1.0  0.48486  0.41800  0.18001  1.0000
  Fe  Fe33      1.0  0.46761  0.08829  0.35487  1.0000
  S   S62       1.0  0.51035  0.09429  0.33075  1.0000
  S   S63       1.0  0.38942  0.07040  0.38900  1.0000
  S   S64       1.0  0.46271  0.11730  0.39344  1.0000
  C   C174      1.0  0.41876  0.17898  0.32275  1.0000
  C   C175      1.0  0.40469  0.19686  0.32521  1.0000
  C   C176      1.0  0.40882  0.21864  0.30098  1.0000
  C   C177      1.0  0.42717  0.22298  0.27370  1.0000
  C   C178      1.0  0.44139  0.20521  0.27133  1.0000
  C   C179      1.0  0.43729  0.18344  0.29559  1.0000
  H   H318      1.0  0.39036  0.19378  0.34605  1.0000
  H   H319      1.0  0.39768  0.23199  0.30336  1.0000
  H   H320      1.0  0.45577  0.20837  0.25052  1.0000
  H   H321      1.0  0.44846  0.17013  0.29324  1.0000
  C   C180      1.0  0.57756  0.07848  0.39088  1.0000
  C   C181      1.0  0.55238  0.07747  0.40611  1.0000
  C   C182      1.0  0.53146  0.08197  0.38787  1.0000
  C   C183      1.0  0.53577  0.08782  0.35427  1.0000
  C   C184      1.0  0.56091  0.08872  0.33900  1.0000
  C   C185      1.0  0.58170  0.08396  0.35721  1.0000
  H   H322      1.0  0.54907  0.07335  0.43217  1.0000
  H   H323      1.0  0.51223  0.08134  0.39989  1.0000
  H   H324      1.0  0.56440  0.09330  0.31303  1.0000
  H   H325      1.0  0.60107  0.08485  0.34525  1.0000
  C   C186      1.0  0.57564  0.45935  0.21410  1.0000
  C   C187      1.0  0.55719  0.42850  0.20567  1.0000
  C   C188      1.0  0.52761  0.41142  0.21814  1.0000
  C   C189      1.0  0.51633  0.42509  0.23926  1.0000
  C   C190      1.0  0.53479  0.45591  0.24781  1.0000
  C   C191      1.0  0.56434  0.47304  0.23521  1.0000
  H   H326      1.0  0.56584  0.41777  0.18942  1.0000
  H   H327      1.0  0.51363  0.38766  0.21155  1.0000
  H   H328      1.0  0.52618  0.46664  0.26409  1.0000
  C   C192      1.0  0.38693  0.39949  0.27249  1.0000
  N   N15       1.0  0.42484  0.42236  0.32113  1.0000
  H   H329      1.0  0.52134  0.42430  0.10213  1.0000
  H   H330      1.0  0.54295  0.50002  0.15529  1.0000
  H   H331      1.0  0.41642  0.44011  0.36582  1.0000
  H   H332      1.0  0.38625  0.04399  0.27869  1.0000
  C   C193      1.0  0.37166  0.01849  0.23379  1.0000
  H   H333      1.0  0.63592  0.14435  0.42699  1.0000
  C   C194      1.0  0.47650  0.06525  0.23547  1.0000
  C   C195      1.0  0.44767  0.03567  0.24587  1.0000
  H   H334      1.0  0.61766  0.02462  0.11665  1.0000
  C   C196      1.0  0.63320  0.16592  0.38330  1.0000
  H   H335      1.0  0.64957  0.13469  0.39171  1.0000
  H   H336      1.0  0.36348  0.13957  0.21958  1.0000
  H   H337      1.0  0.42540  0.50395  0.48814  1.0000
  H   H338      1.0  0.38558  0.40528  0.35272  1.0000
  H   H339      1.0  0.56750  0.01772  0.12619  1.0000
  H   H340      1.0  0.44123  0.42181  0.19619  1.0000
  C   C197      1.0  0.47592  0.42735  0.06602  1.0000
  H   H341      1.0  0.57838  0.49679  0.24181  1.0000
  C   C198      1.0  0.38333  0.34088  0.06496  1.0000
  C   C199      1.0  0.38867  0.34594  0.09882  1.0000
  C   C200      1.0  0.38258  0.36710  0.11396  1.0000
  C   C201      1.0  0.37076  0.38246  0.09553  1.0000
  C   C202      1.0  0.65932  0.01595  0.22244  1.0000
  H   H342      1.0  0.38704  0.37172  0.13982  1.0000
  C   C203      1.0  0.65252  0.01761  0.25552  1.0000
  H   H343      1.0  0.66273  0.44283  0.16559  1.0000
  H   H344      1.0  0.65686  0.12246  0.45775  1.0000
  H   H345      1.0  0.63469  0.18709  0.39292  1.0000
  S   S65       1.0  0.67241  0.05307  0.27655  1.0000
  N   N16       1.0  0.45233  0.01082  0.26038  1.0000
  H   H346      1.0  0.64108  0.16922  0.35753  1.0000
  H   H347      1.0  0.47749  0.49895  0.30450  1.0000
  C   C204      1.0  0.46310  0.41972  0.10110  1.0000
  C   C205      1.0  0.44456  0.41455  0.34210  1.0000
  C   C206      1.0  0.40410  0.42747  0.34332  1.0000
  C   C207      1.0  0.42804  0.38459  0.36185  1.0000
  H   H348      1.0  0.46192  0.41302  0.32682  1.0000
  H   H349      1.0  0.45739  0.43278  0.36046  1.0000
  H   H350      1.0  0.40952  0.38334  0.37717  1.0000
  H   H351      1.0  0.41927  0.36428  0.34571  1.0000
  H   H352      1.0  0.44448  0.38328  0.37874  1.0000
  C   C208      1.0  0.44601  0.45019  0.30145  1.0000
  H   H353      1.0  0.41398  0.34703  0.47626  1.0000
  H   H354      1.0  0.43405  0.45624  0.28297  1.0000
  H   H355      1.0  0.47414  0.37215  0.09400  1.0000
  H   H356      1.0  0.61427  0.03529  0.15712  1.0000
  C   C209      1.0  0.37390  0.02165  0.26791  1.0000
  H   H357      1.0  0.37267  0.29586  0.48647  1.0000
  H   H358      1.0  0.40005  0.41830  0.25507  1.0000
  H   H359      1.0  0.55876  0.02599  0.18274  1.0000
  H   H360      1.0  0.49792  0.48172  0.41828  1.0000
  H   H361      1.0  0.43566  0.04254  0.26375  1.0000
  H   H362      1.0  0.60040  0.03907  0.21343  1.0000
  H   H363      1.0  0.38224  0.03852  0.21835  1.0000
  C   C210      1.0  0.36465  0.37680  0.06181  1.0000
  S   S66       1.0  0.34894  0.42720  0.40164  1.0000
  H   H364      1.0  0.38656  0.11965  0.29423  1.0000
  H   H365      1.0  0.61016  0.05018  0.47717  1.0000
  H   H366      1.0  0.39414  0.45209  0.30316  1.0000
  C   C211      1.0  0.37002  0.09783  0.28236  1.0000
  H   H367      1.0  0.65880  0.49741  0.14687  1.0000
  C   C212      1.0  0.36694  0.31439  0.48705  1.0000
  H   H368      1.0  0.39492  0.46548  0.34380  1.0000
  H   H369      1.0  0.36594  0.39861  0.10753  1.0000
  C   C213      1.0  0.46922  0.41618  0.16002  1.0000
  H   H370      1.0  0.49284  0.47374  0.12894  1.0000
  Fe  Fe34      1.0  0.67345  0.06141  0.33184  1.0000
  S   S67       1.0  0.34755  0.39523  0.04057  1.0000
  H   H371      1.0  0.49103  0.07769  0.25675  1.0000
  H   H372      1.0  0.48982  0.06111  0.21687  1.0000
  H   H373      1.0  0.51999  0.41687  0.14452  1.0000
  H   H374      1.0  0.36653  0.31123  0.37518  1.0000
  H   H375      1.0  0.52034  0.47006  0.10616  1.0000
  C   C214      1.0  0.39650  0.34445  0.49422  1.0000
  H   H376      1.0  0.65766  0.46832  0.12022  1.0000
  H   H377      1.0  0.47331  0.36575  0.13762  1.0000
  C   C215      1.0  0.38880  0.44481  0.32886  1.0000
  H   H378      1.0  0.51779  0.46990  0.18167  1.0000
  H   H379      1.0  0.45241  0.39140  0.15822  1.0000
  Fe  Fe35      1.0  0.34516  0.38720  0.42943  1.0000
  C   C216      1.0  0.46579  0.47934  0.32154  1.0000
  H   H380      1.0  0.38459  0.15278  0.25638  1.0000
  H   H381      1.0  0.39124  0.37522  0.31252  1.0000
  H   H382      1.0  0.36571  0.02882  0.46942  1.0000
  N   N17       1.0  0.35342  0.10390  0.25538  1.0000
  H   H383      1.0  0.48366  0.47760  0.33521  1.0000
  H   H384      1.0  0.46607  0.45646  0.17589  1.0000
  C   C217      1.0  0.38936  0.02210  0.00966  1.0000
  H   H385      1.0  0.39361  0.36458  0.49103  1.0000
  H   H386      1.0  0.46158  0.44551  0.28657  1.0000
  C   C218      1.0  0.47164  0.02396  0.29062  1.0000
  H   H387      1.0  0.49514  0.04171  0.28396  1.0000
  H   H388      1.0  0.43247  0.02731  0.22407  1.0000
  C   C219      1.0  0.37129  0.35607  0.04657  1.0000
  H   H389      1.0  0.38823  0.32482  0.05286  1.0000
  H   H390      1.0  0.36297  0.29766  0.31648  1.0000
  H   H391      1.0  0.36375  0.43018  0.33028  1.0000
  H   H392      1.0  0.46254  0.01049  0.18480  1.0000
  C   C220      1.0  0.45140  0.43161  0.17203  1.0000
  C   C221      1.0  0.37529  0.13354  0.23868  1.0000
  S   S68       1.0  0.34653  0.34577  0.41154  1.0000
  H   H393      1.0  0.36095  0.07642  0.22000  1.0000
  H   H394      1.0  0.46960  0.08084  0.22413  1.0000
  H   H395      1.0  0.49189  0.01966  0.23224  1.0000
  C   C222      1.0  0.35337  0.31124  0.32506  1.0000
  H   H396      1.0  0.66163  0.19214  0.45053  1.0000
  H   H397      1.0  0.46255  0.03567  0.30618  1.0000
  H   H398      1.0  0.36831  0.40157  0.28379  1.0000
  C   C223      1.0  0.50642  0.46202  0.12881  1.0000
  H   H399      1.0  0.38405  0.08868  0.27201  1.0000
  H   H400      1.0  0.36679  0.35147  0.02069  1.0000
  S   S69       1.0  0.35300  0.45791  0.47399  1.0000
  H   H401      1.0  0.41632  0.12885  0.23961  1.0000
  H   H402      1.0  0.44600  0.39504  0.10177  1.0000
  N   N18       1.0  0.48604  0.42785  0.12817  1.0000
  H   H403      1.0  0.42229  0.38980  0.28511  1.0000
  H   H404      1.0  0.35060  0.13304  0.31281  1.0000
  H   H405      1.0  0.44991  0.43162  0.10443  1.0000
  C   C224      1.0  0.40692  0.39583  0.29839  1.0000
  H   H406      1.0  0.60874  0.14829  0.38272  1.0000
  H   H407      1.0  0.50457  0.37057  0.11375  1.0000
  C   C225      1.0  0.35532  0.31890  0.35830  1.0000
  H   H408      1.0  0.37571  0.37836  0.25756  1.0000
  H   H409      1.0  0.67023  0.48529  0.19443  1.0000
  H   H410      1.0  0.66941  0.41644  0.12443  1.0000
  H   H411      1.0  0.43246  0.42716  0.15529  1.0000
  H   H412      1.0  0.49003  0.45230  0.06211  1.0000
  C   C226      1.0  0.65028  0.15430  0.40487  1.0000
  C   C227      1.0  0.50531  0.41330  0.12283  1.0000
  C   C228      1.0  0.48795  0.37854  0.11669  1.0000
  H   H413      1.0  0.54527  0.46609  0.15730  1.0000
  C   C229      1.0  0.40323  0.13481  0.22236  1.0000
  H   H414      1.0  0.52738  0.03541  0.01164  1.0000
  H   H415      1.0  0.55930  0.03213  0.47135  1.0000
  H   H416      1.0  0.45661  0.41896  0.04854  1.0000
  H   H417      1.0  0.48891  0.41592  0.05947  1.0000
  H   H418      1.0  0.53030  0.49844  0.36789  1.0000
  H   H419      1.0  0.39704  0.12030  0.20016  1.0000
  H   H420      1.0  0.34217  0.27698  0.13768  1.0000
  C   C230      1.0  0.52917  0.47479  0.15754  1.0000
  C   C231      1.0  0.58539  0.01388  0.21369  1.0000
  H   H421      1.0  0.45227  0.48478  0.33865  1.0000
  C   C232      1.0  0.67099  0.49263  0.12751  1.0000
  C   C233      1.0  0.34325  0.33672  0.36968  1.0000
  H   H422      1.0  0.41876  0.15860  0.21412  1.0000
  C   C234      1.0  0.60626  0.01544  0.14051  1.0000
  H   H423      1.0  0.35969  0.06103  0.31704  1.0000
  H   H424      1.0  0.34425  0.31985  0.15740  1.0000
  S   S70       1.0  0.42938  0.49465  0.41833  1.0000
  C   C235      1.0  0.54719  0.00754  0.47776  1.0000
  H   H425      1.0  0.34732  0.15605  0.28094  1.0000
  H   H426      1.0  0.34739  0.35502  0.19459  1.0000
  H   H427      1.0  0.51319  0.00980  0.15906  1.0000
  C   C236      1.0  0.35072  0.07634  0.31050  1.0000
  C   C237      1.0  0.34204  0.07908  0.22979  1.0000
  H   H428      1.0  0.36069  0.31620  0.46144  1.0000
  C   C238      1.0  0.37296  0.01877  0.48823  1.0000
  H   H429      1.0  0.35326  0.08971  0.33304  1.0000
  H   H430      1.0  0.49182  0.01472  0.33257  1.0000
  C   C239      1.0  0.40392  0.03068  0.49414  1.0000
  H   H431      1.0  0.67309  0.15823  0.47986  1.0000
  H   H432      1.0  0.67195  0.50647  0.10595  1.0000
  H   H433      1.0  0.57868  0.00739  0.23961  1.0000
  C   C240      1.0  0.50785  0.50545  0.40901  1.0000
  H   H434      1.0  0.55019  0.50671  0.40481  1.0000
  H   H435      1.0  0.49019  0.50589  0.39350  1.0000
  H   H436      1.0  0.65638  0.04683  0.49534  1.0000
  S   S71       1.0  0.37271  0.40869  0.94581  1.0000
  H   H437      1.0  0.35295  0.22629  0.79272  1.0000
  H   H438      1.0  0.43324  0.38417  0.56337  1.0000
  Fe  Fe36      1.0  0.65790  0.11874  0.87425  1.0000
  S   S72       1.0  0.63509  0.14691  0.86810  1.0000
  S   S73       1.0  0.63394  0.06791  0.86810  1.0000
  Fe  Fe37      1.0  0.44632  0.35489  0.74917  1.0000
  S   S74       1.0  0.40669  0.31758  0.72150  1.0000
  S   S75       1.0  0.44758  0.38166  0.79400  1.0000
  Fe  Fe38      1.0  0.49312  0.35220  0.70603  1.0000
  S   S76       1.0  0.45732  0.31466  0.67583  1.0000
  S   S77       1.0  0.54153  0.36936  0.69072  1.0000
  Fe  Fe39      1.0  0.43340  0.34202  0.67595  1.0000
  S   S78       1.0  0.42360  0.35157  0.62359  1.0000
  Fe  Fe40      1.0  0.43437  0.29375  0.72352  1.0000
  S   S79       1.0  0.41580  0.24262  0.73177  1.0000
  S   S80       1.0  0.47097  0.38075  0.70400  1.0000
  S   S81       1.0  0.47210  0.32961  0.75366  1.0000
  Fe  Fe41      1.0  0.42074  0.07418  0.90228  1.0000
  S   S82       1.0  0.42020  0.04196  0.86464  1.0000
  S   S83       1.0  0.40949  0.06059  0.95627  1.0000
  Fe  Fe42      1.0  0.43695  0.12557  0.85041  1.0000
  S   S84       1.0  0.43756  0.09625  0.80930  1.0000
  S   S85       1.0  0.44925  0.17582  0.84432  1.0000
  Fe  Fe43      1.0  0.39568  0.05859  0.83271  1.0000
  C   C241      1.0  0.34955  0.30650  0.54505  1.0000
  Fe  Fe44      1.0  0.46222  0.08213  0.84466  1.0000
  S   S86       1.0  0.49692  0.06990  0.82757  1.0000
  S   S87       1.0  0.39292  0.08850  0.87160  1.0000
  S   S88       1.0  0.46496  0.11386  0.88463  1.0000
  C   C242      1.0  0.43922  0.19375  0.81294  1.0000
  C   C243      1.0  0.42045  0.17747  0.78662  1.0000
  C   C244      1.0  0.41331  0.19274  0.76225  1.0000
  C   C245      1.0  0.42497  0.22446  0.76364  1.0000
  C   C246      1.0  0.44374  0.24079  0.78995  1.0000
  C   C247      1.0  0.45071  0.22550  0.81446  1.0000
  H   H439      1.0  0.41138  0.15308  0.78508  1.0000
  H   H440      1.0  0.39874  0.17982  0.74207  1.0000
  H   H441      1.0  0.45307  0.26520  0.79128  1.0000
  H   H442      1.0  0.46528  0.23834  0.83466  1.0000
  C   C248      1.0  0.59727  0.12699  0.85436  1.0000
  C   C249      1.0  0.57760  0.13814  0.86150  1.0000
  C   C250      1.0  0.54668  0.12107  0.85309  1.0000
  C   C251      1.0  0.53559  0.09314  0.83689  1.0000
  C   C252      1.0  0.55551  0.08265  0.82869  1.0000
  C   C253      1.0  0.58621  0.09941  0.83754  1.0000
  H   H443      1.0  0.58612  0.15959  0.87433  1.0000
  H   H444      1.0  0.53146  0.12941  0.85927  1.0000
  H   H445      1.0  0.54709  0.06126  0.81575  1.0000
  H   H446      1.0  0.60136  0.09113  0.83104  1.0000
  C   C254      1.0  0.61334  0.45712  0.73995  1.0000
  C   C255      1.0  0.58390  0.44112  0.75279  1.0000
  C   C256      1.0  0.56158  0.41434  0.73759  1.0000
  C   C257      1.0  0.56894  0.40293  0.71011  1.0000
  C   C258      1.0  0.59852  0.41860  0.69762  1.0000
  C   C259      1.0  0.62057  0.44594  0.71216  1.0000
  H   H447      1.0  0.57833  0.44957  0.77447  1.0000
  H   H448      1.0  0.53883  0.40229  0.74744  1.0000
  H   H449      1.0  0.60437  0.40967  0.67654  1.0000
  H   H450      1.0  0.64338  0.45793  0.70248  1.0000
  C   C260      1.0  0.39707  0.39447  0.55801  1.0000
  C   C261      1.0  0.52968  0.43717  0.65104  1.0000
  C   C262      1.0  0.36992  0.25102  0.79298  1.0000
  H   H451      1.0  0.62490  0.48892  0.64183  1.0000
  H   H452      1.0  0.56062  0.09181  0.90588  1.0000
  C   C263      1.0  0.41140  0.03334  0.65853  1.0000
  C   C264      1.0  0.36264  0.35376  0.85537  1.0000
  N   N19       1.0  0.59293  0.00987  0.50773  1.0000
  H   H453      1.0  0.42275  0.31341  0.81006  1.0000
  H   H454      1.0  0.55334  0.03095  0.96761  1.0000
  H   H455      1.0  0.59940  0.03727  0.56685  1.0000
  C   C265      1.0  0.36710  0.23583  0.86872  1.0000
  H   H456      1.0  0.52204  0.40354  0.61227  1.0000
  C   C266      1.0  0.41289  0.01789  0.51942  1.0000
  C   C267      1.0  0.39138  0.37462  0.86740  1.0000
  H   H457      1.0  0.60323  0.11598  0.94535  1.0000
  Fe  Fe45      1.0  0.36194  0.44464  0.92944  1.0000
  C   C268      1.0  0.37117  0.39257  0.57215  1.0000
  C   C269      1.0  0.39988  0.02590  0.97719  1.0000
  C   C270      1.0  0.41366  0.38317  0.57489  1.0000
  C   C271      1.0  0.40474  0.36992  0.60615  1.0000
  C   C272      1.0  0.41485  0.28065  0.84989  1.0000
  H   H458      1.0  0.54930  0.09221  0.94620  1.0000
  H   H459      1.0  0.41359  0.47127  0.84884  1.0000
  H   H460      1.0  0.53291  0.42269  0.66938  1.0000
  H   H461      1.0  0.47116  0.05274  0.91438  1.0000
  H   H462      1.0  0.54859  0.47311  0.59388  1.0000
  C   C273      1.0  0.41720  0.38255  0.84842  1.0000
  C   C274      1.0  0.41446  0.37043  0.81696  1.0000
  C   C275      1.0  0.38574  0.34958  0.80482  1.0000
  H   H463      1.0  0.40208  0.22229  0.86564  1.0000
  H   H464      1.0  0.43942  0.39770  0.85836  1.0000
  H   H465      1.0  0.38344  0.34016  0.78054  1.0000
  H   H466      1.0  0.39012  0.29078  0.90089  1.0000
  H   H467      1.0  0.36566  0.32998  0.55348  1.0000
  C   C276      1.0  0.53594  0.49745  0.62752  1.0000
  H   H468      1.0  0.40426  0.02229  0.68295  1.0000
  H   H469      1.0  0.59039  0.08066  0.96654  1.0000
  C   C277      1.0  0.36353  0.28635  0.55305  1.0000
  H   H470      1.0  0.56906  0.44121  0.60290  1.0000
  H   H471      1.0  0.41214  0.02861  0.78841  1.0000
  C   C278      1.0  0.51120  0.41605  0.62247  1.0000
  C   C279      1.0  0.46467  0.44672  0.91048  1.0000
  H   H472      1.0  0.43270  0.33047  0.85054  1.0000
  H   H473      1.0  0.50822  0.08516  0.91339  1.0000
  C   C280      1.0  0.36281  0.38022  0.60385  1.0000
  H   H474      1.0  0.47150  0.44390  0.83085  1.0000
  H   H475      1.0  0.34680  0.49402  0.94074  1.0000
  C   C281      1.0  0.43211  0.31263  0.83434  1.0000
  C   C282      1.0  0.52026  0.04126  0.98829  1.0000
  H   H476      1.0  0.62404  0.46433  0.61023  1.0000
  S   S89       1.0  0.34812  0.40441  0.55093  1.0000
  H   H477      1.0  0.48093  0.44124  0.89863  1.0000
  C   C283      1.0  0.45325  0.46254  0.88677  1.0000
  C   C284      1.0  0.57885  0.45239  0.62678  1.0000
  H   H478      1.0  0.50820  0.04302  0.88588  1.0000
  H   H479      1.0  0.42020  0.26592  0.83467  1.0000
  H   H480      1.0  0.63856  0.00931  0.89449  1.0000
  H   H481      1.0  0.43679  0.02708  0.52434  1.0000
  H   H482      1.0  0.35313  0.05279  0.70382  1.0000
  C   C285      1.0  0.43321  0.48341  0.83206  1.0000
  H   H483      1.0  0.51232  0.47905  0.63202  1.0000
  H   H484      1.0  0.43558  0.46620  0.81778  1.0000
  H   H485      1.0  0.60338  0.08540  0.92441  1.0000
  H   H486      1.0  0.34653  0.01533  0.69545  1.0000
  C   C286      1.0  0.48916  0.46722  0.82390  1.0000
  H   H487      1.0  0.39372  0.38396  0.89169  1.0000
  H   H488      1.0  0.48077  0.47592  0.80396  1.0000
  H   H489      1.0  0.58998  0.47264  0.68375  1.0000
  N   N20       1.0  0.55996  0.46438  0.64232  1.0000
  H   H490      1.0  0.36739  0.26139  0.77006  1.0000
  C   C287      1.0  0.55822  0.08092  0.93011  1.0000
  C   C288      1.0  0.35989  0.34097  0.82420  1.0000
  H   H491      1.0  0.39291  0.25420  0.79148  1.0000
  C   C289      1.0  0.49456  0.06197  0.92401  1.0000
  H   H492      1.0  0.41159  0.48711  0.97618  1.0000
  C   C290      1.0  0.37688  0.28777  0.87804  1.0000
  H   H493      1.0  0.36410  0.19137  0.86606  1.0000
  C   C291      1.0  0.50677  0.04091  0.91308  1.0000
  H   H494      1.0  0.44018  0.44558  0.86750  1.0000
  N   N21       1.0  0.53680  0.04703  0.92727  1.0000
  H   H495      1.0  0.34432  0.04804  0.91584  1.0000
  H   H496      1.0  0.42568  0.28175  0.87398  1.0000
  H   H497      1.0  0.38531  0.29405  0.54018  1.0000
  H   H498      1.0  0.36872  0.28819  0.57970  1.0000
  H   H499      1.0  0.39325  0.07447  0.65991  1.0000
  C   C292      1.0  0.37238  0.04585  0.58331  1.0000
  C   C293      1.0  0.66338  0.01964  0.97564  1.0000
  H   H500      1.0  0.45608  0.31880  0.83035  1.0000
  H   H501      1.0  0.44192  0.03200  0.62100  1.0000
  H   H502      1.0  0.57886  0.43436  0.64243  1.0000
  N   N22       1.0  0.52210  0.26943  0.73425  1.0000
  C   C294      1.0  0.53060  0.28855  0.76502  1.0000
  C   C295      1.0  0.50502  0.23628  0.74428  1.0000
  C   C296      1.0  0.50122  0.27663  0.71474  1.0000
  C   C297      1.0  0.55069  0.27778  0.71530  1.0000
  C   C298      1.0  0.54615  0.32342  0.75989  1.0000
  C   C299      1.0  0.52065  0.22665  0.77028  1.0000
  C   C300      1.0  0.48681  0.25746  0.68375  1.0000
  C   C301      1.0  0.55044  0.25286  0.69327  1.0000
  H   H503      1.0  0.51022  0.28165  0.78061  1.0000
  H   H504      1.0  0.54664  0.28489  0.78029  1.0000
  H   H505      1.0  0.49984  0.22079  0.72307  1.0000
  H   H506      1.0  0.48241  0.23020  0.75416  1.0000
  H   H507      1.0  0.48226  0.27418  0.73044  1.0000
  H   H508      1.0  0.51320  0.30078  0.70632  1.0000
  H   H509      1.0  0.55704  0.29807  0.69949  1.0000
  H   H510      1.0  0.57039  0.28498  0.73212  1.0000
  H   H511      1.0  0.55491  0.33512  0.78375  1.0000
  H   H512      1.0  0.56566  0.33213  0.74288  1.0000
  H   H513      1.0  0.52995  0.33038  0.75099  1.0000
  H   H514      1.0  0.51786  0.23380  0.79514  1.0000
  H   H515      1.0  0.50953  0.20135  0.77085  1.0000
  H   H516      1.0  0.54509  0.23601  0.76516  1.0000
  H   H517      1.0  0.47447  0.23259  0.68842  1.0000
  H   H518      1.0  0.50375  0.26369  0.66398  1.0000
  H   H519      1.0  0.46954  0.26283  0.67426  1.0000
  H   H520      1.0  0.55052  0.23447  0.70800  1.0000
  H   H521      1.0  0.57147  0.26320  0.67834  1.0000
  H   H522      1.0  0.53112  0.24263  0.67605  1.0000
  H   H523      1.0  0.41518  0.06862  0.60879  1.0000
  N   N23       1.0  0.38114  0.26748  0.85408  1.0000
  Fe  Fe46      1.0  0.65463  0.06862  0.91679  1.0000
  H   H524      1.0  0.37868  0.21284  0.82940  1.0000
  H   H525      1.0  0.54439  0.45910  0.71346  1.0000
  H   H526      1.0  0.51455  0.44412  0.66306  1.0000
  C   C302      1.0  0.55683  0.48494  0.61781  1.0000
  S   S90       1.0  0.35485  0.02407  0.80422  1.0000
  C   C303      1.0  0.64622  0.05791  0.50986  1.0000
  S   S91       1.0  0.64106  0.49009  0.75994  1.0000
  H   H527      1.0  0.50831  0.46527  0.81364  1.0000
  H   H528      1.0  0.47455  0.46018  0.93312  1.0000
  N   N24       1.0  0.38466  0.03122  0.64001  1.0000
  C   C304      1.0  0.36539  0.26707  0.82261  1.0000
  N   N25       1.0  0.47705  0.49247  0.87231  1.0000
  H   H529      1.0  0.34206  0.22326  0.86505  1.0000
  H   H530      1.0  0.38402  0.05719  0.56016  1.0000
  C   C305      1.0  0.55087  0.03467  0.90369  1.0000
  H   H531      1.0  0.40416  0.40442  0.53396  1.0000
  H   H532      1.0  0.49327  0.06360  0.95084  1.0000
  H   H533      1.0  0.61428  0.49270  0.60049  1.0000
  C   C306      1.0  0.37886  0.21475  0.85635  1.0000
  C   C307      1.0  0.46212  0.50590  0.85123  1.0000
  H   H534      1.0  0.48880  0.39833  0.63191  1.0000
  C   C308      1.0  0.50062  0.48923  0.85321  1.0000
  C   C309      1.0  0.39573  0.04487  0.60654  1.0000
  C   C310      1.0  0.53234  0.03078  0.95948  1.0000
  H   H535      1.0  0.55819  0.04859  0.88091  1.0000
  H   H536      1.0  0.40571  0.34472  0.51886  1.0000
  H   H537      1.0  0.50656  0.42832  0.60287  1.0000
  C   C311      1.0  0.37450  0.05030  0.65861  1.0000
  H   H538      1.0  0.49508  0.02966  0.98774  1.0000
  H   H539      1.0  0.36241  0.05924  0.59322  1.0000
  H   H540      1.0  0.38292  0.04472  0.71064  1.0000
  H   H541      1.0  0.42868  0.05760  0.66354  1.0000
  H   H542      1.0  0.57178  0.03621  0.91422  1.0000
  H   H543      1.0  0.65081  0.05682  0.53624  1.0000
  H   H544      1.0  0.37213  0.35870  0.64469  1.0000
  C   C312      1.0  0.59762  0.01484  0.57077  1.0000
  C   C313      1.0  0.61231  0.47629  0.61966  1.0000
  C   C314      1.0  0.55662  0.48193  0.70172  1.0000
  C   C315      1.0  0.37945  0.36896  0.62078  1.0000
  H   H545      1.0  0.48865  0.01703  0.91816  1.0000
  C   C316      1.0  0.66362  0.01013  0.75027  1.0000
  C   C317      1.0  0.65406  0.02082  0.77693  1.0000
  C   C318      1.0  0.59048  0.09077  0.94244  1.0000
  H   H546      1.0  0.61519  0.01570  0.80300  1.0000
  H   H547      1.0  0.44498  0.42468  0.91835  1.0000
  H   H548      1.0  0.38567  0.31109  0.86788  1.0000
  H   H549      1.0  0.34976  0.35299  0.51303  1.0000
  H   H550      1.0  0.60365  0.05656  0.51777  1.0000
  C   C319      1.0  0.57623  0.48196  0.67289  1.0000
  H   H551      1.0  0.37063  0.23716  0.89576  1.0000
  S   S92       1.0  0.39568  0.49087  0.90870  1.0000
  H   H552      1.0  0.43614  0.46585  0.90036  1.0000
  H   H553      1.0  0.34297  0.37883  0.61517  1.0000
  H   H554      1.0  0.52976  0.06620  0.98948  1.0000
  H   H555      1.0  0.55615  0.01363  0.52933  1.0000
  H   H556      1.0  0.51326  0.48188  0.86958  1.0000
  H   H557      1.0  0.37126  0.29043  0.81489  1.0000
  H   H558      1.0  0.54003  0.48893  0.69470  1.0000
  S   S93       1.0  0.62174  0.03503  0.95322  1.0000
  H   H559      1.0  0.61612  0.01890  0.58811  1.0000
  H   H560      1.0  0.40439  0.03185  0.59283  1.0000
  H   H561      1.0  0.34764  0.26197  0.54764  1.0000
  C   C320      1.0  0.36373  0.03986  0.69402  1.0000
  H   H562      1.0  0.34197  0.49091  0.86894  1.0000
  H   H563      1.0  0.42721  0.49646  0.81468  1.0000
  C   C321      1.0  0.42811  0.01847  0.64216  1.0000
  H   H564      1.0  0.34162  0.00948  0.87746  1.0000
  C   C322      1.0  0.39485  0.01138  0.77288  1.0000
  H   H565      1.0  0.57174  0.49806  0.72078  1.0000
  H   H566      1.0  0.44410  0.01778  0.66021  1.0000
  H   H567      1.0  0.36313  0.01337  0.91327  1.0000
  C   C323      1.0  0.63425  0.01560  0.97872  1.0000
  H   H568      1.0  0.65812  0.08239  0.50293  1.0000
  C   C324      1.0  0.61203  0.04392  0.50284  1.0000
  H   H569      1.0  0.34416  0.29316  0.90710  1.0000
  H   H570      1.0  0.35599  0.05170  0.64604  1.0000
  C   C325      1.0  0.34391  0.27706  0.88843  1.0000
  H   H571      1.0  0.35441  0.02259  0.57625  1.0000
  H   H572      1.0  0.59287  0.50618  0.66696  1.0000
  C   C326      1.0  0.62294  0.00746  0.78297  1.0000
  H   H573      1.0  0.57926  0.50527  0.61254  1.0000
  H   H574      1.0  0.50693  0.50678  0.91477  1.0000
  Fe  Fe47      1.0  0.34944  0.41522  0.49618  1.0000
  H   H575      1.0  0.62338  0.71900  0.03923  1.0000
  C   C327      1.0  0.35663  0.98945  0.21949  1.0000
  S   S94       1.0  0.56589  0.67275  0.45473  1.0000
  S   S95       1.0  0.67169  0.99394  0.42005  1.0000
  C   C328      1.0  0.53550  0.55238  0.35528  1.0000
  S   S96       1.0  0.63776  0.70796  0.47235  1.0000
  H   H576      1.0  0.55458  0.95164  0.47562  1.0000
  H   H577      1.0  0.45523  0.83765  0.06220  1.0000
  C   C329      1.0  0.58266  0.55142  0.35995  1.0000
  Fe  Fe48      1.0  0.60603  0.66742  0.44142  1.0000
  S   S97       1.0  0.61089  0.66027  0.38687  1.0000
  C   C330      1.0  0.42416  0.97166  0.44902  1.0000
  C   C331      1.0  0.36397  0.91494  0.44073  1.0000
  Fe  Fe49      1.0  0.59174  0.86176  0.09697  1.0000
  S   S98       1.0  0.58661  0.88794  0.05544  1.0000
  S   S99       1.0  0.58169  0.81216  0.09211  1.0000
  Fe  Fe50      1.0  0.60387  0.91348  0.14715  1.0000
  S   S100      1.0  0.59975  0.94278  0.10857  1.0000
  S   S101      1.0  0.60642  0.92494  0.20174  1.0000
  Fe  Fe51      1.0  0.55983  0.89955  0.09036  1.0000
  S   S102      1.0  0.51809  0.89922  0.07095  1.0000
  Fe  Fe52      1.0  0.62691  0.92873  0.07729  1.0000
  C   C332      1.0  0.42121  0.98501  0.26952  1.0000
  S   S103      1.0  0.56176  0.87067  0.13068  1.0000
  S   S104      1.0  0.63426  0.90217  0.11717  1.0000
  S   S105      1.0  0.39199  0.95234  0.12397  1.0000
  Fe  Fe53      1.0  0.38537  0.90908  0.14657  1.0000
  S   S106      1.0  0.42433  0.90494  0.16814  1.0000
  H   H578      1.0  0.59650  0.00367  0.45556  1.0000
  S   S107      1.0  0.62963  0.56408  0.22586  1.0000
  H   H579      1.0  0.47132  0.98238  0.24603  1.0000
  H   H580      1.0  0.50303  0.95615  0.17244  1.0000
  H   H581      1.0  0.60828  0.72888  0.08807  1.0000
  H   H582      1.0  0.45173  0.83901  0.01917  1.0000
  C   C333      1.0  0.48193  0.82227  0.03348  1.0000
  H   H583      1.0  0.38357  0.91189  0.43545  1.0000
  H   H584      1.0  0.59140  0.99115  0.00372  1.0000
  C   C334      1.0  0.62378  0.96122  0.22120  1.0000
  H   H585      1.0  0.56236  0.56091  0.45956  1.0000
  C   C335      1.0  0.60549  0.79108  0.00393  1.0000
  H   H586      1.0  0.43972  0.76801  0.06519  1.0000
  C   C336      1.0  0.62316  0.97812  0.02159  1.0000
  H   H587      1.0  0.60738  0.96189  0.03899  1.0000
  C   C337      1.0  0.44815  0.90028  0.14036  1.0000
  C   C338      1.0  0.44825  0.90691  0.10714  1.0000
  C   C339      1.0  0.46933  0.90570  0.08595  1.0000
  C   C340      1.0  0.49057  0.89807  0.09787  1.0000
  C   C341      1.0  0.48986  0.89044  0.13090  1.0000
  C   C342      1.0  0.46864  0.89151  0.15207  1.0000
  H   H588      1.0  0.43244  0.91356  0.09786  1.0000
  H   H589      1.0  0.46959  0.91137  0.06036  1.0000
  H   H590      1.0  0.50584  0.88408  0.14022  1.0000
  H   H591      1.0  0.46825  0.88584  0.17766  1.0000
  C   C343      1.0  0.63013  0.64370  0.36660  1.0000
  C   C344      1.0  0.62798  0.64075  0.33229  1.0000
  C   C345      1.0  0.64120  0.62608  0.31519  1.0000
  H   H592      1.0  0.51516  0.55011  0.36787  1.0000
  C   C346      1.0  0.64625  0.63232  0.38364  1.0000
  H   H593      1.0  0.61566  0.64954  0.31883  1.0000
  H   H594      1.0  0.54441  0.57169  0.41424  1.0000
  C   C347      1.0  0.64902  0.63712  0.04937  1.0000
  C   C348      1.0  0.62248  0.63033  0.06610  1.0000
  C   C349      1.0  0.62010  0.62398  0.09975  1.0000
  C   C350      1.0  0.64391  0.62365  0.11670  1.0000
  H   H595      1.0  0.60397  0.63048  0.05332  1.0000
  H   H596      1.0  0.59986  0.61963  0.11281  1.0000
  H   H597      1.0  0.57808  0.54136  0.43799  1.0000
  H   H598      1.0  0.62276  0.99962  0.47996  1.0000
  C   C351      1.0  0.60209  0.80759  0.02990  1.0000
  C   C352      1.0  0.58688  0.79256  0.05852  1.0000
  C   C353      1.0  0.57535  0.76084  0.06076  1.0000
  C   C354      1.0  0.57881  0.74433  0.03480  1.0000
  S   S108      1.0  0.35580  0.98660  0.17671  1.0000
  H   H599      1.0  0.61124  0.83194  0.02773  1.0000
  H   H600      1.0  0.56352  0.74889  0.08272  1.0000
  H   H601      1.0  0.56959  0.71996  0.03688  1.0000
  C   C355      1.0  0.53692  0.51387  0.38953  1.0000
  C   C356      1.0  0.47739  0.55137  0.43271  1.0000
  C   C357      1.0  0.49648  0.57553  0.45364  1.0000
  H   H602      1.0  0.54768  0.99408  0.45662  1.0000
  N   N26       1.0  0.55519  0.54672  0.37876  1.0000
  H   H603      1.0  0.62443  0.99214  0.29609  1.0000
  C   C358      1.0  0.34299  0.96356  0.23947  1.0000
  C   C359      1.0  0.35825  0.90998  0.47798  1.0000
  H   H604      1.0  0.56808  0.58679  0.32067  1.0000
  H   H605      1.0  0.59434  0.67227  0.08149  1.0000
  H   H606      1.0  0.35887  0.88916  0.48541  1.0000
  C   C360      1.0  0.66612  0.95870  0.31629  1.0000
  H   H607      1.0  0.58135  0.59233  0.39855  1.0000
  H   H608      1.0  0.57567  0.53798  0.33676  1.0000
  Fe  Fe54      1.0  0.35764  0.92280  0.08634  1.0000
  C   C361      1.0  0.59391  0.75936  0.00610  1.0000
  C   C362      1.0  0.59843  0.68493  0.10478  1.0000
  H   H609      1.0  0.62321  0.54776  0.36017  1.0000
  H   H610      1.0  0.43233  0.80278  0.03904  1.0000
  C   C363      1.0  0.41658  0.95241  0.27040  1.0000
  H   H611      1.0  0.53599  0.83261  0.00648  1.0000
  Fe  Fe55      1.0  0.35169  0.94398  0.15406  1.0000
  C   C364      1.0  0.45352  0.82516  0.03926  1.0000
  S   S109      1.0  0.67211  0.59360  0.31232  1.0000
  H   H612      1.0  0.62610  0.91869  0.33565  1.0000
  H   H613      1.0  0.42784  0.98207  0.20334  1.0000
  H   H614      1.0  0.48431  0.97912  0.13595  1.0000
  C   C365      1.0  0.65660  0.78081  0.07063  1.0000
  C   C366      1.0  0.55589  0.95643  0.17330  1.0000
  S   S110      1.0  0.59460  0.75478  0.49181  1.0000
  H   H615      1.0  0.41646  0.94385  0.24535  1.0000
  C   C367      1.0  0.64512  0.98792  0.20537  1.0000
  C   C368      1.0  0.53917  0.93877  0.20442  1.0000
  H   H616      1.0  0.56002  0.60298  0.35634  1.0000
  Fe  Fe56      1.0  0.64281  0.53055  0.20776  1.0000
  H   H617      1.0  0.51441  0.95330  0.13213  1.0000
  C   C369      1.0  0.64283  0.71672  0.04829  1.0000
  H   H618      1.0  0.42602  0.95361  0.43599  1.0000
  H   H619      1.0  0.54860  0.93964  0.15283  1.0000
  C   C370      1.0  0.38108  0.97028  0.01174  1.0000
  C   C371      1.0  0.66534  0.71286  0.10101  1.0000
  H   H620      1.0  0.40381  0.98338  0.25188  1.0000
  H   H621      1.0  0.43354  0.95032  0.28535  1.0000
  H   H622      1.0  0.51976  0.00280  0.11695  1.0000
  H   H623      1.0  0.53293  0.58602  0.32429  1.0000
  H   H624      1.0  0.35091  0.92757  0.37921  1.0000
  N   N27       1.0  0.48672  0.80192  0.05686  1.0000
  H   H625      1.0  0.65053  0.68770  0.10127  1.0000
  H   H626      1.0  0.57995  0.96323  0.17691  1.0000
  C   C372      1.0  0.52774  0.80863  0.01399  1.0000
  H   H627      1.0  0.67207  0.60911  0.37991  1.0000
  C   C373      1.0  0.39422  0.97208  0.44384  1.0000
  C   C374      1.0  0.65245  0.98252  0.01898  1.0000
  C   C375      1.0  0.45183  0.52530  0.44503  1.0000
  H   H628      1.0  0.53711  0.99446  0.20877  1.0000
  H   H629      1.0  0.37169  0.99200  0.05162  1.0000
  H   H630      1.0  0.39390  0.93675  0.28099  1.0000
  C   C376      1.0  0.45354  0.75356  0.02225  1.0000
  C   C377      1.0  0.38011  0.99459  0.02685  1.0000
  C   C378      1.0  0.63048  0.99109  0.27095  1.0000
  Fe  Fe57      1.0  0.66127  0.59483  0.18671  1.0000
  H   H631      1.0  0.45342  0.98615  0.32585  1.0000
  C   C379      1.0  0.39888  0.94388  0.37725  1.0000
  H   H632      1.0  0.51656  0.78258  0.05888  1.0000
  H   H633      1.0  0.62578  0.72951  0.12597  1.0000
  H   H634      1.0  0.51242  0.52036  0.43064  1.0000
  C   C380      1.0  0.60473  0.54362  0.37751  1.0000
  N   N28       1.0  0.55168  0.98298  0.16398  1.0000
  H   H635      1.0  0.58546  0.95113  0.45580  1.0000
  N   N29       1.0  0.65028  0.72791  0.08319  1.0000
  H   H636      1.0  0.50191  0.84577  0.03420  1.0000
  H   H637      1.0  0.52307  0.00075  0.48193  1.0000
  H   H638      1.0  0.46550  0.75473  0.07233  1.0000
  C   C381      1.0  0.61413  0.99471  0.00158  1.0000
  C   C382      1.0  0.55044  0.58394  0.33849  1.0000
  H   H639      1.0  0.51608  0.59553  0.44391  1.0000
  H   H640      1.0  0.65758  0.97503  0.31840  1.0000
  C   C383      1.0  0.49605  0.79808  0.11866  1.0000
  C   C384      1.0  0.56403  0.56910  0.40671  1.0000
  H   H641      1.0  0.63893  0.62361  0.28886  1.0000
  H   H642      1.0  0.39983  0.99338  0.43035  1.0000
  H   H643      1.0  0.39897  0.92293  0.38491  1.0000
  C   C385      1.0  0.65976  0.61795  0.36650  1.0000
  H   H644      1.0  0.44349  0.99386  0.44089  1.0000
  H   H645      1.0  0.61428  0.99997  0.14913  1.0000
  H   H646      1.0  0.50447  0.67220  0.46010  1.0000
  H   H647      1.0  0.54440  0.92016  0.20855  1.0000
  S   S111      1.0  0.64170  0.62007  0.15955  1.0000
  C   C386      1.0  0.65703  0.61440  0.33223  1.0000
  H   H648      1.0  0.51791  0.79876  0.11458  1.0000
  H   H649      1.0  0.59417  0.51934  0.38465  1.0000
  C   C387      1.0  0.64988  0.93452  0.34328  1.0000
  C   C388      1.0  0.37188  0.94597  0.39102  1.0000
  S   S112      1.0  0.66427  0.96243  0.04445  1.0000
  H   H650      1.0  0.52686  0.53505  0.33534  1.0000
  H   H651      1.0  0.63848  0.78011  0.08630  1.0000
  H   H652      1.0  0.59981  0.58152  0.44323  1.0000
  H   H653      1.0  0.61598  0.55887  0.39862  1.0000
  C   C389      1.0  0.36039  0.99589  0.28794  1.0000
  H   H654      1.0  0.46622  0.81195  0.09824  1.0000
  H   H655      1.0  0.64882  0.94549  0.36641  1.0000
  H   H656      1.0  0.59664  0.57562  0.35248  1.0000
  H   H657      1.0  0.38724  0.97508  0.46856  1.0000
  H   H658      1.0  0.63460  0.94319  0.46117  1.0000
  C   C390      1.0  0.57656  0.56232  0.43825  1.0000
  H   H659      1.0  0.65753  0.94720  0.29235  1.0000
  S   S113      1.0  0.58052  0.65953  0.00834  1.0000
  C   C391      1.0  0.50917  0.99212  0.14063  1.0000
  H   H660      1.0  0.65117  0.98686  0.18023  1.0000
  C   C392      1.0  0.51666  0.80344  0.04987  1.0000
  C   C393      1.0  0.46089  0.76944  0.05581  1.0000
  H   H661      1.0  0.50517  0.83874  0.09217  1.0000
  H   H662      1.0  0.49510  0.70047  0.47329  1.0000
  H   H663      1.0  0.64759  0.77314  0.04562  1.0000
  H   H664      1.0  0.63530  0.69196  0.04717  1.0000
  H   H665      1.0  0.53545  0.82268  0.06351  1.0000
  H   H666      1.0  0.41394  0.98967  0.29353  1.0000
  C   C394      1.0  0.44508  0.52387  0.47838  1.0000
  S   S114      1.0  0.35365  0.87936  0.10716  1.0000
  H   H667      1.0  0.60597  0.67455  0.12390  1.0000
  S   S115      1.0  0.65381  0.64853  0.00810  1.0000
  H   H668      1.0  0.64822  0.63451  0.40999  1.0000
  H   H669      1.0  0.66095  0.92086  0.34831  1.0000
  H   H670      1.0  0.45547  0.97222  0.19250  1.0000
  C   C395      1.0  0.62105  0.71939  0.10092  1.0000
  H   H671      1.0  0.59976  0.94261  0.26638  1.0000
  H   H672      1.0  0.37498  0.96786  0.38130  1.0000
  S   S116      1.0  0.36719  0.93413  0.03138  1.0000
  H   H673      1.0  0.59934  0.00386  0.20641  1.0000
  C   C396      1.0  0.48820  0.81394  0.09105  1.0000
  Fe  Fe58      1.0  0.59683  0.71041  0.48932  1.0000
  C   C397      1.0  0.61640  0.96307  0.25397  1.0000
  H   H674      1.0  0.48227  0.55296  0.40686  1.0000
  H   H675      1.0  0.54684  0.95332  0.22656  1.0000
  H   H676      1.0  0.51425  0.92769  0.20216  1.0000
  H   H677      1.0  0.57623  0.68171  0.11301  1.0000
  Fe  Fe59      1.0  0.67136  0.58362  0.25742  1.0000
  C   C398      1.0  0.51917  0.96954  0.15264  1.0000
  C   C399      1.0  0.34456  0.96682  0.27371  1.0000
  C   C400      1.0  0.51176  0.69273  0.47564  1.0000
  C   C401      1.0  0.64945  0.96213  0.47677  1.0000
  H   H678      1.0  0.42795  0.96989  0.47556  1.0000
  S   S117      1.0  0.59670  0.63259  0.48070  1.0000
  S   S118      1.0  0.36428  0.99950  0.33067  1.0000
  H   H679      1.0  0.49839  0.81031  0.14203  1.0000
  H   H680      1.0  0.45417  0.52422  0.01099  1.0000
  H   H681      1.0  0.47778  0.77418  0.12243  1.0000
  H   H682      1.0  0.54733  0.80480  0.01200  1.0000
  H   H683      1.0  0.42071  0.96461  0.38321  1.0000
  H   H684      1.0  0.43361  0.73028  0.02490  1.0000
  H   H685      1.0  0.58408  0.80543  0.49418  1.0000
  H   H686      1.0  0.48365  0.98829  0.29989  1.0000
  H   H687      1.0  0.35683  0.99384  0.42205  1.0000
  C   C402      1.0  0.66992  0.99031  0.46282  1.0000
  S   S119      1.0  0.34798  0.90324  0.18042  1.0000
  C   C403      1.0  0.47500  0.00148  0.31312  1.0000
  H   H688      1.0  0.56619  0.98325  0.11418  1.0000
  H   H689      1.0  0.39719  0.94310  0.35010  1.0000
  C   C404      1.0  0.45267  0.99114  0.20234  1.0000
  H   H690      1.0  0.53306  0.71085  0.46440  1.0000
  N   N30       1.0  0.36818  0.94473  0.42770  1.0000
  H   H691      1.0  0.64092  0.89081  0.48486  1.0000
  C   C405      1.0  0.46815  0.00109  0.23625  1.0000
  C   C406      1.0  0.59888  0.99445  0.47947  1.0000
  S   S120      1.0  0.67134  0.55969  0.16593  1.0000
  H   H692      1.0  0.37573  0.92917  0.49263  1.0000
  S   S121      1.0  0.50349  0.58445  0.99898  1.0000
  C   C407      1.0  0.66998  0.62913  0.09970  1.0000
  C   C408      1.0  0.57168  0.99940  0.13509  1.0000
  H   H693      1.0  0.66923  0.72002  0.12720  1.0000
  H   H694      1.0  0.66694  0.71551  0.00490  1.0000
  C   C409      1.0  0.66812  0.73288  0.02238  1.0000
  H   H695      1.0  0.44729  0.76552  0.00377  1.0000
  H   H696      1.0  0.47241  0.75058  0.01333  1.0000
  C   C410      1.0  0.48980  0.57398  0.48701  1.0000
  C   C411      1.0  0.57905  0.95937  0.47792  1.0000
  H   H697      1.0  0.48056  0.81477  0.00773  1.0000
  H   H698      1.0  0.66392  0.74871  0.00731  1.0000
  H   H699      1.0  0.34454  0.89538  0.42813  1.0000
  H   H700      1.0  0.51046  0.79315  0.99633  1.0000
  C   C412      1.0  0.67261  0.63610  0.06610  1.0000
  C   C413      1.0  0.67004  0.76210  0.08568  1.0000
  C   C414      1.0  0.55705  0.00450  0.19203  1.0000
  H   H701      1.0  0.47093  0.63046  0.49483  1.0000
  C   C415      1.0  0.35052  0.96667  0.73221  1.0000
  H   H702      1.0  0.58618  0.95945  0.85319  1.0000
  S   S122      1.0  0.55150  0.65326  0.93422  1.0000
  H   H703      1.0  0.65261  0.97553  0.82031  1.0000
  C   C416      1.0  0.67249  0.00315  0.99580  1.0000
  S   S123      1.0  0.62478  0.68272  0.94294  1.0000
  C   C417      1.0  0.46500  0.96624  0.64932  1.0000
  Fe  Fe60      1.0  0.58846  0.69036  0.96553  1.0000
  S   S124      1.0  0.51306  0.60402  0.51393  1.0000
  Fe  Fe61      1.0  0.58744  0.64291  0.91584  1.0000
  S   S125      1.0  0.58577  0.62172  0.86567  1.0000
  H   H704      1.0  0.59255  0.56861  0.66376  1.0000
  S   S126      1.0  0.57960  0.60973  0.95625  1.0000
  Fe  Fe62      1.0  0.58282  0.87532  0.61344  1.0000
  S   S127      1.0  0.58753  0.90353  0.56897  1.0000
  S   S128      1.0  0.57871  0.82790  0.61129  1.0000
  Fe  Fe63      1.0  0.58958  0.92623  0.66171  1.0000
  S   S129      1.0  0.59549  0.95758  0.62021  1.0000
  S   S130      1.0  0.58398  0.94064  0.71338  1.0000
  Fe  Fe64      1.0  0.55740  0.91706  0.59553  1.0000
  S   S131      1.0  0.52600  0.92937  0.56884  1.0000
  Fe  Fe65      1.0  0.62502  0.94181  0.59708  1.0000
  C   C418      1.0  0.45449  0.92681  0.75096  1.0000
  S   S132      1.0  0.54918  0.88579  0.63820  1.0000
  S   S133      1.0  0.62259  0.91337  0.64062  1.0000
  S   S134      1.0  0.38154  0.92952  0.61423  1.0000
  Fe  Fe66      1.0  0.36145  0.87884  0.61540  1.0000
  S   S135      1.0  0.38665  0.85369  0.60483  1.0000
  Fe  Fe67      1.0  0.62564  0.67321  0.51257  1.0000
  S   S136      1.0  0.64592  0.55859  0.71833  1.0000
  C   C419      1.0  0.38075  0.97378  0.72943  1.0000
  H   H705      1.0  0.41239  0.99465  0.63460  1.0000
  H   H706      1.0  0.61245  0.61391  0.54489  1.0000
  C   C420      1.0  0.64534  0.60605  0.92069  1.0000
  C   C421      1.0  0.45606  0.93283  0.65633  1.0000
  C   C422      1.0  0.58941  0.77412  0.52551  1.0000
  H   H707      1.0  0.45466  0.51913  0.86652  1.0000
  C   C423      1.0  0.61142  0.97247  0.73649  1.0000
  C   C424      1.0  0.60182  0.98322  0.76312  1.0000
  H   H708      1.0  0.57786  0.97276  0.76835  1.0000
  H   H709      1.0  0.53279  0.66612  0.60035  1.0000
  H   H710      1.0  0.64984  0.66897  0.85907  1.0000
  H   H711      1.0  0.63189  0.93668  0.52128  1.0000
  C   C425      1.0  0.42517  0.87490  0.59416  1.0000
  C   C426      1.0  0.43688  0.90265  0.57743  1.0000
  C   C427      1.0  0.46783  0.91901  0.56924  1.0000
  C   C428      1.0  0.48722  0.90802  0.57843  1.0000
  C   C429      1.0  0.47549  0.88036  0.59524  1.0000
  C   C430      1.0  0.44445  0.86365  0.60265  1.0000
  H   H712      1.0  0.42204  0.91128  0.57054  1.0000
  H   H713      1.0  0.47681  0.94036  0.55613  1.0000
  H   H714      1.0  0.49022  0.87159  0.60208  1.0000
  H   H715      1.0  0.43539  0.84206  0.61533  1.0000
  C   C431      1.0  0.61576  0.62552  0.84018  1.0000
  C   C432      1.0  0.60973  0.60260  0.81699  1.0000
  C   C433      1.0  0.63258  0.60489  0.79573  1.0000
  H   H716      1.0  0.60138  0.56785  0.93446  1.0000
  H   H717      1.0  0.35736  0.94827  0.85106  1.0000
  H   H718      1.0  0.58723  0.58286  0.81555  1.0000
  H   H719      1.0  0.62760  0.58695  0.77823  1.0000
  H   H720      1.0  0.34955  0.54454  0.87308  1.0000
  H   H721      1.0  0.65174  0.90350  0.58306  1.0000
  C   C434      1.0  0.66996  0.84065  0.54079  1.0000
  C   C435      1.0  0.64626  0.59134  0.60198  1.0000
  C   C436      1.0  0.45765  0.89358  0.68959  1.0000
  H   H722      1.0  0.45469  0.95733  0.71500  1.0000
  H   H723      1.0  0.35965  0.98576  0.66042  1.0000
  C   C437      1.0  0.50044  0.71175  0.54997  1.0000
  C   C438      1.0  0.58133  0.81546  0.54507  1.0000
  C   C439      1.0  0.58236  0.80744  0.57765  1.0000
  C   C440      1.0  0.58648  0.78235  0.58391  1.0000
  C   C441      1.0  0.59013  0.76589  0.55808  1.0000
  C   C442      1.0  0.62920  0.61551  0.56231  1.0000
  H   H724      1.0  0.57768  0.83432  0.53976  1.0000
  H   H725      1.0  0.58729  0.77588  0.60898  1.0000
  H   H726      1.0  0.59398  0.74715  0.56338  1.0000
  H   H727      1.0  0.58403  0.97463  0.89278  1.0000
  C   C443      1.0  0.44529  0.54630  0.92257  1.0000
  C   C444      1.0  0.46990  0.56697  0.94191  1.0000
  H   H728      1.0  0.36614  0.98652  0.61778  1.0000
  C   C445      1.0  0.45475  0.63017  0.51313  1.0000
  H   H729      1.0  0.42361  0.92065  0.71081  1.0000
  C   C446      1.0  0.62490  0.58931  0.57893  1.0000
  C   C447      1.0  0.36472  0.00446  0.77570  1.0000
  H   H730      1.0  0.49987  0.75331  0.53874  1.0000
  C   C448      1.0  0.36120  0.53931  0.95802  1.0000
  C   C449      1.0  0.34252  0.98196  0.75543  1.0000
  S   S137      1.0  0.34270  0.87283  0.66618  1.0000
  H   H731      1.0  0.64938  0.94339  0.94956  1.0000
  C   C450      1.0  0.64249  0.98634  0.73000  1.0000
  C   C451      1.0  0.64779  0.95844  0.51085  1.0000
  C   C452      1.0  0.42364  0.86969  0.69234  1.0000
  H   H732      1.0  0.51573  0.00606  0.95663  1.0000
  H   H733      1.0  0.39847  0.98249  0.55630  1.0000
  H   H734      1.0  0.50339  0.55842  0.87813  1.0000
  C   C453      1.0  0.47324  0.55902  0.97381  1.0000
  C   C454      1.0  0.46392  0.54821  0.49924  1.0000
  H   H735      1.0  0.54544  0.97666  0.51560  1.0000
  H   H736      1.0  0.48611  0.58917  0.93233  1.0000
  H   H737      1.0  0.35777  0.55897  0.95366  1.0000
  C   C455      1.0  0.40281  0.99607  0.74986  1.0000
  C   C456      1.0  0.53069  0.00110  0.89303  1.0000
  S   S138      1.0  0.66125  0.67706  0.54843  1.0000
  H   H738      1.0  0.52486  0.98510  0.91386  1.0000
  C   C457      1.0  0.39213  0.97425  0.97941  1.0000
  C   C458      1.0  0.65511  0.64370  0.56839  1.0000
  H   H739      1.0  0.60373  0.62756  0.72951  1.0000
  H   H740      1.0  0.66268  0.69437  0.68129  1.0000
  H   H741      1.0  0.47373  0.94765  0.76181  1.0000
  H   H742      1.0  0.43383  0.91997  0.76586  1.0000
  C   C459      1.0  0.59923  0.65266  0.63650  1.0000
  H   H743      1.0  0.45936  0.90790  0.75313  1.0000
  H   H744      1.0  0.51623  0.74219  0.50723  1.0000
  S   S139      1.0  0.63962  0.55870  0.62389  1.0000
  H   H745      1.0  0.36124  0.96503  0.90936  1.0000
  C   C460      1.0  0.36026  0.98033  0.53117  1.0000
  C   C461      1.0  0.64293  0.88308  0.50973  1.0000
  H   H746      1.0  0.54353  0.99533  0.87524  1.0000
  Fe  Fe68      1.0  0.66797  0.56619  0.66917  1.0000
  H   H747      1.0  0.46590  0.88792  0.66691  1.0000
  H   H748      1.0  0.65325  0.59190  0.85809  1.0000
  H   H749      1.0  0.63681  0.86577  0.56990  1.0000
  H   H750      1.0  0.64136  0.92893  0.86650  1.0000
  H   H751      1.0  0.45337  0.97433  0.66598  1.0000
  H   H752      1.0  0.54369  0.96033  0.67550  1.0000
  H   H753      1.0  0.51653  0.95305  0.64409  1.0000
  C   C462      1.0  0.62940  0.94187  0.86137  1.0000
  N   N31       1.0  0.46531  0.92651  0.68916  1.0000
  C   C463      1.0  0.62414  0.61704  0.66927  1.0000
  H   H754      1.0  0.59219  0.58242  0.70382  1.0000
  H   H755      1.0  0.53460  0.55082  0.87681  1.0000
  H   H756      1.0  0.44728  0.65962  0.54515  1.0000
  H   H757      1.0  0.62589  0.61926  0.64227  1.0000
  C   C464      1.0  0.49747  0.73311  0.52531  1.0000
  H   H758      1.0  0.59523  0.93923  0.91204  1.0000
  H   H759      1.0  0.52836  0.69896  0.60222  1.0000
  C   C465      1.0  0.66365  0.87580  0.61318  1.0000
  S   S140      1.0  0.39231  0.95625  0.70014  1.0000
  H   H760      1.0  0.64083  0.61562  0.94313  1.0000
  Fe  Fe69      1.0  0.66896  0.53160  0.72878  1.0000
  H   H761      1.0  0.54955  0.69463  0.56927  1.0000
  H   H762      1.0  0.35300  0.57497  0.89909  1.0000
  H   H763      1.0  0.50506  0.97084  0.69796  1.0000
  C   C466      1.0  0.67215  0.61950  0.60797  1.0000
  H   H764      1.0  0.58264  0.63745  0.68536  1.0000
  H   H765      1.0  0.67366  0.66629  0.93363  1.0000
  H   H766      1.0  0.61038  0.67640  0.68241  1.0000
  H   H767      1.0  0.42063  0.84654  0.68909  1.0000
  H   H768      1.0  0.63781  0.85926  0.50740  1.0000
  H   H769      1.0  0.61349  0.94719  0.81293  1.0000
  H   H770      1.0  0.62270  0.97049  0.93502  1.0000
  H   H771      1.0  0.60475  0.92488  0.86312  1.0000
  H   H772      1.0  0.61108  0.56609  0.89343  1.0000
  C   C467      1.0  0.39122  0.99261  0.53758  1.0000
  H   H773      1.0  0.46564  0.92548  0.63635  1.0000
  H   H774      1.0  0.51649  0.92184  0.66590  1.0000
  H   H775      1.0  0.52366  0.72576  0.56023  1.0000
  C   C468      1.0  0.46343  0.66246  0.52525  1.0000
  C   C469      1.0  0.58484  0.79891  0.51925  1.0000
  C   C470      1.0  0.49979  0.66479  0.56533  1.0000
  H   H776      1.0  0.61991  0.66856  0.62270  1.0000
  C   C471      1.0  0.66764  0.65357  0.81991  1.0000
  H   H777      1.0  0.36385  0.98603  0.85385  1.0000
  C   C472      1.0  0.63066  0.99091  0.87573  1.0000
  H   H778      1.0  0.43103  0.91915  0.65303  1.0000
  C   C473      1.0  0.62749  0.93068  0.93622  1.0000
  C   C474      1.0  0.61996  0.95255  0.91741  1.0000
  C   C475      1.0  0.52945  0.68245  0.58517  1.0000
  C   C476      1.0  0.34591  0.51428  0.93170  1.0000
  H   H779      1.0  0.65031  0.97833  0.70976  1.0000
  H   H780      1.0  0.41445  0.87023  0.71676  1.0000
  C   C477      1.0  0.44853  0.93292  0.71542  1.0000
  H   H781      1.0  0.47513  0.72243  0.51294  1.0000
  H   H782      1.0  0.46974  0.88910  0.70964  1.0000
  C   C478      1.0  0.49307  0.51409  0.90042  1.0000
  H   H783      1.0  0.45293  0.61498  0.53367  1.0000
  C   C479      1.0  0.59680  0.97966  0.86946  1.0000
  Fe  Fe70      1.0  0.35931  0.92305  0.66330  1.0000
  H   H784      1.0  0.39307  0.95567  0.96747  1.0000
  H   H785      1.0  0.57544  0.99961  0.58264  1.0000
  H   H786      1.0  0.42623  0.00171  0.74783  1.0000
  N   N32       1.0  0.62903  0.64620  0.68456  1.0000
  C   C480      1.0  0.64495  0.65097  0.84166  1.0000
  C   C481      1.0  0.66166  0.63053  0.79690  1.0000
  C   C482      1.0  0.49889  0.94655  0.69489  1.0000
  H   H787      1.0  0.52419  0.56119  0.91414  1.0000
  H   H788      1.0  0.64211  0.93723  0.81161  1.0000
  H   H789      1.0  0.48449  0.70775  0.57052  1.0000
  H   H790      1.0  0.59458  0.99809  0.85732  1.0000
  C   C483      1.0  0.45182  0.53035  0.98622  1.0000
  H   H791      1.0  0.60993  0.91851  0.95526  1.0000
  H   H792      1.0  0.47630  0.51383  0.91803  1.0000
  H   H793      1.0  0.40988  0.87253  0.67310  1.0000
  S   S141      1.0  0.59920  0.73994  0.97241  1.0000
  C   C484      1.0  0.51489  0.54782  0.89124  1.0000
  C   C485      1.0  0.65942  0.67181  0.67356  1.0000
  H   H794      1.0  0.58954  0.62937  0.62613  1.0000
  H   H795      1.0  0.64073  0.61735  0.89985  1.0000
  C   C486      1.0  0.42763  0.50939  0.96660  1.0000
  H   H796      1.0  0.50570  0.94046  0.71839  1.0000
  S   S142      1.0  0.66875  0.97687  0.57356  1.0000
  H   H797      1.0  0.62771  0.91322  0.92006  1.0000
  H   H798      1.0  0.45853  0.54690  0.52500  1.0000
  C   C487      1.0  0.62070  0.57191  0.91857  1.0000
  H   H799      1.0  0.44269  0.55270  0.89803  1.0000
  C   C488      1.0  0.59380  0.58820  0.67742  1.0000
  N   N33       1.0  0.63793  0.96674  0.88654  1.0000
  H   H800      1.0  0.57399  0.59025  0.66980  1.0000
  C   C489      1.0  0.66782  0.98232  0.53111  1.0000
  S   S143      1.0  0.58712  0.67836  0.53138  1.0000
  H   H801      1.0  0.64834  0.57598  0.97784  1.0000
  H   H802      1.0  0.67127  0.56906  0.90576  1.0000
  H   H803      1.0  0.58231  0.65999  0.63185  1.0000
  Fe  Fe71      1.0  0.54625  0.62210  0.97605  1.0000
  H   H804      1.0  0.64233  0.61212  0.67667  1.0000
  H   H805      1.0  0.49916  0.64361  0.55666  1.0000
  H   H806      1.0  0.48984  0.98186  0.65024  1.0000
  H   H807      1.0  0.35314  0.52993  0.98290  1.0000
  H   H808      1.0  0.60474  0.56758  0.57426  1.0000
  H   H809      1.0  0.48077  0.65707  0.58312  1.0000
  H   H810      1.0  0.64257  0.86651  0.62790  1.0000
  C   C490      1.0  0.60484  0.65332  0.67381  1.0000
  H   H811      1.0  0.58621  0.97493  0.54281  1.0000
  H   H812      1.0  0.66930  0.85736  0.61139  1.0000
  H   H813      1.0  0.63970  0.63085  0.72988  1.0000
  H   H814      1.0  0.63414  0.66668  0.76741  1.0000
  H   H815      1.0  0.53502  0.51137  0.60695  1.0000
  C   C491      1.0  0.67191  0.58169  0.97216  1.0000
  H   H816      1.0  0.62776  0.55559  0.92670  1.0000
  H   H817      1.0  0.54133  0.70579  0.51798  1.0000
  H   H818      1.0  0.61727  0.80302  0.98195  1.0000
  H   H819      1.0  0.62539  0.88403  0.52494  1.0000
  C   C492      1.0  0.51965  0.94508  0.66831  1.0000
  C   C493      1.0  0.34694  0.96195  0.85903  1.0000
  C   C494      1.0  0.42445  0.51727  0.93466  1.0000
  H   H820      1.0  0.41011  0.00458  0.93755  1.0000
  C   C495      1.0  0.65788  0.88544  0.57927  1.0000
  H   H821      1.0  0.64737  0.83290  0.55140  1.0000
  Fe  Fe72      1.0  0.61440  0.64984  0.98437  1.0000
  C   C496      1.0  0.63970  0.67247  0.74114  1.0000
  N   N34       1.0  0.49569  0.68172  0.53703  1.0000
  C   C497      1.0  0.51867  0.68667  0.51097  1.0000
  H   H822      1.0  0.62929  0.68619  0.73352  1.0000
  H   H823      1.0  0.66477  0.68643  0.73957  1.0000
  H   H824      1.0  0.66057  0.67320  0.64638  1.0000
  C   C498      1.0  0.62753  0.64270  0.72132  1.0000
  H   H825      1.0  0.51798  0.51161  0.84307  1.0000
  H   H826      1.0  0.36119  0.52208  0.91030  1.0000
  H   H827      1.0  0.47859  0.52255  0.83337  1.0000
  C   C499      1.0  0.63494  0.95169  0.82495  1.0000
  H   H828      1.0  0.38603  0.54793  0.95785  1.0000
  C   C500      1.0  0.60093  0.99992  0.53918  1.0000
  H   H829      1.0  0.64293  0.00282  0.85324  1.0000
  C   C501      1.0  0.40173  0.00194  0.96233  1.0000
  C   C502      1.0  0.35131  0.99391  0.50679  1.0000
  H   H830      1.0  0.67222  0.56278  0.95890  1.0000
  H   H831      1.0  0.54498  0.51284  0.64891  1.0000
  C   C503      1.0  0.36041  0.99805  0.63744  1.0000
  C   C504      1.0  0.67114  0.98166  0.89528  1.0000
  H   H832      1.0  0.66782  0.83783  0.51377  1.0000
  H   H833      1.0  0.52159  0.66633  0.50924  1.0000
  H   H834      1.0  0.58288  0.94809  0.49921  1.0000
  C   C505      1.0  0.56002  0.00119  0.50917  1.0000
  H   H835      1.0  0.62416  0.00298  0.53835  1.0000
  H   H836      1.0  0.67397  0.53719  0.56450  1.0000
  H   H837      1.0  0.45752  0.96759  0.62410  1.0000
  H   H838      1.0  0.50977  0.99713  0.88028  1.0000
  H   H839      1.0  0.43210  0.61954  0.50121  1.0000
  Fe  Fe73      1.0  0.55892  0.64069  0.49590  1.0000
  H   H840      1.0  0.45779  0.67351  0.50523  1.0000
  H   H841      1.0  0.76267  0.05263  0.05371  1.0000
  N   N35       1.0  0.96608  0.50051  0.44122  1.0000
  S   S144      1.0  0.71271  0.06675  0.36243  1.0000
  H   H842      1.0  0.75364  0.14908  0.02345  1.0000
  C   C506      1.0  0.89440  0.44639  0.01930  1.0000
  H   H843      1.0  0.76971  0.08684  0.07495  1.0000
  C   C507      1.0  0.82592  0.33228  0.00404  1.0000
  Fe  Fe74      1.0  0.71240  0.10643  0.38751  1.0000
  S   S145      1.0  0.75501  0.15358  0.39460  1.0000
  H   H844      1.0  0.80522  0.29092  0.03482  1.0000
  H   H845      1.0  0.97247  0.38341  0.31010  1.0000
  S   S146      1.0  0.92357  0.29679  0.05312  1.0000
  S   S147      1.0  0.98228  0.31563  0.46209  1.0000
  Fe  Fe75      1.0  0.91100  0.36210  0.02122  1.0000
  S   S148      1.0  0.88639  0.33294  0.06428  1.0000
  S   S149      1.0  0.90034  0.39745  0.00132  1.0000
  Fe  Fe76      1.0  0.93180  0.33927  0.07988  1.0000
  S   S150      1.0  0.95029  0.35816  0.13105  1.0000
  Fe  Fe77      1.0  0.88032  0.29328  0.03322  1.0000
  S   S151      1.0  0.83207  0.25192  0.03014  1.0000
  S   S152      1.0  0.95662  0.37119  0.03823  1.0000
  S   S153      1.0  0.90491  0.31309  0.47420  1.0000
  C   C508      1.0  0.77778  0.17539  0.42866  1.0000
  C   C509      1.0  0.77056  0.16557  0.46116  1.0000
  H   H846      1.0  0.80065  0.13757  0.05841  1.0000
  H   H847      1.0  0.71459  0.49933  0.11558  1.0000
  C   C510      1.0  0.82221  0.22245  0.44866  1.0000
  C   C511      1.0  0.80365  0.20402  0.42272  1.0000
  H   H848      1.0  0.75081  0.14370  0.46630  1.0000
  C   C512      1.0  0.74355  0.01063  0.35773  1.0000
  H   H849      1.0  0.84204  0.24429  0.44349  1.0000
  H   H850      1.0  0.80952  0.21200  0.39779  1.0000
  C   C513      1.0  0.91583  0.47627  0.06877  1.0000
  C   C514      1.0  0.92555  0.45587  0.07830  1.0000
  C   C515      1.0  0.92020  0.43112  0.05820  1.0000
  C   C516      1.0  0.90495  0.42657  0.02843  1.0000
  H   H851      1.0  0.00510  0.31025  0.09865  1.0000
  C   C517      1.0  0.89998  0.47132  0.03929  1.0000
  H   H852      1.0  0.93758  0.45941  0.10121  1.0000
  C   C518      1.0  0.98256  0.30940  0.27841  1.0000
  H   H853      1.0  0.69582  0.14312  0.41627  1.0000
  H   H854      1.0  0.68996  0.20095  0.36772  1.0000
  H   H855      1.0  0.83059  0.35586  0.00801  1.0000
  C   C519      1.0  0.80509  0.31265  0.03214  1.0000
  C   C520      1.0  0.00056  0.36286  0.29314  1.0000
  H   H856      1.0  0.74428  0.22033  0.36189  1.0000
  H   H857      1.0  0.97592  0.36205  0.35707  1.0000
  H   H858      1.0  0.96276  0.28577  0.27731  1.0000
  C   C521      1.0  0.97952  0.35795  0.15472  1.0000
  C   C522      1.0  0.69657  0.09472  0.00849  1.0000
  C   C523      1.0  0.00150  0.34581  0.43432  1.0000
  H   H859      1.0  0.97002  0.31321  0.14015  1.0000
  C   C524      1.0  0.81417  0.22674  0.99650  1.0000
  H   H860      1.0  0.94820  0.31497  0.22855  1.0000
  H   H861      1.0  0.68898  0.45792  0.23148  1.0000
  H   H862      1.0  0.70015  0.11356  0.02506  1.0000
  H   H863      1.0  0.92698  0.33373  0.23529  1.0000
  S   S154      1.0  0.90330  0.38803  0.49299  1.0000
  H   H864      1.0  0.99928  0.35170  0.08768  1.0000
  H   H865      1.0  0.92198  0.46137  0.45195  1.0000
  C   C525      1.0  0.76842  0.07676  0.05045  1.0000
  H   H866      1.0  0.74382  0.12333  0.05663  1.0000
  C   C526      1.0  0.78906  0.18408  0.48714  1.0000
  C   C527      1.0  0.81511  0.21263  0.48114  1.0000
  H   H867      1.0  0.73731  0.01621  0.29548  1.0000
  C   C528      1.0  0.70014  0.19020  0.38301  1.0000
  H   H868      1.0  0.98898  0.32305  0.34323  1.0000
  H   H869      1.0  0.95084  0.29593  0.33291  1.0000
  C   C529      1.0  0.73371  0.21494  0.38655  1.0000
  H   H870      1.0  0.71329  0.01351  0.24232  1.0000
  C   C530      1.0  0.69533  0.16052  0.43250  1.0000
  H   H871      1.0  0.78183  0.50262  0.15203  1.0000
  H   H872      1.0  0.74118  0.47873  0.19060  1.0000
  H   H873      1.0  0.93643  0.33660  0.34552  1.0000
  H   H874      1.0  0.92680  0.30230  0.28378  1.0000
  H   H875      1.0  0.00298  0.29365  0.31594  1.0000
  H   H876      1.0  0.76919  0.21263  0.01414  1.0000
  C   C531      1.0  0.99324  0.38900  0.29638  1.0000
  H   H877      1.0  0.93718  0.34029  0.29203  1.0000
  H   H878      1.0  0.99475  0.47064  0.99908  1.0000
  H   H879      1.0  0.67982  0.21874  0.41832  1.0000
  H   H880      1.0  0.70510  0.03648  0.47241  1.0000
  C   C532      1.0  0.97567  0.50578  0.47677  1.0000
  H   H881      1.0  0.95334  0.32752  0.37853  1.0000
  H   H882      1.0  0.71460  0.24494  0.45800  1.0000
  C   C533      1.0  0.79171  0.15151  0.04754  1.0000
  H   H883      1.0  0.73613  0.23646  0.39639  1.0000
  H   H884      1.0  0.68658  0.07291  0.02219  1.0000
  H   H885      1.0  0.94123  0.43333  0.43272  1.0000
  H   H886      1.0  0.79237  0.16730  0.06685  1.0000
  H   H887      1.0  0.81394  0.32517  0.05558  1.0000
  C   C534      1.0  0.94754  0.33308  0.24323  1.0000
  H   H888      1.0  0.96677  0.44886  0.46731  1.0000
  S   S155      1.0  0.67940  0.07706  0.42636  1.0000
  C   C535      1.0  0.98410  0.33290  0.15521  1.0000
  C   C536      1.0  0.91480  0.49918  0.44955  1.0000
  N   N36       1.0  0.97433  0.33057  0.29593  1.0000
  H   H889      1.0  0.69896  0.45157  0.11016  1.0000
  H   H890      1.0  0.92825  0.41585  0.06557  1.0000
  N   N37       1.0  0.75240  0.10669  0.01111  1.0000
  H   H891      1.0  0.92536  0.47641  0.41191  1.0000
  H   H892      1.0  0.67619  0.03637  0.21017  1.0000
  Fe  Fe78      1.0  0.94581  0.32871  0.01056  1.0000
  H   H893      1.0  0.91521  0.50104  0.47652  1.0000
  H   H894      1.0  0.99258  0.39823  0.27190  1.0000
  C   C537      1.0  0.95782  0.33801  0.35375  1.0000
  H   H895      1.0  0.72474  0.07188  0.04632  1.0000
  H   H896      1.0  0.89051  0.48488  0.44277  1.0000
  H   H897      1.0  0.73077  0.22156  0.45074  1.0000
  C   C538      1.0  0.68908  0.01471  0.48307  1.0000
  H   H898      1.0  0.98885  0.31659  0.25251  1.0000
  H   H899      1.0  0.88228  0.44276  0.99647  1.0000
  C   C539      1.0  0.75888  0.13222  0.03483  1.0000
  H   H900      1.0  0.69936  0.17147  0.36790  1.0000
  C   C540      1.0  0.96824  0.32061  0.33127  1.0000
  H   H901      1.0  0.70782  0.42805  0.13584  1.0000
  H   H902      1.0  0.00284  0.49237  0.42839  1.0000
  H   H903      1.0  0.99384  0.40232  0.17532  1.0000
  C   C541      1.0  0.94555  0.32624  0.28027  1.0000
  H   H904      1.0  0.97841  0.43856  0.43056  1.0000
  H   H905      1.0  0.96741  0.35539  0.23702  1.0000
  H   H906      1.0  0.71933  0.17546  0.43950  1.0000
  C   C542      1.0  0.69156  0.43631  0.13163  1.0000
  H   H907      1.0  0.96788  0.48011  0.01567  1.0000
  C   C543      1.0  0.70946  0.22085  0.45758  1.0000
  H   H908      1.0  0.70360  0.21269  0.48321  1.0000
  H   H909      1.0  0.69175  0.43897  0.18373  1.0000
  C   C544      1.0  0.73928  0.49451  0.17299  1.0000
  C   C545      1.0  0.69496  0.49394  0.19629  1.0000
  H   H910      1.0  0.97303  0.47865  0.39903  1.0000
  C   C546      1.0  0.75898  0.49708  0.14319  1.0000
  H   H911      1.0  0.78148  0.30781  0.02930  1.0000
  N   N38       1.0  0.68249  0.17748  0.41426  1.0000
  N   N39       1.0  0.70640  0.48477  0.16677  1.0000
  H   H912      1.0  0.79110  0.08799  0.03907  1.0000
  H   H913      1.0  0.74700  0.20746  0.40141  1.0000
  H   H914      1.0  0.69251  0.13694  0.47799  1.0000
  H   H915      1.0  0.89209  0.48671  0.03194  1.0000
  H   H916      1.0  0.84839  0.33406  0.00814  1.0000
  H   H917      1.0  0.74726  0.01524  0.38445  1.0000
  C   C547      1.0  0.74376  0.07748  0.02918  1.0000
  H   H918      1.0  0.73410  0.05744  0.01246  1.0000
  C   C548      1.0  0.69990  0.48307  0.22992  1.0000
  C   C549      1.0  0.96511  0.44879  0.44023  1.0000
  H   H919      1.0  0.98569  0.37424  0.45554  1.0000
  H   H920      1.0  0.95945  0.48619  0.49200  1.0000
  H   H921      1.0  0.80000  0.12114  0.00215  1.0000
  Fe  Fe79      1.0  0.67688  0.03746  0.39897  1.0000
  C   C550      1.0  0.99741  0.38295  0.17526  1.0000
  H   H922      1.0  0.68923  0.49018  0.24909  1.0000
  C   C551      1.0  0.70362  0.50178  0.13781  1.0000
  H   H923      1.0  0.74996  0.47576  0.12901  1.0000
  C   C552      1.0  0.97775  0.48120  0.42586  1.0000
  H   H924      1.0  0.75224  0.03319  0.34579  1.0000
  H   H925      1.0  0.00448  0.35098  0.04565  1.0000
  C   C553      1.0  0.00619  0.33285  0.17612  1.0000
  C   C554      1.0  0.67820  0.14377  0.46381  1.0000
  C   C555      1.0  0.68737  0.45062  0.16312  1.0000
  H   H926      1.0  0.72430  0.49389  0.23633  1.0000
  C   C556      1.0  0.93197  0.48307  0.43793  1.0000
  C   C557      1.0  0.68206  0.20223  0.43450  1.0000
  H   H927      1.0  0.97799  0.49540  0.24537  1.0000
  H   H928      1.0  0.80714  0.16618  0.02781  1.0000
  H   H929      1.0  0.99329  0.30263  0.05656  1.0000
  C   C558      1.0  0.99959  0.37235  0.43675  1.0000
  H   H930      1.0  0.70279  0.01677  0.29844  1.0000
  H   H931      1.0  0.00395  0.39735  0.09094  1.0000
  S   S156      1.0  0.67586  0.10367  0.35363  1.0000
  H   H932      1.0  0.99780  0.50668  0.48034  1.0000
  Fe  Fe80      1.0  0.94845  0.31904  0.49491  1.0000
  C   C559      1.0  0.99893  0.43416  0.66543  1.0000
  C   C560      1.0  0.83765  0.34262  0.94555  1.0000
  S   S157      1.0  0.69699  0.07229  0.89569  1.0000
  S   S158      1.0  0.98184  0.32557  0.98171  1.0000
  S   S159      1.0  0.70052  0.12662  0.84915  1.0000
  H   H933      1.0  0.96033  0.45715  0.58342  1.0000
  H   H934      1.0  0.86053  0.34575  0.95099  1.0000
  Fe  Fe81      1.0  0.71653  0.12336  0.89978  1.0000
  S   S160      1.0  0.76615  0.15451  0.91525  1.0000
  C   C561      1.0  0.98902  0.37290  0.94232  1.0000
  C   C562      1.0  0.99183  0.47866  0.84372  1.0000
  S   S161      1.0  0.92590  0.28472  0.53543  1.0000
  H   H935      1.0  0.67918  0.09210  0.99030  1.0000
  H   H936      1.0  0.78491  0.13759  0.97607  1.0000
  S   S162      1.0  0.88773  0.31895  0.55008  1.0000
  H   H937      1.0  0.94656  0.49440  0.93474  1.0000
  Fe  Fe82      1.0  0.93319  0.32525  0.56555  1.0000
  S   S163      1.0  0.94446  0.33589  0.62026  1.0000
  Fe  Fe83      1.0  0.88248  0.28118  0.51636  1.0000
  H   H938      1.0  0.83590  0.29276  0.97345  1.0000
  S   S164      1.0  0.95881  0.35975  0.52617  1.0000
  H   H939      1.0  0.78453  0.27397  0.92210  1.0000
  C   C563      1.0  0.78370  0.18379  0.94541  1.0000
  C   C564      1.0  0.76710  0.18861  0.96959  1.0000
  H   H940      1.0  0.75857  0.09071  0.94282  1.0000
  H   H941      1.0  0.84647  0.38683  0.96661  1.0000
  C   C565      1.0  0.83074  0.22265  0.97173  1.0000
  C   C566      1.0  0.81558  0.20108  0.94663  1.0000
  H   H942      1.0  0.82442  0.28682  0.91491  1.0000
  H   H943      1.0  0.85526  0.23553  0.97236  1.0000
  H   H944      1.0  0.76591  0.29375  0.97338  1.0000
  H   H945      1.0  0.82873  0.19753  0.92817  1.0000
  C   C567      1.0  0.93220  0.47142  0.55872  1.0000
  C   C568      1.0  0.94388  0.45188  0.56423  1.0000
  C   C569      1.0  0.93458  0.42575  0.54481  1.0000
  C   C570      1.0  0.91342  0.41900  0.51972  1.0000
  Fe  Fe84      1.0  0.91318  0.35100  0.50908  1.0000
  C   C571      1.0  0.91037  0.46416  0.53431  1.0000
  H   H946      1.0  0.79571  0.36156  0.98542  1.0000
  S   S165      1.0  0.94601  0.50501  0.58223  1.0000
  H   H947      1.0  0.83196  0.33338  0.92028  1.0000
  H   H948      1.0  0.90058  0.47858  0.53056  1.0000
  S   S166      1.0  0.90243  0.32246  0.98915  1.0000
  C   C572      1.0  0.96893  0.43247  0.65508  1.0000
  H   H949      1.0  0.99737  0.50187  0.94765  1.0000
  C   C573      1.0  0.99749  0.35100  0.94853  1.0000
  H   H950      1.0  0.99194  0.41142  0.67627  1.0000
  C   C574      1.0  0.97690  0.35123  0.67788  1.0000
  C   C575      1.0  0.97569  0.34170  0.64527  1.0000
  H   H951      1.0  0.97230  0.45315  0.64223  1.0000
  H   H952      1.0  0.95878  0.35441  0.68717  1.0000
  H   H953      1.0  0.76583  0.34716  0.95624  1.0000
  S   S167      1.0  0.83765  0.23503  0.51504  1.0000
  H   H954      1.0  0.71907  0.08193  0.97321  1.0000
  H   H955      1.0  0.98846  0.49510  0.85849  1.0000
  H   H956      1.0  0.97256  0.37424  0.95788  1.0000
  H   H957      1.0  0.86028  0.38874  0.92640  1.0000
  H   H958      1.0  0.97256  0.45553  0.84915  1.0000
  H   H959      1.0  0.79701  0.10104  0.94898  1.0000
  H   H960      1.0  0.90130  0.49942  0.94937  1.0000
  H   H961      1.0  0.80075  0.25155  0.93459  1.0000
  H   H962      1.0  0.94402  0.41105  0.54894  1.0000
  C   C576      1.0  0.78349  0.31601  0.96298  1.0000
  S   S168      1.0  0.68200  0.04955  0.80283  1.0000
  C   C577      1.0  0.84102  0.37456  0.94298  1.0000
  H   H963      1.0  0.74259  0.17565  0.96902  1.0000
  N   N40       1.0  0.85969  0.23383  0.61763  1.0000
  C   C578      1.0  0.89187  0.25942  0.62280  1.0000
  C   C579      1.0  0.84174  0.24816  0.60522  1.0000
  C   C580      1.0  0.86043  0.21310  0.59155  1.0000
  C   C581      1.0  0.84789  0.21706  0.64962  1.0000
  C   C582      1.0  0.91559  0.24999  0.63138  1.0000
  C   C583      1.0  0.84190  0.27285  0.62751  1.0000
  C   C584      1.0  0.82980  0.18571  0.58121  1.0000
  C   C585      1.0  0.81304  0.19897  0.65416  1.0000
  H   H964      1.0  0.90022  0.27413  0.60065  1.0000
  H   H965      1.0  0.89310  0.27477  0.64299  1.0000
  H   H966      1.0  0.81772  0.23115  0.60039  1.0000
  H   H967      1.0  0.85048  0.25895  0.58093  1.0000
  H   H968      1.0  0.87149  0.22644  0.56898  1.0000
  H   H969      1.0  0.87434  0.20293  0.59952  1.0000
  H   H970      1.0  0.85653  0.20098  0.65373  1.0000
  H   H971      1.0  0.85682  0.23354  0.67041  1.0000
  H   H972      1.0  0.90819  0.23339  0.65180  1.0000
  H   H973      1.0  0.92153  0.24091  0.60965  1.0000
  H   H974      1.0  0.93689  0.27061  0.63927  1.0000
  H   H975      1.0  0.83682  0.26539  0.65334  1.0000
  H   H976      1.0  0.86396  0.29449  0.62611  1.0000
  H   H977      1.0  0.82436  0.27816  0.61878  1.0000
  H   H978      1.0  0.82000  0.16846  0.60098  1.0000
  H   H979      1.0  0.83369  0.17430  0.56005  1.0000
  H   H980      1.0  0.81331  0.19241  0.57263  1.0000
  H   H981      1.0  0.80687  0.17809  0.66869  1.0000
  H   H982      1.0  0.79957  0.19126  0.63140  1.0000
  H   H983      1.0  0.80545  0.21227  0.66907  1.0000
  C   C586      1.0  0.00136  0.35684  0.69866  1.0000
  H   H984      1.0  0.71726  0.01034  0.87833  1.0000
  H   H985      1.0  0.95531  0.42986  0.67730  1.0000
  H   H986      1.0  0.75886  0.33053  0.99578  1.0000
  H   H987      1.0  0.78323  0.17614  0.51207  1.0000
  H   H988      1.0  0.70400  0.02910  0.53271  1.0000
  C   C587      1.0  0.77504  0.09265  0.96184  1.0000
  C   C588      1.0  0.81370  0.29058  0.96651  1.0000
  C   C589      1.0  0.68842  0.01051  0.51715  1.0000
  C   C590      1.0  0.80532  0.27536  0.93240  1.0000
  H   H989      1.0  0.79684  0.27350  0.98368  1.0000
  Fe  Fe85      1.0  0.67762  0.07516  0.84684  1.0000
  H   H990      1.0  0.95499  0.41206  0.63962  1.0000
  C   C591      1.0  0.94562  0.50432  0.95877  1.0000
  C   C592      1.0  0.77619  0.34036  0.97613  1.0000
  H   H991      1.0  0.82059  0.37346  0.93194  1.0000
  C   C593      1.0  0.99908  0.33723  0.63384  1.0000
  H   H992      1.0  0.77909  0.31404  0.93612  1.0000
  C   C594      1.0  0.90107  0.43806  0.51482  1.0000
  H   H993      1.0  0.99847  0.32974  0.60892  1.0000
  N   N41       1.0  0.81475  0.32086  0.96984  1.0000
  H   H994      1.0  0.76855  0.06992  0.97206  1.0000
  H   H995      1.0  0.00186  0.36415  0.72364  1.0000
  H   H996      1.0  0.99492  0.40973  0.91096  1.0000
  H   H997      1.0  0.68760  0.02024  0.74531  1.0000
  H   H998      1.0  0.73203  0.12153  0.97403  1.0000
  H   H999      1.0  0.99053  0.48290  0.81730  1.0000
  H   H1000     1.0  0.67863  0.03510  0.95744  1.0000
  H   H1001     1.0  0.93325  0.48465  0.97544  1.0000
  H   H1002     1.0  0.95998  0.45911  0.97790  1.0000
  H   H1003     1.0  0.69099  0.01697  0.85650  1.0000
  C   C595      1.0  0.97805  0.47785  0.99263  1.0000
  H   H1004     1.0  0.99363  0.40117  0.61118  1.0000
  H   H1005     1.0  0.99111  0.43304  0.59870  1.0000
  C   C596      1.0  0.00171  0.39297  0.91575  1.0000
  C   C597      1.0  0.72577  0.10144  0.99008  1.0000
  S   S169      1.0  0.67539  0.11897  0.92485  1.0000
  C   C598      1.0  0.77908  0.11587  0.98862  1.0000
  H   H1006     1.0  0.88420  0.43257  0.49592  1.0000
  C   C599      1.0  0.78227  0.20964  0.99518  1.0000
  C   C600      1.0  0.00755  0.42632  0.60743  1.0000
  Fe  Fe86      1.0  0.88141  0.57907  0.07061  1.0000
  S   S170      1.0  0.90783  0.57453  0.11225  1.0000
  S   S171      1.0  0.83474  0.57591  0.07367  1.0000
  C   C601      1.0  0.69555  0.71801  0.08697  1.0000
  S   S172      1.0  0.96217  0.58862  0.05864  1.0000
  S   S173      1.0  0.95094  0.58950  0.45501  1.0000
  Fe  Fe87      1.0  0.91970  0.54781  0.07694  1.0000
  Fe  Fe88      1.0  0.94807  0.61539  0.09047  1.0000
  S   S174      1.0  0.98075  0.65421  0.12299  1.0000
  S   S175      1.0  0.89022  0.54894  0.03675  1.0000
  S   S176      1.0  0.92124  0.62210  0.05068  1.0000
  C   C602      1.0  0.97488  0.53767  0.00468  1.0000
  C   C603      1.0  0.89282  0.63418  0.18831  1.0000
  S   S177      1.0  0.70268  0.61648  0.21931  1.0000
  Fe  Fe89      1.0  0.93232  0.59175  0.02026  1.0000
  Fe  Fe90      1.0  0.71048  0.57851  0.20140  1.0000
  S   S178      1.0  0.75648  0.58060  0.19414  1.0000
  H   H1007     1.0  0.98480  0.66543  0.47131  1.0000
  H   H1008     1.0  0.87038  0.68040  0.09416  1.0000
  C   C604      1.0  0.71367  0.95529  0.31216  1.0000
  C   C605      1.0  0.81298  0.57658  0.10750  1.0000
  C   C606      1.0  0.78767  0.58019  0.10157  1.0000
  C   C607      1.0  0.77011  0.58150  0.12761  1.0000
  C   C608      1.0  0.77771  0.57932  0.16005  1.0000
  C   C609      1.0  0.80297  0.57562  0.16596  1.0000
  C   C610      1.0  0.82026  0.57387  0.13991  1.0000
  H   H1009     1.0  0.78173  0.58222  0.07661  1.0000
  H   H1010     1.0  0.75088  0.58448  0.12257  1.0000
  H   H1011     1.0  0.80901  0.57374  0.19091  1.0000
  H   H1012     1.0  0.83931  0.57058  0.14487  1.0000
  H   H1013     1.0  0.67527  0.76911  0.11184  1.0000
  H   H1014     1.0  0.96603  0.60207  0.38676  1.0000
  C   C611      1.0  0.98731  0.51851  0.25606  1.0000
  H   H1015     1.0  0.71321  0.74240  0.08596  1.0000
  H   H1016     1.0  0.00179  0.52616  0.03833  1.0000
  C   C612      1.0  0.86381  0.67739  0.16716  1.0000
  H   H1017     1.0  0.86158  0.69414  0.18273  1.0000
  H   H1018     1.0  0.71548  0.94498  0.33559  1.0000
  C   C613      1.0  0.89727  0.69132  0.15634  1.0000
  H   H1019     1.0  0.69251  0.77043  0.07433  1.0000
  S   S179      1.0  0.68222  0.54726  0.24230  1.0000
  H   H1020     1.0  0.68270  0.97643  0.25130  1.0000
  H   H1021     1.0  0.88651  0.63010  0.10810  1.0000
  C   C614      1.0  0.93238  0.68956  0.11619  1.0000
  H   H1022     1.0  0.85985  0.63333  0.13247  1.0000
  H   H1023     1.0  0.70434  0.70655  0.10327  1.0000
  H   H1024     1.0  0.97208  0.54571  0.43299  1.0000
  H   H1025     1.0  0.70138  0.97174  0.37070  1.0000
  H   H1026     1.0  0.90185  0.62108  0.20132  1.0000
  H   H1027     1.0  0.97272  0.52759  0.24706  1.0000
  H   H1028     1.0  0.98514  0.51707  0.28308  1.0000
  H   H1029     1.0  0.97768  0.72915  0.11357  1.0000
  H   H1030     1.0  0.88686  0.66411  0.06734  1.0000
  H   H1031     1.0  0.92635  0.70190  0.09782  1.0000
  H   H1032     1.0  0.68853  0.62919  0.11274  1.0000
  H   H1033     1.0  0.84841  0.67256  0.14595  1.0000
  H   H1034     1.0  0.98545  0.59978  0.12842  1.0000
  H   H1035     1.0  0.85539  0.65628  0.18173  1.0000
  H   H1036     1.0  0.69805  0.00323  0.35693  1.0000
  N   N42       1.0  0.70029  0.97568  0.31779  1.0000
  H   H1037     1.0  0.69224  0.70702  0.06264  1.0000
  H   H1038     1.0  0.88975  0.64820  0.20711  1.0000
  C   C615      1.0  0.88053  0.64701  0.11781  1.0000
  C   C616      1.0  0.91595  0.65440  0.16227  1.0000
  H   H1039     1.0  0.93846  0.67467  0.10179  1.0000
  H   H1040     1.0  0.91159  0.70110  0.17860  1.0000
  H   H1041     1.0  0.71060  0.91735  0.28393  1.0000
  H   H1042     1.0  0.90198  0.71140  0.14093  1.0000
  C   C617      1.0  0.98717  0.61190  0.40022  1.0000
  N   N43       1.0  0.90594  0.67059  0.13858  1.0000
  S   S180      1.0  0.92435  0.50777  0.09415  1.0000
  H   H1043     1.0  0.69153  0.74491  0.03190  1.0000
  H   H1044     1.0  0.87076  0.61722  0.17774  1.0000
  H   H1045     1.0  0.93626  0.67083  0.17639  1.0000
  H   H1046     1.0  0.69318  0.64129  0.05324  1.0000
  C   C618      1.0  0.70675  0.99264  0.25700  1.0000
  H   H1047     1.0  0.76270  0.51614  0.12684  1.0000
  C   C619      1.0  0.97853  0.52976  0.42191  1.0000
  H   H1048     1.0  0.84825  0.64190  0.07970  1.0000
  H   H1049     1.0  0.70579  0.51921  0.19776  1.0000
  H   H1050     1.0  0.92282  0.63972  0.14868  1.0000
  H   H1051     1.0  0.95737  0.72939  0.14914  1.0000
  C   C620      1.0  0.87117  0.65947  0.08820  1.0000
  C   C621      1.0  0.96163  0.71445  0.13283  1.0000
  H   H1052     1.0  0.99966  0.55582  0.48371  1.0000
  H   H1053     1.0  0.71592  0.52677  0.14283  1.0000
  C   C622      1.0  0.98654  0.60893  0.43452  1.0000
  H   H1054     1.0  0.97352  0.70460  0.14655  1.0000
  H   H1055     1.0  0.75108  0.51741  0.18488  1.0000
  H   H1056     1.0  0.95416  0.52076  0.01793  1.0000
  H   H1057     1.0  0.95951  0.53786  0.49034  1.0000
  H   H1058     1.0  0.97206  0.55801  0.00165  1.0000
  H   H1059     1.0  0.73742  0.96894  0.30315  1.0000
  C   C623      1.0  0.00129  0.54648  0.02901  1.0000
  C   C624      1.0  0.70928  0.98969  0.35146  1.0000
  H   H1060     1.0  0.72137  0.98353  0.24854  1.0000
  C   C625      1.0  0.69658  0.92821  0.28827  1.0000
  C   C626      1.0  0.71232  0.00153  0.29339  1.0000
  H   H1061     1.0  0.99777  0.55744  0.05080  1.0000
  H   H1062     1.0  0.92279  0.52172  0.43799  1.0000
  H   H1063     1.0  0.96839  0.52518  0.39690  1.0000
  C   C627      1.0  0.00091  0.64384  0.15028  1.0000
  C   C628      1.0  0.99948  0.61566  0.14719  1.0000
  C   C629      1.0  0.97952  0.53501  0.49305  1.0000
  H   H1064     1.0  0.75705  0.00005  0.35002  1.0000
  H   H1065     1.0  0.69206  0.93492  0.26410  1.0000
  H   H1066     1.0  0.67460  0.80515  0.06892  1.0000
  H   H1067     1.0  0.68316  0.58387  0.99615  1.0000
  H   H1068     1.0  0.67480  0.91028  0.29863  1.0000
  Fe  Fe91      1.0  0.89134  0.56660  0.56380  1.0000
  S   S181      1.0  0.92204  0.56601  0.60307  1.0000
  S   S182      1.0  0.84156  0.55204  0.57499  1.0000
  C   C630      1.0  0.72245  0.62913  0.53816  1.0000
  S   S183      1.0  0.97471  0.58513  0.54641  1.0000
  S   S184      1.0  0.94303  0.59508  0.96552  1.0000
  Fe  Fe92      1.0  0.93583  0.54197  0.56657  1.0000
  Fe  Fe93      1.0  0.95788  0.60882  0.57926  1.0000
  H   H1069     1.0  0.68259  0.65207  0.70327  1.0000
  H   H1070     1.0  0.73796  0.63588  0.51684  1.0000
  S   S185      1.0  0.92675  0.61117  0.54162  1.0000
  S   S186      1.0  0.71178  0.57154  0.74827  1.0000
  H   H1071     1.0  0.68997  0.67362  0.82086  1.0000
  S   S187      1.0  0.70981  0.60912  0.68462  1.0000
  H   H1072     1.0  0.91880  0.63904  0.76887  1.0000
  Fe  Fe94      1.0  0.72859  0.57802  0.69594  1.0000
  S   S188      1.0  0.77824  0.59544  0.68135  1.0000
  H   H1073     1.0  0.77389  0.63057  0.54370  1.0000
  H   H1074     1.0  0.85743  0.56578  0.68755  1.0000
  C   C631      1.0  0.99254  0.55112  0.94710  1.0000
  C   C632      1.0  0.82473  0.56396  0.60568  1.0000
  C   C633      1.0  0.84114  0.59161  0.62248  1.0000
  C   C634      1.0  0.82665  0.60057  0.64582  1.0000
  C   C635      1.0  0.79544  0.58228  0.65243  1.0000
  C   C636      1.0  0.77896  0.55469  0.63552  1.0000
  C   C637      1.0  0.79353  0.54564  0.61234  1.0000
  H   H1075     1.0  0.86485  0.60637  0.61689  1.0000
  H   H1076     1.0  0.83960  0.62210  0.65846  1.0000
  H   H1077     1.0  0.75502  0.54023  0.64039  1.0000
  H   H1078     1.0  0.69672  0.66737  0.59584  1.0000
  C   C638      1.0  0.97863  0.61670  0.94565  1.0000
  H   H1079     1.0  0.86234  0.53430  0.67684  1.0000
  C   C639      1.0  0.98039  0.61324  0.91165  1.0000
  H   H1080     1.0  0.87644  0.56598  0.64998  1.0000
  H   H1081     1.0  0.96003  0.59815  0.89815  1.0000
  C   C640      1.0  0.73966  0.60034  0.60118  1.0000
  C   C641      1.0  0.90406  0.57342  0.69453  1.0000
  H   H1082     1.0  0.91900  0.56739  0.68024  1.0000
  C   C642      1.0  0.67661  0.64559  0.59115  1.0000
  S   S189      1.0  0.90256  0.53897  0.52862  1.0000
  H   H1083     1.0  0.70649  0.87209  0.57222  1.0000
  S   S190      1.0  0.68732  0.53543  0.67786  1.0000
  H   H1084     1.0  0.75020  0.58932  0.61549  1.0000
  H   H1085     1.0  0.88165  0.61441  0.70816  1.0000
  C   C643      1.0  0.00565  0.64085  0.64216  1.0000
  H   H1086     1.0  0.70209  0.94126  0.57728  1.0000
  C   C644      1.0  0.76473  0.60573  0.54656  1.0000
  H   H1087     1.0  0.79574  0.60926  0.58654  1.0000
  C   C645      1.0  0.87339  0.55958  0.67623  1.0000
  C   C646      1.0  0.94195  0.65812  0.66828  1.0000
  H   H1088     1.0  0.90286  0.61631  0.65608  1.0000
  H   H1089     1.0  0.93778  0.66199  0.73343  1.0000
  H   H1090     1.0  0.71726  0.59165  0.61321  1.0000
  C   C647      1.0  0.91584  0.64395  0.74304  1.0000
  H   H1091     1.0  0.69360  0.98290  0.84884  1.0000
  H   H1092     1.0  0.74758  0.92951  0.53862  1.0000
  C   C648      1.0  0.75776  0.63484  0.60886  1.0000
  C   C649      1.0  0.94939  0.59998  0.74833  1.0000
  C   C650      1.0  0.69699  0.67131  0.92807  1.0000
  H   H1093     1.0  0.92344  0.52951  0.97728  1.0000
  C   C651      1.0  0.95027  0.61625  0.71607  1.0000
  H   H1094     1.0  0.71008  0.67581  0.95114  1.0000
  H   H1095     1.0  0.68867  0.62124  0.62561  1.0000
  H   H1096     1.0  0.69123  0.90692  0.50342  1.0000
  N   N44       1.0  0.68370  0.89634  0.55526  1.0000
  Fe  Fe95      1.0  0.68931  0.59877  0.73527  1.0000
  C   C652      1.0  0.70983  0.92511  0.56946  1.0000
  N   N45       1.0  0.91989  0.60738  0.70096  1.0000
  H   H1097     1.0  0.71892  0.92004  0.59191  1.0000
  C   C653      1.0  0.69742  0.64587  0.90761  1.0000
  H   H1098     1.0  0.94399  0.57616  0.74377  1.0000
  H   H1099     1.0  0.98317  0.53386  0.51972  1.0000
  C   C654      1.0  0.69180  0.53610  0.57911  1.0000
  C   C655      1.0  0.67559  0.59355  0.86139  1.0000
  H   H1100     1.0  0.70802  0.69292  0.91386  1.0000
  H   H1101     1.0  0.69020  0.64822  0.88260  1.0000
  H   H1102     1.0  0.92863  0.66720  0.68035  1.0000
  C   C656      1.0  0.79071  0.60182  0.56067  1.0000
  C   C657      1.0  0.71219  0.59623  0.54921  1.0000
  H   H1103     1.0  0.93729  0.61575  0.65155  1.0000
  H   H1104     1.0  0.72344  0.54879  0.53925  1.0000
  C   C658      1.0  0.90002  0.61409  0.72278  1.0000
  C   C659      1.0  0.92481  0.62302  0.66826  1.0000
  N   N46       1.0  0.73553  0.59061  0.56573  1.0000
  C   C660      1.0  0.72384  0.55664  0.56485  1.0000
  H   H1105     1.0  0.76060  0.59692  0.52095  1.0000
  H   H1106     1.0  0.77517  0.64884  0.59066  1.0000
  C   C661      1.0  0.68746  0.66983  0.68475  1.0000
  H   H1107     1.0  0.70470  0.69189  0.69562  1.0000
  H   H1108     1.0  0.69222  0.58910  0.56538  1.0000
  C   C662      1.0  0.92471  0.51807  0.95468  1.0000
  H   H1109     1.0  0.78054  0.52426  0.59944  1.0000
  H   H1110     1.0  0.67480  0.57382  0.84853  1.0000
  H   H1111     1.0  0.99242  0.54186  0.92232  1.0000
  H   H1112     1.0  0.73915  0.55083  0.57867  1.0000
  H   H1113     1.0  0.74235  0.64418  0.61239  1.0000
  H   H1114     1.0  0.77056  0.63832  0.63207  1.0000
  H   H1115     1.0  0.70794  0.59942  0.89871  1.0000
  H   H1116     1.0  0.68761  0.62895  0.97055  1.0000
  S   S191      1.0  0.69084  0.63533  0.76950  1.0000
  C   C663      1.0  0.73732  0.94323  0.54669  1.0000
  N   N47       1.0  0.97717  0.52557  0.97160  1.0000
  H   H1117     1.0  0.70223  0.63029  0.52989  1.0000
  H   H1118     1.0  0.97996  0.56363  0.94445  1.0000
  H   H1119     1.0  0.88821  0.59535  0.74095  1.0000
  H   H1120     1.0  0.98596  0.59352  0.62877  1.0000
  H   H1121     1.0  0.90073  0.65392  0.74406  1.0000
  H   H1122     1.0  0.89916  0.56048  0.71788  1.0000
  H   H1123     1.0  0.67705  0.96451  0.90418  1.0000
  H   H1124     1.0  0.97234  0.61184  0.75969  1.0000
  H   H1125     1.0  0.78597  0.57800  0.55827  1.0000
  H   H1126     1.0  0.96503  0.66815  0.67884  1.0000
  C   C664      1.0  0.68360  0.59315  0.89777  1.0000
  H   H1127     1.0  0.72157  0.65175  0.90530  1.0000
  C   C665      1.0  0.69403  0.99880  0.86777  1.0000
  H   H1128     1.0  0.69021  0.54160  0.60498  1.0000
  H   H1129     1.0  0.71356  0.61909  0.95348  1.0000
  H   H1130     1.0  0.69808  0.66511  0.66351  1.0000
  H   H1131     1.0  0.69494  0.00607  0.99329  1.0000
  S   S192      1.0  0.99020  0.65019  0.60855  1.0000
  H   H1132     1.0  0.68132  0.89540  0.62719  1.0000
  H   H1133     1.0  0.00381  0.57949  0.67867  1.0000
  H   H1134     1.0  0.81174  0.61618  0.54649  1.0000
  H   H1135     1.0  0.96405  0.61148  0.69860  1.0000
  H   H1136     1.0  0.96415  0.64102  0.72075  1.0000
  C   C666      1.0  0.00515  0.63625  0.96280  1.0000
  H   H1137     1.0  0.94507  0.66609  0.64247  1.0000
  H   H1138     1.0  0.70323  0.58191  0.52674  1.0000
  H   H1139     1.0  0.73299  0.64602  0.55800  1.0000
  Fe  Fe96      1.0  0.94100  0.58372  0.51011  1.0000
  H   H1140     1.0  0.68657  0.51199  0.57856  1.0000
  H   H1141     1.0  0.93321  0.60020  0.76624  1.0000
  C   C667      1.0  0.99382  0.50790  0.97285  1.0000
  H   H1142     1.0  0.69322  0.61437  0.84887  1.0000
  H   H1143     1.0  0.98923  0.64730  0.50641  1.0000
  H   H1144     1.0  0.00420  0.63908  0.98894  1.0000
  N   N48       1.0  0.67807  0.61364  0.92008  1.0000
  C   C668      1.0  0.68911  0.61237  0.95404  1.0000
  H   H1145     1.0  0.75509  0.96312  0.56041  1.0000
  H   H1146     1.0  0.71153  0.88130  0.53067  1.0000
  H   H1147     1.0  0.93153  0.53413  0.93374  1.0000
  H   H1148     1.0  0.98350  0.67982  0.51065  1.0000
  H   H1149     1.0  0.67670  0.82440  0.55060  1.0000
  C   C669      1.0  0.99926  0.61084  0.64668  1.0000
  C   C670      1.0  0.69416  0.87350  0.55032  1.0000
  H   H1150     1.0  0.73146  0.95264  0.52513  1.0000
  H   H1151     1.0  0.67646  0.99810  0.91576  1.0000
  C   C671      1.0  0.67507  0.90464  0.52304  1.0000
  H   H1152     1.0  0.67683  0.92742  0.52488  1.0000
  C   C672      1.0  0.99487  0.66984  0.49628  1.0000
