data_image0
_chemical_formula_structural       HSH2SCFeHFeSHSFeS2FeS2FeSFeS3H3C7H4CH2C2H2CHC6H4CHC4H5CHC3H6C2HCH2CHCH5CHCHC4HCSCFeH5NH4CH3CH2CH2C2H2CH2CH2CHC2H6CH3CNHC2H2C3H2SHC3FeHNC2H4NCH4C3H2CNHCH3CH5C2H4C2HCH2NCHCSH5CHCH2CHSH2CSH2CHSCH2SH3CH2CSH2CSCFeS2HCHFeSFeS3FeSFeS2FeS2HSFeS2FeS2FeSFeS3FeS2FeS2FeSFeS3C7H3C6H4C6H3C7H4C6H4C6H6C2HNHC7H4CHCHCHCH3C3HCHNC2HC2H9CHNCHC5H3CH8CHC2H3CHC2H4NH2CN2C5HC2HCH2SH3NH9NC6H15SC2H3CHCHCH4CH3CH4CHNC8H19CH4C3H8C2H5FeH2C3SH7CHNHCH2C2HFeCHCHCH3SH2CHCHSNH4CHC4H6C2H4CHNH3CHCH2CHC2H3CH4C2H4CHC2H3NHC3HCHC2H4CNH4CH4NHCSHSH4SCHCH4CH2CH2SH4C2H3C2H2CFeH3SHCHCH2C2H9CH5SH3CHCH4CH3CH2CH3FeH3CH2FeCHSCH5C2NH2C2H3C2HFeS2FeS2FeSFeS3H5CHSH2CH2SHCHNFeH8NFeS2FeH2FeSHSCFeS2FeS2HFe2S4C6H4C6H4CH2C6HSH2CHCHCH6C6H4C6H4C6H7NCH2C3HFeH5C6H6CHCH4CH2CS2H5CH2C2HCHC2HC2HS2HSH2CH2FeC5H2CH7CN2C8H21CH3CHSC2H7NCH2CH3C3HCH3SCFeCH8CHCH3SH2C2HCH2CH2C2FeCHSCHCHCH3C2NH2CH4C2H2C2H2CHC2H2CSNHC2HC2H6CH2CH2SHSHSCH3CH7SCFeH5CNSHFeH2SH2CH4C3H2CHC2H13CH3C2H6CH5CFeS2H3FeHFeS4HFeS2FeSFeSFeS3C7H4C2NH2C6H4SCH3CH3NH5CNH4CNHSHC6H5CHC3H3SH3C2H6CH2CH3C2NC6H2SH13CH2CH6NSCFeHCH2C2HCH5CSHCHCHCHC2SC2HCH5C7H2C2HCH4CH4CHC2H3CH3CH2CH4CH3C2HC2H4C2H9CH2C2HCHCH5CH3CFeH3CHSHCHNH4CSCFeS2FeSFeSFeCS2H3CH3SHSCH2FeCHCH3SHC3HCSH2CHC2SHC2H4SH2C6HCH3FeCFeC4H3NHNC2HCH5CH2CHSH3C2HCH2CH2C2H3CHSHCH3SH3CHCHCHCH5CH2C2HNHCH6FeS2FeS2FeSFeS2CHCSHFeSFeS2FeSFeS3CH2SCHSCHCH3CH2CH2SC2H4FeS2FeS2FeSFeS3C6H4C6H5CFeH2CHSHC2H2FeCHNC6H4C6H5CH2C6H7C7H4C4HCH5C6H6CHC4H5C3H2CH3C2H5FeHCHCHC3H3CHCH2SHCHSH2SFeCHCH9SC3H8NCHC4H16CH7SC2SH3CH7CH3SHNHCSNC2HC4H5SH4FeH3SHCH4NC5HC2H8CH3CH2FeN2CH2CH5CH2CHC2H2FeCHCHSH6CHC2HCSNH3CHCH3CHCHCNH7NCHSNC8H7CH13CH3CH3CHCH6C2H5C3H10SH2CH2CH2CSH2CHCHSH4CNCH2C2SCNH2C3HNC2H4C2HC4SCH4CH4CH5CH5CH6CHCHC2HSHCS2HFeH5FeHC2HCH2CHCNHCHC3FeHCHCHCHCNH2CH2CHSHFeS2H3FeSFeS3H2CH4C2H3FeH4FeSHSCH3SH5S2CFeH3C2Fe2C6H2CHC3HC2HC2HC6HSCHC2HC3H3C3FeSCHC7HSHSHCHSCH4CHCH2CSH2SH8CH2CHFeH3NHSCH4SCSH4C3NC4HCHCH4SHCHFeH3SHCS2CSCH3FeH2C5FeH2FeHCHCH3CHNC4H10NC8H14SHFeH4FeSHCH2FeHSHFeH2CSCHC3HSCHSH3N2H4C3HSHCHCHFeH2CH3C4H2CFeHSH7SHCH2NHSHC3H2CH5SH3CH3FeH5FeS2FeS2FeSFeS3CHSH5CNSHCH2FeH2NHNH2CHC6H4C6H4CH2C4H3CHNH2CH4CH4FeNC2HC5H4SHC5H2SC2H3CH7CH2CHSCFeCSC2H2NH2CH8SHCHCH2CH4SH3CH2SHCH2C2HC3H2CHC2H3FeH4CH9CSH3C2SFeHSHSHFeH3SH2FeCSFeS2FeHSFeHSCH2FeS2FeCHFeSFeS3HC4HFeS2HSFeSFeS3HC3H2C2H6C6H2C6H4C3HC2H2CHC3HSH4SH2NHC6H5SH2NC3H11SH2C5SH2C2H2CHC2HCH2CHCHC3SHCHC2H2SCH2SCNCH2CSFeC2H3NCH2SCHCSHCHCHC2H5CHCSHCHSHCH3CH2C2FeH3FeH2CH2CH6C3HSH2NFe2C2H2CH2CH3CHCH4CH2CH2CH2C2H2CHSC2NC2H3FeH2CH2C2HSH2FeH3CSFeHNSCHNC2H2FeCSCHCH3CH4SC3FeCFeH5SHC2H3CHSH2CHCH6SH2CSH3C2HSCSHFeC3H2SH2CHC2HCH2CH6CH2CH2SFeCSHS2HSH2SCHS2HFeSH2CHSHFeC2HC2FeHFeCSHC3FeCH2C2H3CSHSH2NC2HCHCH3NC2HCHCHCH8FeCH5FeH4C2SCNFeSHCH2C2HC3HCFeCHSHFeCH2SH2CH4SH2SH4CSC2HCH3CH4CH7FeS2FeSHFeSFeS3FeS2FeSHFeHFeS3HC2SC2HNHCHCHC2HC2HCH6FeHFeCFeNH4NH4CHNH2NHSH7C6H4S2HC2H6C6H4C6H4SCH9CH2CFeSC3H2CNH5CHC3H3CHCSHCHCH4CHSH7SC2H2CHCSH2C2H2C2FeH5CH4CHCH6CH2CHCSH2CHCFeS2H2FeCHSH2CHFeS2CH2S3FeSFeSHFeSFeS3CSH7FeS2FeS2FeS2FeSFeS3FeS2FeS2FeSFeS3CH2SC6HCH2C6H4C6H4CH3C6H10CH3SHC6H8C5H2C6H4C6H4NHCFeHC2HC7H5FeHC2H2CH4C2FeCH2CNCH2C2HC2H2SH7CH2NC2HCHCHCSH2SCH3C2H3CFeH4SNC7H18C2HC4H3SH2CSH2CH9CH6NHSH3CHCHNC8H20NC5HCH9CH3CH3CSH2FeHFeH4C2HCH2C2FeHC3H7NC8H18C3H6SCNCH2CHCH3CSH2CHSHCSHC2H6SCHC2HCSH4FeH4CH2CH2CFeCHCH2C2HSCHCFeHNCH2NC2HC2H2CHC2HCSC2HNH2CHC2HSCHC3HSH6CH2FeH5CH2CHFeHC2H2CH3FeH2CSHSH2CHCH7CNC2HCH8NC2HCHCFeC2H5C2FeS2FeHFeS3FeS2CHFeCFeHS2FeH2FeS2FeSCSH2SC2SCFeSFeSH2CHCHSCHFeS2FeSFeSFeS3HC7H6CHC6H5FeHC8H7CH9C6H5C6H4C6H4C4H4FeHC6H6CH3CH2SCH2SH4CHCFeHSC3H4CHCSCSH3C2H2CH3NHSH5CH2NSCHCNC8H21CH3CH2CH2C3H7CNCFeCFeH2CH3CH3CHC3HFeSCH4CHCH2SHSHFeH2CSCH3C2FeH2C2NH3CHC2HSCHCNHCH5FeH2NCH2CHC2HC2H4NHCHSCH2SC2SHSC2NHC2H3C2H5S2FeC2FeH3C3H3FeSHCH2SH2SHSHFeSH6SH2CH3CH3SHCH2C2H5CH2CH2CNSC2NH6C2HSC2HC2H3SH2CHCH4CH2CHCH5C2NH2CH6CSH2C3H4C2H4C2H8CH8CH3C2FeHSFeS2C2FeS3FeS2HFeH2FeCHS2HC2H3CFeCHCHSCH2NH5C6H4C6H5C2HNH2CHC5H12SHCH2CHSFeHCS2HCH2CH3CH2CHCH5SH2CHC2H3C5HCH5CH3SH4CSH2CHCHCH2C2HSFeNCH3C2HSH2CHCH2CHCNCH3FeC3HC2H6CH5CHCH5FeH3C3H2CHNH2CHNCH3C2FeS2FeSCFeSFeS3FeS2FeS2FeSFeHS2H2CHFeS3CH2FeSNH3C2H3CHSH2CHCH2CH2SHC6H4C6H4C6H7CH3CHCH3CH3NH4CHC2HCHCNC2SCHC3H9CH5CH6CHCH2C2H3CHCH10CH4SHCSCNHS2H3C2HC2H6CHNH5C3H2CSCH8NHCH3CHCH7FeH4C2H2SH3C2HC4HCH2C3HCH3CHCH2CHC4HC4H2CHCNHCHCH5CH2C2HC2HNCH2CNFeCH6FeHCH3C3HCH8CH2C2H2CH2CH2C2H3C4HSCHFeHSH2SFeSCHSH2FeSHSFeS2FeS2FeSFeS3FeS2FeS2FeSFeS4FeS2FeS2Fe2S3HFeS2FeS2FeSFeS3FeS2CFeSC2SHC2H4CHC6H4C5HC6H4C6H4C6H2C6H2C6H4C6H4C6H4C6HNH2C3H2CH4CSH4CHSHFeH6CHCH2CHCH3C2SCH2CHCN2C8H20NC7H18CHSHCHCH5CHSHCH6SH2CNC4H4CH6CH3NC7H16CSH5C2FeH2CH3CH2C2HC2HC2HCH4C2HCH2CH8C2H4C4H2CHC3H4C4H4NH7CH2SH2FeH5C3H3SH2CH2C2H2CHCH2NH3C2H2C2H3SCH3CHS3C2HCHCHFeCH10CNHCH4CH3CH2FeNCHC2H4CH5CNH2FeHCH2CH2SFeH6SH3CHCH2CH4C3H2CH6C2HCNHSCH2FeS2FeCFeS3CHFeS2FeS2FeSFeS3C2HCH3CH3CHSH2FeS2FeSCFeSFeS2H8CH3C2HC3H6C2H5C6H5SCH4NH4C4H4NC3FeH3C4H3CHC6H5CH2CHCSNH3C2H6CHCHCHSCH9CSHC2H2SHCH4CHCH2CH5CH2CHCH4C2H5CH3C2HCH2C2NC2H4C3HNCHCHCH5SH3CH2CHCFeHNH4CH2CH2CH2CH3C2NCNHCHCH2NH2CHSH2SHFeSFeH2FeS2FeH2FeSCSFeS2CSFe2SFeS3FeS2FeS2FeSHCS2FeH3FeNHSFeS2FeS2FeSFeS3HC2HSH5C6H5C2FeC3HCH2CH3CH3C8H4C6H4C6H4C5H3FeC6H5SH2SH4SC5H2SH3CHNC8H11CHCH7C2H6C2NC7H16CH4C2H3CHCH8C2H7C2H2CH4C2HCHCH3CH2CHCH4FeCHC2H3CH5C2NH3CH2S2H4NCH2CHC2H2FeC2H4SNH2CHCHCHC2HSCH2CH2C2HC2H2CH4NH2CH4CHC4H3SCHCH11CSH8CSHFeCSCH3FeHFeSH4C2HFeHS3H2SCH2FeHSFeCSFeSHSH4SHC2H5CH4C3H2CH3C4H3C2HC6H4C2H2CSHC3HCHCH2CSCNCHCH2SH3C2H4CHSHNH2FeCHCH2SCH4SHNCHCH5C2NH3CHSH2CH4CHCH3CHSH2C3H4SHC2HC2H2CFeHSHC2HSC4H4CNFeC3HC3HCHSH4CH2C2H2CHFeHC3H2C3H2CFeH2CHC3HCHCH3CSCH2C2FeHSCFeS2FeS2FeSFeS3H2FeS2FeS2FeSFeS3HSHNHCH5CH11CH2C2H2C2HCH2CH2C4H3CHCH3SH3C2H3CHCH2C6H4C6H4C6H3C2H4SCHCHCH3CH2CHCHCHCH6CH6CH5C3HCH5C3HCHC2H3CNH2CH2SH3NC2FeHNSH10FeCH4SCHC3H3CHCHCH2CFeH6CH2CFeC3H5CH2SCHC2H2CNHC2HC2H2CH2CH3C2H2CH4CHNHC4HC2NHCH4CHCH4CH3SCH2CH3CH3SHNH3SCH5CSH2FeS2FeS2CNFeCSC4FeH2C2H3CHFe2HCHFe2HSFeHSH4S2HCH3NCH2C6H5SCHCH3C2HCHC2H3C2H2C2H5SH2SH4FeHSH2C6H4C6H2SHNH4C2H2SH8CH5CH3SCHCFeH3C2H3CHCH4C2H2CH8CH2C2SHC5H4CHNFeS2CFeSHSHFeSFeSHS2CSCHSH2CFeCHFeS2FeSFeS5FeS2FeSNFeSFeS3C6H4C6H4C6H4C6H5SHSH2CH5C2HNC4SHC8H2SCHC2H2CHCHC2HSH8FeCH8CH2CH2SH2NCH6CHCH2CFeNC4HC2HCHSH6CHCH4CH3NC8H20NC7H16C2H9C6HNCFeHCH2SCHCH3SC2H2CH8C2H4CFeH7SFeHSNC2HC2HSC3HFeH2C2HFeHC2H6CHCH2CHCH7CH2C2HC3HC2H3FeSH3CH3CSHCHCH8CH2C2HCHCHSCH2SHCH3NC3H3FeCSCH2NHCH6CH2C2NH3CH6FeH2SH2C2H2SCH2CHC2H3CSH2SHSCH2SFe2SHC2FeSCHS2FeHSHCH2CHSH6CFeHCH3C4FeCH3FeC5H4SHCSH2CH3CH3FeCHC2SHCNHC2HC3H2CH2FeHS2CHCHCH4CHNSHC3HFeCHC2HCH2C2S2HCH3SCFeC4H5CHCH2SHCH6C2H5SH3C2H3FeS2HCFeHFeS4FeS2FeS2Fe2S3C6H4C6H2FeHC6H4C6H6C3H2CHCHCHCHCH2C2H2NCH3CH4CH2CHCH2CNHC2H6NCH2CH10CH6CHC2NC2H3SHCH6CH2CH2FeH2C2H18C2HCHSH3CHC3SC2HC4HCH11CH10NHCH4CHCHC2NCH6SHCHCH3
_chemical_formula_sum              "H4608 S768 C2688 Fe384 N192"
_cell_length_a       82.0558
_cell_length_b       82.0749
_cell_length_c       81.9006
_cell_angle_alpha    73.5059
_cell_angle_beta     74.0504
_cell_angle_gamma    73.4725

_space_group_name_H-M_alt    "P 1"
_space_group_IT_number       1

loop_
  _space_group_symop_operation_xyz
  'x, y, z'

loop_
  _atom_site_type_symbol
  _atom_site_label
  _atom_site_symmetry_multiplicity
  _atom_site_fract_x
  _atom_site_fract_y
  _atom_site_fract_z
  _atom_site_occupancy
  H   H1        1.0  0.08177  0.44901  0.21109  1.0000
  S   S1        1.0  0.21757  0.37786  0.01488  1.0000
  H   H2        1.0  0.26479  0.45996  0.00100  1.0000
  H   H3        1.0  0.08267  0.33927  0.11265  1.0000
  S   S2        1.0  0.23349  0.40535  0.02582  1.0000
  C   C1        1.0  0.14643  0.43079  0.06836  1.0000
  Fe  Fe1       1.0  0.24128  0.38941  0.00567  1.0000
  H   H4        1.0  0.18446  0.46238  0.04742  1.0000
  Fe  Fe2       1.0  0.20875  0.39578  0.03357  1.0000
  S   S3        1.0  0.19711  0.38998  0.06233  1.0000
  H   H5        1.0  0.08849  0.43994  0.13852  1.0000
  S   S4        1.0  0.19493  0.41829  0.01574  1.0000
  Fe  Fe3       1.0  0.10424  0.38980  0.10423  1.0000
  S   S5        1.0  0.11046  0.40014  0.12387  1.0000
  S   S6        1.0  0.12247  0.37285  0.08653  1.0000
  Fe  Fe4       1.0  0.06742  0.41175  0.10726  1.0000
  S   S7        1.0  0.07018  0.42453  0.12671  1.0000
  S   S8        1.0  0.04318  0.42102  0.09646  1.0000
  Fe  Fe5       1.0  0.09667  0.42590  0.11021  1.0000
  S   S9        1.0  0.10785  0.44936  0.10315  1.0000
  Fe  Fe6       1.0  0.08353  0.39787  0.13912  1.0000
  S   S10       1.0  0.07490  0.39017  0.16829  1.0000
  S   S11       1.0  0.09259  0.41597  0.08935  1.0000
  S   S12       1.0  0.07858  0.38468  0.12086  1.0000
  H   H6        1.0  0.17799  0.43689  0.08460  1.0000
  H   H7        1.0  0.13712  0.45946  0.07763  1.0000
  H   H8        1.0  0.03243  0.41282  0.13566  1.0000
  C   C2        1.0  0.05143  0.37419  0.07152  1.0000
  C   C3        1.0  0.08564  0.39697  0.18022  1.0000
  C   C4        1.0  0.09841  0.40656  0.17175  1.0000
  C   C5        1.0  0.10722  0.41137  0.18148  1.0000
  C   C6        1.0  0.10313  0.40690  0.19974  1.0000
  C   C7        1.0  0.09016  0.39760  0.20822  1.0000
  C   C8        1.0  0.08147  0.39259  0.19849  1.0000
  H   H9        1.0  0.10173  0.41001  0.15769  1.0000
  H   H10       1.0  0.11742  0.41833  0.17482  1.0000
  H   H11       1.0  0.19775  0.44570  0.03670  1.0000
  H   H12       1.0  0.07173  0.38504  0.20510  1.0000
  C   C9        1.0  0.02952  0.40646  0.10182  1.0000
  H   H13       1.0  0.29843  0.47053  0.04953  1.0000
  H   H14       1.0  0.04424  0.38649  0.11904  1.0000
  C   C10       1.0  0.03320  0.39012  0.11303  1.0000
  C   C11       1.0  0.01497  0.41113  0.09433  1.0000
  H   H15       1.0  0.14831  0.46695  0.05610  1.0000
  H   H16       1.0  0.31979  0.35226  0.08398  1.0000
  C   C12       1.0  0.29906  0.44018  0.00806  1.0000
  H   H17       1.0  0.10798  0.34492  0.05300  1.0000
  C   C13       1.0  0.17660  0.38475  0.06878  1.0000
  C   C14       1.0  0.16882  0.38208  0.05683  1.0000
  C   C15       1.0  0.15226  0.37820  0.06237  1.0000
  C   C16       1.0  0.14324  0.37755  0.07970  1.0000
  C   C17       1.0  0.15092  0.38052  0.09154  1.0000
  C   C18       1.0  0.16769  0.38379  0.08616  1.0000
  H   H18       1.0  0.17565  0.38278  0.04340  1.0000
  H   H19       1.0  0.14638  0.37588  0.05318  1.0000
  H   H20       1.0  0.14416  0.37978  0.10498  1.0000
  H   H21       1.0  0.17371  0.38569  0.09548  1.0000
  C   C19       1.0  0.28392  0.37929  0.00621  1.0000
  H   H22       1.0  0.03682  0.35415  0.08709  1.0000
  C   C20       1.0  0.08566  0.34700  0.09909  1.0000
  C   C21       1.0  0.07561  0.38310  0.07557  1.0000
  C   C22       1.0  0.29076  0.38341  0.03159  1.0000
  C   C23       1.0  0.27887  0.38096  0.02352  1.0000
  H   H23       1.0  0.19614  0.44206  0.05945  1.0000
  H   H24       1.0  0.03870  0.45452  0.21935  1.0000
  H   H25       1.0  0.24306  0.45058  0.04908  1.0000
  H   H26       1.0  0.26591  0.37998  0.03083  1.0000
  H   H27       1.0  0.03511  0.39299  0.19432  1.0000
  C   C24       1.0  0.02262  0.37829  0.11632  1.0000
  H   H28       1.0  0.01206  0.42378  0.08566  1.0000
  C   C25       1.0  0.23966  0.45867  0.03699  1.0000
  C   C26       1.0  0.00410  0.47118  0.17729  1.0000
  C   C27       1.0  0.03542  0.45033  0.20909  1.0000
  H   H29       1.0  0.26001  0.41714  0.99594  1.0000
  H   H30       1.0  0.99294  0.40318  0.09211  1.0000
  H   H31       1.0  0.23223  0.43849  0.03061  1.0000
  H   H32       1.0  0.03416  0.43757  0.14834  1.0000
  H   H33       1.0  0.08719  0.39390  0.22225  1.0000
  H   H34       1.0  0.27799  0.45551  0.02493  1.0000
  C   C28       1.0  0.23670  0.48647  0.01630  1.0000
  C   C29       1.0  0.01883  0.45859  0.18606  1.0000
  H   H35       1.0  0.03166  0.44343  0.12627  1.0000
  C   C30       1.0  0.30878  0.47531  0.05198  1.0000
  H   H36       1.0  0.13398  0.45809  0.14424  1.0000
  H   H37       1.0  0.09218  0.35686  0.09961  1.0000
  C   C31       1.0  0.12407  0.47000  0.16666  1.0000
  H   H38       1.0  0.10720  0.44452  0.18893  1.0000
  C   C32       1.0  0.07521  0.39813  0.05921  1.0000
  H   H39       1.0  0.02556  0.36558  0.12486  1.0000
  H   H40       1.0  0.12651  0.43071  0.05561  1.0000
  H   H41       1.0  0.05916  0.36160  0.10271  1.0000
  H   H42       1.0  0.01133  0.42461  0.13275  1.0000
  H   H43       1.0  0.16306  0.42402  0.11201  1.0000
  C   C33       1.0  0.28786  0.44304  0.02596  1.0000
  H   H44       1.0  0.08336  0.47011  0.21130  1.0000
  C   C34       1.0  0.08105  0.35848  0.06074  1.0000
  H   H45       1.0  0.02146  0.38793  0.15130  1.0000
  C   C35       1.0  0.15542  0.42863  0.10163  1.0000
  C   C36       1.0  0.05052  0.46631  0.09136  1.0000
  C   C37       1.0  0.17315  0.43977  0.05169  1.0000
  C   C38       1.0  0.23050  0.47970  0.00595  1.0000
  H   H46       1.0  0.06743  0.38871  0.08684  1.0000
  C   C39       1.0  0.31275  0.38292  0.00497  1.0000
  S   S13       1.0  0.11439  0.41305  0.21166  1.0000
  C   C40       1.0  0.15896  0.46925  0.07655  1.0000
  Fe  Fe7       1.0  0.22033  0.42624  0.00638  1.0000
  H   H47       1.0  0.03988  0.40493  0.16248  1.0000
  H   H48       1.0  0.15256  0.41675  0.06888  1.0000
  H   H49       1.0  0.08894  0.37956  0.07791  1.0000
  H   H50       1.0  0.14503  0.45906  0.18766  1.0000
  H   H51       1.0  0.10590  0.35716  0.06840  1.0000
  N   N1        1.0  0.06964  0.36755  0.07496  1.0000
  H   H52       1.0  0.01492  0.44593  0.19229  1.0000
  H   H53       1.0  0.03016  0.38022  0.18282  1.0000
  H   H54       1.0  0.07909  0.34501  0.06338  1.0000
  H   H55       1.0  0.13853  0.44323  0.16398  1.0000
  C   C41       1.0  0.00804  0.38302  0.10884  1.0000
  H   H56       1.0  0.02616  0.41983  0.17518  1.0000
  H   H57       1.0  0.17528  0.41748  0.08193  1.0000
  H   H58       1.0  0.06366  0.34373  0.09274  1.0000
  C   C42       1.0  0.30095  0.38003  0.99703  1.0000
  H   H59       1.0  0.14624  0.43408  0.04072  1.0000
  H   H60       1.0  0.02955  0.36666  0.06782  1.0000
  C   C43       1.0  0.04144  0.36025  0.07321  1.0000
  H   H61       1.0  0.05155  0.38253  0.05815  1.0000
  H   H62       1.0  0.00605  0.38701  0.17109  1.0000
  C   C44       1.0  0.02652  0.40822  0.17053  1.0000
  C   C45       1.0  0.05256  0.44139  0.19841  1.0000
  H   H63       1.0  0.17589  0.45501  0.99451  1.0000
  H   H64       1.0  0.28683  0.41525  0.00568  1.0000
  C   C46       1.0  0.23350  0.45184  0.02656  1.0000
  H   H65       1.0  0.08110  0.39347  0.04700  1.0000
  H   H66       1.0  0.28677  0.38460  0.04502  1.0000
  C   C47       1.0  0.99664  0.42443  0.16687  1.0000
  H   H67       1.0  0.27675  0.48123  0.00152  1.0000
  H   H68       1.0  0.03762  0.46669  0.10021  1.0000
  C   C48       1.0  0.00842  0.47280  0.21135  1.0000
  H   H69       1.0  0.07718  0.36537  0.04808  1.0000
  C   C49       1.0  0.00414  0.39950  0.09797  1.0000
  C   C50       1.0  0.27687  0.45958  0.99070  1.0000
  H   H70       1.0  0.11418  0.48002  0.16007  1.0000
  H   H71       1.0  0.16732  0.44649  0.04010  1.0000
  H   H72       1.0  0.13593  0.47539  0.16249  1.0000
  H   H73       1.0  0.08273  0.40725  0.05968  1.0000
  H   H74       1.0  0.17866  0.42596  0.05059  1.0000
  H   H75       1.0  0.13581  0.43112  0.08018  1.0000
  C   C51       1.0  0.12858  0.45408  0.15842  1.0000
  H   H76       1.0  0.07137  0.47927  0.08236  1.0000
  H   H77       1.0  0.05728  0.45233  0.09383  1.0000
  H   H78       1.0  0.13155  0.45162  0.05061  1.0000
  C   C52       1.0  0.09081  0.45274  0.13625  1.0000
  N   N2        1.0  0.01296  0.41230  0.15973  1.0000
  H   H79       1.0  0.02828  0.43993  0.21635  1.0000
  C   C53       1.0  0.06859  0.35508  0.09257  1.0000
  C   C54       1.0  0.10546  0.47550  0.11837  1.0000
  H   H80       1.0  0.13509  0.44150  0.19240  1.0000
  H   H81       1.0  0.12775  0.44006  0.22142  1.0000
  C   C55       1.0  0.99625  0.46048  0.22227  1.0000
  C   C56       1.0  0.02510  0.43888  0.13998  1.0000
  C   C57       1.0  0.22885  0.46240  0.01106  1.0000
  H   H82       1.0  0.14806  0.41856  0.10346  1.0000
  H   H83       1.0  0.05360  0.47616  0.20348  1.0000
  S   S14       1.0  0.26909  0.37651  0.99580  1.0000
  H   H84       1.0  0.05020  0.46582  0.12972  1.0000
  C   C58       1.0  0.30764  0.38459  0.02229  1.0000
  C   C59       1.0  0.10262  0.45804  0.19084  1.0000
  C   C60       1.0  0.10127  0.45961  0.12059  1.0000
  Fe  Fe8       1.0  0.20568  0.40140  0.99633  1.0000
  H   H85       1.0  0.04924  0.35011  0.06592  1.0000
  N   N3        1.0  0.15958  0.44051  0.06833  1.0000
  C   C61       1.0  0.10086  0.35726  0.05718  1.0000
  C   C62       1.0  0.02043  0.42148  0.14157  1.0000
  H   H86       1.0  0.14334  0.45310  0.21667  1.0000
  H   H87       1.0  0.03012  0.45554  0.17532  1.0000
  H   H88       1.0  0.01331  0.44924  0.14267  1.0000
  H   H89       1.0  0.11686  0.44935  0.15949  1.0000
  N   N4        1.0  0.28911  0.44200  0.99439  1.0000
  C   C63       1.0  0.02582  0.39296  0.18667  1.0000
  H   H90       1.0  0.05985  0.43091  0.20746  1.0000
  H   H91       1.0  0.28140  0.43208  0.03303  1.0000
  H   H92       1.0  0.09469  0.33776  0.09127  1.0000
  H   H93       1.0  0.01287  0.39387  0.19551  1.0000
  C   C64       1.0  0.00944  0.39575  0.15821  1.0000
  C   C65       1.0  0.18860  0.44802  0.04906  1.0000
  C   C66       1.0  0.13259  0.45494  0.19441  1.0000
  H   H94       1.0  0.00100  0.45222  0.23409  1.0000
  H   H95       1.0  0.09863  0.45060  0.21969  1.0000
  C   C67       1.0  0.13732  0.43743  0.05279  1.0000
  N   N5        1.0  0.11774  0.46670  0.18623  1.0000
  H   H96       1.0  0.05020  0.43498  0.18930  1.0000
  C   C68       1.0  0.24108  0.47608  0.03194  1.0000
  H   H97       1.0  0.26829  0.43087  0.01297  1.0000
  H   H98       1.0  0.30805  0.44910  0.00385  1.0000
  H   H99       1.0  0.06115  0.45052  0.19121  1.0000
  C   C69       1.0  0.13078  0.45287  0.21416  1.0000
  H   H100      1.0  0.29643  0.44343  0.03418  1.0000
  H   H101      1.0  0.10476  0.36784  0.04606  1.0000
  H   H102      1.0  0.04664  0.40263  0.22231  1.0000
  H   H103      1.0  0.06171  0.40580  0.05891  1.0000
  H   H104      1.0  0.04318  0.38279  0.08039  1.0000
  C   C70       1.0  0.08644  0.47901  0.14623  1.0000
  C   C71       1.0  0.08318  0.46254  0.14900  1.0000
  H   H105      1.0  0.00718  0.48404  0.17053  1.0000
  H   H106      1.0  0.30772  0.42689  0.01041  1.0000
  H   H107      1.0  0.99704  0.40540  0.13521  1.0000
  H   H108      1.0  0.07461  0.45745  0.16078  1.0000
  C   C72       1.0  0.04300  0.47881  0.13226  1.0000
  C   C73       1.0  0.15036  0.45912  0.06921  1.0000
  H   H109      1.0  0.14617  0.44103  0.10368  1.0000
  C   C74       1.0  0.32441  0.33947  0.08024  1.0000
  H   H110      1.0  0.30506  0.47626  0.01953  1.0000
  H   H111      1.0  0.12097  0.46315  0.21993  1.0000
  N   N6        1.0  0.02410  0.46523  0.19880  1.0000
  C   C75       1.0  0.16797  0.43080  0.08365  1.0000
  H   H112      1.0  0.15265  0.46933  0.09040  1.0000
  C   C76       1.0  0.27849  0.42821  0.00127  1.0000
  S   S15       1.0  0.22159  0.45429  0.99743  1.0000
  H   H113      1.0  0.04888  0.47045  0.07766  1.0000
  H   H114      1.0  0.99980  0.43600  0.16869  1.0000
  H   H115      1.0  0.04404  0.47510  0.17758  1.0000
  H   H116      1.0  0.06956  0.46833  0.10411  1.0000
  H   H117      1.0  0.17319  0.46482  0.07518  1.0000
  C   C77       1.0  0.09118  0.45710  0.20935  1.0000
  H   H118      1.0  0.09366  0.46469  0.18180  1.0000
  C   C78       1.0  0.06151  0.47700  0.09467  1.0000
  H   H119      1.0  0.99456  0.45187  0.21493  1.0000
  H   H120      1.0  0.11386  0.48073  0.10644  1.0000
  C   C79       1.0  0.99455  0.39814  0.14895  1.0000
  H   H121      1.0  0.30582  0.47328  0.06640  1.0000
  S   S16       1.0  0.99482  0.36826  0.11316  1.0000
  H   H122      1.0  0.31267  0.33579  0.07941  1.0000
  H   H123      1.0  0.01245  0.47701  0.22111  1.0000
  C   C80       1.0  0.03375  0.47935  0.18859  1.0000
  S   S17       1.0  0.32197  0.38822  0.03268  1.0000
  H   H124      1.0  0.00224  0.46558  0.16726  1.0000
  H   H125      1.0  0.29760  0.47380  0.98811  1.0000
  C   C81       1.0  0.11166  0.48428  0.19092  1.0000
  H   H126      1.0  0.05073  0.48397  0.13800  1.0000
  S   S18       1.0  0.00977  0.41374  0.22447  1.0000
  C   C82       1.0  0.28342  0.47582  0.98978  1.0000
  H   H127      1.0  0.03107  0.47689  0.14231  1.0000
  H   H128      1.0  0.10496  0.48342  0.20472  1.0000
  S   S19       1.0  0.99616  0.47267  0.11299  1.0000
  H   H129      1.0  0.99461  0.43827  0.11209  1.0000
  H   H130      1.0  0.15645  0.48318  0.06956  1.0000
  H   H131      1.0  0.32386  0.44954  0.04848  1.0000
  C   C83       1.0  0.09815  0.48512  0.13124  1.0000
  H   H132      1.0  0.99332  0.38509  0.14867  1.0000
  H   H133      1.0  0.00053  0.48507  0.20475  1.0000
  C   C84       1.0  0.26887  0.42596  0.98858  1.0000
  S   S20       1.0  0.24812  0.48507  0.04508  1.0000
  H   H134      1.0  0.13628  0.48673  0.19517  1.0000
  H   H135      1.0  0.18818  0.47142  0.98545  1.0000
  C   C85       1.0  0.04240  0.48609  0.19908  1.0000
  S   S21       1.0  0.22999  0.41124  0.98555  1.0000
  C   C86       1.0  0.19456  0.13146  0.32871  1.0000
  Fe  Fe9       1.0  0.19038  0.04112  0.36674  1.0000
  S   S22       1.0  0.20982  0.05042  0.37427  1.0000
  S   S23       1.0  0.17974  0.05568  0.34278  1.0000
  H   H136      1.0  0.07725  0.32990  0.27778  1.0000
  C   C87       1.0  0.29331  0.02672  0.37911  1.0000
  H   H137      1.0  0.20799  0.03629  0.43615  1.0000
  Fe  Fe10      1.0  0.19386  0.04393  0.40121  1.0000
  S   S24       1.0  0.18753  0.06516  0.41571  1.0000
  Fe  Fe11      1.0  0.22398  0.02251  0.37988  1.0000
  S   S25       1.0  0.25279  0.01155  0.37356  1.0000
  S   S26       1.0  0.17348  0.03612  0.39342  1.0000
  S   S27       1.0  0.20641  0.01372  0.36923  1.0000
  Fe  Fe12      1.0  0.08992  0.42787  0.26968  1.0000
  S   S28       1.0  0.11696  0.41749  0.25626  1.0000
  Fe  Fe13      1.0  0.07811  0.39548  0.27213  1.0000
  S   S29       1.0  0.10418  0.38194  0.25895  1.0000
  S   S30       1.0  0.05415  0.38478  0.28247  1.0000
  Fe  Fe14      1.0  0.11440  0.39238  0.27578  1.0000
  S   S31       1.0  0.13758  0.37822  0.28768  1.0000
  S   S32       1.0  0.08826  0.40356  0.29060  1.0000
  H   H138      1.0  0.11583  0.34871  0.39612  1.0000
  S   S33       1.0  0.01890  0.26736  0.36025  1.0000
  Fe  Fe15      1.0  0.08173  0.30981  0.37321  1.0000
  S   S34       1.0  0.08900  0.32252  0.39037  1.0000
  S   S35       1.0  0.05812  0.32272  0.36174  1.0000
  Fe  Fe16      1.0  0.11298  0.27965  0.37451  1.0000
  S   S36       1.0  0.12330  0.29013  0.39105  1.0000
  S   S37       1.0  0.12830  0.25370  0.36877  1.0000
  Fe  Fe17      1.0  0.09589  0.29525  0.40613  1.0000
  S   S38       1.0  0.09308  0.28477  0.43501  1.0000
  Fe  Fe18      1.0  0.11561  0.31626  0.37373  1.0000
  S   S39       1.0  0.13376  0.33446  0.36524  1.0000
  S   S40       1.0  0.08592  0.28309  0.39071  1.0000
  S   S41       1.0  0.10803  0.30535  0.35546  1.0000
  Fe  Fe19      1.0  0.08263  0.13983  0.38689  1.0000
  S   S42       1.0  0.08459  0.15824  0.40142  1.0000
  S   S43       1.0  0.05916  0.12792  0.39660  1.0000
  Fe  Fe20      1.0  0.11760  0.14183  0.36267  1.0000
  S   S44       1.0  0.12266  0.16078  0.37470  1.0000
  S   S45       1.0  0.13582  0.13314  0.33916  1.0000
  Fe  Fe21      1.0  0.11234  0.14367  0.39980  1.0000
  S   S46       1.0  0.12599  0.13640  0.42184  1.0000
  Fe  Fe22      1.0  0.09459  0.17409  0.37532  1.0000
  S   S47       1.0  0.08213  0.20277  0.37093  1.0000
  S   S48       1.0  0.10955  0.12349  0.38786  1.0000
  S   S49       1.0  0.09041  0.15686  0.36065  1.0000
  C   C88       1.0  0.03018  0.13122  0.35503  1.0000
  C   C89       1.0  0.02379  0.12406  0.37253  1.0000
  C   C90       1.0  0.03286  0.12284  0.38527  1.0000
  C   C91       1.0  0.04804  0.12919  0.38057  1.0000
  C   C92       1.0  0.05413  0.13665  0.36314  1.0000
  C   C93       1.0  0.04537  0.13747  0.35037  1.0000
  C   C94       1.0  0.12219  0.47475  0.26343  1.0000
  H   H139      1.0  0.02805  0.11706  0.39876  1.0000
  H   H140      1.0  0.06568  0.14164  0.35941  1.0000
  H   H141      1.0  0.05024  0.14317  0.33687  1.0000
  C   C95       1.0  0.11549  0.23962  0.36921  1.0000
  C   C96       1.0  0.09806  0.24604  0.36799  1.0000
  C   C97       1.0  0.08804  0.23461  0.36832  1.0000
  C   C98       1.0  0.09522  0.21669  0.37033  1.0000
  C   C99       1.0  0.11259  0.21025  0.37178  1.0000
  C   C100      1.0  0.12278  0.22172  0.37096  1.0000
  H   H142      1.0  0.09245  0.25985  0.36628  1.0000
  H   H143      1.0  0.07479  0.23967  0.36672  1.0000
  H   H144      1.0  0.11829  0.19650  0.37325  1.0000
  H   H145      1.0  0.13631  0.21670  0.37166  1.0000
  C   C101      1.0  0.02978  0.28300  0.36017  1.0000
  C   C102      1.0  0.04749  0.27798  0.36050  1.0000
  C   C103      1.0  0.05626  0.29012  0.36107  1.0000
  C   C104      1.0  0.04738  0.30741  0.36099  1.0000
  C   C105      1.0  0.02985  0.31262  0.35997  1.0000
  C   C106      1.0  0.02105  0.30040  0.35967  1.0000
  H   H146      1.0  0.05437  0.26467  0.36040  1.0000
  H   H147      1.0  0.06993  0.28618  0.36130  1.0000
  H   H148      1.0  0.02298  0.32602  0.35978  1.0000
  C   C107      1.0  0.25511  0.99472  0.44420  1.0000
  C   C108      1.0  0.08835  0.32463  0.46598  1.0000
  C   C109      1.0  0.09873  0.30786  0.46978  1.0000
  C   C110      1.0  0.10001  0.29569  0.46024  1.0000
  C   C111      1.0  0.09116  0.30032  0.44666  1.0000
  C   C112      1.0  0.08082  0.31712  0.44273  1.0000
  C   C113      1.0  0.07936  0.32927  0.45247  1.0000
  H   H149      1.0  0.32339  0.99444  0.45992  1.0000
  H   H150      1.0  0.10822  0.28280  0.46316  1.0000
  H   H151      1.0  0.07386  0.32070  0.43231  1.0000
  H   H152      1.0  0.07136  0.34227  0.44946  1.0000
  C   C114      1.0  0.11336  0.18146  0.44830  1.0000
  C   C115      1.0  0.12648  0.16682  0.45244  1.0000
  C   C116      1.0  0.13081  0.15320  0.44384  1.0000
  C   C117      1.0  0.12246  0.15452  0.43063  1.0000
  C   C118      1.0  0.11057  0.16995  0.42531  1.0000
  C   C119      1.0  0.10582  0.18334  0.43433  1.0000
  H   H153      1.0  0.01741  0.39775  0.28461  1.0000
  H   H154      1.0  0.14039  0.14156  0.44767  1.0000
  H   H155      1.0  0.10461  0.17139  0.41465  1.0000
  H   H156      1.0  0.09594  0.19484  0.43086  1.0000
  C   C120      1.0  0.13546  0.36727  0.30970  1.0000
  C   C121      1.0  0.15055  0.36046  0.31644  1.0000
  C   C122      1.0  0.14976  0.35084  0.33363  1.0000
  C   C123      1.0  0.13394  0.34747  0.34408  1.0000
  C   C124      1.0  0.11869  0.35457  0.33755  1.0000
  C   C125      1.0  0.11940  0.36479  0.32042  1.0000
  H   H157      1.0  0.16298  0.36239  0.30823  1.0000
  H   H158      1.0  0.16155  0.34546  0.33863  1.0000
  H   H159      1.0  0.10638  0.35225  0.34574  1.0000
  H   H160      1.0  0.10767  0.37031  0.31535  1.0000
  H   H161      1.0  0.06258  0.32762  0.30722  1.0000
  H   H162      1.0  0.04570  0.25893  0.47456  1.0000
  C   C126      1.0  0.04184  0.39323  0.26638  1.0000
  C   C127      1.0  0.31309  0.02609  0.47531  1.0000
  H   H163      1.0  0.11322  0.33554  0.27643  1.0000
  N   N7        1.0  0.27326  0.99337  0.43310  1.0000
  H   H164      1.0  0.08242  0.23569  0.46280  1.0000
  C   C128      1.0  0.04555  0.15009  0.43718  1.0000
  C   C129      1.0  0.16673  0.07680  0.34263  1.0000
  C   C130      1.0  0.16549  0.08835  0.32654  1.0000
  C   C131      1.0  0.15593  0.10554  0.32576  1.0000
  C   C132      1.0  0.14726  0.11130  0.34106  1.0000
  C   C133      1.0  0.14812  0.09969  0.35725  1.0000
  C   C134      1.0  0.15783  0.08239  0.35803  1.0000
  H   H165      1.0  0.17228  0.08407  0.31462  1.0000
  H   H166      1.0  0.15536  0.11444  0.31322  1.0000
  H   H167      1.0  0.14155  0.10404  0.36914  1.0000
  H   H168      1.0  0.15863  0.07345  0.37050  1.0000
  C   C135      1.0  0.14191  0.29146  0.42753  1.0000
  H   H169      1.0  0.09969  0.35125  0.41568  1.0000
  C   C136      1.0  0.26516  0.02367  0.37765  1.0000
  H   H170      1.0  0.05879  0.19891  0.40510  1.0000
  C   C137      1.0  0.08918  0.33493  0.27187  1.0000
  H   H171      1.0  0.22593  0.07836  0.33238  1.0000
  C   C138      1.0  0.18705  0.11851  0.34482  1.0000
  H   H172      1.0  0.16543  0.31531  0.40731  1.0000
  H   H173      1.0  0.09050  0.35981  0.29430  1.0000
  H   H174      1.0  0.16487  0.11473  0.37846  1.0000
  C   C139      1.0  0.21320  0.08702  0.33663  1.0000
  C   C140      1.0  0.20481  0.06381  0.42505  1.0000
  C   C141      1.0  0.21235  0.04793  0.43488  1.0000
  H   H175      1.0  0.28949  0.00602  0.37020  1.0000
  C   C142      1.0  0.17452  0.10406  0.38464  1.0000
  H   H176      1.0  0.22428  0.10677  0.33939  1.0000
  N   N8        1.0  0.14445  0.42392  0.30672  1.0000
  C   C143      1.0  0.14465  0.40834  0.32196  1.0000
  C   C144      1.0  0.12563  0.43283  0.30669  1.0000
  H   H177      1.0  0.03359  0.22828  0.37879  1.0000
  C   C145      1.0  0.11448  0.42192  0.30405  1.0000
  C   C146      1.0  0.03757  0.42718  0.29522  1.0000
  H   H178      1.0  0.05293  0.09936  0.46323  1.0000
  H   H179      1.0  0.03872  0.42065  0.28468  1.0000
  H   H180      1.0  0.00761  0.30453  0.35881  1.0000
  H   H181      1.0  0.01278  0.23324  0.42493  1.0000
  H   H182      1.0  0.10136  0.43027  0.30300  1.0000
  H   H183      1.0  0.12006  0.41718  0.29186  1.0000
  H   H184      1.0  0.11247  0.41079  0.31524  1.0000
  H   H185      1.0  0.09828  0.10440  0.42747  1.0000
  H   H186      1.0  0.09063  0.09298  0.44899  1.0000
  C   C147      1.0  0.02221  0.35964  0.31810  1.0000
  H   H187      1.0  0.26737  0.02105  0.44886  1.0000
  N   N9        1.0  0.15761  0.09320  0.46223  1.0000
  C   C148      1.0  0.16010  0.09940  0.44268  1.0000
  H   H188      1.0  0.08422  0.22247  0.48346  1.0000
  C   C149      1.0  0.00121  0.17352  0.40474  1.0000
  C   C150      1.0  0.09214  0.47429  0.28966  1.0000
  C   C151      1.0  0.14850  0.09393  0.43412  1.0000
  C   C152      1.0  0.18850  0.09615  0.46107  1.0000
  C   C153      1.0  0.00763  0.17308  0.37376  1.0000
  H   H189      1.0  0.15779  0.11391  0.43884  1.0000
  H   H190      1.0  0.17370  0.09446  0.43614  1.0000
  H   H191      1.0  0.29051  0.00084  0.45658  1.0000
  C   C154      1.0  0.16284  0.07355  0.46633  1.0000
  H   H192      1.0  0.03246  0.15899  0.43796  1.0000
  H   H193      1.0  0.11357  0.45682  0.25455  1.0000
  H   H194      1.0  0.15205  0.07970  0.43481  1.0000
  H   H195      1.0  0.13444  0.09805  0.43960  1.0000
  H   H196      1.0  0.15056  0.10044  0.42009  1.0000
  H   H197      1.0  0.02531  0.36007  0.27833  1.0000
  H   H198      1.0  0.02908  0.40344  0.31142  1.0000
  H   H199      1.0  0.01202  0.11922  0.37620  1.0000
  C   C155      1.0  0.07311  0.11805  0.43980  1.0000
  H   H200      1.0  0.00709  0.36922  0.26824  1.0000
  C   C156      1.0  0.00372  0.20067  0.38349  1.0000
  C   C157      1.0  0.28325  0.01773  0.37509  1.0000
  H   H201      1.0  0.24317  0.04332  0.38629  1.0000
  H   H202      1.0  0.14100  0.22469  0.46136  1.0000
  H   H203      1.0  0.21181  0.12001  0.38809  1.0000
  C   C158      1.0  0.02216  0.40687  0.24054  1.0000
  H   H204      1.0  0.16747  0.09382  0.39282  1.0000
  C   C159      1.0  0.25714  0.03879  0.38403  1.0000
  C   C160      1.0  0.12132  0.32900  0.41968  1.0000
  H   H205      1.0  0.03853  0.19856  0.36617  1.0000
  H   H206      1.0  0.13310  0.16582  0.46253  1.0000
  H   H207      1.0  0.01409  0.44695  0.26151  1.0000
  H   H208      1.0  0.23875  0.99565  0.42654  1.0000
  N   N10       1.0  0.30363  0.04501  0.47231  1.0000
  H   H209      1.0  0.13620  0.46213  0.30582  1.0000
  H   H210      1.0  0.07290  0.35077  0.29602  1.0000
  C   C161      1.0  0.21033  0.07890  0.42359  1.0000
  N   N11       1.0  0.19901  0.10839  0.35714  1.0000
  N   N12       1.0  0.04061  0.23122  0.41810  1.0000
  C   C162      1.0  0.02657  0.45563  0.27747  1.0000
  C   C163      1.0  0.04215  0.23429  0.39876  1.0000
  C   C164      1.0  0.05405  0.23878  0.42103  1.0000
  C   C165      1.0  0.04393  0.21199  0.42655  1.0000
  C   C166      1.0  0.05011  0.39510  0.24881  1.0000
  H   H211      1.0  0.01981  0.14896  0.41343  1.0000
  C   C167      1.0  0.05145  0.25881  0.41532  1.0000
  C   C168      1.0  0.06035  0.20041  0.41757  1.0000
  H   H212      1.0  0.01722  0.35851  0.33235  1.0000
  C   C169      1.0  0.08491  0.09492  0.35548  1.0000
  H   H213      1.0  0.05571  0.22913  0.39223  1.0000
  H   H214      1.0  0.11923  0.43711  0.31914  1.0000
  S   S50       1.0  0.99306  0.15680  0.46035  1.0000
  H   H215      1.0  0.00774  0.42905  0.28776  1.0000
  H   H216      1.0  0.04529  0.20978  0.44022  1.0000
  H   H217      1.0  0.03266  0.20642  0.42772  1.0000
  N   N13       1.0  0.02276  0.44301  0.29471  1.0000
  H   H218      1.0  0.15088  0.43620  0.32365  1.0000
  H   H219      1.0  0.02696  0.30587  0.32188  1.0000
  H   H220      1.0  0.03886  0.26575  0.42202  1.0000
  H   H221      1.0  0.01451  0.37141  0.31086  1.0000
  H   H222      1.0  0.01625  0.23370  0.39637  1.0000
  H   H223      1.0  0.05284  0.26352  0.40101  1.0000
  H   H224      1.0  0.06171  0.26269  0.41888  1.0000
  H   H225      1.0  0.01570  0.17396  0.34595  1.0000
  H   H226      1.0  0.07224  0.20530  0.41522  1.0000
  N   N14       1.0  0.09623  0.33161  0.30208  1.0000
  C   C170      1.0  0.11185  0.33200  0.30820  1.0000
  C   C171      1.0  0.08382  0.34915  0.30223  1.0000
  C   C172      1.0  0.08839  0.31690  0.31431  1.0000
  C   C173      1.0  0.12728  0.31602  0.30730  1.0000
  C   C174      1.0  0.07514  0.35325  0.32030  1.0000
  C   C175      1.0  0.07131  0.31501  0.31142  1.0000
  H   H227      1.0  0.11715  0.34363  0.30043  1.0000
  H   H228      1.0  0.10826  0.33317  0.32198  1.0000
  H   H229      1.0  0.10823  0.31460  0.28395  1.0000
  H   H230      1.0  0.09762  0.30412  0.31356  1.0000
  H   H231      1.0  0.08631  0.31748  0.32819  1.0000
  H   H232      1.0  0.12382  0.30387  0.31599  1.0000
  H   H233      1.0  0.13284  0.31415  0.29383  1.0000
  H   H234      1.0  0.13785  0.31822  0.31193  1.0000
  H   H235      1.0  0.06619  0.34458  0.32787  1.0000
  H   H236      1.0  0.08457  0.35254  0.32801  1.0000
  H   H237      1.0  0.06711  0.36679  0.31851  1.0000
  H   H238      1.0  0.07395  0.30674  0.30194  1.0000
  H   H239      1.0  0.13111  0.32818  0.45850  1.0000
  H   H240      1.0  0.06381  0.30878  0.32401  1.0000
  H   H241      1.0  0.14818  0.31727  0.39718  1.0000
  S   S51       1.0  0.07985  0.45369  0.27720  1.0000
  C   C176      1.0  0.15256  0.32366  0.40504  1.0000
  C   C177      1.0  0.18973  0.09587  0.37140  1.0000
  H   H242      1.0  0.18447  0.08818  0.36578  1.0000
  H   H243      1.0  0.20704  0.12534  0.32107  1.0000
  H   H244      1.0  0.99413  0.17102  0.37764  1.0000
  C   C178      1.0  0.13014  0.34008  0.44787  1.0000
  H   H245      1.0  0.08220  0.12088  0.47072  1.0000
  C   C179      1.0  0.02968  0.17697  0.38719  1.0000
  H   H246      1.0  0.17096  0.39207  0.31484  1.0000
  C   C180      1.0  0.21576  0.11266  0.37761  1.0000
  H   H247      1.0  0.06407  0.39082  0.24526  1.0000
  H   H248      1.0  0.13168  0.24320  0.44706  1.0000
  H   H249      1.0  0.14941  0.40582  0.29005  1.0000
  H   H250      1.0  0.15393  0.06805  0.46245  1.0000
  C   C181      1.0  0.11825  0.48523  0.27550  1.0000
  H   H251      1.0  0.20874  0.09522  0.32467  1.0000
  H   H252      1.0  0.19175  0.12966  0.37051  1.0000
  H   H253      1.0  0.11225  0.32604  0.43234  1.0000
  C   C182      1.0  0.28534  0.04186  0.38545  1.0000
  H   H254      1.0  0.17499  0.12633  0.35157  1.0000
  H   H255      1.0  0.18516  0.13658  0.31994  1.0000
  H   H256      1.0  0.16784  0.41207  0.29036  1.0000
  H   H257      1.0  0.15863  0.46223  0.30155  1.0000
  C   C183      1.0  0.10251  0.32869  0.28373  1.0000
  H   H258      1.0  0.11650  0.34502  0.44622  1.0000
  N   N15       1.0  0.13795  0.22753  0.41894  1.0000
  C   C184      1.0  0.14965  0.21641  0.40648  1.0000
  C   C185      1.0  0.14199  0.24537  0.41242  1.0000
  C   C186      1.0  0.11937  0.22862  0.41851  1.0000
  C   C187      1.0  0.14156  0.21883  0.43687  1.0000
  C   C188      1.0  0.14580  0.19836  0.40902  1.0000
  C   C189      1.0  0.16055  0.24620  0.41233  1.0000
  C   C190      1.0  0.10539  0.24402  0.42446  1.0000
  C   C191      1.0  0.13284  0.22897  0.45143  1.0000
  H   H259      1.0  0.14908  0.22340  0.39274  1.0000
  H   H260      1.0  0.16349  0.21381  0.40733  1.0000
  H   H261      1.0  0.13301  0.25486  0.41997  1.0000
  H   H262      1.0  0.13990  0.25097  0.39890  1.0000
  H   H263      1.0  0.11821  0.22958  0.40501  1.0000
  H   H264      1.0  0.11518  0.21652  0.42645  1.0000
  H   H265      1.0  0.13742  0.20624  0.44170  1.0000
  H   H266      1.0  0.15577  0.21475  0.43659  1.0000
  H   H267      1.0  0.13285  0.19943  0.40657  1.0000
  H   H268      1.0  0.15550  0.19142  0.39938  1.0000
  H   H269      1.0  0.14692  0.19000  0.42210  1.0000
  H   H270      1.0  0.16347  0.24143  0.42554  1.0000
  H   H271      1.0  0.17053  0.23903  0.40309  1.0000
  H   H272      1.0  0.16168  0.26002  0.40779  1.0000
  H   H273      1.0  0.10659  0.25636  0.41469  1.0000
  H   H274      1.0  0.10571  0.24546  0.43733  1.0000
  H   H275      1.0  0.09234  0.24195  0.42537  1.0000
  H   H276      1.0  0.11982  0.22629  0.45798  1.0000
  H   H277      1.0  0.13879  0.39851  0.32005  1.0000
  C   C192      1.0  0.05851  0.10656  0.46925  1.0000
  H   H278      1.0  0.28206  0.03210  0.43209  1.0000
  H   H279      1.0  0.16964  0.40643  0.32869  1.0000
  H   H280      1.0  0.11978  0.32034  0.41218  1.0000
  H   H281      1.0  0.20445  0.09121  0.41606  1.0000
  C   C193      1.0  0.15376  0.41732  0.29040  1.0000
  C   C194      1.0  0.16272  0.39821  0.32568  1.0000
  C   C195      1.0  0.15303  0.43038  0.27277  1.0000
  H   H282      1.0  0.16095  0.38737  0.33732  1.0000
  H   H283      1.0  0.15443  0.42315  0.26268  1.0000
  H   H284      1.0  0.19612  0.14288  0.33233  1.0000
  H   H285      1.0  0.17930  0.10871  0.39354  1.0000
  H   H286      1.0  0.18250  0.10951  0.34009  1.0000
  H   H287      1.0  0.02974  0.41794  0.32400  1.0000
  H   H288      1.0  0.22325  0.08895  0.35746  1.0000
  H   H289      1.0  0.19878  0.08584  0.37901  1.0000
  C   C196      1.0  0.21556  0.09809  0.34790  1.0000
  C   C197      1.0  0.20361  0.12095  0.36450  1.0000
  H   H290      1.0  0.15164  0.28981  0.41535  1.0000
  H   H291      1.0  0.09166  0.14607  0.45791  1.0000
  H   H292      1.0  0.27137  0.01648  0.41258  1.0000
  H   H293      1.0  0.21044  0.13011  0.35389  1.0000
  H   H294      1.0  0.06595  0.11146  0.43479  1.0000
  Fe  Fe23      1.0  0.19112  0.00928  0.39671  1.0000
  H   H295      1.0  0.15589  0.30362  0.43763  1.0000
  H   H296      1.0  0.14470  0.27921  0.43749  1.0000
  C   C198      1.0  0.03769  0.45494  0.31141  1.0000
  C   C199      1.0  0.14293  0.33725  0.43060  1.0000
  C   C200      1.0  0.14289  0.30685  0.43427  1.0000
  S   S52       1.0  0.20967  0.01665  0.40758  1.0000
  H   H297      1.0  0.21542  0.09898  0.38425  1.0000
  H   H298      1.0  0.30720  0.02182  0.37742  1.0000
  H   H299      1.0  0.22948  0.11299  0.37096  1.0000
  H   H300      1.0  0.20402  0.07852  0.34383  1.0000
  H   H301      1.0  0.13329  0.30653  0.44687  1.0000
  H   H302      1.0  0.12871  0.29274  0.42563  1.0000
  H   H303      1.0  0.05041  0.43070  0.29212  1.0000
  C   C201      1.0  0.02380  0.39880  0.27104  1.0000
  H   H304      1.0  0.14046  0.43979  0.27249  1.0000
  N   N16       1.0  0.13973  0.32465  0.42215  1.0000
  H   H305      1.0  0.05526  0.18092  0.37313  1.0000
  C   C202      1.0  0.11391  0.34774  0.41029  1.0000
  H   H306      1.0  0.15633  0.33292  0.43318  1.0000
  H   H307      1.0  0.13332  0.35013  0.45239  1.0000
  C   C203      1.0  0.01303  0.35764  0.27738  1.0000
  C   C204      1.0  0.01403  0.40601  0.25808  1.0000
  H   H308      1.0  0.26599  0.99202  0.40995  1.0000
  Fe  Fe24      1.0  0.10432  0.40814  0.24066  1.0000
  C   C205      1.0  0.26725  0.04795  0.38780  1.0000
  H   H309      1.0  0.04655  0.44251  0.31619  1.0000
  C   C206      1.0  0.24029  0.00396  0.43433  1.0000
  H   H310      1.0  0.26101  0.05950  0.39296  1.0000
  C   C207      1.0  0.03000  0.22660  0.39319  1.0000
  H   H311      1.0  0.11916  0.35785  0.41225  1.0000
  H   H312      1.0  0.22783  0.00638  0.44394  1.0000
  H   H313      1.0  0.04946  0.40563  0.31405  1.0000
  S   S53       1.0  0.29769  0.05262  0.39150  1.0000
  H   H314      1.0  0.16435  0.33838  0.38022  1.0000
  H   H315      1.0  0.14253  0.35039  0.42194  1.0000
  C   C208      1.0  0.15646  0.34095  0.39301  1.0000
  H   H316      1.0  0.06725  0.23343  0.41383  1.0000
  C   C209      1.0  0.11782  0.06933  0.34465  1.0000
  H   H317      1.0  0.16433  0.34638  0.39832  1.0000
  S   S54       1.0  0.24320  0.06215  0.45665  1.0000
  N   N17       1.0  0.06242  0.12307  0.45655  1.0000
  H   H318      1.0  0.07060  0.09748  0.47277  1.0000
  H   H319      1.0  0.14460  0.35081  0.39032  1.0000
  H   H320      1.0  0.04831  0.14511  0.42524  1.0000
  H   H321      1.0  0.29924  0.98981  0.40229  1.0000
  C   C210      1.0  0.02670  0.44961  0.26116  1.0000
  H   H322      1.0  0.01034  0.20753  0.37080  1.0000
  C   C211      1.0  0.05521  0.17171  0.48341  1.0000
  C   C212      1.0  0.27743  0.01093  0.42410  1.0000
  C   C213      1.0  0.99346  0.28199  0.45573  1.0000
  C   C214      1.0  0.00619  0.43734  0.29697  1.0000
  H   H323      1.0  0.23017  0.03509  0.45204  1.0000
  H   H324      1.0  0.03152  0.18156  0.39798  1.0000
  H   H325      1.0  0.04310  0.17782  0.35982  1.0000
  H   H326      1.0  0.03624  0.12763  0.45262  1.0000
  H   H327      1.0  0.09520  0.33023  0.25964  1.0000
  H   H328      1.0  0.22709  0.08991  0.43155  1.0000
  C   C215      1.0  0.04201  0.18418  0.37047  1.0000
  C   C216      1.0  0.22314  0.07817  0.43230  1.0000
  H   H329      1.0  0.00024  0.41106  0.26166  1.0000
  H   H330      1.0  0.13658  0.41230  0.33418  1.0000
  H   H331      1.0  0.08938  0.11031  0.37124  1.0000
  H   H332      1.0  0.03439  0.46294  0.32125  1.0000
  C   C217      1.0  0.03618  0.41281  0.31216  1.0000
  H   H333      1.0  0.10304  0.12119  0.34448  1.0000
  N   N18       1.0  0.01064  0.18117  0.38678  1.0000
  H   H334      1.0  0.10274  0.08834  0.37366  1.0000
  H   H335      1.0  0.09238  0.25871  0.46702  1.0000
  H   H336      1.0  0.07288  0.12129  0.31659  1.0000
  C   C218      1.0  0.11083  0.46438  0.26424  1.0000
  H   H337      1.0  0.01815  0.19282  0.35073  1.0000
  C   C219      1.0  0.08984  0.09658  0.37171  1.0000
  H   H338      1.0  0.08010  0.09228  0.38346  1.0000
  H   H339      1.0  0.11332  0.06390  0.33617  1.0000
  C   C220      1.0  0.07506  0.23308  0.47656  1.0000
  H   H340      1.0  0.03928  0.24848  0.39270  1.0000
  C   C221      1.0  0.01911  0.23956  0.44566  1.0000
  C   C222      1.0  0.02244  0.23977  0.42611  1.0000
  H   H341      1.0  0.06520  0.21203  0.47423  1.0000
  H   H342      1.0  0.11125  0.06520  0.35841  1.0000
  H   H343      1.0  0.99765  0.14958  0.42384  1.0000
  C   C223      1.0  0.09132  0.10617  0.44077  1.0000
  H   H344      1.0  0.12111  0.09340  0.34743  1.0000
  H   H345      1.0  0.16370  0.43744  0.26878  1.0000
  H   H346      1.0  0.04166  0.28920  0.47021  1.0000
  H   H347      1.0  0.05278  0.23321  0.46642  1.0000
  C   C224      1.0  0.00639  0.15352  0.41113  1.0000
  C   C225      1.0  0.16875  0.10126  0.46814  1.0000
  H   H348      1.0  0.13305  0.11238  0.46218  1.0000
  H   H349      1.0  0.28698  0.04205  0.45725  1.0000
  H   H350      1.0  0.00261  0.17956  0.41473  1.0000
  H   H351      1.0  0.01629  0.15989  0.37397  1.0000
  C   C226      1.0  0.31565  0.05672  0.47030  1.0000
  H   H352      1.0  0.27343  0.98935  0.46949  1.0000
  C   C227      1.0  0.04523  0.13512  0.45359  1.0000
  C   C228      1.0  0.07194  0.13096  0.46463  1.0000
  H   H353      1.0  0.06259  0.18715  0.42612  1.0000
  H   H354      1.0  0.08327  0.08139  0.35776  1.0000
  H   H355      1.0  0.08584  0.14481  0.43934  1.0000
  N   N19       1.0  0.00657  0.34081  0.30954  1.0000
  H   H356      1.0  0.00465  0.14657  0.40215  1.0000
  C   C229      1.0  0.22996  0.06246  0.44296  1.0000
  C   C230      1.0  0.02077  0.45198  0.30911  1.0000
  C   C231      1.0  0.22479  0.04730  0.44397  1.0000
  H   H357      1.0  0.13192  0.06329  0.34381  1.0000
  C   C232      1.0  0.11548  0.08931  0.33877  1.0000
  H   H358      1.0  0.03855  0.14117  0.46492  1.0000
  C   C233      1.0  0.09559  0.46442  0.27721  1.0000
  C   C234      1.0  0.13859  0.09948  0.47009  1.0000
  H   H359      1.0  0.25293  0.00157  0.45471  1.0000
  H   H360      1.0  0.19527  0.10165  0.46754  1.0000
  H   H361      1.0  0.03553  0.36204  0.31465  1.0000
  H   H362      1.0  0.07164  0.10331  0.35538  1.0000
  C   C235      1.0  0.09716  0.11881  0.33488  1.0000
  N   N20       1.0  0.09716  0.09975  0.33835  1.0000
  H   H363      1.0  0.28304  0.07620  0.48131  1.0000
  H   H364      1.0  0.16812  0.43133  0.30587  1.0000
  H   H365      1.0  0.31087  0.06993  0.46245  1.0000
  H   H366      1.0  0.02683  0.24733  0.44820  1.0000
  C   C236      1.0  0.10717  0.12667  0.31676  1.0000
  H   H367      1.0  0.07113  0.15885  0.45315  1.0000
  H   H368      1.0  0.10645  0.14058  0.31607  1.0000
  H   H369      1.0  0.08368  0.12689  0.33668  1.0000
  H   H370      1.0  0.12417  0.09183  0.32568  1.0000
  N   N21       1.0  0.06996  0.24930  0.48368  1.0000
  H   H371      1.0  0.01714  0.46844  0.27737  1.0000
  C   C237      1.0  0.10335  0.48474  0.28875  1.0000
  S   S55       1.0  0.07728  0.42088  0.25243  1.0000
  H   H372      1.0  0.12117  0.12022  0.31449  1.0000
  S   S56       1.0  0.02716  0.17581  0.46984  1.0000
  H   H373      1.0  0.02202  0.32339  0.29247  1.0000
  H   H374      1.0  0.05922  0.18139  0.47199  1.0000
  H   H375      1.0  0.00520  0.24562  0.45014  1.0000
  H   H376      1.0  0.08568  0.34940  0.26795  1.0000
  S   S57       1.0  0.10560  0.19664  0.46145  1.0000
  C   C238      1.0  0.09114  0.09600  0.32425  1.0000
  H   H377      1.0  0.06247  0.10465  0.33193  1.0000
  C   C239      1.0  0.29712  0.04934  0.45566  1.0000
  H   H378      1.0  0.02723  0.33204  0.32382  1.0000
  H   H379      1.0  0.09938  0.11204  0.44535  1.0000
  H   H380      1.0  0.29060  0.06338  0.45235  1.0000
  H   H381      1.0  0.03950  0.45864  0.27536  1.0000
  C   C240      1.0  0.05804  0.26295  0.47284  1.0000
  H   H382      1.0  0.17575  0.06864  0.45827  1.0000
  H   H383      1.0  0.19365  0.08183  0.46396  1.0000
  C   C241      1.0  0.07329  0.10713  0.32062  1.0000
  H   H384      1.0  0.07059  0.10351  0.30970  1.0000
  H   H385      1.0  0.09001  0.08220  0.32755  1.0000
  S   S58       1.0  0.08698  0.33991  0.47781  1.0000
  H   H386      1.0  0.10090  0.09744  0.31174  1.0000
  H   H387      1.0  0.10150  0.12643  0.30604  1.0000
  H   H388      1.0  0.03260  0.11639  0.48491  1.0000
  H   H389      1.0  0.08078  0.47383  0.30011  1.0000
  C   C242      1.0  0.01502  0.30695  0.31745  1.0000
  C   C243      1.0  0.15376  0.43603  0.30956  1.0000
  H   H390      1.0  0.03498  0.16266  0.38992  1.0000
  H   H391      1.0  0.01866  0.25353  0.41892  1.0000
  H   H392      1.0  0.07521  0.12957  0.42921  1.0000
  C   C244      1.0  0.08035  0.14605  0.45294  1.0000
  C   C245      1.0  0.05988  0.22533  0.47683  1.0000
  H   H393      1.0  0.03414  0.34099  0.30177  1.0000
  H   H394      1.0  0.01091  0.28454  0.43057  1.0000
  C   C246      1.0  0.14943  0.45538  0.30003  1.0000
  Fe  Fe25      1.0  0.00088  0.16927  0.47709  1.0000
  H   H395      1.0  0.06414  0.26456  0.45867  1.0000
  H   H396      1.0  0.03728  0.43802  0.25906  1.0000
  H   H397      1.0  0.13379  0.47503  0.25322  1.0000
  S   S59       1.0  0.01963  0.13235  0.33871  1.0000
  H   H398      1.0  0.13081  0.09044  0.46988  1.0000
  C   C247      1.0  0.02299  0.34274  0.31295  1.0000
  H   H399      1.0  0.12421  0.44504  0.29651  1.0000
  C   C248      1.0  0.27137  0.02533  0.43462  1.0000
  H   H400      1.0  0.19206  0.10176  0.44694  1.0000
  H   H401      1.0  0.01574  0.34645  0.27125  1.0000
  C   C249      1.0  0.28617  0.98844  0.46020  1.0000
  C   C250      1.0  0.00010  0.35534  0.29512  1.0000
  H   H402      1.0  0.00407  0.30537  0.32883  1.0000
  H   H403      1.0  0.04467  0.46226  0.29923  1.0000
  H   H404      1.0  0.16470  0.11577  0.46458  1.0000
  H   H405      1.0  0.05492  0.23494  0.43498  1.0000
  H   H406      1.0  0.01445  0.44487  0.32193  1.0000
  H   H407      1.0  0.29165  0.00958  0.41878  1.0000
  H   H408      1.0  0.01755  0.29562  0.31152  1.0000
  H   H409      1.0  0.26796  0.06805  0.47490  1.0000
  H   H410      1.0  0.26056  0.03556  0.42972  1.0000
  C   C251      1.0  0.31100  0.04588  0.43921  1.0000
  H   H411      1.0  0.24221  0.01674  0.42580  1.0000
  H   H412      1.0  0.00636  0.20600  0.39333  1.0000
  H   H413      1.0  0.30511  0.05189  0.42757  1.0000
  H   H414      1.0  0.02909  0.46019  0.24949  1.0000
  H   H415      1.0  0.15057  0.45725  0.28590  1.0000
  S   S60       1.0  0.00935  0.28062  0.46704  1.0000
  H   H416      1.0  0.18456  0.99189  0.37272  1.0000
  H   H417      1.0  0.06311  0.28837  0.47152  1.0000
  H   H418      1.0  0.05485  0.15800  0.43584  1.0000
  C   C252      1.0  0.99784  0.28368  0.43762  1.0000
  H   H419      1.0  0.02150  0.22613  0.45379  1.0000
  C   C253      1.0  0.00979  0.18338  0.35456  1.0000
  H   H420      1.0  0.16695  0.09802  0.48248  1.0000
  H   H421      1.0  0.03124  0.21249  0.39890  1.0000
  H   H422      1.0  0.99687  0.19006  0.35131  1.0000
  H   H423      1.0  0.03581  0.48673  0.24940  1.0000
  C   C254      1.0  0.01069  0.32394  0.30365  1.0000
  H   H424      1.0  0.06305  0.13614  0.47583  1.0000
  H   H425      1.0  0.01174  0.46500  0.30702  1.0000
  H   H426      1.0  0.32226  0.05166  0.43723  1.0000
  C   C255      1.0  0.04027  0.40182  0.23587  1.0000
  H   H427      1.0  0.10615  0.30435  0.47980  1.0000
  H   H428      1.0  0.99602  0.36820  0.29861  1.0000
  C   C256      1.0  0.05246  0.28129  0.47680  1.0000
  H   H429      1.0  0.31555  0.03174  0.43954  1.0000
  H   H430      1.0  0.30435  0.01771  0.47570  1.0000
  H   H431      1.0  0.99960  0.32301  0.29885  1.0000
  Fe  Fe26      1.0  0.23452  0.04422  0.48185  1.0000
  H   H432      1.0  0.24235  0.99440  0.32844  1.0000
  H   H433      1.0  0.00303  0.42881  0.31013  1.0000
  H   H434      1.0  0.32442  0.02380  0.46445  1.0000
  C   C257      1.0  0.99255  0.33970  0.32602  1.0000
  H   H435      1.0  0.24145  0.98857  0.35921  1.0000
  H   H436      1.0  0.05746  0.48273  0.23678  1.0000
  Fe  Fe27      1.0  0.32535  0.03771  0.39049  1.0000
  C   C258      1.0  0.08598  0.25607  0.48108  1.0000
  H   H437      1.0  0.99828  0.33250  0.33762  1.0000
  S   S61       1.0  0.22437  0.98769  0.48403  1.0000
  C   C259      1.0  0.27580  0.06577  0.48476  1.0000
  H   H438      1.0  0.08255  0.26865  0.48515  1.0000
  H   H439      1.0  0.02455  0.33445  0.48521  1.0000
  H   H440      1.0  0.05872  0.21941  0.51607  1.0000
  H   H441      1.0  0.07233  0.24524  0.57142  1.0000
  H   H442      1.0  0.03054  0.18995  0.55060  1.0000
  C   C260      1.0  0.08269  0.31562  0.59197  1.0000
  C   C261      1.0  0.06844  0.48168  0.65444  1.0000
  N   N22       1.0  0.05603  0.47722  0.67164  1.0000
  H   H443      1.0  0.04769  0.28088  0.49090  1.0000
  H   H444      1.0  0.18911  0.07325  0.59140  1.0000
  C   C262      1.0  0.20294  0.06724  0.59208  1.0000
  C   C263      1.0  0.00577  0.20971  0.49683  1.0000
  H   H445      1.0  0.03050  0.43639  0.58079  1.0000
  H   H446      1.0  0.16928  0.45659  0.71543  1.0000
  H   H447      1.0  0.10481  0.23122  0.48860  1.0000
  C   C264      1.0  0.19810  0.08334  0.55107  1.0000
  C   C265      1.0  0.99769  0.20763  0.55441  1.0000
  H   H448      1.0  0.31321  0.02109  0.54474  1.0000
  Fe  Fe28      1.0  0.12035  0.39361  0.64984  1.0000
  S   S62       1.0  0.09972  0.41762  0.64398  1.0000
  S   S63       1.0  0.13517  0.38908  0.67066  1.0000
  Fe  Fe29      1.0  0.11478  0.37749  0.62288  1.0000
  S   S64       1.0  0.09383  0.40042  0.61470  1.0000
  S   S65       1.0  0.12228  0.35288  0.61273  1.0000
  Fe  Fe30      1.0  0.11131  0.41637  0.61615  1.0000
  S   S66       1.0  0.11463  0.44163  0.59745  1.0000
  Fe  Fe31      1.0  0.08443  0.39947  0.64333  1.0000
  S   S67       1.0  0.05634  0.40419  0.65652  1.0000
  S   S68       1.0  0.13331  0.39356  0.62191  1.0000
  S   S69       1.0  0.10398  0.37526  0.65161  1.0000
  H   H449      1.0  0.03813  0.47188  0.65970  1.0000
  H   H450      1.0  0.06101  0.25684  0.50851  1.0000
  H   H451      1.0  0.04799  0.44295  0.56404  1.0000
  H   H452      1.0  0.25696  0.04762  0.52621  1.0000
  H   H453      1.0  0.09846  0.18713  0.57823  1.0000
  C   C266      1.0  0.20962  0.05106  0.58405  1.0000
  H   H454      1.0  0.14207  0.44346  0.70575  1.0000
  S   S70       1.0  0.02690  0.34794  0.64240  1.0000
  H   H455      1.0  0.03034  0.46471  0.63409  1.0000
  H   H456      1.0  0.12461  0.47053  0.70090  1.0000
  C   C267      1.0  0.99684  0.32101  0.67958  1.0000
  H   H457      1.0  0.99450  0.37084  0.69488  1.0000
  H   H458      1.0  0.01732  0.43646  0.60960  1.0000
  S   S71       1.0  0.17978  0.05414  0.52763  1.0000
  H   H459      1.0  0.03910  0.35244  0.57856  1.0000
  C   C268      1.0  0.26904  0.04182  0.53050  1.0000
  H   H460      1.0  0.99824  0.41981  0.64602  1.0000
  N   N23       1.0  0.00727  0.19224  0.52846  1.0000
  Fe  Fe32      1.0  0.00830  0.26620  0.53009  1.0000
  H   H461      1.0  0.08284  0.39520  0.67857  1.0000
  H   H462      1.0  0.00034  0.19469  0.56326  1.0000
  H   H463      1.0  0.08433  0.48517  0.67852  1.0000
  H   H464      1.0  0.19272  0.11136  0.49722  1.0000
  H   H465      1.0  0.19999  0.46419  0.65902  1.0000
  H   H466      1.0  0.04831  0.40656  0.61956  1.0000
  H   H467      1.0  0.06580  0.32872  0.61235  1.0000
  H   H468      1.0  0.13964  0.09057  0.49815  1.0000
  N   N24       1.0  0.07804  0.21994  0.58904  1.0000
  Fe  Fe33      1.0  0.09514  0.15711  0.51957  1.0000
  S   S72       1.0  0.08966  0.18610  0.51090  1.0000
  S   S73       1.0  0.07227  0.14459  0.52746  1.0000
  Fe  Fe34      1.0  0.13424  0.15357  0.50930  1.0000
  H   H469      1.0  0.19538  0.08836  0.56291  1.0000
  H   H470      1.0  0.18044  0.46616  0.68652  1.0000
  Fe  Fe35      1.0  0.11106  0.18476  0.52356  1.0000
  S   S74       1.0  0.10426  0.20512  0.53943  1.0000
  H   H471      1.0  0.07611  0.44596  0.62398  1.0000
  S   S75       1.0  0.11490  0.15574  0.53462  1.0000
  C   C269      1.0  0.03273  0.36064  0.50801  1.0000
  Fe  Fe36      1.0  0.11238  0.32980  0.53066  1.0000
  S   S76       1.0  0.08497  0.33666  0.52700  1.0000
  S   S77       1.0  0.11928  0.35214  0.53646  1.0000
  Fe  Fe37      1.0  0.11976  0.29492  0.52057  1.0000
  S   S78       1.0  0.09286  0.29938  0.51635  1.0000
  S   S79       1.0  0.13858  0.27063  0.51362  1.0000
  H   H472      1.0  0.07742  0.16859  0.49387  1.0000
  Fe  Fe38      1.0  0.24260  0.02151  0.51608  1.0000
  Fe  Fe39      1.0  0.08442  0.30906  0.54093  1.0000
  S   S80       1.0  0.06034  0.30402  0.56086  1.0000
  S   S81       1.0  0.12368  0.32149  0.50513  1.0000
  S   S82       1.0  0.11108  0.30264  0.54656  1.0000
  S   S83       1.0  0.03091  0.25032  0.54191  1.0000
  C   C270      1.0  0.05218  0.28854  0.55652  1.0000
  C   C271      1.0  0.03430  0.28923  0.56106  1.0000
  C   C272      1.0  0.02770  0.27758  0.55641  1.0000
  C   C273      1.0  0.03906  0.26481  0.54788  1.0000
  C   C274      1.0  0.05695  0.26383  0.54385  1.0000
  C   C275      1.0  0.06346  0.27582  0.54798  1.0000
  H   H473      1.0  0.02550  0.29907  0.56772  1.0000
  H   H474      1.0  0.01386  0.27834  0.55962  1.0000
  H   H475      1.0  0.06583  0.25399  0.53734  1.0000
  H   H476      1.0  0.07726  0.27504  0.54482  1.0000
  C   C276      1.0  0.11390  0.22328  0.53126  1.0000
  C   C277      1.0  0.12973  0.22284  0.51913  1.0000
  C   C278      1.0  0.13734  0.23740  0.51366  1.0000
  C   C279      1.0  0.12908  0.25245  0.52020  1.0000
  C   C280      1.0  0.11320  0.25290  0.53212  1.0000
  C   C281      1.0  0.10562  0.23844  0.53754  1.0000
  H   H477      1.0  0.13631  0.21117  0.51429  1.0000
  H   H478      1.0  0.14971  0.23696  0.50449  1.0000
  H   H479      1.0  0.10698  0.26432  0.53741  1.0000
  H   H480      1.0  0.09328  0.23905  0.54660  1.0000
  C   C282      1.0  0.06029  0.15231  0.51095  1.0000
  H   H481      1.0  0.03353  0.33620  0.61081  1.0000
  H   H482      1.0  0.07701  0.37058  0.54528  1.0000
  C   C283      1.0  0.17462  0.07711  0.52116  1.0000
  C   C284      1.0  0.18711  0.08615  0.51021  1.0000
  C   C285      1.0  0.18293  0.10445  0.50555  1.0000
  C   C286      1.0  0.16611  0.11386  0.51135  1.0000
  C   C287      1.0  0.15351  0.10484  0.52211  1.0000
  C   C288      1.0  0.15782  0.08650  0.52712  1.0000
  H   H483      1.0  0.20003  0.07910  0.50539  1.0000
  S   S84       1.0  0.24957  0.01695  0.48909  1.0000
  H   H484      1.0  0.14052  0.11200  0.52667  1.0000
  H   H485      1.0  0.14809  0.07958  0.53558  1.0000
  C   C289      1.0  0.01560  0.45847  0.72885  1.0000
  H   H486      1.0  0.04119  0.13701  0.52446  1.0000
  C   C290      1.0  0.06511  0.46857  0.68666  1.0000
  H   H487      1.0  0.26638  0.06695  0.49724  1.0000
  C   C291      1.0  0.27880  0.05244  0.53241  1.0000
  H   H488      1.0  0.13829  0.11366  0.48938  1.0000
  H   H489      1.0  0.00953  0.17207  0.55224  1.0000
  H   H490      1.0  0.11216  0.36649  0.72406  1.0000
  H   H491      1.0  0.27412  0.06646  0.52974  1.0000
  H   H492      1.0  0.10045  0.24598  0.57443  1.0000
  H   H493      1.0  0.16405  0.43289  0.70479  1.0000
  C   C292      1.0  0.12021  0.35283  0.59188  1.0000
  C   C293      1.0  0.11522  0.36834  0.58002  1.0000
  C   C294      1.0  0.11546  0.36801  0.56289  1.0000
  C   C295      1.0  0.11966  0.35206  0.55785  1.0000
  C   C296      1.0  0.12375  0.33648  0.56999  1.0000
  C   C297      1.0  0.12428  0.33690  0.58688  1.0000
  H   H494      1.0  0.11148  0.38057  0.58399  1.0000
  H   H495      1.0  0.11195  0.38007  0.55363  1.0000
  H   H496      1.0  0.12700  0.32415  0.56621  1.0000
  H   H497      1.0  0.12806  0.32484  0.59605  1.0000
  C   C298      1.0  0.04839  0.38743  0.65445  1.0000
  C   C299      1.0  0.03061  0.38791  0.65963  1.0000
  C   C300      1.0  0.02406  0.37536  0.65647  1.0000
  C   C301      1.0  0.03528  0.36221  0.64840  1.0000
  C   C302      1.0  0.05316  0.36125  0.64398  1.0000
  C   C303      1.0  0.05969  0.37404  0.64672  1.0000
  H   H498      1.0  0.02189  0.39813  0.66576  1.0000
  H   H499      1.0  0.01035  0.37583  0.66030  1.0000
  H   H500      1.0  0.06190  0.35101  0.63787  1.0000
  H   H501      1.0  0.07343  0.37361  0.64258  1.0000
  C   C304      1.0  0.13156  0.47146  0.62687  1.0000
  C   C305      1.0  0.12376  0.48062  0.61269  1.0000
  C   C306      1.0  0.11877  0.47149  0.60336  1.0000
  C   C307      1.0  0.12145  0.45327  0.60835  1.0000
  C   C308      1.0  0.12923  0.44423  0.62252  1.0000
  C   C309      1.0  0.13423  0.45329  0.63176  1.0000
  H   H502      1.0  0.00236  0.45484  0.57277  1.0000
  H   H503      1.0  0.11267  0.47855  0.59247  1.0000
  H   H504      1.0  0.13163  0.43018  0.62631  1.0000
  H   H505      1.0  0.14022  0.44612  0.64270  1.0000
  H   H506      1.0  0.16790  0.42421  0.66073  1.0000
  H   H507      1.0  0.08117  0.34125  0.56373  1.0000
  H   H508      1.0  0.06258  0.42575  0.61891  1.0000
  N   N25       1.0  0.07685  0.38718  0.72348  1.0000
  C   C310      1.0  0.01583  0.47613  0.72298  1.0000
  H   H509      1.0  0.06013  0.42943  0.58980  1.0000
  H   H510      1.0  0.02722  0.32817  0.59588  1.0000
  C   C311      1.0  0.06870  0.42045  0.72317  1.0000
  C   C312      1.0  0.08657  0.38622  0.70512  1.0000
  C   C313      1.0  0.03503  0.15354  0.50023  1.0000
  H   H511      1.0  0.00800  0.21461  0.55286  1.0000
  Fe  Fe40      1.0  0.22380  0.00966  0.49582  1.0000
  H   H512      1.0  0.06182  0.30590  0.49858  1.0000
  H   H513      1.0  0.05096  0.40130  0.71902  1.0000
  H   H514      1.0  0.99287  0.48049  0.58629  1.0000
  H   H515      1.0  0.07510  0.21895  0.56386  1.0000
  H   H516      1.0  0.10469  0.21566  0.59184  1.0000
  C   C314      1.0  0.11580  0.42753  0.70625  1.0000
  C   C315      1.0  0.12605  0.41100  0.71148  1.0000
  C   C316      1.0  0.13213  0.39940  0.70034  1.0000
  C   C317      1.0  0.12821  0.40436  0.68380  1.0000
  C   C318      1.0  0.11875  0.42126  0.67818  1.0000
  C   C319      1.0  0.11249  0.43282  0.68943  1.0000
  H   H517      1.0  0.04618  0.38064  0.50610  1.0000
  H   H518      1.0  0.13979  0.38648  0.70460  1.0000
  H   H519      1.0  0.11644  0.42551  0.66514  1.0000
  H   H520      1.0  0.10518  0.44584  0.68504  1.0000
  H   H521      1.0  0.99747  0.21967  0.52793  1.0000
  H   H522      1.0  0.11141  0.25056  0.48713  1.0000
  C   C320      1.0  0.00212  0.19377  0.51164  1.0000
  H   H523      1.0  0.19826  0.04502  0.58732  1.0000
  C   C321      1.0  0.07516  0.35229  0.57038  1.0000
  H   H524      1.0  0.04213  0.21619  0.59286  1.0000
  H   H525      1.0  0.04658  0.31665  0.60367  1.0000
  H   H526      1.0  0.08437  0.33673  0.60112  1.0000
  H   H527      1.0  0.09629  0.31603  0.58494  1.0000
  C   C322      1.0  0.04883  0.34099  0.58386  1.0000
  H   H528      1.0  0.00879  0.18198  0.50631  1.0000
  H   H529      1.0  0.06014  0.38112  0.60648  1.0000
  C   C323      1.0  0.03858  0.32988  0.59960  1.0000
  S   S85       1.0  0.20906  0.03692  0.48664  1.0000
  S   S86       1.0  0.21784  0.01203  0.52359  1.0000
  H   H530      1.0  0.24187  0.05504  0.58347  1.0000
  H   H531      1.0  0.10265  0.21730  0.57056  1.0000
  H   H532      1.0  0.20827  0.08921  0.54097  1.0000
  H   H533      1.0  0.11968  0.10484  0.49358  1.0000
  H   H534      1.0  0.21982  0.01212  0.55956  1.0000
  C   C324      1.0  0.10263  0.19197  0.58742  1.0000
  H   H535      1.0  0.05633  0.21970  0.61121  1.0000
  H   H536      1.0  0.02344  0.14903  0.50182  1.0000
  C   C325      1.0  0.05760  0.38858  0.72604  1.0000
  C   C326      1.0  0.03991  0.16632  0.48559  1.0000
  H   H537      1.0  0.06009  0.46440  0.61683  1.0000
  C   C327      1.0  0.04857  0.33142  0.50386  1.0000
  H   H538      1.0  0.07360  0.43008  0.72661  1.0000
  C   C328      1.0  0.07987  0.40068  0.69023  1.0000
  C   C329      1.0  0.30091  0.02690  0.54077  1.0000
  H   H539      1.0  0.14649  0.46733  0.71693  1.0000
  C   C330      1.0  0.01397  0.34237  0.49333  1.0000
  C   C331      1.0  0.04947  0.31182  0.50666  1.0000
  H   H540      1.0  0.03896  0.17069  0.54156  1.0000
  S   S87       1.0  0.13808  0.48216  0.63890  1.0000
  S   S88       1.0  0.01125  0.29085  0.51018  1.0000
  H   H541      1.0  0.20246  0.03050  0.55515  1.0000
  S   S89       1.0  0.26242  0.01017  0.53292  1.0000
  H   H542      1.0  0.08640  0.45489  0.65839  1.0000
  H   H543      1.0  0.19107  0.05845  0.56063  1.0000
  C   C332      1.0  0.27494  0.02372  0.53420  1.0000
  H   H544      1.0  0.03177  0.32169  0.53828  1.0000
  H   H545      1.0  0.21075  0.07722  0.58623  1.0000
  Fe  Fe41      1.0  0.11067  0.18152  0.48773  1.0000
  C   C333      1.0  0.06056  0.24640  0.50256  1.0000
  C   C334      1.0  0.03669  0.41252  0.61378  1.0000
  C   C335      1.0  0.03660  0.18513  0.53854  1.0000
  C   C336      1.0  0.29475  0.04499  0.53753  1.0000
  C   C337      1.0  0.04822  0.36622  0.51037  1.0000
  H   H546      1.0  0.08946  0.46793  0.63695  1.0000
  H   H547      1.0  0.02070  0.46534  0.60008  1.0000
  C   C338      1.0  0.99405  0.45405  0.58562  1.0000
  H   H548      1.0  0.04965  0.18828  0.53377  1.0000
  H   H549      1.0  0.02653  0.44921  0.73359  1.0000
  H   H550      1.0  0.09795  0.18535  0.60103  1.0000
  H   H551      1.0  0.01387  0.16410  0.53333  1.0000
  H   H552      1.0  0.03194  0.45904  0.57396  1.0000
  H   H553      1.0  0.02313  0.35913  0.54361  1.0000
  H   H554      1.0  0.01413  0.48000  0.62356  1.0000
  C   C339      1.0  0.06694  0.45114  0.61502  1.0000
  N   N26       1.0  0.03286  0.34148  0.51434  1.0000
  N   N27       1.0  0.15536  0.39797  0.56606  1.0000
  C   C340      1.0  0.14154  0.40537  0.55532  1.0000
  C   C341      1.0  0.17281  0.39391  0.55405  1.0000
  C   C342      1.0  0.15576  0.41079  0.57590  1.0000
  C   C343      1.0  0.15123  0.38167  0.57894  1.0000
  C   C344      1.0  0.12359  0.41448  0.56460  1.0000
  C   C345      1.0  0.17519  0.37971  0.54407  1.0000
  C   C346      1.0  0.15919  0.42857  0.56468  1.0000
  C   C347      1.0  0.16504  0.37085  0.58972  1.0000
  H   H555      1.0  0.14585  0.41490  0.54324  1.0000
  H   H556      1.0  0.13921  0.39491  0.55063  1.0000
  H   H557      1.0  0.18353  0.39004  0.56125  1.0000
  H   H558      1.0  0.17532  0.40576  0.54391  1.0000
  H   H559      1.0  0.14342  0.41332  0.58567  1.0000
  H   H560      1.0  0.16607  0.40540  0.58362  1.0000
  H   H561      1.0  0.13890  0.38484  0.58846  1.0000
  H   H562      1.0  0.14892  0.37270  0.57230  1.0000
  H   H563      1.0  0.12365  0.42770  0.56547  1.0000
  H   H564      1.0  0.11373  0.41613  0.55695  1.0000
  H   H565      1.0  0.11916  0.40702  0.57788  1.0000
  H   H566      1.0  0.16568  0.38337  0.53557  1.0000
  H   H567      1.0  0.18835  0.37812  0.53546  1.0000
  H   H568      1.0  0.17436  0.36680  0.55289  1.0000
  H   H569      1.0  0.15043  0.43493  0.55543  1.0000
  H   H570      1.0  0.17291  0.42734  0.55747  1.0000
  H   H571      1.0  0.15689  0.43753  0.57344  1.0000
  H   H572      1.0  0.17742  0.36533  0.58149  1.0000
  H   H573      1.0  0.16008  0.35961  0.59895  1.0000
  H   H574      1.0  0.16761  0.37831  0.59772  1.0000
  H   H575      1.0  0.07769  0.22929  0.62073  1.0000
  C   C348      1.0  0.02899  0.43156  0.61552  1.0000
  H   H576      1.0  0.06186  0.43948  0.67787  1.0000
  H   H577      1.0  0.15272  0.44606  0.72986  1.0000
  H   H578      1.0  0.99798  0.44050  0.66138  1.0000
  C   C349      1.0  0.08909  0.24807  0.58534  1.0000
  H   H579      1.0  0.08754  0.37340  0.70234  1.0000
  S   S90       1.0  0.99740  0.41967  0.58596  1.0000
  C   C350      1.0  0.04937  0.22233  0.58009  1.0000
  C   C351      1.0  0.06919  0.21484  0.57792  1.0000
  H   H580      1.0  0.12400  0.47104  0.67881  1.0000
  H   H581      1.0  0.01484  0.32505  0.51867  1.0000
  H   H582      1.0  0.04955  0.36269  0.52410  1.0000
  H   H583      1.0  0.08078  0.22249  0.51076  1.0000
  H   H584      1.0  0.02684  0.40466  0.62093  1.0000
  H   H585      1.0  0.09267  0.20822  0.62006  1.0000
  H   H586      1.0  0.08377  0.47104  0.69975  1.0000
  N   N28       1.0  0.04128  0.44374  0.60809  1.0000
  C   C352      1.0  0.32074  0.01857  0.49178  1.0000
  H   H587      1.0  0.23205  0.03771  0.54646  1.0000
  H   H588      1.0  0.23511  0.02844  0.56805  1.0000
  C   C353      1.0  0.12895  0.47644  0.68698  1.0000
  H   H589      1.0  0.04776  0.43797  0.63341  1.0000
  H   H590      1.0  0.31580  0.04952  0.49907  1.0000
  H   H591      1.0  0.20584  0.02104  0.57722  1.0000
  C   C354      1.0  0.24655  0.05594  0.56927  1.0000
  C   C355      1.0  0.05434  0.43892  0.61947  1.0000
  C   C356      1.0  0.02609  0.19355  0.52409  1.0000
  H   H592      1.0  0.20726  0.06031  0.54121  1.0000
  C   C357      1.0  0.22512  0.03628  0.56036  1.0000
  H   H593      1.0  0.03823  0.37749  0.72213  1.0000
  H   H594      1.0  0.03882  0.30950  0.50241  1.0000
  H   H595      1.0  0.11707  0.18797  0.58463  1.0000
  S   S91       1.0  0.03260  0.48372  0.72559  1.0000
  C   C358      1.0  0.21232  0.02457  0.56335  1.0000
  Fe  Fe42      1.0  0.09613  0.32637  0.50279  1.0000
  C   C359      1.0  0.00523  0.17462  0.53988  1.0000
  H   H596      1.0  0.04481  0.44021  0.66806  1.0000
  H   H597      1.0  0.04950  0.30481  0.52037  1.0000
  H   H598      1.0  0.29150  0.04425  0.49953  1.0000
  H   H599      1.0  0.05665  0.36420  0.55291  1.0000
  H   H600      1.0  0.00480  0.34710  0.51897  1.0000
  H   H601      1.0  0.02388  0.43090  0.62970  1.0000
  H   H602      1.0  0.06124  0.37964  0.56215  1.0000
  H   H603      1.0  0.07044  0.19902  0.61035  1.0000
  C   C360      1.0  0.03385  0.33517  0.53330  1.0000
  H   H604      1.0  0.08644  0.41165  0.68681  1.0000
  C   C361      1.0  0.15606  0.45473  0.71685  1.0000
  H   H605      1.0  0.05909  0.45213  0.58412  1.0000
  H   H606      1.0  0.16841  0.07059  0.49215  1.0000
  H   H607      1.0  0.18796  0.45250  0.65320  1.0000
  S   S92       1.0  0.10710  0.44168  0.72059  1.0000
  H   H608      1.0  0.06203  0.48383  0.64345  1.0000
  H   H609      1.0  0.07596  0.31350  0.58305  1.0000
  C   C362      1.0  0.06692  0.22862  0.51455  1.0000
  C   C363      1.0  0.09999  0.24449  0.49117  1.0000
  H   H610      1.0  0.06244  0.24539  0.59334  1.0000
  C   C364      1.0  0.20324  0.06325  0.55441  1.0000
  H   H611      1.0  0.06564  0.40568  0.69275  1.0000
  H   H612      1.0  0.15928  0.41860  0.68390  1.0000
  C   C365      1.0  0.06678  0.36760  0.55710  1.0000
  H   H613      1.0  0.05386  0.33357  0.57343  1.0000
  H   H614      1.0  0.08624  0.35581  0.57267  1.0000
  C   C366      1.0  0.07029  0.21312  0.60787  1.0000
  C   C367      1.0  0.23160  0.06372  0.55932  1.0000
  Fe  Fe43      1.0  0.20558  0.04025  0.51367  1.0000
  C   C368      1.0  0.05459  0.44739  0.66765  1.0000
  H   H615      1.0  0.02711  0.20744  0.51947  1.0000
  S   S93       1.0  0.13183  0.18264  0.49940  1.0000
  C   C369      1.0  0.07464  0.23970  0.58483  1.0000
  H   H616      1.0  0.12939  0.40710  0.72407  1.0000
  C   C370      1.0  0.04514  0.14665  0.51297  1.0000
  H   H617      1.0  0.06518  0.23038  0.52790  1.0000
  C   C371      1.0  0.07887  0.21536  0.62136  1.0000
  H   H618      1.0  0.01981  0.20976  0.49260  1.0000
  H   H619      1.0  0.21886  0.04123  0.59168  1.0000
  H   H620      1.0  0.01143  0.45836  0.63234  1.0000
  C   C372      1.0  0.01629  0.33862  0.51224  1.0000
  C   C373      1.0  0.28785  0.04738  0.48683  1.0000
  N   N29       1.0  0.06317  0.34678  0.58741  1.0000
  H   H621      1.0  0.06063  0.33211  0.50705  1.0000
  H   H622      1.0  0.03919  0.47174  0.60088  1.0000
  C   C374      1.0  0.09727  0.21203  0.58447  1.0000
  H   H623      1.0  0.08403  0.26242  0.58349  1.0000
  H   H624      1.0  0.01018  0.32337  0.67626  1.0000
  H   H625      1.0  0.08285  0.30402  0.60300  1.0000
  H   H626      1.0  0.03992  0.41128  0.60007  1.0000
  C   C375      1.0  0.14887  0.47442  0.68157  1.0000
  C   C376      1.0  0.18666  0.46255  0.66041  1.0000
  H   H627      1.0  0.10041  0.38654  0.70339  1.0000
  H   H628      1.0  0.05646  0.36136  0.72838  1.0000
  C   C377      1.0  0.08604  0.46844  0.65093  1.0000
  C   C378      1.0  0.17859  0.45686  0.67994  1.0000
  H   H629      1.0  0.02186  0.33919  0.55945  1.0000
  H   H630      1.0  0.29550  0.00223  0.54221  1.0000
  C   C379      1.0  0.03946  0.44536  0.57664  1.0000
  H   H631      1.0  0.20390  0.06320  0.60600  1.0000
  C   C380      1.0  0.04504  0.46573  0.67063  1.0000
  C   C381      1.0  0.07367  0.33232  0.59896  1.0000
  H   H632      1.0  0.04521  0.37169  0.58969  1.0000
  H   H633      1.0  0.06931  0.42448  0.70901  1.0000
  C   C382      1.0  0.15522  0.44608  0.70275  1.0000
  S   S94       1.0  0.99232  0.39145  0.63216  1.0000
  N   N30       1.0  0.15972  0.45600  0.68420  1.0000
  H   H634      1.0  0.18690  0.44414  0.68514  1.0000
  C   C383      1.0  0.31815  0.05980  0.48719  1.0000
  C   C384      1.0  0.29086  0.01626  0.53938  1.0000
  H   H635      1.0  0.07199  0.20982  0.63463  1.0000
  C   C385      1.0  0.05502  0.36170  0.59647  1.0000
  C   C386      1.0  0.03090  0.46215  0.60772  1.0000
  H   H636      1.0  0.18603  0.08811  0.54586  1.0000
  H   H637      1.0  0.04753  0.35704  0.60968  1.0000
  H   H638      1.0  0.04575  0.23670  0.57837  1.0000
  H   H639      1.0  0.04483  0.21932  0.56991  1.0000
  H   H640      1.0  0.07416  0.45603  0.68496  1.0000
  H   H641      1.0  0.08298  0.35887  0.73162  1.0000
  C   C387      1.0  0.06767  0.37133  0.59870  1.0000
  H   H642      1.0  0.25587  0.06465  0.56457  1.0000
  H   H643      1.0  0.15823  0.45400  0.65868  1.0000
  C   C388      1.0  0.15623  0.44672  0.67250  1.0000
  H   H644      1.0  0.25414  0.04303  0.56680  1.0000
  H   H645      1.0  0.14230  0.44624  0.67572  1.0000
  S   S95       1.0  0.16150  0.13679  0.50468  1.0000
  H   H646      1.0  0.07095  0.20046  0.58058  1.0000
  S   S96       1.0  0.00433  0.36860  0.60211  1.0000
  H   H647      1.0  0.07411  0.37851  0.58606  1.0000
  S   S97       1.0  0.99734  0.25567  0.51415  1.0000
  C   C389      1.0  0.16635  0.42760  0.67337  1.0000
  H   H648      1.0  0.17968  0.42518  0.67541  1.0000
  H   H649      1.0  0.03360  0.18715  0.51312  1.0000
  H   H650      1.0  0.09351  0.24333  0.59780  1.0000
  C   C390      1.0  0.06549  0.16455  0.49593  1.0000
  H   H651      1.0  0.23736  0.06484  0.54516  1.0000
  H   H652      1.0  0.09672  0.47305  0.65287  1.0000
  H   H653      1.0  0.09524  0.24389  0.50531  1.0000
  H   H654      1.0  0.07506  0.45185  0.60169  1.0000
  H   H655      1.0  0.04649  0.24743  0.50351  1.0000
  H   H656      1.0  0.07761  0.36261  0.60599  1.0000
  H   H657      1.0  0.15239  0.48227  0.68858  1.0000
  S   S98       1.0  0.23002  0.04982  0.50818  1.0000
  C   C391      1.0  0.02131  0.46621  0.62563  1.0000
  Fe  Fe44      1.0  0.99803  0.28134  0.49527  1.0000
  H   H658      1.0  0.99413  0.43308  0.70565  1.0000
  H   H659      1.0  0.00399  0.42576  0.68559  1.0000
  H   H660      1.0  0.03286  0.36491  0.49382  1.0000
  H   H661      1.0  0.02051  0.36864  0.51437  1.0000
  H   H662      1.0  0.04703  0.33430  0.53510  1.0000
  C   C392      1.0  0.05090  0.44234  0.58982  1.0000
  N   N31       1.0  0.21723  0.05395  0.56476  1.0000
  S   S99       1.0  0.30652  0.05853  0.54015  1.0000
  H   H663      1.0  0.06321  0.44803  0.65455  1.0000
  Fe  Fe45      1.0  0.00420  0.36376  0.63047  1.0000
  H   H664      1.0  0.22673  0.07743  0.56064  1.0000
  H   H665      1.0  0.03475  0.46405  0.68277  1.0000
  S   S100      1.0  0.11471  0.15241  0.49542  1.0000
  H   H666      1.0  0.99665  0.45749  0.68404  1.0000
  H   H667      1.0  0.31085  0.01971  0.50394  1.0000
  C   C393      1.0  0.07996  0.40209  0.72876  1.0000
  H   H668      1.0  0.05549  0.46497  0.69888  1.0000
  H   H669      1.0  0.15163  0.48128  0.66765  1.0000
  H   H670      1.0  0.05807  0.37467  0.70631  1.0000
  H   H671      1.0  0.05497  0.42153  0.73033  1.0000
  C   C394      1.0  0.07558  0.47953  0.69042  1.0000
  C   C395      1.0  0.05262  0.37460  0.72031  1.0000
  C   C396      1.0  0.99551  0.20697  0.53654  1.0000
  H   H672      1.0  0.14946  0.06301  0.49290  1.0000
  H   H673      1.0  0.00711  0.34728  0.54512  1.0000
  C   C397      1.0  0.00069  0.45293  0.72966  1.0000
  H   H674      1.0  0.06060  0.36073  0.50209  1.0000
  C   C398      1.0  0.02066  0.34600  0.54586  1.0000
  C   C399      1.0  0.13403  0.10213  0.48889  1.0000
  H   H675      1.0  0.17916  0.47518  0.65409  1.0000
  H   H676      1.0  0.99823  0.22223  0.50031  1.0000
  H   H677      1.0  0.99602  0.41113  0.70432  1.0000
  H   H678      1.0  0.99433  0.46903  0.66202  1.0000
  H   H679      1.0  0.09374  0.40311  0.72374  1.0000
  H   H680      1.0  0.00170  0.33894  0.49363  1.0000
  H   H681      1.0  0.05058  0.22414  0.48955  1.0000
  H   H682      1.0  0.99822  0.30672  0.68433  1.0000
  H   H683      1.0  0.05074  0.11514  0.49421  1.0000
  H   H684      1.0  0.04434  0.09589  0.49496  1.0000
  H   H685      1.0  0.31008  0.07257  0.48971  1.0000
  H   H686      1.0  0.27976  0.03797  0.48836  1.0000
  H   H687      1.0  0.04986  0.33729  0.48965  1.0000
  C   C400      1.0  0.99332  0.42502  0.69720  1.0000
  H   H688      1.0  0.17128  0.05102  0.48611  1.0000
  H   H689      1.0  0.01262  0.35639  0.48693  1.0000
  H   H690      1.0  0.00030  0.43946  0.73497  1.0000
  C   C401      1.0  0.04581  0.10893  0.48672  1.0000
  C   C402      1.0  0.16274  0.06428  0.48552  1.0000
  H   H691      1.0  0.10712  0.48715  0.72361  1.0000
  H   H692      1.0  0.00165  0.20909  0.48524  1.0000
  H   H693      1.0  0.18196  0.44672  0.96630  1.0000
  H   H694      1.0  0.25885  0.46202  0.82730  1.0000
  H   H695      1.0  0.10549  0.47325  0.74420  1.0000
  H   H696      1.0  0.15150  0.45705  0.83242  1.0000
  C   C403      1.0  0.00372  0.44635  0.79891  1.0000
  H   H697      1.0  0.25087  0.39354  0.90242  1.0000
  H   H698      1.0  0.03068  0.41863  0.80414  1.0000
  H   H699      1.0  0.15596  0.47803  0.88182  1.0000
  H   H700      1.0  0.28329  0.43695  0.80573  1.0000
  H   H701      1.0  0.27816  0.43235  0.86708  1.0000
  C   C404      1.0  0.00901  0.47129  0.80552  1.0000
  Fe  Fe46      1.0  0.12361  0.40813  0.77923  1.0000
  S   S101      1.0  0.09829  0.40681  0.79855  1.0000
  S   S102      1.0  0.15077  0.39885  0.78472  1.0000
  H   H702      1.0  0.30580  0.44092  0.84593  1.0000
  H   H703      1.0  0.20329  0.43531  0.81091  1.0000
  H   H704      1.0  0.26296  0.40190  0.96110  1.0000
  Fe  Fe47      1.0  0.08982  0.43464  0.78488  1.0000
  H   H705      1.0  0.26076  0.43841  0.98272  1.0000
  Fe  Fe48      1.0  0.08967  0.40068  0.77758  1.0000
  S   S103      1.0  0.07408  0.38092  0.78106  1.0000
  S   S104      1.0  0.11559  0.43647  0.76685  1.0000
  S   S105      1.0  0.11584  0.39924  0.75940  1.0000
  S   S106      1.0  0.32129  0.46222  0.86011  1.0000
  H   H706      1.0  0.18756  0.47995  0.77854  1.0000
  Fe  Fe49      1.0  0.18578  0.40350  0.86345  1.0000
  S   S107      1.0  0.18247  0.40517  0.89113  1.0000
  S   S108      1.0  0.16159  0.39928  0.85847  1.0000
  Fe  Fe50      1.0  0.22182  0.41093  0.85330  1.0000
  S   S109      1.0  0.22157  0.41343  0.87980  1.0000
  Fe  Fe51      1.0  0.21003  0.39000  0.88931  1.0000
  S   S110      1.0  0.21827  0.37028  0.91265  1.0000
  Fe  Fe52      1.0  0.19423  0.42832  0.87966  1.0000
  S   S111      1.0  0.18530  0.45157  0.89134  1.0000
  S   S112      1.0  0.21252  0.38590  0.86258  1.0000
  S   S113      1.0  0.19528  0.42832  0.85211  1.0000
  C   C405      1.0  0.18611  0.43516  0.79432  1.0000
  C   C406      1.0  0.21138  0.38017  0.93060  1.0000
  C   C407      1.0  0.20228  0.39758  0.92863  1.0000
  C   C408      1.0  0.19566  0.40520  0.94306  1.0000
  C   C409      1.0  0.19875  0.39573  0.95945  1.0000
  C   C410      1.0  0.20865  0.37856  0.96137  1.0000
  C   C411      1.0  0.21467  0.37067  0.94698  1.0000
  H   H707      1.0  0.19998  0.40519  0.91607  1.0000
  H   H708      1.0  0.18798  0.41844  0.94152  1.0000
  H   H709      1.0  0.21092  0.37115  0.97408  1.0000
  H   H710      1.0  0.22158  0.35716  0.94861  1.0000
  C   C412      1.0  0.21317  0.46145  0.86706  1.0000
  C   C413      1.0  0.20190  0.46294  0.88314  1.0000
  N   N32       1.0  0.17115  0.45039  0.79765  1.0000
  H   H711      1.0  0.21216  0.45261  0.85998  1.0000
  H   H712      1.0  0.25509  0.37674  0.96288  1.0000
  C   C414      1.0  0.15360  0.39812  0.80555  1.0000
  C   C415      1.0  0.13940  0.40261  0.81877  1.0000
  C   C416      1.0  0.14208  0.40258  0.83502  1.0000
  C   C417      1.0  0.15896  0.39845  0.83806  1.0000
  C   C418      1.0  0.17317  0.39365  0.82497  1.0000
  C   C419      1.0  0.17047  0.39343  0.80879  1.0000
  H   H713      1.0  0.12636  0.40622  0.81647  1.0000
  H   H714      1.0  0.13101  0.40616  0.84514  1.0000
  H   H715      1.0  0.18620  0.39002  0.82734  1.0000
  H   H716      1.0  0.18150  0.38975  0.79867  1.0000
  S   S114      1.0  0.18896  0.40532  0.97741  1.0000
  C   C420      1.0  0.25583  0.38249  0.92861  1.0000
  H   H717      1.0  0.18838  0.42094  0.82104  1.0000
  H   H718      1.0  0.30981  0.43858  0.80807  1.0000
  H   H719      1.0  0.25088  0.40945  0.94388  1.0000
  C   C421      1.0  0.03848  0.42469  0.80869  1.0000
  H   H720      1.0  0.18150  0.42470  0.79197  1.0000
  H   H721      1.0  0.24573  0.40927  0.91506  1.0000
  H   H722      1.0  0.14341  0.46038  0.87221  1.0000
  N   N33       1.0  0.27139  0.37782  0.93686  1.0000
  H   H723      1.0  0.19418  0.47595  0.90430  1.0000
  H   H724      1.0  0.26522  0.45463  0.80095  1.0000
  H   H725      1.0  0.25723  0.44168  0.86100  1.0000
  H   H726      1.0  0.27704  0.40385  0.80929  1.0000
  H   H727      1.0  0.30680  0.39250  0.81489  1.0000
  C   C422      1.0  0.26150  0.35089  0.95886  1.0000
  N   N34       1.0  0.28444  0.45598  0.83338  1.0000
  H   H728      1.0  0.20722  0.48114  0.96192  1.0000
  H   H729      1.0  0.26818  0.41916  0.94311  1.0000
  H   H730      1.0  0.32327  0.39307  0.96007  1.0000
  H   H731      1.0  0.29480  0.43841  0.96798  1.0000
  C   C423      1.0  0.19141  0.47164  0.79075  1.0000
  N   N35       1.0  0.19851  0.46466  0.95105  1.0000
  H   H732      1.0  0.03145  0.47701  0.81141  1.0000
  S   S115      1.0  0.32041  0.38613  0.84503  1.0000
  H   H733      1.0  0.26777  0.43981  0.83330  1.0000
  C   C424      1.0  0.01462  0.39652  0.79231  1.0000
  C   C425      1.0  0.02343  0.38547  0.80517  1.0000
  C   C426      1.0  0.04166  0.38099  0.80171  1.0000
  C   C427      1.0  0.05126  0.38810  0.78562  1.0000
  C   C428      1.0  0.04247  0.39961  0.77287  1.0000
  C   C429      1.0  0.02416  0.40362  0.77610  1.0000
  H   H734      1.0  0.01614  0.38001  0.81775  1.0000
  H   H735      1.0  0.04834  0.37193  0.81154  1.0000
  H   H736      1.0  0.04976  0.40525  0.76049  1.0000
  H   H737      1.0  0.01742  0.41239  0.76619  1.0000
  H   H738      1.0  0.28260  0.35355  0.92825  1.0000
  C   C430      1.0  0.28642  0.36561  0.92792  1.0000
  H   H739      1.0  0.20081  0.44384  0.97410  1.0000
  C   C431      1.0  0.02938  0.44321  0.81147  1.0000
  C   C432      1.0  0.26803  0.44445  0.86472  1.0000
  C   C433      1.0  0.30177  0.43803  0.97800  1.0000
  H   H740      1.0  0.25170  0.35172  0.95151  1.0000
  H   H741      1.0  0.25713  0.40701  0.86285  1.0000
  H   H742      1.0  0.21508  0.34292  0.87717  1.0000
  S   S116      1.0  0.07442  0.45476  0.80026  1.0000
  H   H743      1.0  0.20898  0.32482  0.89455  1.0000
  H   H744      1.0  0.30558  0.36256  0.90410  1.0000
  H   H745      1.0  0.18479  0.36529  0.86787  1.0000
  C   C434      1.0  0.08862  0.46343  0.80627  1.0000
  C   C435      1.0  0.19347  0.35094  0.89831  1.0000
  H   H746      1.0  0.14328  0.43789  0.83821  1.0000
  H   H747      1.0  0.02237  0.44206  0.82533  1.0000
  H   H748      1.0  0.28883  0.38920  0.94330  1.0000
  H   H749      1.0  0.16181  0.46888  0.95409  1.0000
  H   H750      1.0  0.13759  0.47717  0.85409  1.0000
  H   H751      1.0  0.25425  0.37083  0.92530  1.0000
  C   C436      1.0  0.09610  0.47406  0.82749  1.0000
  H   H752      1.0  0.28712  0.39609  0.86834  1.0000
  H   H753      1.0  0.05116  0.38800  0.74001  1.0000
  C   C437      1.0  0.02838  0.45962  0.78095  1.0000
  H   H754      1.0  0.19102  0.34240  0.86954  1.0000
  H   H755      1.0  0.23265  0.47218  0.84652  1.0000
  H   H756      1.0  0.14337  0.45292  0.80809  1.0000
  C   C438      1.0  0.22577  0.48428  0.86834  1.0000
  C   C439      1.0  0.29940  0.44039  0.83579  1.0000
  N   N36       1.0  0.17708  0.35010  0.89384  1.0000
  C   C440      1.0  0.16292  0.36493  0.89966  1.0000
  C   C441      1.0  0.18036  0.35291  0.87428  1.0000
  C   C442      1.0  0.17314  0.33242  0.90278  1.0000
  C   C443      1.0  0.15958  0.36515  0.91909  1.0000
  C   C444      1.0  0.16507  0.35346  0.86651  1.0000
  C   C445      1.0  0.15403  0.33098  0.90617  1.0000
  H   H757      1.0  0.15029  0.36547  0.89691  1.0000
  H   H758      1.0  0.16603  0.37764  0.89203  1.0000
  S   S117      1.0  0.31218  0.41645  0.87815  1.0000
  H   H759      1.0  0.04070  0.41589  0.82135  1.0000
  H   H760      1.0  0.18142  0.32247  0.89532  1.0000
  H   H761      1.0  0.17662  0.32806  0.91583  1.0000
  H   H762      1.0  0.15840  0.35227  0.92778  1.0000
  H   H763      1.0  0.16999  0.36961  0.92174  1.0000
  H   H764      1.0  0.14724  0.37469  0.92251  1.0000
  H   H765      1.0  0.15334  0.36351  0.87014  1.0000
  H   H766      1.0  0.16197  0.34046  0.86981  1.0000
  H   H767      1.0  0.16900  0.35705  0.85207  1.0000
  H   H768      1.0  0.15392  0.31787  0.90493  1.0000
  H   H769      1.0  0.14618  0.34053  0.89717  1.0000
  H   H770      1.0  0.14733  0.33162  0.91982  1.0000
  H   H771      1.0  0.23697  0.46954  0.93383  1.0000
  C   C446      1.0  0.11431  0.47529  0.79861  1.0000
  H   H772      1.0  0.04094  0.46197  0.78144  1.0000
  H   H773      1.0  0.10679  0.46465  0.78159  1.0000
  C   C447      1.0  0.27144  0.45228  0.82577  1.0000
  H   H774      1.0  0.16508  0.47461  0.80588  1.0000
  H   H775      1.0  0.15558  0.47171  0.78197  1.0000
  H   H776      1.0  0.07324  0.46394  0.83217  1.0000
  H   H777      1.0  0.16828  0.47363  0.97869  1.0000
  H   H778      1.0  0.29462  0.42820  0.84065  1.0000
  H   H779      1.0  0.28218  0.40086  0.92379  1.0000
  N   N37       1.0  0.01783  0.45467  0.79917  1.0000
  S   S118      1.0  0.32161  0.39429  0.92507  1.0000
  C   C448      1.0  0.15589  0.44427  0.81088  1.0000
  Fe  Fe53      1.0  0.10561  0.42762  0.74880  1.0000
  H   H780      1.0  0.03942  0.43354  0.77498  1.0000
  C   C449      1.0  0.17647  0.46364  0.80344  1.0000
  H   H781      1.0  0.26861  0.48691  0.81095  1.0000
  H   H782      1.0  0.20685  0.41528  0.80472  1.0000
  C   C450      1.0  0.29598  0.39570  0.82538  1.0000
  C   C451      1.0  0.25546  0.39742  0.91203  1.0000
  H   H783      1.0  0.29884  0.38449  0.90622  1.0000
  C   C452      1.0  0.21979  0.43693  0.94270  1.0000
  H   H784      1.0  0.99959  0.43069  0.82589  1.0000
  H   H785      1.0  0.19479  0.48026  0.79700  1.0000
  H   H786      1.0  0.26409  0.47074  0.85034  1.0000
  H   H787      1.0  0.27312  0.34045  0.95583  1.0000
  H   H788      1.0  0.10513  0.37741  0.74205  1.0000
  C   C453      1.0  0.18016  0.46436  0.98232  1.0000
  S   S119      1.0  0.07896  0.42837  0.76573  1.0000
  H   H789      1.0  0.17176  0.46913  0.93138  1.0000
  C   C454      1.0  0.29407  0.37253  0.90856  1.0000
  H   H790      1.0  0.27724  0.36597  0.96253  1.0000
  C   C455      1.0  0.21039  0.33847  0.89140  1.0000
  H   H791      1.0  0.02089  0.44601  0.76549  1.0000
  C   C456      1.0  0.10362  0.46729  0.79434  1.0000
  H   H792      1.0  0.16659  0.43646  0.77055  1.0000
  C   C457      1.0  0.15716  0.44842  0.77369  1.0000
  C   C458      1.0  0.07187  0.47137  0.74670  1.0000
  S   S120      1.0  0.24424  0.41508  0.83079  1.0000
  C   C459      1.0  0.16526  0.45925  0.78071  1.0000
  C   C460      1.0  0.19055  0.45407  0.96818  1.0000
  H   H793      1.0  0.23113  0.44008  0.94496  1.0000
  C   C461      1.0  0.29895  0.39368  0.84193  1.0000
  H   H794      1.0  0.07594  0.36975  0.74909  1.0000
  H   H795      1.0  0.19564  0.43912  0.78217  1.0000
  H   H796      1.0  0.22450  0.43027  0.93167  1.0000
  H   H797      1.0  0.18063  0.45799  0.81608  1.0000
  H   H798      1.0  0.14532  0.44475  0.78279  1.0000
  C   C462      1.0  0.28488  0.39773  0.85550  1.0000
  C   C463      1.0  0.26502  0.40609  0.83569  1.0000
  C   C464      1.0  0.27914  0.40210  0.82222  1.0000
  C   C465      1.0  0.22492  0.47237  0.85950  1.0000
  C   C466      1.0  0.08478  0.46695  0.82285  1.0000
  C   C467      1.0  0.26388  0.40669  0.94684  1.0000
  C   C468      1.0  0.27698  0.45066  0.80663  1.0000
  H   H799      1.0  0.15314  0.45641  0.76142  1.0000
  H   H800      1.0  0.28424  0.46310  0.85706  1.0000
  C   C469      1.0  0.26645  0.36849  0.95567  1.0000
  C   C470      1.0  0.27741  0.39350  0.93703  1.0000
  H   H801      1.0  0.24368  0.38644  0.93816  1.0000
  C   C471      1.0  0.21276  0.47116  0.95387  1.0000
  H   H802      1.0  0.17625  0.46294  0.77007  1.0000
  H   H803      1.0  0.19225  0.34803  0.91267  1.0000
  H   H804      1.0  0.30988  0.42450  0.98078  1.0000
  H   H805      1.0  0.26803  0.40093  0.90527  1.0000
  C   C472      1.0  0.19655  0.42642  0.80872  1.0000
  H   H806      1.0  0.22079  0.33859  0.89764  1.0000
  H   H807      1.0  0.15531  0.43120  0.81002  1.0000
  H   H808      1.0  0.28557  0.45933  0.79819  1.0000
  H   H809      1.0  0.29734  0.36139  0.93494  1.0000
  C   C473      1.0  0.15441  0.44373  0.83020  1.0000
  H   H810      1.0  0.19576  0.36438  0.89349  1.0000
  C   C474      1.0  0.27536  0.45948  0.85120  1.0000
  C   C475      1.0  0.29122  0.47188  0.82272  1.0000
  H   H811      1.0  0.00233  0.46841  0.81946  1.0000
  H   H812      1.0  0.08430  0.48064  0.76911  1.0000
  H   H813      1.0  0.16601  0.43578  0.83521  1.0000
  C   C476      1.0  0.26789  0.40380  0.85241  1.0000
  H   H814      1.0  0.19507  0.44838  0.93608  1.0000
  H   H815      1.0  0.22129  0.46030  0.96142  1.0000
  H   H816      1.0  0.28474  0.37447  0.90026  1.0000
  C   C477      1.0  0.14793  0.48530  0.87196  1.0000
  H   H817      1.0  0.18048  0.48629  0.86448  1.0000
  H   H818      1.0  0.99867  0.47926  0.79822  1.0000
  C   C478      1.0  0.11076  0.47844  0.81525  1.0000
  H   H819      1.0  0.21452  0.42745  0.95416  1.0000
  H   H820      1.0  0.00900  0.43461  0.79335  1.0000
  H   H821      1.0  0.29972  0.46973  0.81007  1.0000
  H   H822      1.0  0.05131  0.42462  0.79956  1.0000
  C   C479      1.0  0.20559  0.45326  0.93800  1.0000
  H   H823      1.0  0.21095  0.46073  0.92500  1.0000
  H   H824      1.0  0.06593  0.46996  0.76076  1.0000
  H   H825      1.0  0.26248  0.44844  0.87735  1.0000
  C   C480      1.0  0.14737  0.47183  0.86241  1.0000
  C   C481      1.0  0.31430  0.43779  0.81984  1.0000
  H   H826      1.0  0.27958  0.48629  0.97859  1.0000
  C   C482      1.0  0.22479  0.47926  0.93719  1.0000
  C   C483      1.0  0.20311  0.47453  0.89209  1.0000
  H   H827      1.0  0.04005  0.44934  0.81077  1.0000
  H   H828      1.0  0.29978  0.47476  0.82953  1.0000
  H   H829      1.0  0.12548  0.47878  0.78906  1.0000
  H   H830      1.0  0.30700  0.46343  0.96259  1.0000
  C   C484      1.0  0.10302  0.36735  0.73674  1.0000
  C   C485      1.0  0.03271  0.44670  0.76911  1.0000
  H   H831      1.0  0.27795  0.41943  0.97832  1.0000
  H   H832      1.0  0.32201  0.45172  0.97699  1.0000
  H   H833      1.0  0.20335  0.46159  0.78765  1.0000
  H   H834      1.0  0.07797  0.39957  0.74319  1.0000
  H   H835      1.0  0.06339  0.46753  0.74067  1.0000
  H   H836      1.0  0.32269  0.42452  0.82292  1.0000
  H   H837      1.0  0.12090  0.48578  0.75498  1.0000
  H   H838      1.0  0.02144  0.47213  0.77359  1.0000
  H   H839      1.0  0.30494  0.37847  0.98374  1.0000
  C   C486      1.0  0.31415  0.45042  0.96859  1.0000
  H   H840      1.0  0.25570  0.34683  0.97293  1.0000
  H   H841      1.0  0.16031  0.46692  0.85461  1.0000
  C   C487      1.0  0.18519  0.48022  0.94421  1.0000
  C   C488      1.0  0.21553  0.48467  0.88501  1.0000
  H   H842      1.0  0.09326  0.47657  0.84037  1.0000
  C   C489      1.0  0.16876  0.47623  0.94191  1.0000
  H   H843      1.0  0.04155  0.45137  0.75676  1.0000
  C   C490      1.0  0.02094  0.48345  0.80409  1.0000
  H   H844      1.0  0.10650  0.35469  0.74597  1.0000
  H   H845      1.0  0.99518  0.45545  0.79012  1.0000
  H   H846      1.0  0.27257  0.46164  0.97836  1.0000
  H   H847      1.0  0.32270  0.44718  0.81697  1.0000
  H   H848      1.0  0.08453  0.46202  0.74492  1.0000
  C   C491      1.0  0.08387  0.37044  0.73554  1.0000
  H   H849      1.0  0.17658  0.48686  0.84424  1.0000
  H   H850      1.0  0.21870  0.48519  0.92576  1.0000
  H   H851      1.0  0.32352  0.44496  0.95776  1.0000
  C   C492      1.0  0.10392  0.48729  0.73769  1.0000
  Fe  Fe54      1.0  0.23121  0.54092  0.00351  1.0000
  H   H852      1.0  0.04369  0.52085  0.08622  1.0000
  H   H853      1.0  0.16295  0.56583  0.16689  1.0000
  H   H854      1.0  0.18888  0.52616  0.06206  1.0000
  C   C493      1.0  0.31855  0.56120  0.03018  1.0000
  H   H855      1.0  0.30949  0.56782  0.00638  1.0000
  S   S121      1.0  0.99959  0.55781  0.09353  1.0000
  H   H856      1.0  0.15488  0.58778  0.12049  1.0000
  C   C494      1.0  0.01686  0.57905  0.09864  1.0000
  H   H857      1.0  0.17102  0.57731  0.09649  1.0000
  N   N38       1.0  0.05204  0.49402  0.09989  1.0000
  H   H858      1.0  0.00140  0.60806  0.13538  1.0000
  H   H859      1.0  0.06783  0.50406  0.21089  1.0000
  H   H860      1.0  0.31174  0.51199  0.01844  1.0000
  H   H861      1.0  0.28701  0.51768  0.04005  1.0000
  C   C495      1.0  0.03763  0.49179  0.11585  1.0000
  S   S122      1.0  0.23905  0.53393  0.05025  1.0000
  C   C496      1.0  0.03559  0.55317  0.12142  1.0000
  Fe  Fe55      1.0  0.10980  0.53322  0.11853  1.0000
  S   S123      1.0  0.11215  0.51730  0.14523  1.0000
  S   S124      1.0  0.13080  0.52238  0.09748  1.0000
  Fe  Fe56      1.0  0.07496  0.55521  0.13281  1.0000
  S   S125      1.0  0.07458  0.54091  0.16069  1.0000
  Fe  Fe57      1.0  0.10263  0.54234  0.15402  1.0000
  S   S126      1.0  0.11833  0.54301  0.17229  1.0000
  Fe  Fe58      1.0  0.08418  0.51734  0.14932  1.0000
  C   C497      1.0  0.06492  0.50115  0.10437  1.0000
  S   S127      1.0  0.10253  0.55867  0.12683  1.0000
  S   S128      1.0  0.08221  0.53142  0.12200  1.0000
  H   H862      1.0  0.23815  0.49976  0.01203  1.0000
  H   H863      1.0  0.01280  0.52352  0.17620  1.0000
  H   H864      1.0  0.04273  0.54320  0.13034  1.0000
  C   C498      1.0  0.04500  0.50730  0.08496  1.0000
  H   H865      1.0  0.03132  0.50460  0.11941  1.0000
  H   H866      1.0  0.28027  0.49794  0.04396  1.0000
  H   H867      1.0  0.00309  0.55336  0.15510  1.0000
  S   S129      1.0  0.19092  0.56224  0.05610  1.0000
  H   H868      1.0  0.15593  0.57418  0.07386  1.0000
  S   S130      1.0  0.99234  0.51495  0.12872  1.0000
  C   C499      1.0  0.06625  0.51828  0.20855  1.0000
  H   H869      1.0  0.30972  0.52855  0.99090  1.0000
  H   H870      1.0  0.31323  0.51637  0.04907  1.0000
  Fe  Fe59      1.0  0.23970  0.51403  0.03595  1.0000
  C   C500      1.0  0.02346  0.54913  0.11472  1.0000
  H   H871      1.0  0.17343  0.54597  0.10417  1.0000
  C   C501      1.0  0.09833  0.50789  0.23102  1.0000
  H   H872      1.0  0.08838  0.51134  0.09420  1.0000
  H   H873      1.0  0.18682  0.57520  0.10935  1.0000
  H   H874      1.0  0.02487  0.49094  0.18233  1.0000
  S   S131      1.0  0.05221  0.57635  0.12568  1.0000
  H   H875      1.0  0.20227  0.53337  0.98614  1.0000
  C   C502      1.0  0.28713  0.55082  0.04632  1.0000
  C   C503      1.0  0.03810  0.57026  0.11687  1.0000
  C   C504      1.0  0.31492  0.55460  0.04815  1.0000
  H   H876      1.0  0.09675  0.51836  0.21922  1.0000
  C   C505      1.0  0.14324  0.58245  0.12341  1.0000
  S   S132      1.0  0.25614  0.52590  0.01154  1.0000
  H   H877      1.0  0.03032  0.59638  0.10217  1.0000
  H   H878      1.0  0.01164  0.59127  0.16708  1.0000
  C   C506      1.0  0.02432  0.56397  0.17013  1.0000
  H   H879      1.0  0.18326  0.54987  0.14424  1.0000
  C   C507      1.0  0.18207  0.56853  0.10219  1.0000
  C   C508      1.0  0.99979  0.52211  0.18305  1.0000
  S   S133      1.0  0.07561  0.49225  0.16109  1.0000
  H   H880      1.0  0.15234  0.53276  0.15082  1.0000
  C   C509      1.0  0.99549  0.56671  0.15060  1.0000
  C   C510      1.0  0.16241  0.53320  0.13854  1.0000
  H   H881      1.0  0.01880  0.58386  0.14772  1.0000
  H   H882      1.0  0.19282  0.56580  0.09094  1.0000
  H   H883      1.0  0.17280  0.57141  0.13634  1.0000
  H   H884      1.0  0.15823  0.54551  0.16846  1.0000
  S   S134      1.0  0.21455  0.52715  0.02705  1.0000
  H   H885      1.0  0.03731  0.56691  0.16764  1.0000
  H   H886      1.0  0.02583  0.49404  0.08259  1.0000
  C   C511      1.0  0.10679  0.55018  0.19141  1.0000
  C   C512      1.0  0.11504  0.54607  0.20540  1.0000
  C   C513      1.0  0.10616  0.55156  0.22087  1.0000
  C   C514      1.0  0.08916  0.56164  0.22223  1.0000
  C   C515      1.0  0.08093  0.56589  0.20817  1.0000
  C   C516      1.0  0.08964  0.55995  0.19286  1.0000
  H   H887      1.0  0.12830  0.53852  0.20435  1.0000
  C   C517      1.0  0.99451  0.52202  0.20084  1.0000
  H   H888      1.0  0.06778  0.57371  0.20917  1.0000
  H   H889      1.0  0.08325  0.56330  0.18205  1.0000
  H   H890      1.0  0.18997  0.54200  0.11587  1.0000
  Fe  Fe60      1.0  0.25330  0.54725  0.02456  1.0000
  C   C518      1.0  0.17405  0.55119  0.06691  1.0000
  Fe  Fe61      1.0  0.21479  0.54801  0.03979  1.0000
  C   C519      1.0  0.16310  0.52469  0.07738  1.0000
  C   C520      1.0  0.14716  0.53378  0.08559  1.0000
  C   C521      1.0  0.14459  0.55165  0.08429  1.0000
  C   C522      1.0  0.15800  0.56033  0.07495  1.0000
  H   H891      1.0  0.08894  0.49405  0.08495  1.0000
  H   H892      1.0  0.16513  0.51088  0.07828  1.0000
  H   H893      1.0  0.13219  0.55881  0.09026  1.0000
  N   N39       1.0  0.16403  0.55174  0.12985  1.0000
  H   H894      1.0  0.13394  0.58692  0.13483  1.0000
  N   N40       1.0  0.99402  0.57823  0.16262  1.0000
  C   C523      1.0  0.01418  0.56211  0.10317  1.0000
  C   C524      1.0  0.06101  0.52581  0.22508  1.0000
  H   H895      1.0  0.31686  0.49670  0.06515  1.0000
  C   C525      1.0  0.02850  0.58317  0.10568  1.0000
  H   H896      1.0  0.07826  0.52210  0.19994  1.0000
  H   H897      1.0  0.06784  0.53662  0.22178  1.0000
  H   H898      1.0  0.00982  0.58909  0.08967  1.0000
  H   H899      1.0  0.26728  0.51155  0.06840  1.0000
  H   H900      1.0  0.01977  0.56046  0.18448  1.0000
  C   C526      1.0  0.15821  0.55876  0.16005  1.0000
  H   H901      1.0  0.13672  0.58872  0.11221  1.0000
  H   H902      1.0  0.27497  0.54688  0.05252  1.0000
  C   C527      1.0  0.02697  0.50706  0.08283  1.0000
  H   H903      1.0  0.02627  0.55260  0.16451  1.0000
  S   S135      1.0  0.27725  0.55824  0.01483  1.0000
  H   H904      1.0  0.12008  0.50651  0.19249  1.0000
  H   H905      1.0  0.15461  0.51081  0.13633  1.0000
  H   H906      1.0  0.11259  0.54819  0.23164  1.0000
  C   C528      1.0  0.29906  0.54969  0.05632  1.0000
  C   C529      1.0  0.30660  0.56257  0.02029  1.0000
  H   H907      1.0  0.14467  0.56573  0.15914  1.0000
  C   C530      1.0  0.01204  0.58023  0.16153  1.0000
  H   H908      1.0  0.08206  0.49130  0.23140  1.0000
  H   H909      1.0  0.05597  0.52437  0.20082  1.0000
  C   C531      1.0  0.14655  0.56239  0.12628  1.0000
  H   H910      1.0  0.10159  0.49287  0.18355  1.0000
  H   H911      1.0  0.13191  0.49813  0.17382  1.0000
  C   C532      1.0  0.15730  0.52338  0.12786  1.0000
  C   C533      1.0  0.17655  0.53334  0.06814  1.0000
  H   H912      1.0  0.22703  0.48791  0.99392  1.0000
  H   H913      1.0  0.16794  0.52006  0.11676  1.0000
  H   H914      1.0  0.13599  0.55832  0.13730  1.0000
  C   C534      1.0  0.29104  0.55714  0.02825  1.0000
  H   H915      1.0  0.17480  0.52514  0.14235  1.0000
  S   S136      1.0  0.22913  0.56312  0.01528  1.0000
  H   H916      1.0  0.05825  0.51313  0.10952  1.0000
  C   C535      1.0  0.17757  0.55114  0.11315  1.0000
  H   H917      1.0  0.10131  0.49748  0.12914  1.0000
  H   H918      1.0  0.29618  0.54469  0.07027  1.0000
  H   H919      1.0  0.14528  0.53072  0.12313  1.0000
  S   S137      1.0  0.00874  0.52487  0.21176  1.0000
  H   H920      1.0  0.14413  0.55967  0.11473  1.0000
  H   H921      1.0  0.02144  0.53604  0.11826  1.0000
  H   H922      1.0  0.04092  0.50187  0.22955  1.0000
  C   C536      1.0  0.17036  0.55818  0.14200  1.0000
  H   H923      1.0  0.28984  0.49727  0.01602  1.0000
  C   C537      1.0  0.12599  0.49424  0.18782  1.0000
  H   H924      1.0  0.04687  0.53214  0.22687  1.0000
  C   C538      1.0  0.08024  0.50576  0.08937  1.0000
  H   H925      1.0  0.07093  0.49166  0.11490  1.0000
  C   C539      1.0  0.28116  0.50457  0.06706  1.0000
  H   H926      1.0  0.07584  0.51575  0.07819  1.0000
  H   H927      1.0  0.10959  0.49739  0.22729  1.0000
  H   H928      1.0  0.05422  0.50609  0.07231  1.0000
  H   H929      1.0  0.30974  0.49285  0.00066  1.0000
  H   H930      1.0  0.02442  0.51601  0.07033  1.0000
  C   C540      1.0  0.28889  0.50392  0.04773  1.0000
  H   H931      1.0  0.04747  0.49756  0.19058  1.0000
  H   H932      1.0  0.03309  0.49073  0.21027  1.0000
  C   C541      1.0  0.31823  0.50199  0.05084  1.0000
  C   C542      1.0  0.31333  0.49772  0.02399  1.0000
  H   H933      1.0  0.00295  0.57155  0.13741  1.0000
  N   N41       1.0  0.30771  0.49439  0.04356  1.0000
  H   H934      1.0  0.28766  0.51193  0.07179  1.0000
  C   C543      1.0  0.30375  0.49054  0.01478  1.0000
  H   H935      1.0  0.01654  0.51211  0.09326  1.0000
  H   H936      1.0  0.28138  0.49140  0.07563  1.0000
  H   H937      1.0  0.99438  0.58666  0.19273  1.0000
  H   H938      1.0  0.99299  0.55624  0.18485  1.0000
  H   H939      1.0  0.32509  0.57590  0.08411  1.0000
  H   H940      1.0  0.02701  0.48753  0.11344  1.0000
  Fe  Fe62      1.0  0.20349  0.87690  0.39468  1.0000
  S   S138      1.0  0.20627  0.85779  0.37873  1.0000
  S   S139      1.0  0.20201  0.86675  0.42320  1.0000
  Fe  Fe63      1.0  0.20125  0.90795  0.36468  1.0000
  S   S140      1.0  0.20357  0.89171  0.34588  1.0000
  S   S141      1.0  0.19997  0.93671  0.35484  1.0000
  Fe  Fe64      1.0  0.18507  0.87763  0.36712  1.0000
  S   S142      1.0  0.16111  0.87198  0.36300  1.0000
  Fe  Fe65      1.0  0.22453  0.87333  0.35913  1.0000
  S   S143      1.0  0.18080  0.89574  0.38476  1.0000
  S   S144      1.0  0.22370  0.89057  0.37621  1.0000
  C   C544      1.0  0.00565  0.60633  0.46508  1.0000
  H   H941      1.0  0.01593  0.58897  0.32878  1.0000
  C   C545      1.0  0.31920  0.95934  0.36120  1.0000
  S   S145      1.0  0.02395  0.63502  0.33890  1.0000
  H   H942      1.0  0.08459  0.57018  0.36835  1.0000
  Fe  Fe66      1.0  0.12088  0.61732  0.37056  1.0000
  S   S146      1.0  0.09798  0.63586  0.36069  1.0000
  Fe  Fe67      1.0  0.11799  0.63691  0.39819  1.0000
  S   S147      1.0  0.09411  0.65610  0.39134  1.0000
  S   S148      1.0  0.12775  0.64582  0.41654  1.0000
  Fe  Fe68      1.0  0.08551  0.63363  0.38908  1.0000
  S   S149      1.0  0.05787  0.63110  0.40056  1.0000
  Fe  Fe69      1.0  0.10838  0.65718  0.36373  1.0000
  S   S150      1.0  0.10839  0.68391  0.34573  1.0000
  S   S151      1.0  0.10783  0.61397  0.39902  1.0000
  S   S152      1.0  0.13296  0.63886  0.37056  1.0000
  C   C546      1.0  0.04978  0.53788  0.25891  1.0000
  H   H943      1.0  0.00410  0.59233  0.29445  1.0000
  H   H944      1.0  0.22746  0.96911  0.40661  1.0000
  S   S153      1.0  0.02088  0.49742  0.29040  1.0000
  C   C547      1.0  0.04403  0.60198  0.27577  1.0000
  H   H945      1.0  0.01163  0.60367  0.27322  1.0000
  S   S154      1.0  0.31513  0.94884  0.34736  1.0000
  C   C548      1.0  0.12228  0.60085  0.31442  1.0000
  H   H946      1.0  0.08665  0.74735  0.34348  1.0000
  C   C549      1.0  0.01610  0.59338  0.28428  1.0000
  H   H947      1.0  0.06924  0.50626  0.30794  1.0000
  H   H948      1.0  0.08754  0.67890  0.46148  1.0000
  H   H949      1.0  0.24969  0.85198  0.41166  1.0000
  C   C550      1.0  0.01229  0.63095  0.28484  1.0000
  H   H950      1.0  0.01949  0.78060  0.37849  1.0000
  H   H951      1.0  0.10190  0.51290  0.24052  1.0000
  C   C551      1.0  0.30205  0.86146  0.35215  1.0000
  H   H952      1.0  0.05067  0.72423  0.33046  1.0000
  H   H953      1.0  0.27446  0.95937  0.35218  1.0000
  S   S155      1.0  0.12895  0.80119  0.44191  1.0000
  C   C552      1.0  0.27442  0.98392  0.41927  1.0000
  C   C553      1.0  0.00487  0.70574  0.36944  1.0000
  H   H954      1.0  0.20224  0.92689  0.43928  1.0000
  H   H955      1.0  0.25767  0.94488  0.34555  1.0000
  H   H956      1.0  0.02590  0.83334  0.46136  1.0000
  H   H957      1.0  0.23114  0.93928  0.45693  1.0000
  Fe  Fe70      1.0  0.12418  0.79542  0.36076  1.0000
  S   S156      1.0  0.11049  0.78325  0.38717  1.0000
  S   S157      1.0  0.15104  0.79943  0.35860  1.0000
  Fe  Fe71      1.0  0.09438  0.79713  0.34439  1.0000
  S   S158      1.0  0.07824  0.78577  0.36965  1.0000
  S   S159      1.0  0.08566  0.80438  0.31897  1.0000
  Fe  Fe72      1.0  0.08684  0.80326  0.38050  1.0000
  S   S160      1.0  0.06977  0.81681  0.40150  1.0000
  Fe  Fe73      1.0  0.10316  0.76691  0.37399  1.0000
  S   S161      1.0  0.10081  0.73972  0.38848  1.0000
  S   S162      1.0  0.10088  0.81656  0.35483  1.0000
  S   S163      1.0  0.11906  0.77690  0.34789  1.0000
  C   C554      1.0  0.02954  0.80915  0.31609  1.0000
  C   C555      1.0  0.03464  0.80178  0.33209  1.0000
  C   C556      1.0  0.05169  0.80087  0.33335  1.0000
  C   C557      1.0  0.06373  0.80684  0.31856  1.0000
  C   C558      1.0  0.05854  0.81410  0.30265  1.0000
  C   C559      1.0  0.04149  0.81545  0.30146  1.0000
  H   H958      1.0  0.02540  0.79696  0.34343  1.0000
  H   H959      1.0  0.05569  0.79526  0.34558  1.0000
  H   H960      1.0  0.06777  0.81872  0.29115  1.0000
  H   H961      1.0  0.03762  0.82118  0.28908  1.0000
  C   C560      1.0  0.11183  0.80884  0.43085  1.0000
  C   C561      1.0  0.11560  0.81251  0.41268  1.0000
  C   C562      1.0  0.10220  0.81683  0.40368  1.0000
  C   C563      1.0  0.08507  0.81689  0.41279  1.0000
  C   C564      1.0  0.08110  0.81427  0.43097  1.0000
  C   C565      1.0  0.09454  0.81031  0.44000  1.0000
  H   H962      1.0  0.12893  0.81149  0.40549  1.0000
  H   H963      1.0  0.10533  0.81932  0.38962  1.0000
  H   H964      1.0  0.06785  0.81446  0.43804  1.0000
  H   H965      1.0  0.09170  0.80768  0.45404  1.0000
  H   H966      1.0  0.22235  0.96021  0.38239  1.0000
  C   C566      1.0  0.27524  0.94439  0.37795  1.0000
  Fe  Fe74      1.0  0.00091  0.51488  0.27568  1.0000
  H   H967      1.0  0.24722  0.97187  0.32819  1.0000
  H   H968      1.0  0.08240  0.72317  0.33632  1.0000
  C   C567      1.0  0.27455  0.88107  0.40228  1.0000
  H   H969      1.0  0.29134  0.97445  0.39671  1.0000
  S   S164      1.0  0.11972  0.58177  0.29316  1.0000
  H   H970      1.0  0.02801  0.61821  0.30452  1.0000
  C   C568      1.0  0.03586  0.58437  0.30503  1.0000
  C   C569      1.0  0.18339  0.91644  0.46021  1.0000
  H   H971      1.0  0.06081  0.72608  0.36014  1.0000
  H   H972      1.0  0.04787  0.76508  0.34336  1.0000
  Fe  Fe75      1.0  0.11595  0.52445  0.28083  1.0000
  C   C570      1.0  0.05072  0.50370  0.25108  1.0000
  H   H973      1.0  0.28213  0.83699  0.40611  1.0000
  N   N42       1.0  0.28094  0.86221  0.41074  1.0000
  C   C571      1.0  0.12970  0.63399  0.43763  1.0000
  C   C572      1.0  0.13166  0.64280  0.44906  1.0000
  C   C573      1.0  0.13260  0.63422  0.46626  1.0000
  C   C574      1.0  0.13201  0.61664  0.47202  1.0000
  C   C575      1.0  0.13029  0.60767  0.46056  1.0000
  C   C576      1.0  0.12903  0.61639  0.44333  1.0000
  H   H974      1.0  0.13220  0.65640  0.44473  1.0000
  H   H975      1.0  0.13403  0.64117  0.47501  1.0000
  H   H976      1.0  0.12991  0.59402  0.46501  1.0000
  H   H977      1.0  0.12773  0.60950  0.43444  1.0000
  C   C577      1.0  0.10513  0.70045  0.35684  1.0000
  C   C578      1.0  0.11400  0.71399  0.34948  1.0000
  C   C579      1.0  0.11232  0.72655  0.35884  1.0000
  C   C580      1.0  0.10170  0.72559  0.37555  1.0000
  C   C581      1.0  0.09234  0.71249  0.38257  1.0000
  C   C582      1.0  0.09379  0.70019  0.37309  1.0000
  H   H978      1.0  0.12258  0.71444  0.33677  1.0000
  H   H979      1.0  0.11961  0.73666  0.35334  1.0000
  H   H980      1.0  0.08392  0.71183  0.39537  1.0000
  H   H981      1.0  0.08592  0.69068  0.37830  1.0000
  H   H982      1.0  0.32185  0.98323  0.34214  1.0000
  C   C583      1.0  0.27155  0.87537  0.35193  1.0000
  H   H983      1.0  0.30497  0.82098  0.47370  1.0000
  H   H984      1.0  0.07667  0.53082  0.24794  1.0000
  C   C584      1.0  0.03229  0.63504  0.35636  1.0000
  C   C585      1.0  0.04627  0.64282  0.35317  1.0000
  C   C586      1.0  0.05348  0.64235  0.36695  1.0000
  C   C587      1.0  0.04746  0.63327  0.38378  1.0000
  C   C588      1.0  0.03323  0.62576  0.38705  1.0000
  C   C589      1.0  0.02543  0.62694  0.37337  1.0000
  H   H985      1.0  0.05143  0.64934  0.34006  1.0000
  H   H986      1.0  0.06355  0.64928  0.36455  1.0000
  H   H987      1.0  0.02842  0.61881  0.40008  1.0000
  H   H988      1.0  0.01462  0.62090  0.37587  1.0000
  H   H989      1.0  0.08770  0.60285  0.32473  1.0000
  H   H990      1.0  0.03958  0.60916  0.26346  1.0000
  H   H991      1.0  0.07955  0.59060  0.31461  1.0000
  C   C590      1.0  0.12323  0.58406  0.31266  1.0000
  C   C591      1.0  0.15814  0.85116  0.36389  1.0000
  C   C592      1.0  0.17161  0.83619  0.36521  1.0000
  C   C593      1.0  0.16915  0.82028  0.36405  1.0000
  C   C594      1.0  0.15315  0.81913  0.36182  1.0000
  C   C595      1.0  0.13951  0.83393  0.36120  1.0000
  C   C596      1.0  0.14204  0.84987  0.36211  1.0000
  H   H992      1.0  0.18400  0.83690  0.36688  1.0000
  H   H993      1.0  0.17973  0.80885  0.36466  1.0000
  H   H994      1.0  0.12713  0.83324  0.35954  1.0000
  H   H995      1.0  0.13152  0.86134  0.36115  1.0000
  C   C597      1.0  0.19447  0.94927  0.37053  1.0000
  C   C598      1.0  0.19356  0.94151  0.38826  1.0000
  C   C599      1.0  0.18981  0.95200  0.40035  1.0000
  C   C600      1.0  0.18701  0.97023  0.39473  1.0000
  H   H996      1.0  0.03896  0.53225  0.26787  1.0000
  C   C601      1.0  0.19136  0.96744  0.36502  1.0000
  H   H997      1.0  0.19590  0.92747  0.39259  1.0000
  H   H998      1.0  0.18939  0.94593  0.41394  1.0000
  H   H999      1.0  0.04737  0.64951  0.47737  1.0000
  H   H1000     1.0  0.22079  0.86517  0.32355  1.0000
  H   H1001     1.0  0.03327  0.57193  0.36034  1.0000
  C   C602      1.0  0.23311  0.88802  0.44706  1.0000
  C   C603      1.0  0.22514  0.87432  0.45675  1.0000
  C   C604      1.0  0.21538  0.86810  0.44935  1.0000
  C   C605      1.0  0.21350  0.87560  0.43222  1.0000
  C   C606      1.0  0.22101  0.88970  0.42261  1.0000
  C   C607      1.0  0.23092  0.89589  0.43002  1.0000
  H   H1002     1.0  0.05386  0.49466  0.26342  1.0000
  H   H1003     1.0  0.20945  0.85729  0.45686  1.0000
  H   H1004     1.0  0.21909  0.89591  0.40958  1.0000
  H   H1005     1.0  0.23681  0.90670  0.42258  1.0000
  H   H1006     1.0  0.06927  0.74846  0.44409  1.0000
  H   H1007     1.0  0.18050  0.98159  0.44824  1.0000
  C   C608      1.0  0.20841  0.95319  0.44479  1.0000
  H   H1008     1.0  0.10747  0.76283  0.32215  1.0000
  C   C609      1.0  0.08658  0.76107  0.46130  1.0000
  C   C610      1.0  0.00698  0.68062  0.35775  1.0000
  C   C611      1.0  0.14275  0.68583  0.40957  1.0000
  C   C612      1.0  0.12302  0.69359  0.41436  1.0000
  H   H1009     1.0  0.14428  0.67160  0.41485  1.0000
  H   H1010     1.0  0.14951  0.68960  0.41752  1.0000
  H   H1011     1.0  0.18935  0.65643  0.39071  1.0000
  H   H1012     1.0  0.11541  0.68475  0.41346  1.0000
  H   H1013     1.0  0.28191  0.83527  0.34280  1.0000
  C   C613      1.0  0.06403  0.72156  0.32261  1.0000
  C   C614      1.0  0.03228  0.83576  0.37364  1.0000
  C   C615      1.0  0.02083  0.67960  0.39958  1.0000
  H   H1014     1.0  0.11939  0.61199  0.30394  1.0000
  H   H1015     1.0  0.01295  0.85389  0.45172  1.0000
  C   C616      1.0  0.18747  0.97788  0.37709  1.0000
  H   H1016     1.0  0.00895  0.67884  0.40993  1.0000
  H   H1017     1.0  0.07143  0.61350  0.31245  1.0000
  H   H1018     1.0  0.15870  0.97912  0.45568  1.0000
  C   C617      1.0  0.05291  0.75129  0.34212  1.0000
  C   C618      1.0  0.26603  0.95976  0.36534  1.0000
  H   H1019     1.0  0.26660  0.93958  0.39025  1.0000
  H   H1020     1.0  0.22335  0.84356  0.33638  1.0000
  H   H1021     1.0  0.03151  0.66947  0.40488  1.0000
  H   H1022     1.0  0.03218  0.81483  0.40969  1.0000
  H   H1023     1.0  0.09614  0.76704  0.30524  1.0000
  Fe  Fe76      1.0  0.11103  0.55941  0.28958  1.0000
  H   H1024     1.0  0.28989  0.88729  0.35650  1.0000
  C   C619      1.0  0.12718  0.56972  0.32618  1.0000
  H   H1025     1.0  0.99373  0.81220  0.42497  1.0000
  C   C620      1.0  0.28347  0.84657  0.34601  1.0000
  H   H1026     1.0  0.05248  0.58948  0.27273  1.0000
  C   C621      1.0  0.08224  0.75612  0.33171  1.0000
  C   C622      1.0  0.06602  0.52373  0.25388  1.0000
  C   C623      1.0  0.02048  0.52336  0.30587  1.0000
  H   H1027     1.0  0.01789  0.78327  0.40909  1.0000
  H   H1028     1.0  0.12820  0.55671  0.32484  1.0000
  H   H1029     1.0  0.27437  0.90781  0.40155  1.0000
  C   C624      1.0  0.25886  0.85385  0.39887  1.0000
  H   H1030     1.0  0.26027  0.88426  0.40313  1.0000
  C   C625      1.0  0.29963  0.84687  0.34833  1.0000
  H   H1031     1.0  0.25433  0.86676  0.39061  1.0000
  H   H1032     1.0  0.04856  0.59597  0.37209  1.0000
  S   S165      1.0  0.10498  0.82418  0.47990  1.0000
  H   H1033     1.0  0.01990  0.63183  0.27132  1.0000
  C   C626      1.0  0.06425  0.76173  0.31053  1.0000
  H   H1034     1.0  0.00767  0.64322  0.41200  1.0000
  S   S166      1.0  0.99391  0.75961  0.39451  1.0000
  H   H1035     1.0  0.05797  0.61056  0.34297  1.0000
  H   H1036     1.0  0.28625  0.83776  0.48017  1.0000
  S   S167      1.0  0.00842  0.81079  0.31376  1.0000
  Fe  Fe77      1.0  0.08176  0.54018  0.30258  1.0000
  C   C627      1.0  0.04609  0.52590  0.31368  1.0000
  H   H1037     1.0  0.11280  0.84681  0.44272  1.0000
  C   C628      1.0  0.02219  0.57861  0.32135  1.0000
  H   H1038     1.0  0.13576  0.84718  0.45694  1.0000
  H   H1039     1.0  0.04283  0.74121  0.36952  1.0000
  H   H1040     1.0  0.01379  0.83123  0.40475  1.0000
  H   H1041     1.0  0.23062  0.93167  0.43842  1.0000
  H   H1042     1.0  0.06913  0.51478  0.26624  1.0000
  H   H1043     1.0  0.15267  0.73295  0.38622  1.0000
  H   H1044     1.0  0.06152  0.60536  0.29024  1.0000
  H   H1045     1.0  0.07671  0.76913  0.33500  1.0000
  H   H1046     1.0  0.24908  0.97105  0.39527  1.0000
  S   S168      1.0  0.00513  0.76478  0.34489  1.0000
  C   C629      1.0  0.10198  0.73348  0.45153  1.0000
  C   C630      1.0  0.12386  0.75952  0.44087  1.0000
  C   C631      1.0  0.09065  0.72015  0.45519  1.0000
  H   H1047     1.0  0.11344  0.72920  0.44141  1.0000
  H   H1048     1.0  0.10712  0.73110  0.46340  1.0000
  H   H1049     1.0  0.31421  0.87019  0.45417  1.0000
  H   H1050     1.0  0.12067  0.76600  0.45189  1.0000
  H   H1051     1.0  0.13060  0.74572  0.44485  1.0000
  H   H1052     1.0  0.13331  0.76613  0.43046  1.0000
  H   H1053     1.0  0.00835  0.72154  0.38526  1.0000
  H   H1054     1.0  0.07802  0.72327  0.46420  1.0000
  N   N43       1.0  0.19036  0.86326  0.31254  1.0000
  C   C632      1.0  0.18905  0.88212  0.31218  1.0000
  H   H1055     1.0  0.06361  0.72433  0.30863  1.0000
  C   C633      1.0  0.17204  0.86080  0.31627  1.0000
  C   C634      1.0  0.20048  0.85955  0.29511  1.0000
  C   C635      1.0  0.17963  0.89606  0.29863  1.0000
  C   C636      1.0  0.16978  0.84242  0.31758  1.0000
  H   H1056     1.0  0.07232  0.59880  0.37712  1.0000
  H   H1057     1.0  0.18218  0.88512  0.32515  1.0000
  H   H1058     1.0  0.20217  0.88482  0.30958  1.0000
  H   H1059     1.0  0.16441  0.86484  0.32854  1.0000
  H   H1060     1.0  0.16512  0.86934  0.30591  1.0000
  H   H1061     1.0  0.19237  0.86568  0.28512  1.0000
  H   H1062     1.0  0.21182  0.86584  0.29038  1.0000
  H   H1063     1.0  0.18123  0.90905  0.29870  1.0000
  H   H1064     1.0  0.18515  0.89413  0.28519  1.0000
  H   H1065     1.0  0.16542  0.89686  0.30205  1.0000
  H   H1066     1.0  0.17402  0.83888  0.30475  1.0000
  H   H1067     1.0  0.15569  0.84243  0.32192  1.0000
  H   H1068     1.0  0.17616  0.83213  0.32733  1.0000
  H   H1069     1.0  0.04559  0.77074  0.29367  1.0000
  H   H1070     1.0  0.09233  0.56501  0.32707  1.0000
  H   H1071     1.0  0.09390  0.55112  0.34834  1.0000
  C   C637      1.0  0.03290  0.58357  0.36486  1.0000
  H   H1072     1.0  0.05371  0.57293  0.37897  1.0000
  H   H1073     1.0  0.02332  0.58333  0.37745  1.0000
  H   H1074     1.0  0.02777  0.59555  0.35566  1.0000
  H   H1075     1.0  0.03955  0.83699  0.38269  1.0000
  H   H1076     1.0  0.29979  0.98157  0.43612  1.0000
  H   H1077     1.0  0.02903  0.67095  0.43706  1.0000
  H   H1078     1.0  0.17301  0.92269  0.45265  1.0000
  S   S169      1.0  0.12003  0.55061  0.26416  1.0000
  C   C638      1.0  0.02223  0.68526  0.34266  1.0000
  C   C639      1.0  0.00142  0.81144  0.38975  1.0000
  S   S170      1.0  0.18401  0.98322  0.40961  1.0000
  H   H1079     1.0  0.15070  0.88860  0.42115  1.0000
  H   H1080     1.0  0.04495  0.80927  0.37619  1.0000
  H   H1081     1.0  0.09774  0.70712  0.46132  1.0000
  C   C640      1.0  0.22758  0.94326  0.44404  1.0000
  H   H1082     1.0  0.24837  0.91863  0.36037  1.0000
  H   H1083     1.0  0.01935  0.66172  0.38566  1.0000
  H   H1084     1.0  0.00792  0.81707  0.43501  1.0000
  H   H1085     1.0  0.12229  0.86523  0.43280  1.0000
  H   H1086     1.0  0.07396  0.62380  0.43308  1.0000
  H   H1087     1.0  0.28237  0.93346  0.37142  1.0000
  H   H1088     1.0  0.02011  0.69952  0.33712  1.0000
  C   C641      1.0  0.24674  0.94622  0.35705  1.0000
  H   H1089     1.0  0.08729  0.73089  0.31386  1.0000
  H   H1090     1.0  0.00832  0.61203  0.30849  1.0000
  H   H1091     1.0  0.29329  0.88523  0.47312  1.0000
  S   S171      1.0  0.07792  0.56871  0.24150  1.0000
  H   H1092     1.0  0.17236  0.97283  0.47113  1.0000
  N   N44       1.0  0.06493  0.51339  0.24179  1.0000
  H   H1093     1.0  0.30634  0.86810  0.39820  1.0000
  C   C642      1.0  0.27468  0.84026  0.44020  1.0000
  S   S172      1.0  0.08300  0.56729  0.28772  1.0000
  N   N45       1.0  0.06697  0.65040  0.45351  1.0000
  C   C643      1.0  0.05406  0.65494  0.44194  1.0000
  C   C644      1.0  0.08345  0.63937  0.44502  1.0000
  H   H1094     1.0  0.06981  0.67704  0.44203  1.0000
  C   C645      1.0  0.05910  0.64080  0.47126  1.0000
  C   C646      1.0  0.03690  0.66807  0.44703  1.0000
  C   C647      1.0  0.08185  0.62190  0.44278  1.0000
  C   C648      1.0  0.23592  0.97190  0.39349  1.0000
  H   H1095     1.0  0.01273  0.79596  0.43095  1.0000
  H   H1096     1.0  0.06005  0.66036  0.42817  1.0000
  H   H1097     1.0  0.05014  0.64312  0.44162  1.0000
  H   H1098     1.0  0.09393  0.63611  0.45227  1.0000
  H   H1099     1.0  0.08876  0.64684  0.43188  1.0000
  S   S173      1.0  0.24947  0.85948  0.34443  1.0000
  H   H1100     1.0  0.05497  0.49085  0.29573  1.0000
  H   H1101     1.0  0.17782  0.91529  0.47427  1.0000
  H   H1102     1.0  0.00268  0.61486  0.45259  1.0000
  H   H1103     1.0  0.03895  0.68070  0.44747  1.0000
  Fe  Fe78      1.0  0.99611  0.63338  0.34840  1.0000
  H   H1104     1.0  0.02893  0.66259  0.45962  1.0000
  H   H1105     1.0  0.03550  0.76533  0.38937  1.0000
  H   H1106     1.0  0.25789  0.92273  0.37550  1.0000
  S   S174      1.0  0.00672  0.53795  0.25455  1.0000
  H   H1107     1.0  0.31039  0.83573  0.34701  1.0000
  C   C649      1.0  0.19685  0.94231  0.47561  1.0000
  H   H1108     1.0  0.22666  0.86821  0.46991  1.0000
  H   H1109     1.0  0.99863  0.63125  0.28491  1.0000
  H   H1110     1.0  0.16399  0.67606  0.35895  1.0000
  H   H1111     1.0  0.03239  0.85601  0.46886  1.0000
  N   N46       1.0  0.01932  0.80907  0.39289  1.0000
  C   C650      1.0  0.02687  0.78973  0.39797  1.0000
  C   C651      1.0  0.01875  0.81689  0.40771  1.0000
  C   C652      1.0  0.03124  0.81662  0.37648  1.0000
  C   C653      1.0  0.32358  0.97565  0.35496  1.0000
  C   C654      1.0  0.03099  0.77940  0.38367  1.0000
  H   H1112     1.0  0.09109  0.65595  0.46995  1.0000
  C   C655      1.0  0.21850  0.85219  0.32472  1.0000
  C   C656      1.0  0.08178  0.59781  0.36465  1.0000
  H   H1113     1.0  0.18850  0.90294  0.45809  1.0000
  H   H1114     1.0  0.03918  0.78735  0.40246  1.0000
  H   H1115     1.0  0.30110  0.96764  0.41521  1.0000
  H   H1116     1.0  0.00603  0.83407  0.45624  1.0000
  H   H1117     1.0  0.02286  0.67908  0.33199  1.0000
  H   H1118     1.0  0.01829  0.70761  0.36310  1.0000
  H   H1119     1.0  0.10049  0.49241  0.29839  1.0000
  H   H1120     1.0  0.32008  0.94537  0.48263  1.0000
  C   C657      1.0  0.31164  0.84093  0.40835  1.0000
  H   H1121     1.0  0.26951  0.97174  0.42523  1.0000
  H   H1122     1.0  0.02877  0.56736  0.33031  1.0000
  H   H1123     1.0  0.17756  0.82419  0.47168  1.0000
  C   C658      1.0  0.24884  0.98119  0.33482  1.0000
  H   H1124     1.0  0.99526  0.68621  0.35211  1.0000
  H   H1125     1.0  0.00840  0.66624  0.36064  1.0000
  Fe  Fe79      1.0  0.11974  0.80008  0.47043  1.0000
  N   N47       1.0  0.24752  0.96022  0.36531  1.0000
  N   N48       1.0  0.00473  0.68665  0.37420  1.0000
  C   C659      1.0  0.04665  0.79747  0.47494  1.0000
  H   H1126     1.0  0.02433  0.69229  0.39709  1.0000
  H   H1127     1.0  0.04539  0.54724  0.24738  1.0000
  C   C660      1.0  0.13041  0.57222  0.34124  1.0000
  H   H1128     1.0  0.20621  0.95645  0.43128  1.0000
  H   H1129     1.0  0.03831  0.51279  0.25499  1.0000
  H   H1130     1.0  0.03973  0.83998  0.36022  1.0000
  H   H1131     1.0  0.99436  0.88026  0.45669  1.0000
  H   H1132     1.0  0.31327  0.83876  0.39514  1.0000
  C   C661      1.0  0.02755  0.85207  0.48310  1.0000
  H   H1133     1.0  0.01217  0.59308  0.46312  1.0000
  H   H1134     1.0  0.11230  0.75684  0.42135  1.0000
  C   C662      1.0  0.06157  0.59858  0.33790  1.0000
  H   H1135     1.0  0.01213  0.57416  0.31820  1.0000
  C   C663      1.0  0.19838  0.92606  0.45360  1.0000
  C   C664      1.0  0.02959  0.79584  0.48284  1.0000
  H   H1136     1.0  0.01254  0.64286  0.28859  1.0000
  H   H1137     1.0  0.13389  0.56109  0.35150  1.0000
  Fe  Fe80      1.0  0.09171  0.55646  0.26384  1.0000
  C   C665      1.0  0.10766  0.76160  0.43367  1.0000
  H   H1138     1.0  0.20204  0.83721  0.28460  1.0000
  C   C666      1.0  0.26933  0.86069  0.34792  1.0000
  H   H1139     1.0  0.13143  0.72304  0.47526  1.0000
  S   S175      1.0  0.05649  0.53730  0.32144  1.0000
  H   H1140     1.0  0.02547  0.56476  0.28870  1.0000
  H   H1141     1.0  0.99722  0.57379  0.47205  1.0000
  H   H1142     1.0  0.02794  0.81528  0.36467  1.0000
  H   H1143     1.0  0.07666  0.61359  0.45530  1.0000
  H   H1144     1.0  0.28481  0.94883  0.38198  1.0000
  H   H1145     1.0  0.00690  0.52815  0.30526  1.0000
  C   C667      1.0  0.17736  0.95450  0.45408  1.0000
  H   H1146     1.0  0.09857  0.66467  0.44702  1.0000
  C   C668      1.0  0.05566  0.51107  0.30738  1.0000
  C   C669      1.0  0.03013  0.50848  0.29967  1.0000
  H   H1147     1.0  0.28062  0.88367  0.38812  1.0000
  C   C670      1.0  0.28802  0.87586  0.35381  1.0000
  S   S176      1.0  0.24585  0.89508  0.45639  1.0000
  N   N49       1.0  0.06864  0.74988  0.32737  1.0000
  H   H1148     1.0  0.08407  0.49158  0.25201  1.0000
  H   H1149     1.0  0.02084  0.54316  0.31828  1.0000
  H   H1150     1.0  0.99646  0.83795  0.37347  1.0000
  C   C671      1.0  0.27783  0.89470  0.41001  1.0000
  H   H1151     1.0  0.04158  0.78322  0.37278  1.0000
  C   C672      1.0  0.01967  0.67572  0.38266  1.0000
  H   H1152     1.0  0.32088  0.94967  0.45973  1.0000
  H   H1153     1.0  0.30254  0.86250  0.42123  1.0000
  H   H1154     1.0  0.10644  0.74485  0.31470  1.0000
  C   C673      1.0  0.05607  0.61195  0.27848  1.0000
  H   H1155     1.0  0.28441  0.96874  0.44864  1.0000
  C   C674      1.0  0.24696  0.92775  0.36869  1.0000
  H   H1156     1.0  0.22662  0.84687  0.31337  1.0000
  C   C675      1.0  0.00757  0.80993  0.42550  1.0000
  N   N50       1.0  0.02893  0.59864  0.29073  1.0000
  H   H1157     1.0  0.26279  0.98120  0.33255  1.0000
  H   H1158     1.0  0.07428  0.74111  0.48084  1.0000
  H   H1159     1.0  0.26952  0.89520  0.42309  1.0000
  H   H1160     1.0  0.29158  0.89254  0.41075  1.0000
  H   H1161     1.0  0.04349  0.57254  0.30007  1.0000
  H   H1162     1.0  0.04938  0.62562  0.27915  1.0000
  H   H1163     1.0  0.26612  0.83983  0.45339  1.0000
  N   N51       1.0  0.19490  0.94386  0.45741  1.0000
  C   C676      1.0  0.01249  0.84130  0.46117  1.0000
  H   H1164     1.0  0.99714  0.76534  0.42635  1.0000
  S   S177      1.0  0.13191  0.49887  0.27408  1.0000
  N   N52       1.0  0.15795  0.84319  0.43550  1.0000
  C   C677      1.0  0.16854  0.84118  0.44871  1.0000
  C   C678      1.0  0.15864  0.86056  0.42292  1.0000
  C   C679      1.0  0.16664  0.82875  0.42583  1.0000
  C   C680      1.0  0.13965  0.84176  0.44506  1.0000
  C   C681      1.0  0.17114  0.82340  0.46171  1.0000
  C   C682      1.0  0.15315  0.87645  0.43132  1.0000
  C   C683      1.0  0.15964  0.82925  0.41005  1.0000
  C   C684      1.0  0.12497  0.85086  0.43490  1.0000
  H   H1165     1.0  0.18173  0.84342  0.44208  1.0000
  H   H1166     1.0  0.19182  0.97350  0.35136  1.0000
  H   H1167     1.0  0.15037  0.86337  0.41334  1.0000
  H   H1168     1.0  0.17205  0.86041  0.41489  1.0000
  H   H1169     1.0  0.18080  0.82849  0.42102  1.0000
  H   H1170     1.0  0.16567  0.81578  0.43463  1.0000
  H   H1171     1.0  0.13894  0.82784  0.45011  1.0000
  C   C685      1.0  0.08791  0.66637  0.45858  1.0000
  H   H1172     1.0  0.09502  0.61451  0.43768  1.0000
  H   H1173     1.0  0.01558  0.61100  0.46830  1.0000
  H   H1174     1.0  0.99350  0.80396  0.40108  1.0000
  H   H1175     1.0  0.16373  0.87725  0.43689  1.0000
  H   H1176     1.0  0.17982  0.81286  0.45534  1.0000
  H   H1177     1.0  0.14117  0.87615  0.44166  1.0000
  H   H1178     1.0  0.14686  0.82571  0.41416  1.0000
  H   H1179     1.0  0.16851  0.81909  0.40321  1.0000
  H   H1180     1.0  0.15913  0.84179  0.40036  1.0000
  H   H1181     1.0  0.25675  0.86303  0.42985  1.0000
  H   H1182     1.0  0.30310  0.85421  0.45653  1.0000
  H   H1183     1.0  0.12749  0.84738  0.42223  1.0000
  H   H1184     1.0  0.06041  0.77349  0.42262  1.0000
  C   C686      1.0  0.27780  0.85109  0.40054  1.0000
  H   H1185     1.0  0.08567  0.74820  0.42477  1.0000
  H   H1186     1.0  0.03238  0.67687  0.37372  1.0000
  H   H1187     1.0  0.10252  0.77592  0.42979  1.0000
  C   C687      1.0  0.01974  0.61466  0.29790  1.0000
  H   H1188     1.0  0.05007  0.59856  0.33327  1.0000
  H   H1189     1.0  0.27351  0.86722  0.43672  1.0000
  H   H1190     1.0  0.12845  0.68921  0.38198  1.0000
  C   C688      1.0  0.07997  0.75481  0.43590  1.0000
  H   H1191     1.0  0.05316  0.54553  0.26622  1.0000
  C   C689      1.0  0.30024  0.85922  0.40987  1.0000
  H   H1192     1.0  0.09346  0.58087  0.34709  1.0000
  H   H1193     1.0  0.06413  0.74477  0.36548  1.0000
  H   H1194     1.0  0.28824  0.83600  0.44202  1.0000
  H   H1195     1.0  0.22193  0.83750  0.28924  1.0000
  H   H1196     1.0  0.01250  0.57418  0.27271  1.0000
  H   H1197     1.0  0.07407  0.75776  0.29909  1.0000
  C   C690      1.0  0.20760  0.84014  0.29411  1.0000
  C   C691      1.0  0.02838  0.53185  0.31323  1.0000
  H   H1198     1.0  0.19806  0.83870  0.33088  1.0000
  H   H1199     1.0  0.26716  0.97210  0.36769  1.0000
  H   H1200     1.0  0.04195  0.74775  0.33957  1.0000
  H   H1201     1.0  0.11952  0.69560  0.42785  1.0000
  H   H1202     1.0  0.17674  0.95586  0.44034  1.0000
  C   C692      1.0  0.09890  0.75767  0.31744  1.0000
  C   C693      1.0  0.02276  0.57619  0.27793  1.0000
  C   C694      1.0  0.07607  0.60121  0.32160  1.0000
  H   H1203     1.0  0.17048  0.65514  0.38487  1.0000
  H   H1204     1.0  0.09476  0.59607  0.36740  1.0000
  H   H1205     1.0  0.16249  0.85105  0.45683  1.0000
  H   H1206     1.0  0.20960  0.91713  0.45905  1.0000
  H   H1207     1.0  0.06903  0.70731  0.32711  1.0000
  H   H1208     1.0  0.26076  0.88648  0.35307  1.0000
  H   H1209     1.0  0.06727  0.61247  0.26718  1.0000
  H   H1210     1.0  0.06241  0.55606  0.35769  1.0000
  H   H1211     1.0  0.03443  0.57648  0.26720  1.0000
  H   H1212     1.0  0.99703  0.71278  0.35936  1.0000
  S   S178      1.0  0.13350  0.59186  0.36197  1.0000
  H   H1213     1.0  0.23442  0.92727  0.37823  1.0000
  H   H1214     1.0  0.06547  0.78161  0.43818  1.0000
  C   C695      1.0  0.17497  0.66094  0.39306  1.0000
  H   H1215     1.0  0.17622  0.68542  0.39659  1.0000
  H   H1216     1.0  0.16642  0.71395  0.39661  1.0000
  C   C696      1.0  0.08559  0.55669  0.33855  1.0000
  H   H1217     1.0  0.05937  0.75815  0.46875  1.0000
  H   H1218     1.0  0.20491  0.83061  0.30653  1.0000
  C   C697      1.0  0.07032  0.66723  0.45461  1.0000
  S   S179      1.0  0.08834  0.52993  0.27864  1.0000
  H   H1219     1.0  0.08032  0.78015  0.41741  1.0000
  H   H1220     1.0  0.11893  0.70652  0.40604  1.0000
  C   C698      1.0  0.04761  0.50228  0.30062  1.0000
  H   H1221     1.0  0.06483  0.77535  0.30969  1.0000
  C   C699      1.0  0.05070  0.58381  0.36768  1.0000
  H   H1222     1.0  0.05889  0.56859  0.33697  1.0000
  S   S180      1.0  0.10930  0.53263  0.30642  1.0000
  H   H1223     1.0  0.14282  0.67806  0.35586  1.0000
  H   H1224     1.0  0.12404  0.61642  0.33090  1.0000
  H   H1225     1.0  0.05994  0.67322  0.46458  1.0000
  H   H1226     1.0  0.07957  0.61025  0.35487  1.0000
  C   C700      1.0  0.19906  0.85246  0.32740  1.0000
  N   N53       1.0  0.15111  0.68955  0.39046  1.0000
  C   C701      1.0  0.17024  0.68110  0.38836  1.0000
  H   H1227     1.0  0.16993  0.65550  0.40699  1.0000
  H   H1228     1.0  0.05379  0.63007  0.47044  1.0000
  C   C702      1.0  0.06724  0.56617  0.34647  1.0000
  C   C703      1.0  0.15323  0.71927  0.39377  1.0000
  S   S181      1.0  0.31352  0.90140  0.37540  1.0000
  C   C704      1.0  0.12485  0.60341  0.32970  1.0000
  N   N54       1.0  0.09371  0.75264  0.44586  1.0000
  H   H1229     1.0  0.03581  0.77099  0.31584  1.0000
  H   H1230     1.0  0.25827  0.84409  0.39212  1.0000
  C   C705      1.0  0.29266  0.97878  0.40788  1.0000
  C   C706      1.0  0.27096  0.85904  0.42936  1.0000
  C   C707      1.0  0.12917  0.58909  0.34307  1.0000
  H   H1231     1.0  0.08836  0.71892  0.44288  1.0000
  N   N55       1.0  0.06565  0.58271  0.35214  1.0000
  C   C708      1.0  0.14918  0.70888  0.38294  1.0000
  C   C709      1.0  0.14239  0.68239  0.38095  1.0000
  H   H1232     1.0  0.17736  0.68534  0.37476  1.0000
  H   H1233     1.0  0.13587  0.71516  0.38069  1.0000
  H   H1234     1.0  0.14336  0.71990  0.40608  1.0000
  H   H1235     1.0  0.19229  0.85720  0.33952  1.0000
  C   C710      1.0  0.07623  0.73136  0.32531  1.0000
  C   C711      1.0  0.24025  0.97767  0.35441  1.0000
  H   H1236     1.0  0.08429  0.54552  0.33430  1.0000
  C   C712      1.0  0.15039  0.68367  0.36136  1.0000
  C   C713      1.0  0.07119  0.77368  0.42825  1.0000
  C   C714      1.0  0.05562  0.74010  0.36022  1.0000
  C   C715      1.0  0.04616  0.76334  0.30724  1.0000
  S   S182      1.0  0.01714  0.79129  0.47103  1.0000
  C   C716      1.0  0.23597  0.95873  0.38327  1.0000
  H   H1237     1.0  0.04525  0.58838  0.30975  1.0000
  H   H1238     1.0  0.14968  0.69737  0.35404  1.0000
  H   H1239     1.0  0.99946  0.70221  0.31542  1.0000
  H   H1240     1.0  0.28579  0.85334  0.38707  1.0000
  C   C717      1.0  0.08186  0.58204  0.35787  1.0000
  H   H1241     1.0  0.15775  0.71142  0.36978  1.0000
  H   H1242     1.0  0.14210  0.66851  0.38706  1.0000
  H   H1243     1.0  0.27160  0.83097  0.43460  1.0000
  H   H1244     1.0  0.04315  0.75062  0.30879  1.0000
  C   C718      1.0  0.29069  0.87256  0.47344  1.0000
  H   H1245     1.0  0.23616  0.95196  0.43537  1.0000
  H   H1246     1.0  0.20742  0.96587  0.44784  1.0000
  H   H1247     1.0  0.20909  0.93282  0.47805  1.0000
  H   H1248     1.0  0.08289  0.77552  0.45693  1.0000
  H   H1249     1.0  0.09671  0.75858  0.46891  1.0000
  C   C719      1.0  0.30708  0.86098  0.46431  1.0000
  H   H1250     1.0  0.16668  0.94799  0.46183  1.0000
  H   H1251     1.0  0.23921  0.94566  0.39180  1.0000
  H   H1252     1.0  0.23457  0.94990  0.35195  1.0000
  H   H1253     1.0  0.25289  0.98148  0.45122  1.0000
  H   H1254     1.0  0.03505  0.68035  0.34630  1.0000
  C   C720      1.0  0.07090  0.75510  0.47456  1.0000
  H   H1255     1.0  0.27990  0.87511  0.46668  1.0000
  H   H1256     1.0  0.30655  0.83021  0.41821  1.0000
  H   H1257     1.0  0.15857  0.81991  0.46866  1.0000
  H   H1258     1.0  0.05203  0.79571  0.46180  1.0000
  H   H1259     1.0  0.22606  0.97936  0.35536  1.0000
  H   H1260     1.0  0.99362  0.70783  0.39730  1.0000
  C   C721      1.0  0.99805  0.71572  0.38430  1.0000
  H   H1261     1.0  0.00212  0.80608  0.37848  1.0000
  C   C722      1.0  0.32108  0.94980  0.37787  1.0000
  H   H1262     1.0  0.03703  0.73313  0.47685  1.0000
  C   C723      1.0  0.00231  0.84337  0.47964  1.0000
  C   C724      1.0  0.08201  0.50027  0.23924  1.0000
  H   H1263     1.0  0.01102  0.72548  0.47737  1.0000
  S   S183      1.0  0.32267  0.86032  0.35558  1.0000
  H   H1264     1.0  0.99362  0.71023  0.43346  1.0000
  C   C725      1.0  0.99790  0.73210  0.48332  1.0000
  S   S184      1.0  0.99939  0.65421  0.44358  1.0000
  S   S185      1.0  0.99362  0.73408  0.32587  1.0000
  H   H1265     1.0  0.17623  0.68032  0.47927  1.0000
  Fe  Fe81      1.0  0.99319  0.79216  0.33305  1.0000
  H   H1266     1.0  0.08430  0.62781  0.47960  1.0000
  H   H1267     1.0  0.19861  0.95473  0.47717  1.0000
  H   H1268     1.0  0.23029  0.98543  0.38731  1.0000
  H   H1269     1.0  0.31700  0.93759  0.38308  1.0000
  H   H1270     1.0  0.01947  0.84494  0.37507  1.0000
  Fe  Fe82      1.0  0.99511  0.52749  0.23903  1.0000
  H   H1271     1.0  0.32487  0.84014  0.40998  1.0000
  C   C726      1.0  0.07062  0.63360  0.48492  1.0000
  C   C727      1.0  0.99442  0.64226  0.41811  1.0000
  H   H1272     1.0  0.06943  0.80396  0.47736  1.0000
  C   C728      1.0  0.17218  0.97300  0.45759  1.0000
  H   H1273     1.0  0.01638  0.87960  0.45754  1.0000
  H   H1274     1.0  0.29564  0.97856  0.46744  1.0000
  C   C729      1.0  0.28629  0.98237  0.44402  1.0000
  H   H1275     1.0  0.23644  0.95290  0.47928  1.0000
  C   C730      1.0  0.00256  0.88281  0.46406  1.0000
  N   N56       1.0  0.31881  0.84848  0.47591  1.0000
  H   H1276     1.0  0.99961  0.89706  0.46323  1.0000
  C   C731      1.0  0.04631  0.49314  0.24081  1.0000
  H   H1277     1.0  0.32106  0.89708  0.45311  1.0000
  C   C732      1.0  0.29767  0.82788  0.48424  1.0000
  C   C733      1.0  0.99868  0.87328  0.48335  1.0000
  C   C734      1.0  0.05653  0.80207  0.48373  1.0000
  Fe  Fe83      1.0  0.23959  0.88322  0.48490  1.0000
  H   H1278     1.0  0.06709  0.76229  0.48516  1.0000
  C   C735      1.0  0.32524  0.85888  0.48432  1.0000
  H   H1279     1.0  0.18209  0.66462  0.50785  1.0000
  C   C736      1.0  0.16133  0.56468  0.68209  1.0000
  H   H1280     1.0  0.18403  0.53511  0.67220  1.0000
  C   C737      1.0  0.18329  0.55102  0.64566  1.0000
  H   H1281     1.0  0.18600  0.92198  0.49605  1.0000
  C   C738      1.0  0.16256  0.70430  0.51913  1.0000
  N   N57       1.0  0.17064  0.56791  0.64838  1.0000
  H   H1282     1.0  0.15220  0.70845  0.51158  1.0000
  H   H1283     1.0  0.02466  0.51680  0.66656  1.0000
  C   C739      1.0  0.14366  0.67990  0.54850  1.0000
  H   H1284     1.0  0.19687  0.55187  0.64445  1.0000
  H   H1285     1.0  0.13355  0.74705  0.48681  1.0000
  C   C740      1.0  0.12563  0.53871  0.69200  1.0000
  H   H1286     1.0  0.04959  0.85996  0.48584  1.0000
  S   S186      1.0  0.16932  0.55517  0.60229  1.0000
  H   H1287     1.0  0.00856  0.63848  0.56084  1.0000
  Fe  Fe84      1.0  0.22126  0.89329  0.51857  1.0000
  S   S187      1.0  0.22507  0.86549  0.53383  1.0000
  S   S188      1.0  0.20610  0.91639  0.53022  1.0000
  H   H1288     1.0  0.19020  0.52309  0.65565  1.0000
  H   H1289     1.0  0.01001  0.70770  0.50681  1.0000
  H   H1290     1.0  0.29239  0.81818  0.49556  1.0000
  Fe  Fe85      1.0  0.21796  0.85945  0.51190  1.0000
  S   S189      1.0  0.20298  0.83818  0.51883  1.0000
  Fe  Fe86      1.0  0.25220  0.86237  0.51770  1.0000
  S   S190      1.0  0.27376  0.84351  0.52980  1.0000
  S   S191      1.0  0.21142  0.88762  0.49826  1.0000
  S   S192      1.0  0.24917  0.89063  0.50429  1.0000
  H   H1291     1.0  0.99548  0.53787  0.65401  1.0000
  H   H1292     1.0  0.16953  0.72934  0.50811  1.0000
  C   C741      1.0  0.12028  0.70859  0.50026  1.0000
  H   H1293     1.0  0.08391  0.51580  0.70815  1.0000
  H   H1294     1.0  0.18308  0.86448  0.49458  1.0000
  H   H1295     1.0  0.03548  0.49128  0.68905  1.0000
  H   H1296     1.0  0.14118  0.51862  0.67849  1.0000
  C   C742      1.0  0.18088  0.53458  0.66005  1.0000
  C   C743      1.0  0.15734  0.61017  0.56856  1.0000
  H   H1297     1.0  0.15614  0.70844  0.53163  1.0000
  H   H1298     1.0  0.05695  0.68445  0.50144  1.0000
  H   H1299     1.0  0.02253  0.59918  0.68763  1.0000
  Fe  Fe87      1.0  0.12433  0.81644  0.49713  1.0000
  H   H1300     1.0  0.15701  0.89158  0.50902  1.0000
  H   H1301     1.0  0.03365  0.73082  0.51530  1.0000
  H   H1302     1.0  0.99344  0.60678  0.49195  1.0000
  H   H1303     1.0  0.00458  0.60474  0.61738  1.0000
  Fe  Fe88      1.0  0.08969  0.80669  0.50074  1.0000
  S   S193      1.0  0.06062  0.81323  0.51057  1.0000
  H   H1304     1.0  0.02099  0.49714  0.66477  1.0000
  S   S194      1.0  0.10751  0.80094  0.51912  1.0000
  C   C744      1.0  0.09613  0.54480  0.56488  1.0000
  H   H1305     1.0  0.15787  0.66212  0.53134  1.0000
  H   H1306     1.0  0.19835  0.58522  0.63911  1.0000
  H   H1307     1.0  0.03815  0.58822  0.58704  1.0000
  S   S195      1.0  0.01043  0.50623  0.58912  1.0000
  H   H1308     1.0  0.11479  0.55820  0.54574  1.0000
  H   H1309     1.0  0.00713  0.73673  0.53616  1.0000
  H   H1310     1.0  0.18236  0.71315  0.49632  1.0000
  H   H1311     1.0  0.02702  0.80496  0.52166  1.0000
  H   H1312     1.0  0.19128  0.65166  0.53257  1.0000
  S   S196      1.0  0.99584  0.51356  0.62901  1.0000
  S   S197      1.0  0.12135  0.56124  0.62719  1.0000
  C   C745      1.0  0.13154  0.53627  0.72014  1.0000
  Fe  Fe89      1.0  0.12138  0.77822  0.50650  1.0000
  H   H1313     1.0  0.09117  0.60307  0.53225  1.0000
  H   H1314     1.0  0.07183  0.49430  0.65309  1.0000
  H   H1315     1.0  0.08289  0.57647  0.57575  1.0000
  C   C746      1.0  0.17517  0.58198  0.63252  1.0000
  C   C747      1.0  0.04261  0.64402  0.53432  1.0000
  Fe  Fe90      1.0  0.99270  0.54311  0.72372  1.0000
  Fe  Fe91      1.0  0.10822  0.54532  0.61931  1.0000
  C   C748      1.0  0.18513  0.83843  0.51052  1.0000
  C   C749      1.0  0.17782  0.82371  0.51630  1.0000
  C   C750      1.0  0.16269  0.82381  0.51132  1.0000
  C   C751      1.0  0.15458  0.83876  0.50073  1.0000
  C   C752      1.0  0.16205  0.85340  0.49466  1.0000
  C   C753      1.0  0.17742  0.85317  0.49933  1.0000
  H   H1316     1.0  0.18375  0.81225  0.52492  1.0000
  H   H1317     1.0  0.15706  0.81247  0.51603  1.0000
  C   C754      1.0  0.99820  0.74276  0.49600  1.0000
  H   H1318     1.0  0.10447  0.51641  0.71184  1.0000
  C   C755      1.0  0.29118  0.84959  0.53333  1.0000
  C   C756      1.0  0.29447  0.86634  0.52648  1.0000
  C   C757      1.0  0.17620  0.71531  0.50961  1.0000
  H   H1319     1.0  0.10970  0.69734  0.52688  1.0000
  C   C758      1.0  0.30930  0.83605  0.49004  1.0000
  C   C759      1.0  0.30268  0.83664  0.54254  1.0000
  H   H1320     1.0  0.28562  0.87640  0.51933  1.0000
  C   C760      1.0  0.99985  0.76230  0.52090  1.0000
  C   C761      1.0  0.00596  0.71497  0.51724  1.0000
  H   H1321     1.0  0.30023  0.82368  0.54779  1.0000
  C   C762      1.0  0.21231  0.93603  0.51823  1.0000
  C   C763      1.0  0.20504  0.95139  0.52442  1.0000
  C   C764      1.0  0.20920  0.96729  0.51437  1.0000
  C   C765      1.0  0.22039  0.96789  0.49798  1.0000
  C   C766      1.0  0.22776  0.95252  0.49192  1.0000
  C   C767      1.0  0.22391  0.93663  0.50209  1.0000
  H   H1322     1.0  0.19610  0.95103  0.53692  1.0000
  S   S198      1.0  0.11947  0.69145  0.49170  1.0000
  C   C768      1.0  0.00315  0.84824  0.50756  1.0000
  H   H1323     1.0  0.22952  0.92496  0.49715  1.0000
  C   C769      1.0  0.16449  0.57620  0.58914  1.0000
  C   C770      1.0  0.17204  0.57275  0.66434  1.0000
  H   H1324     1.0  0.00830  0.57765  0.49709  1.0000
  C   C771      1.0  0.14463  0.60029  0.57441  1.0000
  C   C772      1.0  0.14815  0.58333  0.58481  1.0000
  C   C773      1.0  0.12677  0.72281  0.48899  1.0000
  H   H1325     1.0  0.08490  0.59726  0.56238  1.0000
  H   H1326     1.0  0.13832  0.57574  0.58931  1.0000
  H   H1327     1.0  0.11291  0.72082  0.53858  1.0000
  C   C774      1.0  0.03542  0.86170  0.49160  1.0000
  C   C775      1.0  0.05620  0.51627  0.61477  1.0000
  C   C776      1.0  0.15403  0.67640  0.53050  1.0000
  Fe  Fe92      1.0  0.00020  0.53496  0.57942  1.0000
  S   S199      1.0  0.11073  0.65954  0.53926  1.0000
  C   C777      1.0  0.14468  0.52139  0.71805  1.0000
  H   H1328     1.0  0.00956  0.79689  0.50611  1.0000
  C   C778      1.0  0.06198  0.66393  0.52374  1.0000
  C   C779      1.0  0.99610  0.60006  0.52839  1.0000
  C   C780      1.0  0.13871  0.52376  0.68990  1.0000
  C   C781      1.0  0.14839  0.51522  0.70285  1.0000
  C   C782      1.0  0.10063  0.55873  0.54820  1.0000
  C   C783      1.0  0.01598  0.70371  0.53152  1.0000
  C   C784      1.0  0.02688  0.73474  0.50425  1.0000
  H   H1329     1.0  0.06680  0.49007  0.69676  1.0000
  S   S200      1.0  0.13314  0.60612  0.49365  1.0000
  H   H1330     1.0  0.15856  0.55204  0.68295  1.0000
  S   S201      1.0  0.07066  0.63592  0.54948  1.0000
  H   H1331     1.0  0.16440  0.69965  0.48665  1.0000
  C   C785      1.0  0.07287  0.54236  0.61257  1.0000
  H   H1332     1.0  0.12695  0.88164  0.55040  1.0000
  S   S202      1.0  0.01201  0.54290  0.59663  1.0000
  C   C786      1.0  0.10920  0.57997  0.56718  1.0000
  H   H1333     1.0  0.08181  0.58729  0.51413  1.0000
  H   H1334     1.0  0.10966  0.59096  0.57229  1.0000
  H   H1335     1.0  0.11991  0.57918  0.55557  1.0000
  H   H1336     1.0  0.11178  0.56822  0.57773  1.0000
  C   C787      1.0  0.12338  0.73552  0.51347  1.0000
  H   H1337     1.0  0.20318  0.57359  0.62183  1.0000
  C   C788      1.0  0.17717  0.58610  0.58326  1.0000
  H   H1338     1.0  0.16678  0.59497  0.63408  1.0000
  H   H1339     1.0  0.14011  0.85971  0.55215  1.0000
  C   C789      1.0  0.18686  0.65985  0.54231  1.0000
  S   S203      1.0  0.02075  0.53472  0.71170  1.0000
  H   H1340     1.0  0.12678  0.86695  0.57093  1.0000
  H   H1341     1.0  0.03843  0.50654  0.64958  1.0000
  S   S204      1.0  0.08321  0.55875  0.61095  1.0000
  H   H1342     1.0  0.18982  0.58063  0.58653  1.0000
  H   H1343     1.0  0.08273  0.54302  0.56712  1.0000
  H   H1344     1.0  0.01125  0.83506  0.51186  1.0000
  H   H1345     1.0  0.13200  0.60587  0.57120  1.0000
  H   H1346     1.0  0.16736  0.90245  0.51789  1.0000
  H   H1347     1.0  0.19494  0.59653  0.61773  1.0000
  H   H1348     1.0  0.14803  0.55637  0.66019  1.0000
  H   H1349     1.0  0.13906  0.59254  0.63675  1.0000
  C   C790      1.0  0.12218  0.54502  0.70704  1.0000
  H   H1350     1.0  0.01802  0.57811  0.52642  1.0000
  H   H1351     1.0  0.30102  0.84244  0.50067  1.0000
  C   C791      1.0  0.00470  0.58248  0.53289  1.0000
  H   H1352     1.0  0.16762  0.58714  0.66298  1.0000
  Fe  Fe93      1.0  0.00437  0.67028  0.49400  1.0000
  H   H1353     1.0  0.15590  0.86497  0.48633  1.0000
  H   H1354     1.0  0.11204  0.55655  0.70872  1.0000
  H   H1355     1.0  0.14438  0.68095  0.52202  1.0000
  N   N58       1.0  0.00809  0.73353  0.51039  1.0000
  H   H1356     1.0  0.01885  0.61627  0.58420  1.0000
  S   S205      1.0  0.14368  0.64391  0.50968  1.0000
  C   C792      1.0  0.03251  0.80286  0.50861  1.0000
  H   H1357     1.0  0.32445  0.98338  0.52214  1.0000
  H   H1358     1.0  0.15172  0.68134  0.55659  1.0000
  H   H1359     1.0  0.07757  0.49049  0.72345  1.0000
  H   H1360     1.0  0.07029  0.57079  0.53942  1.0000
  S   S206      1.0  0.13996  0.79301  0.48635  1.0000
  C   C793      1.0  0.09018  0.52101  0.71530  1.0000
  S   S207      1.0  0.12787  0.75067  0.52216  1.0000
  H   H1361     1.0  0.20340  0.97913  0.51910  1.0000
  H   H1362     1.0  0.00283  0.60928  0.51863  1.0000
  H   H1363     1.0  0.04719  0.55893  0.61645  1.0000
  H   H1364     1.0  0.03244  0.53540  0.61996  1.0000
  C   C794      1.0  0.16802  0.68525  0.49088  1.0000
  C   C795      1.0  0.03324  0.65354  0.52131  1.0000
  C   C796      1.0  0.08325  0.51637  0.73514  1.0000
  N   N59       1.0  0.99471  0.61004  0.58430  1.0000
  C   C797      1.0  0.12809  0.73636  0.49553  1.0000
  C   C798      1.0  0.02262  0.79829  0.49981  1.0000
  C   C799      1.0  0.04939  0.80503  0.50047  1.0000
  C   C800      1.0  0.05722  0.64904  0.53525  1.0000
  H   H1365     1.0  0.18337  0.61071  0.56873  1.0000
  C   C801      1.0  0.05893  0.59552  0.54692  1.0000
  H   H1366     1.0  0.13306  0.69178  0.54709  1.0000
  C   C802      1.0  0.14974  0.87807  0.56137  1.0000
  H   H1367     1.0  0.11133  0.58795  0.53052  1.0000
  H   H1368     1.0  0.09792  0.54765  0.57660  1.0000
  H   H1369     1.0  0.09911  0.55412  0.53729  1.0000
  H   H1370     1.0  0.01919  0.58416  0.60314  1.0000
  S   S208      1.0  0.14752  0.52436  0.64103  1.0000
  H   H1371     1.0  0.99468  0.53616  0.68526  1.0000
  C   C803      1.0  0.03861  0.66796  0.50931  1.0000
  H   H1372     1.0  0.01422  0.69016  0.53450  1.0000
  Fe  Fe94      1.0  0.09734  0.64056  0.53613  1.0000
  H   H1373     1.0  0.07294  0.66814  0.52476  1.0000
  H   H1374     1.0  0.07013  0.64383  0.49158  1.0000
  H   H1375     1.0  0.16939  0.94001  0.48817  1.0000
  S   S209      1.0  0.13273  0.52980  0.60550  1.0000
  H   H1376     1.0  0.18587  0.56942  0.66551  1.0000
  C   C804      1.0  0.03138  0.50396  0.66330  1.0000
  S   S210      1.0  0.12000  0.61784  0.53825  1.0000
  S   S211      1.0  0.04755  0.55790  0.72371  1.0000
  C   C805      1.0  0.15253  0.56651  0.64903  1.0000
  S   S212      1.0  0.10368  0.64774  0.50694  1.0000
  C   C806      1.0  0.05283  0.67327  0.51065  1.0000
  H   H1377     1.0  0.08720  0.53542  0.71066  1.0000
  H   H1378     1.0  0.16863  0.56239  0.69243  1.0000
  H   H1379     1.0  0.05183  0.72127  0.49126  1.0000
  Fe  Fe95      1.0  0.13419  0.63719  0.53874  1.0000
  H   H1380     1.0  0.02677  0.57617  0.69461  1.0000
  H   H1381     1.0  0.12840  0.54095  0.73194  1.0000
  C   C807      1.0  0.03803  0.72488  0.49005  1.0000
  C   C808      1.0  0.04644  0.53281  0.61688  1.0000
  C   C809      1.0  0.99616  0.57053  0.54587  1.0000
  C   C810      1.0  0.18250  0.93628  0.49100  1.0000
  C   C811      1.0  0.15884  0.89307  0.52144  1.0000
  Fe  Fe96      1.0  0.13221  0.51136  0.63178  1.0000
  H   H1382     1.0  0.12265  0.49056  0.68496  1.0000
  H   H1383     1.0  0.00218  0.50161  0.71143  1.0000
  Fe  Fe97      1.0  0.12170  0.54027  0.65147  1.0000
  H   H1384     1.0  0.06566  0.56966  0.56200  1.0000
  C   C812      1.0  0.04380  0.49390  0.67578  1.0000
  H   H1385     1.0  0.15240  0.56215  0.63739  1.0000
  C   C813      1.0  0.17842  0.67911  0.50547  1.0000
  H   H1386     1.0  0.14893  0.57400  0.68584  1.0000
  H   H1387     1.0  0.02217  0.64949  0.52031  1.0000
  H   H1388     1.0  0.13899  0.59013  0.65949  1.0000
  C   C814      1.0  0.30944  0.86995  0.52875  1.0000
  H   H1389     1.0  0.18094  0.87163  0.52389  1.0000
  N   N60       1.0  0.16769  0.87408  0.55007  1.0000
  C   C815      1.0  0.17739  0.88741  0.54962  1.0000
  C   C816      1.0  0.17792  0.85631  0.55745  1.0000
  C   C817      1.0  0.18153  0.88710  0.56700  1.0000
  C   C818      1.0  0.17050  0.84054  0.55905  1.0000
  H   H1390     1.0  0.18995  0.88604  0.53995  1.0000
  H   H1391     1.0  0.19143  0.85399  0.54952  1.0000
  H   H1392     1.0  0.17921  0.85537  0.57086  1.0000
  H   H1393     1.0  0.15031  0.87314  0.57539  1.0000
  H   H1394     1.0  0.18606  0.89909  0.56554  1.0000
  H   H1395     1.0  0.17002  0.88690  0.57790  1.0000
  H   H1396     1.0  0.19240  0.87597  0.57032  1.0000
  H   H1397     1.0  0.15844  0.84028  0.56929  1.0000
  H   H1398     1.0  0.18014  0.82842  0.56312  1.0000
  H   H1399     1.0  0.16835  0.83976  0.54657  1.0000
  N   N61       1.0  0.05574  0.57052  0.66516  1.0000
  C   C819      1.0  0.07370  0.57302  0.65539  1.0000
  C   C820      1.0  0.05817  0.55516  0.68028  1.0000
  C   C821      1.0  0.04624  0.58663  0.67212  1.0000
  C   C822      1.0  0.04649  0.56790  0.65280  1.0000
  C   C823      1.0  0.07444  0.58890  0.63982  1.0000
  C   C824      1.0  0.06843  0.53765  0.67554  1.0000
  C   C825      1.0  0.02754  0.58692  0.68284  1.0000
  C   C826      1.0  0.03166  0.55795  0.66090  1.0000
  H   H1400     1.0  0.08119  0.57419  0.66434  1.0000
  H   H1401     1.0  0.08137  0.56143  0.65003  1.0000
  H   H1402     1.0  0.04569  0.55298  0.68885  1.0000
  H   H1403     1.0  0.06513  0.55782  0.68886  1.0000
  H   H1404     1.0  0.05375  0.58889  0.68044  1.0000
  H   H1405     1.0  0.04500  0.59840  0.66133  1.0000
  H   H1406     1.0  0.04109  0.58067  0.64467  1.0000
  H   H1407     1.0  0.05601  0.56043  0.64344  1.0000
  H   H1408     1.0  0.07043  0.60136  0.64413  1.0000
  H   H1409     1.0  0.08810  0.58800  0.63244  1.0000
  H   H1410     1.0  0.06668  0.58927  0.63052  1.0000
  H   H1411     1.0  0.08255  0.53661  0.67378  1.0000
  H   H1412     1.0  0.06494  0.52678  0.68650  1.0000
  H   H1413     1.0  0.06583  0.53580  0.66370  1.0000
  S   S213      1.0  0.15332  0.63152  0.55585  1.0000
  H   H1414     1.0  0.02375  0.57814  0.58253  1.0000
  Fe  Fe98      1.0  0.01969  0.50987  0.73163  1.0000
  H   H1415     1.0  0.02119  0.56380  0.65338  1.0000
  H   H1416     1.0  0.02538  0.55823  0.67462  1.0000
  H   H1417     1.0  0.03630  0.54424  0.65946  1.0000
  H   H1418     1.0  0.01992  0.60773  0.56630  1.0000
  Fe  Fe99      1.0  0.14587  0.54412  0.61588  1.0000
  S   S214      1.0  0.04572  0.50050  0.61472  1.0000
  H   H1419     1.0  0.01862  0.58712  0.67474  1.0000
  C   C827      1.0  0.13833  0.58346  0.64976  1.0000
  H   H1420     1.0  0.19762  0.65725  0.54913  1.0000
  H   H1421     1.0  0.13785  0.66863  0.55613  1.0000
  Fe  Fe100     1.0  0.01985  0.51434  0.60808  1.0000
  H   H1422     1.0  0.17575  0.65558  0.55228  1.0000
  S   S215      1.0  0.15576  0.50983  0.73482  1.0000
  H   H1423     1.0  0.15850  0.50364  0.70131  1.0000
  Fe  Fe101     1.0  0.11909  0.66492  0.51005  1.0000
  H   H1424     1.0  0.09664  0.52262  0.60962  1.0000
  H   H1425     1.0  0.17767  0.68667  0.54461  1.0000
  C   C828      1.0  0.08263  0.52550  0.61159  1.0000
  S   S216      1.0  0.10649  0.52556  0.64454  1.0000
  C   C829      1.0  0.00012  0.74267  0.52530  1.0000
  H   H1426     1.0  0.08109  0.56390  0.71973  1.0000
  C   C830      1.0  0.11495  0.70810  0.51811  1.0000
  C   C831      1.0  0.18220  0.67950  0.53393  1.0000
  C   C832      1.0  0.07429  0.51246  0.61251  1.0000
  H   H1427     1.0  0.03016  0.70295  0.52717  1.0000
  S   S217      1.0  0.11282  0.54929  0.67648  1.0000
  C   C833      1.0  0.11666  0.72145  0.52471  1.0000
  H   H1428     1.0  0.01310  0.76457  0.51841  1.0000
  S   S218      1.0  0.24549  0.85456  0.49671  1.0000
  H   H1429     1.0  0.19468  0.68323  0.52658  1.0000
  H   H1430     1.0  0.16778  0.53205  0.66268  1.0000
  H   H1431     1.0  0.31421  0.86607  0.49284  1.0000
  N   N62       1.0  0.09002  0.57706  0.54821  1.0000
  N   N63       1.0  0.16930  0.68484  0.52228  1.0000
  H   H1432     1.0  0.14472  0.89245  0.55954  1.0000
  H   H1433     1.0  0.16091  0.86552  0.53036  1.0000
  H   H1434     1.0  0.09999  0.59677  0.50369  1.0000
  H   H1435     1.0  0.10373  0.57377  0.51180  1.0000
  C   C834      1.0  0.05478  0.54601  0.61530  1.0000
  C   C835      1.0  0.13545  0.87108  0.55822  1.0000
  C   C836      1.0  0.17353  0.60311  0.57319  1.0000
  H   H1436     1.0  0.18297  0.54828  0.63319  1.0000
  S   S219      1.0  0.02811  0.67931  0.49222  1.0000
  H   H1437     1.0  0.06278  0.60425  0.53415  1.0000
  C   C837      1.0  0.16742  0.87513  0.53146  1.0000
  H   H1438     1.0  0.17000  0.90092  0.54514  1.0000
  C   C838      1.0  0.09083  0.58307  0.56369  1.0000
  H   H1439     1.0  0.03891  0.63252  0.54324  1.0000
  Fe  Fe102     1.0  0.12734  0.62630  0.50930  1.0000
  H   H1440     1.0  0.04574  0.59400  0.54753  1.0000
  H   H1441     1.0  0.17261  0.57967  0.62078  1.0000
  C   C839      1.0  0.07132  0.57733  0.54917  1.0000
  H   H1442     1.0  0.05787  0.60196  0.55750  1.0000
  H   H1443     1.0  0.12531  0.58033  0.65347  1.0000
  H   H1444     1.0  0.10506  0.53203  0.56344  1.0000
  C   C840      1.0  0.09720  0.58916  0.53181  1.0000
  C   C841      1.0  0.02421  0.58819  0.58896  1.0000
  C   C842      1.0  0.19406  0.58426  0.62778  1.0000
  C   C843      1.0  0.09541  0.58635  0.51457  1.0000
  H   H1445     1.0  0.14592  0.89860  0.52882  1.0000
  H   H1446     1.0  0.00580  0.85688  0.51435  1.0000
  C   C844      1.0  0.01441  0.60641  0.58054  1.0000
  Fe  Fe103     1.0  0.02560  0.54400  0.73287  1.0000
  H   H1447     1.0  0.18628  0.71297  0.51717  1.0000
  S   S220      1.0  0.13477  0.83999  0.49535  1.0000
  H   H1448     1.0  0.08187  0.49959  0.61110  1.0000
  H   H1449     1.0  0.99372  0.76964  0.50971  1.0000
  H   H1450     1.0  0.03433  0.85600  0.50577  1.0000
  H   H1451     1.0  0.15625  0.67986  0.49465  1.0000
  H   H1452     1.0  0.02967  0.87590  0.48920  1.0000
  H   H1453     1.0  0.03385  0.83800  0.48650  1.0000
  H   H1454     1.0  0.31204  0.88284  0.52345  1.0000
  S   S221      1.0  0.10260  0.78318  0.48941  1.0000
  H   H1455     1.0  0.18128  0.94260  0.50176  1.0000
  C   C845      1.0  0.32086  0.85685  0.53808  1.0000
  H   H1456     1.0  0.02783  0.74858  0.49864  1.0000
  H   H1457     1.0  0.05117  0.50333  0.67590  1.0000
  N   N64       1.0  0.00802  0.85446  0.48801  1.0000
  H   H1458     1.0  0.01092  0.70822  0.54388  1.0000
  S   S222      1.0  0.00433  0.64399  0.49106  1.0000
  H   H1459     1.0  0.19091  0.68338  0.49994  1.0000
  C   C846      1.0  0.99955  0.56903  0.49846  1.0000
  C   C847      1.0  0.07523  0.56162  0.73348  1.0000
  C   C848      1.0  0.00184  0.48799  0.71646  1.0000
  H   H1460     1.0  0.28575  0.86647  0.48717  1.0000
  H   H1461     1.0  0.00791  0.55604  0.49697  1.0000
  C   C849      1.0  0.31733  0.84029  0.54504  1.0000
  H   H1462     1.0  0.03476  0.71238  0.49139  1.0000
  H   H1463     1.0  0.06576  0.62270  0.49487  1.0000
  H   H1464     1.0  0.99352  0.58327  0.59793  1.0000
  H   H1465     1.0  0.12163  0.49467  0.60888  1.0000
  H   H1466     1.0  0.00333  0.82983  0.48765  1.0000
  S   S223      1.0  0.00692  0.54852  0.55105  1.0000
  H   H1467     1.0  0.99401  0.58785  0.57541  1.0000
  H   H1468     1.0  0.00052  0.88122  0.49142  1.0000
  H   H1469     1.0  0.00320  0.75444  0.48788  1.0000
  C   C850      1.0  0.99439  0.64002  0.56254  1.0000
  H   H1470     1.0  0.13049  0.49049  0.73200  1.0000
  H   H1471     1.0  0.31858  0.82505  0.49657  1.0000
  H   H1472     1.0  0.99360  0.61613  0.55709  1.0000
  Fe  Fe104     1.0  0.11370  0.54456  0.77737  1.0000
  H   H1473     1.0  0.14205  0.57811  0.78808  1.0000
  H   H1474     1.0  0.26099  0.54894  0.82303  1.0000
  H   H1475     1.0  0.11066  0.63784  0.79801  1.0000
  H   H1476     1.0  0.18436  0.51713  0.85411  1.0000
  H   H1477     1.0  0.11654  0.57280  0.81038  1.0000
  Fe  Fe105     1.0  0.22525  0.55617  0.87699  1.0000
  S   S224      1.0  0.19748  0.56166  0.89178  1.0000
  S   S225      1.0  0.24434  0.57316  0.87161  1.0000
  Fe  Fe106     1.0  0.22273  0.52299  0.87001  1.0000
  S   S226      1.0  0.19501  0.52534  0.88453  1.0000
  S   S227      1.0  0.23763  0.50035  0.85787  1.0000
  Fe  Fe107     1.0  0.19139  0.55331  0.87059  1.0000
  S   S228      1.0  0.16648  0.56328  0.86058  1.0000
  Fe  Fe108     1.0  0.20344  0.53311  0.90442  1.0000
  S   S229      1.0  0.19449  0.52226  0.93317  1.0000
  S   S230      1.0  0.21865  0.55051  0.85456  1.0000
  S   S231      1.0  0.23151  0.52816  0.89104  1.0000
  C   C851      1.0  0.17410  0.49496  0.85386  1.0000
  H   H1478     1.0  0.31105  0.51978  0.86351  1.0000
  S   S232      1.0  0.23454  0.54595  0.97444  1.0000
  H   H1479     1.0  0.24048  0.58204  0.95199  1.0000
  H   H1480     1.0  0.29418  0.53663  0.87063  1.0000
  H   H1481     1.0  0.24703  0.60697  0.90784  1.0000
  H   H1482     1.0  0.24788  0.60071  0.93802  1.0000
  H   H1483     1.0  0.27310  0.55177  0.84587  1.0000
  C   C852      1.0  0.08441  0.56197  0.74548  1.0000
  N   N65       1.0  0.31469  0.53901  0.96295  1.0000
  S   S233      1.0  0.08718  0.56230  0.77797  1.0000
  H   H1484     1.0  0.06217  0.50026  0.78562  1.0000
  C   C853      1.0  0.26641  0.53678  0.83190  1.0000
  H   H1485     1.0  0.19822  0.50320  0.84040  1.0000
  H   H1486     1.0  0.11725  0.61102  0.75467  1.0000
  Fe  Fe109     1.0  0.99795  0.52780  0.76069  1.0000
  H   H1487     1.0  0.11606  0.57542  0.78075  1.0000
  H   H1488     1.0  0.28929  0.51053  0.88872  1.0000
  N   N66       1.0  0.11742  0.59672  0.79071  1.0000
  H   H1489     1.0  0.09386  0.62700  0.81018  1.0000
  N   N67       1.0  0.28833  0.52550  0.85238  1.0000
  H   H1490     1.0  0.31100  0.55681  0.93837  1.0000
  H   H1491     1.0  0.23519  0.56644  0.92517  1.0000
  C   C854      1.0  0.08174  0.49469  0.76283  1.0000
  H   H1492     1.0  0.20403  0.61006  0.92999  1.0000
  C   C855      1.0  0.26116  0.56428  0.88321  1.0000
  C   C856      1.0  0.27654  0.57041  0.87739  1.0000
  C   C857      1.0  0.29017  0.56306  0.88643  1.0000
  C   C858      1.0  0.28830  0.54969  0.90139  1.0000
  C   C859      1.0  0.27282  0.54383  0.90733  1.0000
  C   C860      1.0  0.25928  0.55115  0.89832  1.0000
  H   H1493     1.0  0.27798  0.58074  0.86581  1.0000
  H   H1494     1.0  0.30205  0.56778  0.88191  1.0000
  H   H1495     1.0  0.27127  0.53363  0.91901  1.0000
  H   H1496     1.0  0.24724  0.54686  0.90332  1.0000
  C   C861      1.0  0.20657  0.52597  0.94598  1.0000
  C   C862      1.0  0.19931  0.52680  0.96345  1.0000
  C   C863      1.0  0.20829  0.53175  0.97300  1.0000
  C   C864      1.0  0.22457  0.53566  0.96505  1.0000
  C   C865      1.0  0.23226  0.53356  0.94807  1.0000
  C   C866      1.0  0.22326  0.52886  0.93854  1.0000
  H   H1497     1.0  0.18644  0.52443  0.96934  1.0000
  H   H1498     1.0  0.15540  0.52634  0.86328  1.0000
  H   H1499     1.0  0.24495  0.53631  0.94201  1.0000
  H   H1500     1.0  0.22915  0.52780  0.92533  1.0000
  C   C867      1.0  0.05976  0.55663  0.76891  1.0000
  H   H1501     1.0  0.25983  0.56251  0.93462  1.0000
  H   H1502     1.0  0.26593  0.57996  0.91659  1.0000
  C   C868      1.0  0.16786  0.55884  0.84040  1.0000
  C   C869      1.0  0.18363  0.55701  0.82826  1.0000
  C   C870      1.0  0.18440  0.55404  0.81199  1.0000
  C   C871      1.0  0.15291  0.55736  0.83630  1.0000
  H   H1503     1.0  0.19516  0.55836  0.83120  1.0000
  H   H1504     1.0  0.19658  0.55302  0.80251  1.0000
  H   H1505     1.0  0.11382  0.59082  0.81907  1.0000
  C   C872      1.0  0.06312  0.50280  0.77136  1.0000
  H   H1506     1.0  0.12315  0.52992  0.85050  1.0000
  N   N68       1.0  0.22975  0.59275  0.92862  1.0000
  H   H1507     1.0  0.21680  0.49322  0.89223  1.0000
  H   H1508     1.0  0.22081  0.56994  0.94497  1.0000
  C   C873      1.0  0.07656  0.55981  0.76318  1.0000
  H   H1509     1.0  0.05364  0.55502  0.78260  1.0000
  H   H1510     1.0  0.13694  0.51861  0.87618  1.0000
  H   H1511     1.0  0.08673  0.58043  0.80717  1.0000
  H   H1512     1.0  0.30120  0.55821  0.84469  1.0000
  C   C874      1.0  0.23650  0.60017  0.90952  1.0000
  H   H1513     1.0  0.20198  0.58878  0.95934  1.0000
  H   H1514     1.0  0.28761  0.50487  0.84120  1.0000
  H   H1515     1.0  0.08319  0.60226  0.81026  1.0000
  H   H1516     1.0  0.17346  0.50265  0.88438  1.0000
  Fe  Fe110     1.0  0.13039  0.50989  0.79755  1.0000
  N   N69       1.0  0.15484  0.50093  0.86060  1.0000
  C   C875      1.0  0.21517  0.60607  0.93654  1.0000
  C   C876      1.0  0.29720  0.50979  0.84466  1.0000
  H   H1517     1.0  0.27702  0.55273  0.96053  1.0000
  C   C877      1.0  0.22338  0.61363  0.89919  1.0000
  C   C878      1.0  0.28018  0.50666  0.88350  1.0000
  C   C879      1.0  0.15928  0.50802  0.88756  1.0000
  C   C880      1.0  0.31034  0.54524  0.84646  1.0000
  C   C881      1.0  0.05084  0.55559  0.75696  1.0000
  H   H1518     1.0  0.28955  0.54540  0.82821  1.0000
  H   H1519     1.0  0.17967  0.51821  0.83340  1.0000
  H   H1520     1.0  0.32330  0.57231  0.96177  1.0000
  H   H1521     1.0  0.05970  0.51714  0.76656  1.0000
  S   S234      1.0  0.15704  0.51081  0.78143  1.0000
  H   H1522     1.0  0.11295  0.59246  0.75072  1.0000
  C   C882      1.0  0.11027  0.61619  0.78780  1.0000
  C   C883      1.0  0.14627  0.50907  0.84523  1.0000
  C   C884      1.0  0.12636  0.51608  0.84953  1.0000
  C   C885      1.0  0.24440  0.58852  0.93805  1.0000
  C   C886      1.0  0.16952  0.55239  0.80795  1.0000
  H   H1523     1.0  0.11866  0.62308  0.77633  1.0000
  H   H1524     1.0  0.09731  0.56455  0.74095  1.0000
  S   S235      1.0  0.11769  0.51726  0.77474  1.0000
  C   C887      1.0  0.30092  0.53114  0.85897  1.0000
  C   C888      1.0  0.11041  0.58697  0.80876  1.0000
  H   H1525     1.0  0.22960  0.61594  0.88509  1.0000
  H   H1526     1.0  0.30117  0.51781  0.97226  1.0000
  H   H1527     1.0  0.13365  0.59069  0.75477  1.0000
  C   C889      1.0  0.09055  0.58861  0.81358  1.0000
  H   H1528     1.0  0.30295  0.49882  0.85437  1.0000
  H   H1529     1.0  0.24263  0.58952  0.90235  1.0000
  H   H1530     1.0  0.30019  0.52942  0.95054  1.0000
  H   H1531     1.0  0.31705  0.49990  0.82396  1.0000
  H   H1532     1.0  0.28038  0.54517  0.98262  1.0000
  H   H1533     1.0  0.31686  0.54225  0.83358  1.0000
  H   H1534     1.0  0.21249  0.58126  0.90844  1.0000
  C   C890      1.0  0.28145  0.54117  0.97047  1.0000
  H   H1535     1.0  0.15977  0.59217  0.79594  1.0000
  H   H1536     1.0  0.14067  0.55879  0.84566  1.0000
  C   C891      1.0  0.22425  0.57610  0.93094  1.0000
  H   H1537     1.0  0.25519  0.53299  0.84197  1.0000
  S   S236      1.0  0.30461  0.54042  0.91349  1.0000
  C   C892      1.0  0.05848  0.55838  0.73919  1.0000
  Fe  Fe111     1.0  0.15002  0.53871  0.78345  1.0000
  C   C893      1.0  0.10771  0.62469  0.80323  1.0000
  S   S237      1.0  0.13894  0.54904  0.75930  1.0000
  C   C894      1.0  0.11221  0.58993  0.77801  1.0000
  C   C895      1.0  0.26134  0.57618  0.93089  1.0000
  H   H1538     1.0  0.20576  0.56456  0.92626  1.0000
  H   H1539     1.0  0.27222  0.53263  0.97328  1.0000
  N   N70       1.0  0.08558  0.49716  0.74334  1.0000
  H   H1540     1.0  0.29891  0.56526  0.95695  1.0000
  H   H1541     1.0  0.11541  0.50713  0.74145  1.0000
  C   C896      1.0  0.29991  0.53110  0.96365  1.0000
  H   H1542     1.0  0.19700  0.58661  0.92794  1.0000
  H   H1543     1.0  0.21984  0.62634  0.90300  1.0000
  H   H1544     1.0  0.09723  0.61954  0.78448  1.0000
  H   H1545     1.0  0.27189  0.57645  0.93679  1.0000
  H   H1546     1.0  0.32052  0.54639  0.85236  1.0000
  H   H1547     1.0  0.26522  0.51487  0.86390  1.0000
  H   H1548     1.0  0.08649  0.58365  0.82785  1.0000
  H   H1549     1.0  0.21140  0.60928  0.90062  1.0000
  S   S238      1.0  0.02668  0.51826  0.75195  1.0000
  H   H1550     1.0  0.03789  0.55313  0.76144  1.0000
  C   C897      1.0  0.27981  0.54050  0.83960  1.0000
  H   H1551     1.0  0.18092  0.48981  0.95266  1.0000
  C   C898      1.0  0.31208  0.51222  0.82864  1.0000
  H   H1552     1.0  0.14943  0.50019  0.83618  1.0000
  H   H1553     1.0  0.14113  0.59190  0.81314  1.0000
  C   C899      1.0  0.31491  0.53942  0.98123  1.0000
  H   H1554     1.0  0.09783  0.59331  0.77947  1.0000
  H   H1555     1.0  0.26604  0.53213  0.87257  1.0000
  H   H1556     1.0  0.28601  0.49363  0.88046  1.0000
  H   H1557     1.0  0.26935  0.49345  0.83001  1.0000
  S   S239      1.0  0.17080  0.54938  0.78718  1.0000
  H   H1558     1.0  0.14231  0.55255  0.81723  1.0000
  H   H1559     1.0  0.30592  0.55144  0.98490  1.0000
  H   H1560     1.0  0.11975  0.50843  0.86168  1.0000
  C   C900      1.0  0.15380  0.55385  0.82022  1.0000
  H   H1561     1.0  0.19642  0.61117  0.96012  1.0000
  H   H1562     1.0  0.11605  0.61761  0.81272  1.0000
  S   S240      1.0  0.12433  0.53696  0.80162  1.0000
  H   H1563     1.0  0.06923  0.52296  0.73740  1.0000
  C   C901      1.0  0.27416  0.52039  0.86771  1.0000
  H   H1564     1.0  0.21686  0.59837  0.96441  1.0000
  H   H1565     1.0  0.26863  0.50518  0.89425  1.0000
  C   C902      1.0  0.20740  0.60050  0.95620  1.0000
  C   C903      1.0  0.18438  0.50940  0.84498  1.0000
  H   H1566     1.0  0.14265  0.59884  0.77383  1.0000
  C   C904      1.0  0.11959  0.59661  0.75849  1.0000
  C   C905      1.0  0.20895  0.57756  0.92284  1.0000
  C   C906      1.0  0.15117  0.51425  0.87133  1.0000
  H   H1567     1.0  0.12062  0.51518  0.83912  1.0000
  H   H1568     1.0  0.32252  0.58003  0.93931  1.0000
  C   C907      1.0  0.13703  0.59235  0.78727  1.0000
  H   H1569     1.0  0.27241  0.52680  0.82402  1.0000
  C   C908      1.0  0.31164  0.55721  0.95168  1.0000
  C   C909      1.0  0.14549  0.59748  0.79912  1.0000
  H   H1570     1.0  0.15167  0.52038  0.83694  1.0000
  H   H1571     1.0  0.15720  0.51930  0.89343  1.0000
  H   H1572     1.0  0.14360  0.61183  0.79662  1.0000
  Fe  Fe112     1.0  0.14392  0.52082  0.75875  1.0000
  H   H1573     1.0  0.21966  0.61822  0.93460  1.0000
  H   H1574     1.0  0.09056  0.50023  0.76683  1.0000
  H   H1575     1.0  0.15301  0.49812  0.89766  1.0000
  H   H1576     1.0  0.30775  0.52268  0.81773  1.0000
  C   C910      1.0  0.11835  0.49303  0.74191  1.0000
  H   H1577     1.0  0.28387  0.49913  0.80983  1.0000
  H   H1578     1.0  0.01300  0.49475  0.80976  1.0000
  H   H1579     1.0  0.31806  0.48856  0.87833  1.0000
  H   H1580     1.0  0.22887  0.48986  0.93990  1.0000
  H   H1581     1.0  0.05351  0.49669  0.76960  1.0000
  H   H1582     1.0  0.08920  0.52303  0.74133  1.0000
  H   H1583     1.0  0.06009  0.49856  0.73932  1.0000
  H   H1584     1.0  0.15960  0.48878  0.93796  1.0000
  H   H1585     1.0  0.13468  0.48923  0.87984  1.0000
  C   C911      1.0  0.32493  0.56800  0.94963  1.0000
  S   S241      1.0  0.99740  0.55461  0.74344  1.0000
  H   H1586     1.0  0.19089  0.48756  0.93124  1.0000
  H   H1587     1.0  0.32319  0.51469  0.83205  1.0000
  H   H1588     1.0  0.02661  0.48893  0.79035  1.0000
  C   C912      1.0  0.27728  0.48865  0.81829  1.0000
  C   C913      1.0  0.07343  0.49020  0.73762  1.0000
  S   S242      1.0  0.12452  0.48823  0.82038  1.0000
  Fe  Fe113     1.0  0.38158  0.39893  0.01664  1.0000
  H   H1589     1.0  0.64757  0.14143  0.03511  1.0000
  S   S243      1.0  0.40076  0.38940  0.03411  1.0000
  H   H1590     1.0  0.46634  0.03509  0.05808  1.0000
  S   S244      1.0  0.65204  0.38471  0.01565  1.0000
  H   H1591     1.0  0.45888  0.04123  0.07850  1.0000
  Fe  Fe114     1.0  0.34510  0.39855  0.01558  1.0000
  H   H1592     1.0  0.42759  0.21536  0.99407  1.0000
  H   H1593     1.0  0.65648  0.20907  0.01241  1.0000
  H   H1594     1.0  0.54916  0.01267  0.09954  1.0000
  S   S245      1.0  0.35527  0.41423  0.02724  1.0000
  H   H1595     1.0  0.60428  0.17959  0.07048  1.0000
  H   H1596     1.0  0.54854  0.28074  0.01481  1.0000
  Fe  Fe115     1.0  0.60525  0.27262  0.01775  1.0000
  C   C914      1.0  0.61895  0.13707  0.09447  1.0000
  S   S246      1.0  0.62793  0.02425  0.09253  1.0000
  Fe  Fe116     1.0  0.58313  0.30934  0.01518  1.0000
  S   S247      1.0  0.55486  0.32226  0.02303  1.0000
  S   S248      1.0  0.59827  0.29154  0.03505  1.0000
  Fe  Fe117     1.0  0.45385  0.29608  0.03240  1.0000
  H   H1597     1.0  0.44282  0.37157  0.00388  1.0000
  S   S249      1.0  0.44076  0.31086  0.05349  1.0000
  Fe  Fe118     1.0  0.47248  0.26016  0.02544  1.0000
  H   H1598     1.0  0.58051  0.09437  0.05473  1.0000
  S   S250      1.0  0.48094  0.23177  0.03770  1.0000
  C   C915      1.0  0.64561  0.32941  0.02155  1.0000
  H   H1599     1.0  0.51562  0.00165  0.21126  1.0000
  H   H1600     1.0  0.43919  0.02652  0.10242  1.0000
  Fe  Fe119     1.0  0.60348  0.01853  0.11077  1.0000
  S   S251      1.0  0.48162  0.28103  0.03078  1.0000
  S   S252      1.0  0.44434  0.27399  0.03005  1.0000
  Fe  Fe120     1.0  0.48708  0.15530  0.99998  1.0000
  C   C916      1.0  0.38356  0.32999  0.07115  1.0000
  H   H1601     1.0  0.50625  0.34719  0.98859  1.0000
  Fe  Fe121     1.0  0.50772  0.12249  0.02010  1.0000
  S   S253      1.0  0.49357  0.10466  0.01612  1.0000
  Fe  Fe122     1.0  0.46994  0.12572  0.02225  1.0000
  S   S254      1.0  0.44439  0.12117  0.03949  1.0000
  S   S255      1.0  0.48400  0.14235  0.02835  1.0000
  S   S256      1.0  0.60155  0.03657  0.12762  1.0000
  H   H1602     1.0  0.41972  0.00753  0.06814  1.0000
  C   C917      1.0  0.50585  0.10724  0.09431  1.0000
  C   C918      1.0  0.36236  0.46920  0.00496  1.0000
  C   C919      1.0  0.61779  0.19877  0.01752  1.0000
  C   C920      1.0  0.61834  0.00902  0.18685  1.0000
  H   H1603     1.0  0.54256  0.23775  0.04462  1.0000
  Fe  Fe123     1.0  0.45819  0.04464  0.11958  1.0000
  S   S257      1.0  0.46424  0.05360  0.14024  1.0000
  S   S258      1.0  0.43597  0.05993  0.10661  1.0000
  H   H1604     1.0  0.35775  0.32685  0.03364  1.0000
  S   S259      1.0  0.49619  0.01834  0.14229  1.0000
  Fe  Fe124     1.0  0.46796  0.02557  0.15456  1.0000
  S   S260      1.0  0.45962  0.01458  0.18328  1.0000
  Fe  Fe125     1.0  0.49172  0.04564  0.12617  1.0000
  S   S261      1.0  0.51029  0.06271  0.12086  1.0000
  S   S262      1.0  0.45897  0.01723  0.13531  1.0000
  S   S263      1.0  0.48548  0.03849  0.10449  1.0000
  H   H1605     1.0  0.59270  0.21524  0.02478  1.0000
  C   C921      1.0  0.46871  0.02158  0.19647  1.0000
  C   C922      1.0  0.46972  0.01166  0.21331  1.0000
  C   C923      1.0  0.61329  0.22778  0.02230  1.0000
  H   H1606     1.0  0.58712  0.09339  0.08230  1.0000
  H   H1607     1.0  0.60251  0.08417  0.05546  1.0000
  C   C924      1.0  0.47445  0.03714  0.19059  1.0000
  C   C925      1.0  0.51904  0.99291  0.22351  1.0000
  H   H1608     1.0  0.55958  0.31952  0.98746  1.0000
  H   H1609     1.0  0.60931  0.02266  0.06704  1.0000
  H   H1610     1.0  0.64191  0.35173  0.98767  1.0000
  H   H1611     1.0  0.52072  0.12044  0.06935  1.0000
  H   H1612     1.0  0.62202  0.37030  0.02473  1.0000
  H   H1613     1.0  0.50295  0.09306  0.05212  1.0000
  C   C926      1.0  0.60493  0.03435  0.05711  1.0000
  C   C927      1.0  0.54828  0.02440  0.10352  1.0000
  C   C928      1.0  0.56326  0.02849  0.10462  1.0000
  C   C929      1.0  0.56210  0.04382  0.10958  1.0000
  C   C930      1.0  0.54581  0.05481  0.11397  1.0000
  C   C931      1.0  0.53076  0.05021  0.11368  1.0000
  H   H1614     1.0  0.57368  0.04719  0.11014  1.0000
  H   H1615     1.0  0.54482  0.06647  0.11820  1.0000
  C   C932      1.0  0.44308  0.10402  0.05816  1.0000
  C   C933      1.0  0.42658  0.10236  0.06814  1.0000
  C   C934      1.0  0.42471  0.08893  0.08305  1.0000
  C   C935      1.0  0.43934  0.07715  0.08835  1.0000
  C   C936      1.0  0.45598  0.07879  0.07850  1.0000
  C   C937      1.0  0.45783  0.09210  0.06323  1.0000
  H   H1616     1.0  0.41513  0.11145  0.06425  1.0000
  H   H1617     1.0  0.41183  0.08769  0.09049  1.0000
  H   H1618     1.0  0.46734  0.06957  0.08233  1.0000
  H   H1619     1.0  0.47055  0.09304  0.05523  1.0000
  C   C938      1.0  0.48407  0.21775  0.02386  1.0000
  C   C939      1.0  0.47833  0.20216  0.03050  1.0000
  C   C940      1.0  0.47981  0.19129  0.01942  1.0000
  H   H1620     1.0  0.51636  0.23885  0.01627  1.0000
  C   C941      1.0  0.36242  0.48695  0.00027  1.0000
  C   C942      1.0  0.49202  0.22205  0.00623  1.0000
  H   H1621     1.0  0.47222  0.19876  0.04414  1.0000
  H   H1622     1.0  0.47459  0.17974  0.02450  1.0000
  C   C943      1.0  0.42944  0.00436  0.10413  1.0000
  H   H1623     1.0  0.35810  0.32912  0.08649  1.0000
  C   C944      1.0  0.54164  0.31729  0.01231  1.0000
  C   C945      1.0  0.52547  0.31371  0.02152  1.0000
  C   C946      1.0  0.51507  0.30904  0.01332  1.0000
  H   H1624     1.0  0.35457  0.35795  0.03426  1.0000
  S   S264      1.0  0.61456  0.14868  0.01955  1.0000
  H   H1625     1.0  0.38999  0.33655  0.05826  1.0000
  H   H1626     1.0  0.52114  0.31422  0.03514  1.0000
  H   H1627     1.0  0.50274  0.30610  0.02062  1.0000
  H   H1628     1.0  0.42897  0.05457  0.07089  1.0000
  S   S265      1.0  0.47746  0.27022  0.99655  1.0000
  H   H1629     1.0  0.58300  0.13659  0.01832  1.0000
  H   H1630     1.0  0.37243  0.44416  0.02047  1.0000
  N   N71       1.0  0.45005  0.01907  0.07769  1.0000
  H   H1631     1.0  0.52049  0.03156  0.10791  1.0000
  C   C947      1.0  0.41045  0.36709  0.03932  1.0000
  C   C948      1.0  0.41361  0.35616  0.02786  1.0000
  C   C949      1.0  0.42286  0.33871  0.03202  1.0000
  C   C950      1.0  0.42854  0.33220  0.04780  1.0000
  C   C951      1.0  0.42471  0.34302  0.05944  1.0000
  C   C952      1.0  0.41598  0.36045  0.05509  1.0000
  H   H1632     1.0  0.40942  0.36127  0.01560  1.0000
  H   H1633     1.0  0.42554  0.33033  0.02309  1.0000
  H   H1634     1.0  0.42897  0.33804  0.07167  1.0000
  H   H1635     1.0  0.41359  0.36886  0.06396  1.0000
  H   H1636     1.0  0.43019  0.22578  0.01632  1.0000
  S   S266      1.0  0.65176  0.13773  0.99252  1.0000
  H   H1637     1.0  0.53294  0.10896  0.08521  1.0000
  H   H1638     1.0  0.54879  0.05416  0.05836  1.0000
  N   N72       1.0  0.48893  0.11226  0.08832  1.0000
  C   C953      1.0  0.47768  0.09987  0.09985  1.0000
  C   C954      1.0  0.47927  0.13053  0.09020  1.0000
  C   C955      1.0  0.47149  0.10096  0.11920  1.0000
  H   H1639     1.0  0.46578  0.10192  0.09476  1.0000
  H   H1640     1.0  0.48458  0.08606  0.09999  1.0000
  H   H1641     1.0  0.46499  0.13203  0.09187  1.0000
  H   H1642     1.0  0.48099  0.13314  0.10218  1.0000
  H   H1643     1.0  0.50356  0.10887  0.10784  1.0000
  H   H1644     1.0  0.48246  0.09668  0.12601  1.0000
  H   H1645     1.0  0.46389  0.11409  0.12096  1.0000
  H   H1646     1.0  0.46269  0.09189  0.12589  1.0000
  H   H1647     1.0  0.47844  0.14641  0.06376  1.0000
  H   H1648     1.0  0.36429  0.31708  0.07041  1.0000
  H   H1649     1.0  0.61248  0.18832  0.01701  1.0000
  S   S267      1.0  0.58892  0.28993  0.99886  1.0000
  H   H1650     1.0  0.60897  0.05302  0.06801  1.0000
  H   H1651     1.0  0.49861  0.12012  0.06033  1.0000
  C   C956      1.0  0.63130  0.22612  0.01860  1.0000
  C   C957      1.0  0.43537  0.02118  0.09331  1.0000
  C   C958      1.0  0.63578  0.19686  0.01432  1.0000
  C   C959      1.0  0.48284  0.00403  0.07110  1.0000
  C   C960      1.0  0.56820  0.06673  0.05955  1.0000
  S   S268      1.0  0.60960  0.00334  0.17236  1.0000
  H   H1652     1.0  0.57536  0.24933  0.00349  1.0000
  H   H1653     1.0  0.56291  0.02994  0.18387  1.0000
  C   C961      1.0  0.60659  0.21405  0.02184  1.0000
  C   C962      1.0  0.46549  0.00668  0.08453  1.0000
  H   H1654     1.0  0.47024  0.38601  0.01163  1.0000
  H   H1655     1.0  0.52107  0.01418  0.23244  1.0000
  C   C963      1.0  0.50567  0.35789  0.99464  1.0000
  H   H1656     1.0  0.46554  0.99948  0.21781  1.0000
  C   C964      1.0  0.53203  0.03514  0.10825  1.0000
  C   C965      1.0  0.63448  0.08977  0.04124  1.0000
  H   H1657     1.0  0.49675  0.23389  0.00105  1.0000
  C   C966      1.0  0.44593  0.01160  0.06481  1.0000
  H   H1658     1.0  0.55635  0.20892  0.03975  1.0000
  H   H1659     1.0  0.49790  0.14530  0.07068  1.0000
  C   C967      1.0  0.54720  0.31656  0.99472  1.0000
  H   H1660     1.0  0.60946  0.06731  0.03374  1.0000
  C   C968      1.0  0.58794  0.08531  0.02382  1.0000
  H   H1661     1.0  0.41677  0.00786  0.11312  1.0000
  C   C969      1.0  0.62858  0.15203  0.08569  1.0000
  C   C970      1.0  0.63192  0.01778  0.18092  1.0000
  C   C971      1.0  0.53666  0.31220  0.98644  1.0000
  S   S269      1.0  0.63029  0.06869  0.09993  1.0000
  H   H1662     1.0  0.56526  0.23578  0.03584  1.0000
  C   C972      1.0  0.58907  0.08218  0.06056  1.0000
  H   H1663     1.0  0.48069  0.33201  0.01011  1.0000
  C   C973      1.0  0.62799  0.09473  0.07044  1.0000
  C   C974      1.0  0.58486  0.08142  0.08035  1.0000
  H   H1664     1.0  0.35998  0.38287  0.06877  1.0000
  H   H1665     1.0  0.64364  0.08216  0.98901  1.0000
  S   S270      1.0  0.61682  0.99536  0.12792  1.0000
  C   C975      1.0  0.48056  0.04308  0.20180  1.0000
  H   H1666     1.0  0.47380  0.04485  0.17756  1.0000
  H   H1667     1.0  0.53818  0.17290  0.00172  1.0000
  S   S271      1.0  0.59876  0.24616  0.02892  1.0000
  C   C976      1.0  0.62898  0.10129  0.05243  1.0000
  N   N73       1.0  0.54746  0.00178  0.22181  1.0000
  C   C977      1.0  0.59740  0.05034  0.06553  1.0000
  H   H1668     1.0  0.64074  0.12666  0.06746  1.0000
  H   H1669     1.0  0.33928  0.32773  0.05896  1.0000
  C   C978      1.0  0.47278  0.33755  0.04502  1.0000
  S   S272      1.0  0.63369  0.09705  0.01907  1.0000
  Fe  Fe126     1.0  0.48715  0.01171  0.12202  1.0000
  C   C979      1.0  0.54156  0.27121  0.04229  1.0000
  C   C980      1.0  0.55184  0.26817  0.02416  1.0000
  H   H1670     1.0  0.47338  0.38019  0.99182  1.0000
  H   H1671     1.0  0.61656  0.03627  0.04661  1.0000
  H   H1672     1.0  0.37807  0.32074  0.04108  1.0000
  N   N74       1.0  0.58732  0.06663  0.05533  1.0000
  C   C981      1.0  0.36445  0.32986  0.07252  1.0000
  H   H1673     1.0  0.45833  0.34249  0.01280  1.0000
  H   H1674     1.0  0.63954  0.14950  0.09232  1.0000
  S   S273      1.0  0.64085  0.02213  0.22576  1.0000
  C   C982      1.0  0.54189  0.13101  0.02533  1.0000
  H   H1675     1.0  0.64503  0.19559  0.05729  1.0000
  C   C983      1.0  0.55264  0.23704  0.03241  1.0000
  S   S274      1.0  0.48759  0.18346  0.98727  1.0000
  H   H1676     1.0  0.56076  0.07930  0.05291  1.0000
  C   C984      1.0  0.56187  0.15604  0.00866  1.0000
  H   H1677     1.0  0.33480  0.46085  0.05654  1.0000
  C   C985      1.0  0.56459  0.01671  0.19256  1.0000
  H   H1678     1.0  0.36658  0.37792  0.04790  1.0000
  C   C986      1.0  0.56939  0.13973  0.01791  1.0000
  C   C987      1.0  0.54684  0.01394  0.20422  1.0000
  H   H1679     1.0  0.65088  0.33794  0.06987  1.0000
  H   H1680     1.0  0.51180  0.09311  0.09544  1.0000
  H   H1681     1.0  0.32582  0.38359  0.99780  1.0000
  H   H1682     1.0  0.59551  0.03115  0.05181  1.0000
  H   H1683     1.0  0.37507  0.35268  0.03966  1.0000
  C   C988      1.0  0.48381  0.14580  0.07500  1.0000
  H   H1684     1.0  0.47755  0.15829  0.07918  1.0000
  C   C989      1.0  0.59518  0.06833  0.03611  1.0000
  S   S275      1.0  0.62955  0.28151  0.00208  1.0000
  H   H1685     1.0  0.54090  0.00895  0.19648  1.0000
  C   C990      1.0  0.61827  0.00854  0.21676  1.0000
  H   H1686     1.0  0.60939  0.13696  0.08725  1.0000
  S   S276      1.0  0.47070  0.14069  0.99436  1.0000
  H   H1687     1.0  0.49221  0.99270  0.07704  1.0000
  C   C991      1.0  0.48118  0.03340  0.21883  1.0000
  H   H1688     1.0  0.56805  0.03916  0.06354  1.0000
  H   H1689     1.0  0.47875  0.11372  0.06612  1.0000
  H   H1690     1.0  0.52056  0.15081  0.01638  1.0000
  C   C992      1.0  0.35007  0.36146  0.06746  1.0000
  H   H1691     1.0  0.62494  0.11513  0.04730  1.0000
  H   H1692     1.0  0.57010  0.00508  0.22856  1.0000
  C   C993      1.0  0.47163  0.34483  0.00672  1.0000
  C   C994      1.0  0.56320  0.05198  0.05527  1.0000
  Fe  Fe127     1.0  0.62123  0.30224  0.01773  1.0000
  H   H1693     1.0  0.41959  0.03018  0.06533  1.0000
  H   H1694     1.0  0.44946  0.98941  0.16654  1.0000
  H   H1695     1.0  0.63652  0.23664  0.01910  1.0000
  Fe  Fe128     1.0  0.49546  0.12087  0.98871  1.0000
  H   H1696     1.0  0.34459  0.48589  0.04268  1.0000
  H   H1697     1.0  0.46284  0.99344  0.09034  1.0000
  C   C995      1.0  0.44834  0.23804  0.99380  1.0000
  H   H1698     1.0  0.49959  0.34291  0.02020  1.0000
  H   H1699     1.0  0.53603  0.23841  0.00006  1.0000
  C   C996      1.0  0.55565  0.00813  0.23255  1.0000
  H   H1700     1.0  0.46799  0.01093  0.09523  1.0000
  H   H1701     1.0  0.54097  0.21880  0.02634  1.0000
  H   H1702     1.0  0.59368  0.16299  0.07058  1.0000
  H   H1703     1.0  0.56581  0.26633  0.02412  1.0000
  H   H1704     1.0  0.33005  0.32937  0.09067  1.0000
  H   H1705     1.0  0.54853  0.10092  0.98659  1.0000
  C   C997      1.0  0.63565  0.18696  0.06185  1.0000
  C   C998      1.0  0.55351  0.21956  0.02830  1.0000
  C   C999      1.0  0.38146  0.48236  0.02000  1.0000
  H   H1706     1.0  0.48883  0.01544  0.06763  1.0000
  S   S277      1.0  0.51188  0.13656  0.99226  1.0000
  H   H1707     1.0  0.56491  0.11492  0.03383  1.0000
  H   H1708     1.0  0.57367  0.08771  0.02527  1.0000
  N   N75       1.0  0.63526  0.15444  0.06625  1.0000
  Fe  Fe129     1.0  0.60291  0.15881  0.99580  1.0000
  Fe  Fe130     1.0  0.35795  0.43220  0.00092  1.0000
  C   C1000     1.0  0.44745  0.38142  0.00717  1.0000
  C   C1001     1.0  0.38175  0.46451  0.02438  1.0000
  H   H1709     1.0  0.43970  0.03884  0.22615  1.0000
  H   H1710     1.0  0.39144  0.31638  0.07318  1.0000
  C   C1002     1.0  0.47296  0.34917  0.98677  1.0000
  H   H1711     1.0  0.62825  0.12419  0.09605  1.0000
  H   H1712     1.0  0.51782  0.25603  0.99709  1.0000
  C   C1003     1.0  0.49156  0.11055  0.06987  1.0000
  H   H1713     1.0  0.45197  0.35658  0.03508  1.0000
  H   H1714     1.0  0.38919  0.45578  0.03375  1.0000
  H   H1715     1.0  0.54583  0.26029  0.05292  1.0000
  C   C1004     1.0  0.43334  0.23869  0.00999  1.0000
  H   H1716     1.0  0.44622  0.06316  0.05574  1.0000
  C   C1005     1.0  0.37224  0.45793  0.01686  1.0000
  H   H1717     1.0  0.59166  0.09661  0.02553  1.0000
  H   H1718     1.0  0.52731  0.27373  0.04353  1.0000
  H   H1719     1.0  0.42369  0.03093  0.08985  1.0000
  H   H1720     1.0  0.49605  0.36544  0.01933  1.0000
  C   C1006     1.0  0.45492  0.03639  0.06908  1.0000
  H   H1721     1.0  0.62609  0.19254  0.05330  1.0000
  H   H1722     1.0  0.62566  0.16448  0.04243  1.0000
  C   C1007     1.0  0.63190  0.01722  0.21091  1.0000
  H   H1723     1.0  0.56762  0.05170  0.04128  1.0000
  H   H1724     1.0  0.49492  0.08198  0.07360  1.0000
  C   C1008     1.0  0.61161  0.00436  0.20479  1.0000
  H   H1725     1.0  0.42010  0.04957  0.21834  1.0000
  H   H1726     1.0  0.43876  0.99622  0.11240  1.0000
  C   C1009     1.0  0.56183  0.25164  0.00163  1.0000
  C   C1010     1.0  0.65684  0.13717  0.04391  1.0000
  H   H1727     1.0  0.64926  0.02855  0.18832  1.0000
  H   H1728     1.0  0.48461  0.05535  0.19731  1.0000
  C   C1011     1.0  0.54413  0.16017  0.00857  1.0000
  H   H1729     1.0  0.54427  0.28298  0.04422  1.0000
  S   S278      1.0  0.38525  0.41842  0.99118  1.0000
  C   C1012     1.0  0.63874  0.02179  0.19295  1.0000
  C   C1013     1.0  0.60354  0.17071  0.06295  1.0000
  N   N76       1.0  0.35420  0.34483  0.06115  1.0000
  C   C1014     1.0  0.48740  0.19579  0.00173  1.0000
  C   C1015     1.0  0.36323  0.34766  0.04219  1.0000
  H   H1730     1.0  0.34629  0.35880  0.08194  1.0000
  H   H1731     1.0  0.47321  0.32642  0.03967  1.0000
  H   H1732     1.0  0.42769  0.99650  0.09602  1.0000
  Fe  Fe131     1.0  0.64133  0.00220  0.11094  1.0000
  H   H1733     1.0  0.44948  0.20633  0.99639  1.0000
  H   H1734     1.0  0.44376  0.39406  0.99801  1.0000
  C   C1016     1.0  0.63869  0.06535  0.06593  1.0000
  H   H1735     1.0  0.65393  0.37252  0.07360  1.0000
  H   H1736     1.0  0.54891  0.12035  0.99195  1.0000
  C   C1017     1.0  0.36436  0.37189  0.06204  1.0000
  C   C1018     1.0  0.44132  0.21422  0.98672  1.0000
  H   H1737     1.0  0.59381  0.05754  0.03131  1.0000
  S   S279      1.0  0.37125  0.38173  0.00704  1.0000
  H   H1738     1.0  0.46724  0.36567  0.03918  1.0000
  H   H1739     1.0  0.56422  0.21641  0.01722  1.0000
  Fe  Fe132     1.0  0.62905  0.12590  0.00741  1.0000
  H   H1740     1.0  0.61819  0.34044  0.02829  1.0000
  H   H1741     1.0  0.62320  0.10353  0.07920  1.0000
  H   H1742     1.0  0.42772  0.01992  0.04743  1.0000
  C   C1019     1.0  0.63110  0.34302  0.02424  1.0000
  S   S280      1.0  0.48803  0.04180  0.23281  1.0000
  Fe  Fe133     1.0  0.45001  0.28585  0.00151  1.0000
  H   H1743     1.0  0.52136  0.25663  0.02987  1.0000
  N   N77       1.0  0.54891  0.25339  0.01853  1.0000
  S   S281      1.0  0.64338  0.30776  0.02555  1.0000
  C   C1020     1.0  0.63261  0.07671  0.07726  1.0000
  H   H1744     1.0  0.33350  0.46605  0.03393  1.0000
  N   N78       1.0  0.47482  0.35817  0.01425  1.0000
  C   C1021     1.0  0.42716  0.01785  0.06157  1.0000
  C   C1022     1.0  0.62098  0.15858  0.05637  1.0000
  H   H1745     1.0  0.56538  0.99417  0.07743  1.0000
  H   H1746     1.0  0.50661  0.99132  0.23285  1.0000
  Fe  Fe134     1.0  0.48449  0.29234  0.00211  1.0000
  C   C1023     1.0  0.49385  0.21100  0.99524  1.0000
  S   S282      1.0  0.64974  0.17705  0.01060  1.0000
  C   C1024     1.0  0.64763  0.13751  0.06303  1.0000
  H   H1747     1.0  0.60115  0.99753  0.20943  1.0000
  C   C1025     1.0  0.63331  0.35991  0.02227  1.0000
  H   H1748     1.0  0.56195  0.24010  0.99718  1.0000
  H   H1749     1.0  0.61762  0.14630  0.05651  1.0000
  H   H1750     1.0  0.65796  0.13365  0.07075  1.0000
  C   C1026     1.0  0.53023  0.25781  0.01678  1.0000
  H   H1751     1.0  0.37678  0.36414  0.06557  1.0000
  H   H1752     1.0  0.59818  0.17915  0.05151  1.0000
  H   H1753     1.0  0.61176  0.13859  0.10779  1.0000
  H   H1754     1.0  0.64530  0.36658  0.05839  1.0000
  S   S283      1.0  0.45744  0.30910  0.00407  1.0000
  C   C1027     1.0  0.64561  0.16840  0.05993  1.0000
  C   C1028     1.0  0.52066  0.30826  0.99575  1.0000
  C   C1029     1.0  0.36897  0.33150  0.03418  1.0000
  Fe  Fe135     1.0  0.62734  0.04073  0.11042  1.0000
  C   C1030     1.0  0.64999  0.36339  0.01733  1.0000
  Fe  Fe136     1.0  0.61751  0.01365  0.14330  1.0000
  H   H1755     1.0  0.59392  0.08425  0.01014  1.0000
  H   H1756     1.0  0.45499  0.01418  0.05194  1.0000
  H   H1757     1.0  0.46003  0.22946  0.99852  1.0000
  H   H1758     1.0  0.51811  0.12948  0.08791  1.0000
  H   H1759     1.0  0.57026  0.00685  0.18443  1.0000
  S   S284      1.0  0.64335  0.01897  0.12749  1.0000
  H   H1760     1.0  0.63719  0.02146  0.16711  1.0000
  C   C1031     1.0  0.53417  0.14761  0.01679  1.0000
  C   C1032     1.0  0.63947  0.07183  0.04801  1.0000
  H   H1761     1.0  0.37610  0.33516  0.02050  1.0000
  H   H1762     1.0  0.57108  0.08113  0.08647  1.0000
  H   H1763     1.0  0.56269  0.06580  0.07371  1.0000
  C   C1033     1.0  0.55934  0.26734  0.98609  1.0000
  H   H1764     1.0  0.42154  0.24857  0.00692  1.0000
  S   S285      1.0  0.58324  0.01413  0.09991  1.0000
  H   H1765     1.0  0.61971  0.16400  0.08933  1.0000
  H   H1766     1.0  0.55508  0.03573  0.21964  1.0000
  C   C1034     1.0  0.51996  0.11733  0.08353  1.0000
  H   H1767     1.0  0.58941  0.04615  0.07863  1.0000
  C   C1035     1.0  0.50170  0.09256  0.06609  1.0000
  H   H1768     1.0  0.59347  0.07029  0.08749  1.0000
  H   H1769     1.0  0.63047  0.99062  0.08712  1.0000
  H   H1770     1.0  0.51511  0.08917  0.06831  1.0000
  H   H1771     1.0  0.48569  0.33654  0.04751  1.0000
  H   H1772     1.0  0.62935  0.18773  0.07550  1.0000
  H   H1773     1.0  0.38468  0.33603  0.08122  1.0000
  S   S286      1.0  0.60526  0.32198  0.99957  1.0000
  H   H1774     1.0  0.64240  0.32414  0.98962  1.0000
  H   H1775     1.0  0.57422  0.01615  0.19997  1.0000
  C   C1036     1.0  0.46614  0.35538  0.03336  1.0000
  S   S287      1.0  0.53048  0.11428  0.03310  1.0000
  H   H1776     1.0  0.52624  0.27177  0.01033  1.0000
  H   H1777     1.0  0.46369  0.33614  0.05794  1.0000
  H   H1778     1.0  0.50188  0.37078  0.98600  1.0000
  C   C1037     1.0  0.55926  0.12739  0.02653  1.0000
  C   C1038     1.0  0.49397  0.35603  0.01301  1.0000
  H   H1779     1.0  0.43806  0.04826  0.04998  1.0000
  S   S288      1.0  0.34933  0.46136  0.99649  1.0000
  C   C1039     1.0  0.32630  0.46248  0.04744  1.0000
  S   S289      1.0  0.34539  0.41798  0.99006  1.0000
  H   H1780     1.0  0.53796  0.02688  0.20528  1.0000
  Fe  Fe137     1.0  0.63613  0.16151  0.00243  1.0000
  C   C1040     1.0  0.47606  0.01749  0.22439  1.0000
  C   C1041     1.0  0.46731  0.37671  0.00580  1.0000
  C   C1042     1.0  0.44100  0.05118  0.06113  1.0000
  H   H1781     1.0  0.43748  0.24272  0.01980  1.0000
  H   H1782     1.0  0.44034  0.38327  0.02040  1.0000
  S   S290      1.0  0.57468  0.17100  0.99656  1.0000
  H   H1783     1.0  0.61286  0.00509  0.23051  1.0000
  H   H1784     1.0  0.33862  0.37080  0.06269  1.0000
  C   C1043     1.0  0.64255  0.21053  0.01488  1.0000
  H   H1785     1.0  0.65546  0.38447  0.05163  1.0000
  C   C1044     1.0  0.65611  0.37115  0.06005  1.0000
  C   C1045     1.0  0.52514  0.24706  0.00698  1.0000
  H   H1786     1.0  0.54544  0.99424  0.07268  1.0000
  C   C1046     1.0  0.54970  0.02778  0.23237  1.0000
  H   H1787     1.0  0.32989  0.35032  0.05269  1.0000
  H   H1788     1.0  0.65155  0.16983  0.04584  1.0000
  C   C1047     1.0  0.33712  0.34050  0.06233  1.0000
  H   H1789     1.0  0.64378  0.06285  0.03945  1.0000
  H   H1790     1.0  0.64294  0.05156  0.07095  1.0000
  H   H1791     1.0  0.44825  0.99711  0.06914  1.0000
  H   H1792     1.0  0.42689  0.02637  0.22221  1.0000
  H   H1793     1.0  0.51921  0.35659  0.99578  1.0000
  H   H1794     1.0  0.45088  0.25137  0.98927  1.0000
  C   C1048     1.0  0.42625  0.03785  0.22718  1.0000
  H   H1795     1.0  0.65670  0.16470  0.06663  1.0000
  H   H1796     1.0  0.65367  0.05270  0.00574  1.0000
  C   C1049     1.0  0.52909  0.00092  0.23147  1.0000
  H   H1797     1.0  0.48141  0.00115  0.05920  1.0000
  H   H1798     1.0  0.56248  0.27890  0.98788  1.0000
  S   S291      1.0  0.43126  0.28794  0.98524  1.0000
  Fe  Fe138     1.0  0.49750  0.02607  0.29455  1.0000
  C   C1050     1.0  0.36176  0.04462  0.44281  1.0000
  S   S292      1.0  0.50598  0.03831  0.31126  1.0000
  H   H1799     1.0  0.56576  0.03673  0.27645  1.0000
  S   S293      1.0  0.58325  0.04716  0.29724  1.0000
  S   S294      1.0  0.34271  0.02657  0.36792  1.0000
  H   H1800     1.0  0.41092  0.99556  0.33236  1.0000
  S   S295      1.0  0.61065  0.00096  0.30376  1.0000
  H   H1801     1.0  0.35752  0.05036  0.43062  1.0000
  H   H1802     1.0  0.42002  0.03386  0.43324  1.0000
  S   S296      1.0  0.47279  0.03749  0.28444  1.0000
  C   C1051     1.0  0.56174  0.04518  0.30017  1.0000
  H   H1803     1.0  0.40330  0.03262  0.24625  1.0000
  S   S297      1.0  0.63863  0.98761  0.27039  1.0000
  S   S298      1.0  0.34566  0.04781  0.39585  1.0000
  H   H1804     1.0  0.36871  0.00586  0.47208  1.0000
  Fe  Fe139     1.0  0.35181  0.02165  0.41369  1.0000
  S   S299      1.0  0.38380  0.04812  0.35565  1.0000
  H   H1805     1.0  0.60709  0.04125  0.34486  1.0000
  H   H1806     1.0  0.65798  0.06375  0.33005  1.0000
  C   C1052     1.0  0.41116  0.02248  0.27710  1.0000
  H   H1807     1.0  0.53536  0.03227  0.23536  1.0000
  S   S300      1.0  0.37463  0.06093  0.47907  1.0000
  H   H1808     1.0  0.43050  0.01215  0.40579  1.0000
  Fe  Fe140     1.0  0.46763  0.01061  0.29534  1.0000
  C   C1053     1.0  0.61234  0.04132  0.33076  1.0000
  C   C1054     1.0  0.53926  0.03799  0.29101  1.0000
  H   H1809     1.0  0.62999  0.02205  0.31594  1.0000
  C   C1055     1.0  0.36792  0.01959  0.46622  1.0000
  C   C1056     1.0  0.36274  0.02686  0.45030  1.0000
  Fe  Fe141     1.0  0.63833  0.00153  0.29051  1.0000
  H   H1810     1.0  0.40346  0.01587  0.43174  1.0000
  Fe  Fe142     1.0  0.60360  0.02650  0.28536  1.0000
  C   C1057     1.0  0.53961  0.98943  0.30245  1.0000
  S   S301      1.0  0.51362  0.01815  0.26994  1.0000
  H   H1811     1.0  0.61358  0.08445  0.32041  1.0000
  C   C1058     1.0  0.39995  0.03527  0.34252  1.0000
  C   C1059     1.0  0.41447  0.04169  0.33213  1.0000
  C   C1060     1.0  0.42779  0.03144  0.32194  1.0000
  Fe  Fe143     1.0  0.34875  0.00240  0.38854  1.0000
  C   C1061     1.0  0.43106  0.00694  0.25546  1.0000
  H   H1812     1.0  0.41547  0.05458  0.33204  1.0000
  H   H1813     1.0  0.43899  0.03644  0.31402  1.0000
  C   C1062     1.0  0.52731  0.04155  0.30617  1.0000
  C   C1063     1.0  0.53250  0.04740  0.31801  1.0000
  H   H1814     1.0  0.40052  0.01722  0.27591  1.0000
  H   H1815     1.0  0.52328  0.05036  0.32964  1.0000
  H   H1816     1.0  0.55341  0.05391  0.32419  1.0000
  C   C1064     1.0  0.55656  0.03954  0.28813  1.0000
  S   S302      1.0  0.35730  0.01320  0.44058  1.0000
  H   H1817     1.0  0.60460  0.07180  0.34021  1.0000
  S   S303      1.0  0.63143  0.02829  0.27369  1.0000
  H   H1818     1.0  0.44771  0.03885  0.37657  1.0000
  H   H1819     1.0  0.61536  0.01335  0.33476  1.0000
  N   N79       1.0  0.62103  0.05644  0.32176  1.0000
  C   C1065     1.0  0.43882  0.99179  0.26930  1.0000
  C   C1066     1.0  0.63658  0.05348  0.32957  1.0000
  H   H1820     1.0  0.60097  0.04252  0.32526  1.0000
  C   C1067     1.0  0.40524  0.00925  0.42116  1.0000
  H   H1821     1.0  0.65411  0.06797  0.30886  1.0000
  C   C1068     1.0  0.54957  0.04937  0.31494  1.0000
  H   H1822     1.0  0.44366  0.01824  0.37637  1.0000
  H   H1823     1.0  0.63859  0.04688  0.29975  1.0000
  H   H1824     1.0  0.39648  0.05000  0.27526  1.0000
  N   N80       1.0  0.41262  0.03631  0.39702  1.0000
  C   C1069     1.0  0.42019  0.03986  0.37765  1.0000
  C   C1070     1.0  0.39320  0.04320  0.39928  1.0000
  H   H1825     1.0  0.44189  0.02551  0.27521  1.0000
  C   C1071     1.0  0.42082  0.04528  0.40531  1.0000
  H   H1826     1.0  0.58358  0.09031  0.32095  1.0000
  C   C1072     1.0  0.38695  0.06316  0.39366  1.0000
  H   H1827     1.0  0.63982  0.08054  0.32459  1.0000
  C   C1073     1.0  0.41329  0.04547  0.42474  1.0000
  H   H1828     1.0  0.41370  0.03428  0.37094  1.0000
  H   H1829     1.0  0.41785  0.05409  0.37174  1.0000
  H   H1830     1.0  0.38629  0.03947  0.41292  1.0000
  H   H1831     1.0  0.38788  0.03716  0.39192  1.0000
  H   H1832     1.0  0.41605  0.00990  0.39430  1.0000
  H   H1833     1.0  0.55299  0.00108  0.24646  1.0000
  H   H1834     1.0  0.43488  0.03906  0.40444  1.0000
  H   H1835     1.0  0.42088  0.05896  0.39793  1.0000
  Fe  Fe144     1.0  0.61038  0.98941  0.28237  1.0000
  C   C1074     1.0  0.43786  0.05068  0.25752  1.0000
  H   H1836     1.0  0.44357  0.03568  0.35758  1.0000
  H   H1837     1.0  0.39137  0.07023  0.40072  1.0000
  H   H1838     1.0  0.39083  0.06801  0.37940  1.0000
  H   H1839     1.0  0.37251  0.06658  0.39689  1.0000
  H   H1840     1.0  0.55027  0.00598  0.27808  1.0000
  Fe  Fe145     1.0  0.36357  0.03460  0.37477  1.0000
  H   H1841     1.0  0.63372  0.01878  0.33760  1.0000
  H   H1842     1.0  0.41123  0.99529  0.42581  1.0000
  H   H1843     1.0  0.39914  0.04636  0.42875  1.0000
  H   H1844     1.0  0.41505  0.05735  0.42738  1.0000
  C   C1075     1.0  0.43992  0.03263  0.37206  1.0000
  C   C1076     1.0  0.60809  0.07272  0.32587  1.0000
  S   S304      1.0  0.60083  0.01485  0.26493  1.0000
  C   C1077     1.0  0.41191  0.00844  0.33228  1.0000
  N   N81       1.0  0.42432  0.02459  0.26009  1.0000
  Fe  Fe146     1.0  0.50513  0.99300  0.28197  1.0000
  S   S305      1.0  0.65731  0.99006  0.30854  1.0000
  H   H1845     1.0  0.53516  0.03412  0.28152  1.0000
  C   C1078     1.0  0.36581  0.05507  0.45145  1.0000
  H   H1846     1.0  0.58237  0.06798  0.32772  1.0000
  H   H1847     1.0  0.63155  0.08392  0.29585  1.0000
  C   C1079     1.0  0.37069  0.04778  0.46759  1.0000
  C   C1080     1.0  0.40269  0.03889  0.28455  1.0000
  H   H1848     1.0  0.61647  0.05325  0.29821  1.0000
  C   C1081     1.0  0.42650  0.01481  0.32199  1.0000
  C   C1082     1.0  0.41686  0.01677  0.40394  1.0000
  C   C1083     1.0  0.39870  0.01860  0.34263  1.0000
  H   H1849     1.0  0.55399  0.00926  0.31458  1.0000
  C   C1084     1.0  0.59091  0.07694  0.31963  1.0000
  Fe  Fe147     1.0  0.48848  0.02728  0.26066  1.0000
  C   C1085     1.0  0.62373  0.02297  0.32957  1.0000
  H   H1850     1.0  0.39230  0.03580  0.29616  1.0000
  S   S306      1.0  0.37135  0.00918  0.39320  1.0000
  H   H1851     1.0  0.55472  0.03046  0.24241  1.0000
  Fe  Fe148     1.0  0.62927  0.01434  0.25449  1.0000
  C   C1086     1.0  0.62646  0.05689  0.30249  1.0000
  H   H1852     1.0  0.44903  0.05322  0.26077  1.0000
  H   H1853     1.0  0.59307  0.07655  0.30577  1.0000
  S   S307      1.0  0.44266  0.00178  0.30908  1.0000
  H   H1854     1.0  0.45163  0.02556  0.25321  1.0000
  H   H1855     1.0  0.42060  0.00286  0.25237  1.0000
  C   C1087     1.0  0.37197  0.02998  0.47478  1.0000
  H   H1856     1.0  0.42591  0.05779  0.26492  1.0000
  H   H1857     1.0  0.56151  0.00156  0.33437  1.0000
  H   H1858     1.0  0.41219  0.04266  0.28934  1.0000
  H   H1859     1.0  0.56626  0.99334  0.28975  1.0000
  S   S308      1.0  0.48140  0.00151  0.27075  1.0000
  H   H1860     1.0  0.41714  0.01284  0.28762  1.0000
  H   H1861     1.0  0.63250  0.05189  0.34398  1.0000
  S   S309      1.0  0.49093  0.00003  0.30743  1.0000
  H   H1862     1.0  0.38754  0.01357  0.35065  1.0000
  H   H1863     1.0  0.36476  0.06887  0.44587  1.0000
  H   H1864     1.0  0.32876  0.05168  0.46280  1.0000
  H   H1865     1.0  0.64101  0.07174  0.27948  1.0000
  C   C1088     1.0  0.64744  0.06747  0.32267  1.0000
  S   S310      1.0  0.32976  0.01284  0.41043  1.0000
  C   C1089     1.0  0.55431  0.99290  0.28632  1.0000
  C   C1090     1.0  0.43935  0.03076  0.26182  1.0000
  H   H1866     1.0  0.33581  0.99354  0.35963  1.0000
  C   C1091     1.0  0.55255  0.99986  0.32730  1.0000
  H   H1867     1.0  0.53217  0.00209  0.30587  1.0000
  H   H1868     1.0  0.43877  0.05648  0.24341  1.0000
  H   H1869     1.0  0.44792  0.99544  0.27464  1.0000
  C   C1092     1.0  0.62935  0.07441  0.28996  1.0000
  H   H1870     1.0  0.39232  0.00962  0.41909  1.0000
  H   H1871     1.0  0.52876  0.99350  0.24519  1.0000
  H   H1872     1.0  0.64601  0.04119  0.32735  1.0000
  H   H1873     1.0  0.61835  0.08065  0.28318  1.0000
  C   C1093     1.0  0.41525  0.03669  0.24597  1.0000
  H   H1874     1.0  0.36693  0.99681  0.31413  1.0000
  H   H1875     1.0  0.53910  0.00319  0.33493  1.0000
  H   H1876     1.0  0.41050  0.05016  0.24806  1.0000
  H   H1877     1.0  0.47681  0.00967  0.23725  1.0000
  H   H1878     1.0  0.44155  0.00750  0.24349  1.0000
  H   H1879     1.0  0.36278  0.98925  0.33721  1.0000
  H   H1880     1.0  0.52077  0.98746  0.33356  1.0000
  Fe  Fe149     1.0  0.49553  0.02425  0.61289  1.0000
  S   S311      1.0  0.48322  0.05216  0.60291  1.0000
  S   S312      1.0  0.52385  0.01104  0.60918  1.0000
  Fe  Fe150     1.0  0.46085  0.01538  0.63258  1.0000
  S   S313      1.0  0.44551  0.04254  0.62451  1.0000
  H   H1881     1.0  0.41112  0.01855  0.54945  1.0000
  Fe  Fe151     1.0  0.46287  0.04155  0.59811  1.0000
  S   S314      1.0  0.45394  0.05214  0.57253  1.0000
  Fe  Fe152     1.0  0.46712  0.05051  0.63007  1.0000
  S   S315      1.0  0.46436  0.07057  0.64501  1.0000
  S   S316      1.0  0.47679  0.01363  0.60577  1.0000
  S   S317      1.0  0.48091  0.02336  0.64042  1.0000
  Fe  Fe153     1.0  0.60032  0.04657  0.60824  1.0000
  S   S318      1.0  0.59965  0.04574  0.63595  1.0000
  S   S319      1.0  0.57542  0.05941  0.59878  1.0000
  Fe  Fe154     1.0  0.63844  0.02842  0.60122  1.0000
  S   S320      1.0  0.64059  0.02527  0.62871  1.0000
  H   H1882     1.0  0.55129  0.06270  0.72922  1.0000
  Fe  Fe155     1.0  0.61459  0.01830  0.63647  1.0000
  H   H1883     1.0  0.49948  0.98927  0.65691  1.0000
  Fe  Fe156     1.0  0.62547  0.05297  0.62585  1.0000
  S   S321      1.0  0.63568  0.07068  0.63520  1.0000
  S   S322      1.0  0.61388  0.01849  0.60925  1.0000
  S   S323      1.0  0.62486  0.05669  0.59784  1.0000
  H   H1884     1.0  0.51179  0.03664  0.64333  1.0000
  C   C1094     1.0  0.43352  0.05010  0.57123  1.0000
  C   C1095     1.0  0.44018  0.99537  0.61939  1.0000
  S   S324      1.0  0.58975  0.08315  0.70794  1.0000
  C   C1096     1.0  0.42159  0.11560  0.59596  1.0000
  C   C1097     1.0  0.43344  0.00164  0.52689  1.0000
  H   H1885     1.0  0.35643  0.98996  0.60411  1.0000
  N   N82       1.0  0.52591  0.04350  0.65824  1.0000
  H   H1886     1.0  0.61654  0.02272  0.55984  1.0000
  C   C1098     1.0  0.50973  0.07136  0.63963  1.0000
  H   H1887     1.0  0.63256  0.99882  0.69946  1.0000
  C   C1099     1.0  0.64471  0.00080  0.68974  1.0000
  H   H1888     1.0  0.32642  0.00442  0.49268  1.0000
  C   C1100     1.0  0.57552  0.98775  0.67305  1.0000
  C   C1101     1.0  0.42204  0.04340  0.58607  1.0000
  H   H1889     1.0  0.46246  0.09524  0.60513  1.0000
  C   C1102     1.0  0.65275  0.00121  0.52107  1.0000
  C   C1103     1.0  0.52651  0.06117  0.64621  1.0000
  H   H1890     1.0  0.62544  0.99994  0.56375  1.0000
  C   C1104     1.0  0.52394  0.01259  0.65808  1.0000
  H   H1891     1.0  0.56143  0.04131  0.63993  1.0000
  H   H1892     1.0  0.40379  0.08810  0.60686  1.0000
  H   H1893     1.0  0.42238  0.11993  0.58165  1.0000
  H   H1894     1.0  0.40261  0.09417  0.63362  1.0000
  H   H1895     1.0  0.40955  0.99662  0.52271  1.0000
  H   H1896     1.0  0.52109  0.05357  0.69067  1.0000
  Fe  Fe157     1.0  0.36579  0.01596  0.53445  1.0000
  H   H1897     1.0  0.64728  0.10560  0.58434  1.0000
  Fe  Fe158     1.0  0.60332  0.07343  0.73045  1.0000
  C   C1105     1.0  0.41152  0.00432  0.55377  1.0000
  Fe  Fe159     1.0  0.36741  0.04998  0.50803  1.0000
  N   N83       1.0  0.42884  0.99377  0.54613  1.0000
  H   H1898     1.0  0.49856  0.07436  0.65037  1.0000
  H   H1899     1.0  0.51192  0.08406  0.63106  1.0000
  H   H1900     1.0  0.41810  0.08259  0.64696  1.0000
  H   H1901     1.0  0.53427  0.03153  0.63605  1.0000
  N   N84       1.0  0.57289  0.99904  0.73297  1.0000
  H   H1902     1.0  0.65038  0.10193  0.56317  1.0000
  H   H1903     1.0  0.63895  0.01685  0.71293  1.0000
  H   H1904     1.0  0.52965  0.00387  0.64875  1.0000
  H   H1905     1.0  0.44163  0.07926  0.62135  1.0000
  C   C1106     1.0  0.41328  0.09082  0.57951  1.0000
  H   H1906     1.0  0.43727  0.06108  0.54358  1.0000
  N   N85       1.0  0.65712  0.00301  0.53714  1.0000
  H   H1907     1.0  0.53603  0.00961  0.73116  1.0000
  H   H1908     1.0  0.53196  0.00770  0.66805  1.0000
  N   N86       1.0  0.64598  0.01967  0.68481  1.0000
  H   H1909     1.0  0.45570  0.01062  0.56084  1.0000
  S   S325      1.0  0.37878  0.04926  0.56835  1.0000
  H   H1910     1.0  0.51076  0.03150  0.68248  1.0000
  H   H1911     1.0  0.50625  0.06456  0.63159  1.0000
  H   H1912     1.0  0.40437  0.08293  0.57932  1.0000
  H   H1913     1.0  0.64750  0.08434  0.58163  1.0000
  H   H1914     1.0  0.51043  0.01122  0.66441  1.0000
  H   H1915     1.0  0.43376  0.10101  0.62359  1.0000
  H   H1916     1.0  0.61301  0.02370  0.70292  1.0000
  C   C1107     1.0  0.62235  0.07677  0.65430  1.0000
  C   C1108     1.0  0.62972  0.08054  0.66597  1.0000
  C   C1109     1.0  0.61978  0.08269  0.68250  1.0000
  C   C1110     1.0  0.60233  0.08162  0.68711  1.0000
  C   C1111     1.0  0.59470  0.07904  0.67499  1.0000
  C   C1112     1.0  0.60475  0.07637  0.65871  1.0000
  H   H1917     1.0  0.64329  0.08109  0.66254  1.0000
  H   H1918     1.0  0.62560  0.08506  0.69172  1.0000
  H   H1919     1.0  0.58111  0.07857  0.67840  1.0000
  H   H1920     1.0  0.59883  0.07408  0.64958  1.0000
  S   S326      1.0  0.60544  0.99953  0.66102  1.0000
  S   S327      1.0  0.35304  0.06609  0.52792  1.0000
  H   H1921     1.0  0.58280  0.02099  0.71554  1.0000
  C   C1113     1.0  0.41516  0.08463  0.63396  1.0000
  C   C1114     1.0  0.40286  0.12279  0.60502  1.0000
  H   H1922     1.0  0.62595  0.04738  0.70468  1.0000
  H   H1923     1.0  0.64382  0.04471  0.71425  1.0000
  H   H1924     1.0  0.56197  0.02676  0.72843  1.0000
  H   H1925     1.0  0.43326  0.01969  0.56111  1.0000
  H   H1926     1.0  0.44551  0.09595  0.57546  1.0000
  H   H1927     1.0  0.42581  0.03886  0.59854  1.0000
  C   C1115     1.0  0.53834  0.02453  0.60529  1.0000
  C   C1116     1.0  0.55517  0.01703  0.60825  1.0000
  C   C1117     1.0  0.56659  0.02763  0.60642  1.0000
  C   C1118     1.0  0.56138  0.04577  0.60123  1.0000
  C   C1119     1.0  0.54457  0.05325  0.59814  1.0000
  C   C1120     1.0  0.53303  0.04267  0.60029  1.0000
  H   H1928     1.0  0.55927  0.00301  0.61236  1.0000
  H   H1929     1.0  0.57937  0.02170  0.60903  1.0000
  H   H1930     1.0  0.54046  0.06727  0.59414  1.0000
  H   H1931     1.0  0.52010  0.04857  0.59796  1.0000
  C   C1121     1.0  0.46012  0.06127  0.66746  1.0000
  C   C1122     1.0  0.46371  0.06860  0.67925  1.0000
  C   C1123     1.0  0.46072  0.06082  0.69717  1.0000
  C   C1124     1.0  0.45372  0.04598  0.70332  1.0000
  C   C1125     1.0  0.45001  0.03880  0.69152  1.0000
  C   C1126     1.0  0.45336  0.04630  0.67364  1.0000
  H   H1932     1.0  0.46886  0.08024  0.67454  1.0000
  H   H1933     1.0  0.46341  0.06654  0.70626  1.0000
  H   H1934     1.0  0.44441  0.02746  0.69624  1.0000
  H   H1935     1.0  0.45030  0.04072  0.66468  1.0000
  S   S328      1.0  0.34878  0.03245  0.51591  1.0000
  C   C1127     1.0  0.56220  0.01927  0.70515  1.0000
  H   H1936     1.0  0.49815  0.04803  0.66904  1.0000
  H   H1937     1.0  0.42251  0.07195  0.60125  1.0000
  H   H1938     1.0  0.63141  0.04500  0.67400  1.0000
  H   H1939     1.0  0.47290  0.09383  0.58328  1.0000
  H   H1940     1.0  0.44312  0.00811  0.61490  1.0000
  H   H1941     1.0  0.63726  0.00062  0.66580  1.0000
  H   H1942     1.0  0.41435  0.00375  0.58006  1.0000
  H   H1943     1.0  0.64614  0.05243  0.69136  1.0000
  H   H1944     1.0  0.39326  0.11701  0.60270  1.0000
  C   C1128     1.0  0.46039  0.09909  0.59160  1.0000
  H   H1945     1.0  0.37617  0.02415  0.48697  1.0000
  H   H1946     1.0  0.45086  0.07713  0.59189  1.0000
  C   C1129     1.0  0.65348  0.09580  0.57624  1.0000
  Fe  Fe160     1.0  0.33540  0.04738  0.53666  1.0000
  S   S329      1.0  0.52359  0.04580  0.73445  1.0000
  C   C1130     1.0  0.64686  0.02404  0.70126  1.0000
  C   C1131     1.0  0.48294  0.99962  0.70516  1.0000
  C   C1132     1.0  0.41196  0.05497  0.55383  1.0000
  H   H1947     1.0  0.42003  0.01117  0.50523  1.0000
  H   H1948     1.0  0.57449  0.99184  0.68474  1.0000
  C   C1133     1.0  0.64033  0.04328  0.70265  1.0000
  N   N87       1.0  0.42830  0.09615  0.60099  1.0000
  H   H1949     1.0  0.40671  0.10467  0.57554  1.0000
  H   H1950     1.0  0.39643  0.03816  0.59649  1.0000
  H   H1951     1.0  0.54144  0.02569  0.67653  1.0000
  H   H1952     1.0  0.64793  0.05303  0.56578  1.0000
  H   H1953     1.0  0.60407  0.04292  0.68861  1.0000
  C   C1134     1.0  0.55909  0.03083  0.65171  1.0000
  H   H1954     1.0  0.55878  0.01906  0.64778  1.0000
  C   C1135     1.0  0.64586  0.99245  0.67470  1.0000
  C   C1136     1.0  0.54251  0.03674  0.66499  1.0000
  C   C1137     1.0  0.40542  0.04295  0.58487  1.0000
  H   H1955     1.0  0.51088  0.99538  0.69873  1.0000
  H   H1956     1.0  0.49806  0.05665  0.69548  1.0000
  H   H1957     1.0  0.41370  0.07188  0.63305  1.0000
  C   C1138     1.0  0.64310  0.01640  0.54553  1.0000
  H   H1958     1.0  0.45781  0.11348  0.58710  1.0000
  C   C1139     1.0  0.61268  0.02971  0.68904  1.0000
  S   S330      1.0  0.44908  0.03618  0.72562  1.0000
  H   H1959     1.0  0.64070  0.02908  0.53600  1.0000
  C   C1140     1.0  0.43043  0.09057  0.61974  1.0000
  H   H1960     1.0  0.44881  0.01972  0.54062  1.0000
  C   C1141     1.0  0.42846  0.05584  0.55510  1.0000
  H   H1961     1.0  0.63235  0.99393  0.51428  1.0000
  H   H1962     1.0  0.40804  0.05966  0.54143  1.0000
  H   H1963     1.0  0.42523  0.08747  0.56965  1.0000
  H   H1964     1.0  0.57218  0.02081  0.69284  1.0000
  C   C1142     1.0  0.63070  0.03118  0.67730  1.0000
  H   H1965     1.0  0.55674  0.10419  0.73472  1.0000
  S   S331      1.0  0.35045  0.02895  0.55622  1.0000
  H   H1966     1.0  0.43821  0.99440  0.59413  1.0000
  H   H1967     1.0  0.55579  0.00893  0.70578  1.0000
  H   H1968     1.0  0.33163  0.02444  0.49097  1.0000
  H   H1969     1.0  0.40173  0.12102  0.61917  1.0000
  H   H1970     1.0  0.59882  0.99996  0.73370  1.0000
  H   H1971     1.0  0.60638  0.02255  0.68384  1.0000
  H   H1972     1.0  0.57049  0.02729  0.65784  1.0000
  S   S332      1.0  0.38569  0.03226  0.52493  1.0000
  C   C1143     1.0  0.40590  0.00018  0.57382  1.0000
  C   C1144     1.0  0.41680  0.08623  0.59805  1.0000
  H   H1973     1.0  0.59644  0.99774  0.70075  1.0000
  H   H1974     1.0  0.55214  0.03168  0.70403  1.0000
  C   C1145     1.0  0.44301  0.99396  0.55446  1.0000
  H   H1975     1.0  0.48054  0.00680  0.69200  1.0000
  C   C1146     1.0  0.52410  0.03162  0.64815  1.0000
  S   S333      1.0  0.44812  0.99395  0.65012  1.0000
  H   H1976     1.0  0.42986  0.12262  0.59884  1.0000
  H   H1977     1.0  0.50806  0.07091  0.67709  1.0000
  C   C1147     1.0  0.40030  0.04874  0.56879  1.0000
  C   C1148     1.0  0.50964  0.05721  0.68461  1.0000
  H   H1978     1.0  0.42970  0.98861  0.50854  1.0000
  H   H1979     1.0  0.34141  0.99833  0.53165  1.0000
  C   C1149     1.0  0.58941  0.99043  0.65895  1.0000
  C   C1150     1.0  0.51064  0.04452  0.67344  1.0000
  Fe  Fe161     1.0  0.36952  0.04637  0.54584  1.0000
  H   H1980     1.0  0.44732  0.99615  0.52148  1.0000
  H   H1981     1.0  0.54517  0.04691  0.66984  1.0000
  H   H1982     1.0  0.53699  0.05997  0.63433  1.0000
  H   H1983     1.0  0.53002  0.06977  0.65243  1.0000
  H   H1984     1.0  0.39929  0.13706  0.59961  1.0000
  C   C1151     1.0  0.57021  0.01690  0.72096  1.0000
  H   H1985     1.0  0.43987  0.99639  0.70850  1.0000
  H   H1986     1.0  0.43227  0.01594  0.52461  1.0000
  H   H1987     1.0  0.65795  0.09115  0.60802  1.0000
  H   H1988     1.0  0.47233  0.99266  0.71183  1.0000
  C   C1152     1.0  0.44514  0.01213  0.55407  1.0000
  H   H1989     1.0  0.40089  0.00247  0.54899  1.0000
  C   C1153     1.0  0.44603  0.09154  0.58949  1.0000
  H   H1990     1.0  0.43135  0.99317  0.69224  1.0000
  H   H1991     1.0  0.64733  0.01912  0.55607  1.0000
  H   H1992     1.0  0.63107  0.02854  0.66465  1.0000
  H   H1993     1.0  0.39259  0.00811  0.57757  1.0000
  H   H1994     1.0  0.61875  0.01178  0.54324  1.0000
  H   H1995     1.0  0.65536  0.99256  0.69644  1.0000
  C   C1154     1.0  0.62509  0.01209  0.55344  1.0000
  H   H1996     1.0  0.48211  0.00963  0.71225  1.0000
  H   H1997     1.0  0.64659  0.01417  0.51379  1.0000
  C   C1155     1.0  0.43698  0.98774  0.60765  1.0000
  H   H1998     1.0  0.50917  0.99403  0.72877  1.0000
  C   C1156     1.0  0.42244  0.99914  0.51554  1.0000
  S   S334      1.0  0.62947  0.07389  0.73369  1.0000
  H   H1999     1.0  0.53524  0.11711  0.73499  1.0000
  H   H2000     1.0  0.65812  0.04950  0.66205  1.0000
  C   C1157     1.0  0.64104  0.98843  0.52374  1.0000
  H   H2001     1.0  0.33183  0.06075  0.48528  1.0000
  C   C1158     1.0  0.58194  0.01024  0.75503  1.0000
  Fe  Fe162     1.0  0.46375  0.05909  0.77169  1.0000
  S   S335      1.0  0.48781  0.03955  0.77779  1.0000
  S   S336      1.0  0.45136  0.08094  0.78624  1.0000
  H   H2002     1.0  0.64656  0.31165  0.77239  1.0000
  H   H2003     1.0  0.39660  0.47994  0.87978  1.0000
  Fe  Fe163     1.0  0.47489  0.01963  0.77610  1.0000
  C   C1159     1.0  0.64493  0.09837  0.95248  1.0000
  H   H2004     1.0  0.65223  0.17550  0.88655  1.0000
  S   S337      1.0  0.44990  0.03870  0.77230  1.0000
  H   H2005     1.0  0.63470  0.36515  0.86226  1.0000
  H   H2006     1.0  0.61944  0.21533  0.83878  1.0000
  C   C1160     1.0  0.62906  0.19575  0.88070  1.0000
  H   H2007     1.0  0.54601  0.27085  0.98362  1.0000
  Fe  Fe164     1.0  0.36272  0.40196  0.86789  1.0000
  S   S338      1.0  0.34562  0.38290  0.88039  1.0000
  S   S339      1.0  0.39173  0.39199  0.86556  1.0000
  C   C1161     1.0  0.33649  0.47307  0.86118  1.0000
  H   H2008     1.0  0.64397  0.20464  0.92785  1.0000
  H   H2009     1.0  0.35340  0.45113  0.95010  1.0000
  S   S340      1.0  0.50643  0.11126  0.96390  1.0000
  S   S341      1.0  0.34790  0.41654  0.84675  1.0000
  S   S342      1.0  0.34832  0.42070  0.88515  1.0000
  Fe  Fe165     1.0  0.62097  0.14183  0.83963  1.0000
  S   S343      1.0  0.59422  0.14878  0.85553  1.0000
  Fe  Fe166     1.0  0.62863  0.17668  0.83699  1.0000
  S   S344      1.0  0.60235  0.18693  0.85230  1.0000
  H   H2010     1.0  0.52335  0.14713  0.90683  1.0000
  Fe  Fe167     1.0  0.60602  0.16033  0.86995  1.0000
  S   S345      1.0  0.59552  0.15997  0.89849  1.0000
  Fe  Fe168     1.0  0.59255  0.17482  0.83676  1.0000
  S   S346      1.0  0.56826  0.18737  0.82644  1.0000
  S   S347      1.0  0.63327  0.15083  0.85591  1.0000
  S   S348      1.0  0.61845  0.16700  0.81958  1.0000
  C   C1162     1.0  0.45241  0.16412  0.93067  1.0000
  S   S349      1.0  0.56879  0.04670  0.78518  1.0000
  H   H2011     1.0  0.43011  0.05165  0.85448  1.0000
  H   H2012     1.0  0.38462  0.42571  0.92622  1.0000
  H   H2013     1.0  0.48682  0.26051  0.82494  1.0000
  H   H2014     1.0  0.49691  0.15945  0.96448  1.0000
  H   H2015     1.0  0.50371  0.14321  0.90517  1.0000
  H   H2016     1.0  0.64737  0.29172  0.78936  1.0000
  H   H2017     1.0  0.65193  0.29380  0.92430  1.0000
  Fe  Fe169     1.0  0.58312  0.29649  0.86473  1.0000
  S   S350      1.0  0.55401  0.30461  0.86934  1.0000
  S   S351      1.0  0.59889  0.26892  0.86827  1.0000
  Fe  Fe170     1.0  0.44147  0.29658  0.86564  1.0000
  S   S352      1.0  0.44060  0.28086  0.89306  1.0000
  S   S353      1.0  0.41727  0.31383  0.85692  1.0000
  Fe  Fe171     1.0  0.48037  0.28267  0.85438  1.0000
  S   S354      1.0  0.48244  0.26562  0.88069  1.0000
  S   S355      1.0  0.50561  0.28295  0.83463  1.0000
  Fe  Fe172     1.0  0.45778  0.25907  0.88050  1.0000
  S   S356      1.0  0.45459  0.23139  0.89211  1.0000
  Fe  Fe173     1.0  0.46532  0.28894  0.89043  1.0000
  S   S357      1.0  0.47461  0.29853  0.90848  1.0000
  S   S358      1.0  0.45708  0.27421  0.85308  1.0000
  S   S359      1.0  0.46460  0.30653  0.86410  1.0000
  Fe  Fe174     1.0  0.48285  0.11599  0.85144  1.0000
  S   S360      1.0  0.49277  0.10713  0.87631  1.0000
  S   S361      1.0  0.49092  0.09500  0.83586  1.0000
  Fe  Fe175     1.0  0.47060  0.15379  0.85501  1.0000
  S   S362      1.0  0.47971  0.14786  0.87976  1.0000
  S   S363      1.0  0.46008  0.18205  0.84298  1.0000
  Fe  Fe176     1.0  0.50330  0.13115  0.86697  1.0000
  S   S364      1.0  0.52773  0.13179  0.87350  1.0000
  Fe  Fe177     1.0  0.46828  0.12449  0.88746  1.0000
  S   S365      1.0  0.45475  0.11891  0.91578  1.0000
  S   S366      1.0  0.49560  0.13889  0.84119  1.0000
  S   S367      1.0  0.45699  0.13148  0.86346  1.0000
  C   C1163     1.0  0.49007  0.24610  0.82689  1.0000
  H   H2018     1.0  0.61069  0.25406  0.95053  1.0000
  H   H2019     1.0  0.51325  0.19972  0.81926  1.0000
  S   S368      1.0  0.58888  0.08408  0.75398  1.0000
  C   C1164     1.0  0.46896  0.11543  0.92976  1.0000
  C   C1165     1.0  0.46233  0.11771  0.94689  1.0000
  C   C1166     1.0  0.47367  0.11618  0.95767  1.0000
  C   C1167     1.0  0.49170  0.11200  0.95144  1.0000
  C   C1168     1.0  0.49826  0.10913  0.93456  1.0000
  C   C1169     1.0  0.48697  0.11114  0.92367  1.0000
  H   H2020     1.0  0.44840  0.12101  0.95169  1.0000
  C   C1170     1.0  0.36514  0.47959  0.85127  1.0000
  H   H2021     1.0  0.51217  0.10585  0.92965  1.0000
  H   H2022     1.0  0.49225  0.10937  0.91054  1.0000
  C   C1171     1.0  0.45349  0.21879  0.87835  1.0000
  C   C1172     1.0  0.45505  0.22525  0.86038  1.0000
  C   C1173     1.0  0.45635  0.21409  0.84958  1.0000
  C   C1174     1.0  0.45615  0.19644  0.85675  1.0000
  C   C1175     1.0  0.45329  0.19038  0.87483  1.0000
  C   C1176     1.0  0.45185  0.20155  0.88557  1.0000
  H   H2023     1.0  0.45544  0.23875  0.85477  1.0000
  H   H2024     1.0  0.45795  0.21900  0.83564  1.0000
  H   H2025     1.0  0.45186  0.17716  0.88057  1.0000
  H   H2026     1.0  0.44941  0.19681  0.89951  1.0000
  C   C1177     1.0  0.46155  0.29716  0.92936  1.0000
  C   C1178     1.0  0.46801  0.29926  0.94254  1.0000
  C   C1179     1.0  0.45836  0.29704  0.95965  1.0000
  C   C1180     1.0  0.44217  0.29285  0.96357  1.0000
  C   C1181     1.0  0.43528  0.29157  0.95026  1.0000
  C   C1182     1.0  0.44506  0.29360  0.93312  1.0000
  H   H2027     1.0  0.48064  0.30228  0.93960  1.0000
  H   H2028     1.0  0.46357  0.29848  0.96978  1.0000
  H   H2029     1.0  0.42268  0.28847  0.95328  1.0000
  H   H2030     1.0  0.43996  0.29219  0.92292  1.0000
  C   C1183     1.0  0.61422  0.27811  0.95353  1.0000
  H   H2031     1.0  0.52344  0.02896  0.77073  1.0000
  H   H2032     1.0  0.52228  0.22399  0.81595  1.0000
  H   H2033     1.0  0.44661  0.30919  0.82866  1.0000
  C   C1184     1.0  0.54152  0.29774  0.85935  1.0000
  C   C1185     1.0  0.54862  0.29058  0.84460  1.0000
  C   C1186     1.0  0.53766  0.28605  0.83680  1.0000
  C   C1187     1.0  0.51975  0.28833  0.84403  1.0000
  C   C1188     1.0  0.51295  0.29506  0.85897  1.0000
  C   C1189     1.0  0.52369  0.29998  0.86642  1.0000
  H   H2034     1.0  0.56241  0.28887  0.83904  1.0000
  H   H2035     1.0  0.54306  0.28077  0.82527  1.0000
  H   H2036     1.0  0.49934  0.29671  0.86486  1.0000
  H   H2037     1.0  0.51805  0.30554  0.87777  1.0000
  H   H2038     1.0  0.53993  0.09360  0.73705  1.0000
  H   H2039     1.0  0.54528  0.23762  0.81301  1.0000
  H   H2040     1.0  0.63798  0.11103  0.94551  1.0000
  H   H2041     1.0  0.44445  0.17759  0.92800  1.0000
  H   H2042     1.0  0.35457  0.43744  0.92795  1.0000
  H   H2043     1.0  0.51054  0.10114  0.74227  1.0000
  C   C1190     1.0  0.64254  0.33619  0.91024  1.0000
  H   H2044     1.0  0.47296  0.22149  0.97146  1.0000
  H   H2045     1.0  0.56897  0.10553  0.98503  1.0000
  H   H2046     1.0  0.42601  0.04569  0.82823  1.0000
  S   S369      1.0  0.38301  0.39602  0.95620  1.0000
  H   H2047     1.0  0.65461  0.32949  0.94972  1.0000
  C   C1191     1.0  0.55307  0.17592  0.84066  1.0000
  C   C1192     1.0  0.55433  0.16947  0.85808  1.0000
  C   C1193     1.0  0.54574  0.15643  0.86851  1.0000
  C   C1194     1.0  0.53509  0.15061  0.86178  1.0000
  C   C1195     1.0  0.53206  0.15868  0.84502  1.0000
  C   C1196     1.0  0.54133  0.17118  0.83430  1.0000
  H   H2048     1.0  0.56288  0.17368  0.86321  1.0000
  H   H2049     1.0  0.54806  0.15029  0.88147  1.0000
  H   H2050     1.0  0.52368  0.15437  0.83983  1.0000
  H   H2051     1.0  0.54032  0.17622  0.82081  1.0000
  H   H2052     1.0  0.61883  0.31368  0.92057  1.0000
  H   H2053     1.0  0.57164  0.00709  0.76666  1.0000
  H   H2054     1.0  0.45803  0.25793  0.95024  1.0000
  H   H2055     1.0  0.62908  0.35970  0.93785  1.0000
  C   C1197     1.0  0.37465  0.46004  0.92921  1.0000
  C   C1198     1.0  0.61118  0.15647  0.91069  1.0000
  C   C1199     1.0  0.63562  0.15056  0.93104  1.0000
  C   C1200     1.0  0.61827  0.15848  0.93685  1.0000
  C   C1201     1.0  0.60613  0.16163  0.92657  1.0000
  H   H2056     1.0  0.61426  0.16246  0.94913  1.0000
  H   H2057     1.0  0.59285  0.16827  0.93087  1.0000
  C   C1202     1.0  0.39912  0.37047  0.86260  1.0000
  C   C1203     1.0  0.38857  0.36271  0.85781  1.0000
  C   C1204     1.0  0.39425  0.34529  0.85627  1.0000
  C   C1205     1.0  0.41040  0.33541  0.85976  1.0000
  C   C1206     1.0  0.42097  0.34311  0.86466  1.0000
  C   C1207     1.0  0.41547  0.36072  0.86575  1.0000
  H   H2058     1.0  0.37609  0.37020  0.85501  1.0000
  H   H2059     1.0  0.38606  0.33947  0.85235  1.0000
  H   H2060     1.0  0.43344  0.33561  0.86740  1.0000
  H   H2061     1.0  0.42373  0.36669  0.86937  1.0000
  C   C1208     1.0  0.33885  0.39344  0.93419  1.0000
  C   C1209     1.0  0.64069  0.33144  0.81688  1.0000
  C   C1210     1.0  0.34975  0.39351  0.95881  1.0000
  C   C1211     1.0  0.36611  0.39443  0.94802  1.0000
  C   C1212     1.0  0.36900  0.39420  0.93048  1.0000
  C   C1213     1.0  0.35545  0.39341  0.92367  1.0000
  H   H2062     1.0  0.52408  0.26134  0.94978  1.0000
  H   H2063     1.0  0.63620  0.32212  0.82908  1.0000
  H   H2064     1.0  0.38172  0.39451  0.92218  1.0000
  H   H2065     1.0  0.35796  0.39253  0.91029  1.0000
  N   N88       1.0  0.51120  0.22119  0.84385  1.0000
  H   H2066     1.0  0.49921  0.24353  0.81476  1.0000
  C   C1214     1.0  0.59378  0.21647  0.88982  1.0000
  Fe  Fe178     1.0  0.59220  0.05626  0.76827  1.0000
  H   H2067     1.0  0.47667  0.14826  0.92138  1.0000
  C   C1215     1.0  0.64780  0.18539  0.87530  1.0000
  C   C1216     1.0  0.55581  0.04683  0.77134  1.0000
  H   H2068     1.0  0.52995  0.20603  0.85981  1.0000
  C   C1217     1.0  0.43044  0.24509  0.97232  1.0000
  C   C1218     1.0  0.46194  0.08467  0.80055  1.0000
  C   C1219     1.0  0.45438  0.09861  0.80895  1.0000
  C   C1220     1.0  0.46286  0.10191  0.82014  1.0000
  C   C1221     1.0  0.47886  0.09112  0.82308  1.0000
  C   C1222     1.0  0.48616  0.07701  0.81497  1.0000
  C   C1223     1.0  0.47784  0.07392  0.80367  1.0000
  H   H2069     1.0  0.44205  0.10703  0.80664  1.0000
  H   H2070     1.0  0.45711  0.11286  0.82631  1.0000
  H   H2071     1.0  0.49857  0.06864  0.81713  1.0000
  H   H2072     1.0  0.48400  0.06344  0.79708  1.0000
  H   H2073     1.0  0.63481  0.09176  0.96164  1.0000
  Fe  Fe179     1.0  0.33166  0.43318  0.86556  1.0000
  H   H2074     1.0  0.65721  0.19377  0.86897  1.0000
  C   C1224     1.0  0.51074  0.11944  0.76637  1.0000
  C   C1225     1.0  0.54076  0.99670  0.73929  1.0000
  H   H2075     1.0  0.52552  0.07520  0.76852  1.0000
  H   H2076     1.0  0.48384  0.13433  0.77060  1.0000
  C   C1226     1.0  0.54281  0.10429  0.74078  1.0000
  H   H2077     1.0  0.45743  0.00005  0.76735  1.0000
  H   H2078     1.0  0.63342  0.18772  0.91394  1.0000
  H   H2079     1.0  0.49408  0.19265  0.83160  1.0000
  H   H2080     1.0  0.50203  0.24804  0.84654  1.0000
  C   C1227     1.0  0.50352  0.20604  0.84520  1.0000
  C   C1228     1.0  0.53532  0.23743  0.82535  1.0000
  Fe  Fe180     1.0  0.61500  0.08240  0.75865  1.0000
  C   C1229     1.0  0.49745  0.23790  0.84357  1.0000
  H   H2081     1.0  0.49238  0.21513  0.82151  1.0000
  H   H2082     1.0  0.48571  0.11140  0.77915  1.0000
  C   C1230     1.0  0.36756  0.45016  0.94772  1.0000
  N   N89       1.0  0.53894  0.29301  0.92468  1.0000
  C   C1231     1.0  0.55055  0.30500  0.92311  1.0000
  H   H2083     1.0  0.47903  0.33581  0.83302  1.0000
  H   H2084     1.0  0.44955  0.34026  0.78683  1.0000
  C   C1232     1.0  0.53235  0.28601  0.94380  1.0000
  C   C1233     1.0  0.56722  0.29642  0.93047  1.0000
  H   H2085     1.0  0.47587  0.30971  0.82720  1.0000
  C   C1234     1.0  0.53577  0.04625  0.74880  1.0000
  C   C1235     1.0  0.62856  0.14866  0.90483  1.0000
  H   H2086     1.0  0.54346  0.31570  0.92998  1.0000
  H   H2087     1.0  0.61795  0.29375  0.90365  1.0000
  S   S370      1.0  0.63067  0.11513  0.83340  1.0000
  H   H2088     1.0  0.54321  0.27722  0.94988  1.0000
  H   H2089     1.0  0.52765  0.29659  0.95112  1.0000
  H   H2090     1.0  0.57494  0.30639  0.92781  1.0000
  H   H2091     1.0  0.56425  0.29153  0.94480  1.0000
  H   H2092     1.0  0.57578  0.28581  0.92414  1.0000
  H   H2093     1.0  0.42454  0.36088  0.82598  1.0000
  H   H2094     1.0  0.50625  0.31445  0.93730  1.0000
  C   C1236     1.0  0.55878  0.05597  0.75393  1.0000
  H   H2095     1.0  0.45176  0.15917  0.94486  1.0000
  H   H2096     1.0  0.62177  0.21411  0.92700  1.0000
  N   N90       1.0  0.62615  0.20827  0.89220  1.0000
  C   C1237     1.0  0.60723  0.21126  0.90147  1.0000
  C   C1238     1.0  0.65686  0.10208  0.96203  1.0000
  H   H2097     1.0  0.62760  0.30307  0.78270  1.0000
  C   C1239     1.0  0.54981  0.27842  0.91581  1.0000
  H   H2098     1.0  0.54115  0.17913  0.96508  1.0000
  C   C1240     1.0  0.62969  0.22566  0.88150  1.0000
  H   H2099     1.0  0.54056  0.03013  0.79085  1.0000
  C   C1241     1.0  0.64867  0.22636  0.87237  1.0000
  S   S371      1.0  0.59211  0.30285  0.88511  1.0000
  H   H2100     1.0  0.60391  0.22177  0.90873  1.0000
  H   H2101     1.0  0.48790  0.98996  0.73725  1.0000
  S   S372      1.0  0.65081  0.14648  0.94387  1.0000
  C   C1242     1.0  0.50935  0.14829  0.91305  1.0000
  H   H2102     1.0  0.47159  0.25355  0.96585  1.0000
  H   H2103     1.0  0.62231  0.23066  0.87091  1.0000
  H   H2104     1.0  0.62453  0.23592  0.88921  1.0000
  C   C1243     1.0  0.50053  0.16755  0.91321  1.0000
  C   C1244     1.0  0.33604  0.39325  0.95185  1.0000
  H   H2105     1.0  0.44610  0.15595  0.92669  1.0000
  H   H2106     1.0  0.62610  0.37865  0.94646  1.0000
  H   H2107     1.0  0.63686  0.37838  0.92441  1.0000
  C   C1245     1.0  0.42677  0.24352  0.95538  1.0000
  Fe  Fe181     1.0  0.63702  0.14863  0.97113  1.0000
  H   H2108     1.0  0.59450  0.20584  0.88359  1.0000
  H   H2109     1.0  0.36752  0.47395  0.92774  1.0000
  H   H2110     1.0  0.63726  0.33055  0.92402  1.0000
  H   H2111     1.0  0.43843  0.23864  0.94601  1.0000
  S   S373      1.0  0.60494  0.04551  0.74449  1.0000
  N   N91       1.0  0.56211  0.13748  0.95719  1.0000
  C   C1246     1.0  0.56519  0.14232  0.93758  1.0000
  C   C1247     1.0  0.57894  0.13512  0.96257  1.0000
  C   C1248     1.0  0.54868  0.15156  0.96506  1.0000
  C   C1249     1.0  0.55547  0.12091  0.96364  1.0000
  C   C1250     1.0  0.54889  0.14735  0.92976  1.0000
  C   C1251     1.0  0.59410  0.12084  0.95587  1.0000
  C   C1252     1.0  0.55247  0.16997  0.95901  1.0000
  H   H2112     1.0  0.43170  0.25865  0.97049  1.0000
  H   H2113     1.0  0.57196  0.15323  0.93219  1.0000
  H   H2114     1.0  0.57410  0.13134  0.93189  1.0000
  H   H2115     1.0  0.57699  0.13256  0.97702  1.0000
  H   H2116     1.0  0.58378  0.14732  0.95774  1.0000
  H   H2117     1.0  0.53567  0.15272  0.96264  1.0000
  H   H2118     1.0  0.54698  0.14816  0.97944  1.0000
  H   H2119     1.0  0.54179  0.12349  0.96219  1.0000
  H   H2120     1.0  0.56288  0.11122  0.95558  1.0000
  H   H2121     1.0  0.54008  0.15960  0.93283  1.0000
  H   H2122     1.0  0.55305  0.14974  0.91533  1.0000
  H   H2123     1.0  0.54175  0.13674  0.93396  1.0000
  H   H2124     1.0  0.60509  0.11901  0.96212  1.0000
  H   H2125     1.0  0.59061  0.10806  0.95899  1.0000
  H   H2126     1.0  0.59903  0.12481  0.94161  1.0000
  H   H2127     1.0  0.64592  0.31430  0.89913  1.0000
  H   H2128     1.0  0.56383  0.17055  0.96349  1.0000
  H   H2129     1.0  0.49460  0.03175  0.83417  1.0000
  C   C1253     1.0  0.63423  0.00026  0.74979  1.0000
  C   C1254     1.0  0.35365  0.46949  0.85185  1.0000
  H   H2130     1.0  0.36955  0.45616  0.95741  1.0000
  C   C1255     1.0  0.64079  0.35997  0.97453  1.0000
  C   C1256     1.0  0.48334  0.16309  0.94415  1.0000
  C   C1257     1.0  0.55644  0.99642  0.74624  1.0000
  C   C1258     1.0  0.43078  0.35130  0.81759  1.0000
  H   H2131     1.0  0.40074  0.43769  0.91546  1.0000
  H   H2132     1.0  0.52966  0.26362  0.91977  1.0000
  H   H2133     1.0  0.45546  0.35185  0.82094  1.0000
  S   S374      1.0  0.48625  0.02143  0.74774  1.0000
  H   H2134     1.0  0.58051  0.21898  0.89810  1.0000
  H   H2135     1.0  0.61377  0.27358  0.96738  1.0000
  C   C1259     1.0  0.45004  0.31452  0.81436  1.0000
  S   S375      1.0  0.62033  0.33698  0.86273  1.0000
  H   H2136     1.0  0.48236  0.19908  0.94136  1.0000
  H   H2137     1.0  0.44312  0.06636  0.85279  1.0000
  C   C1260     1.0  0.47708  0.32066  0.81559  1.0000
  H   H2138     1.0  0.52618  0.25037  0.82398  1.0000
  H   H2139     1.0  0.61477  0.13993  0.80596  1.0000
  H   H2140     1.0  0.37829  0.47709  0.84367  1.0000
  H   H2141     1.0  0.55473  0.31149  0.90917  1.0000
  H   H2142     1.0  0.46208  0.30252  0.79158  1.0000
  H   H2143     1.0  0.44672  0.33474  0.83567  1.0000
  H   H2144     1.0  0.48607  0.23601  0.85441  1.0000
  H   H2145     1.0  0.64931  0.34635  0.90957  1.0000
  H   H2146     1.0  0.63358  0.33798  0.96098  1.0000
  C   C1261     1.0  0.64998  0.32001  0.97750  1.0000
  H   H2147     1.0  0.48057  0.35895  0.97900  1.0000
  H   H2148     1.0  0.44855  0.01341  0.86181  1.0000
  H   H2149     1.0  0.55162  0.00680  0.75375  1.0000
  H   H2150     1.0  0.52357  0.22857  0.86015  1.0000
  H   H2151     1.0  0.61489  0.24643  0.83942  1.0000
  H   H2152     1.0  0.62127  0.18569  0.88722  1.0000
  N   N92       1.0  0.48286  0.17075  0.92517  1.0000
  H   H2153     1.0  0.62353  0.32677  0.79531  1.0000
  S   S376      1.0  0.65067  0.19041  0.82588  1.0000
  H   H2154     1.0  0.50981  0.17318  0.91630  1.0000
  H   H2155     1.0  0.61300  0.34242  0.81628  1.0000
  H   H2156     1.0  0.50841  0.13981  0.92627  1.0000
  C   C1262     1.0  0.34102  0.46391  0.91765  1.0000
  H   H2157     1.0  0.51088  0.15259  0.94585  1.0000
  C   C1263     1.0  0.35699  0.44845  0.91661  1.0000
  H   H2158     1.0  0.47190  0.16998  0.95258  1.0000
  N   N93       1.0  0.39826  0.34307  0.92218  1.0000
  C   C1264     1.0  0.41625  0.34607  0.91318  1.0000
  C   C1265     1.0  0.39960  0.32370  0.92594  1.0000
  C   C1266     1.0  0.39342  0.34889  0.93913  1.0000
  C   C1267     1.0  0.38581  0.35347  0.91042  1.0000
  C   C1268     1.0  0.41843  0.36503  0.90893  1.0000
  C   C1269     1.0  0.40472  0.31568  0.90981  1.0000
  C   C1270     1.0  0.37552  0.34700  0.95083  1.0000
  C   C1271     1.0  0.36816  0.34832  0.91411  1.0000
  H   H2159     1.0  0.42603  0.33780  0.92106  1.0000
  H   H2160     1.0  0.42056  0.34212  0.90051  1.0000
  H   H2161     1.0  0.38742  0.31993  0.93385  1.0000
  H   H2162     1.0  0.40932  0.31661  0.93418  1.0000
  H   H2163     1.0  0.40338  0.34176  0.94714  1.0000
  H   H2164     1.0  0.39329  0.36291  0.93678  1.0000
  H   H2165     1.0  0.38298  0.36754  0.91034  1.0000
  H   H2166     1.0  0.39206  0.35268  0.89672  1.0000
  H   H2167     1.0  0.40899  0.37437  0.90134  1.0000
  H   H2168     1.0  0.41773  0.36938  0.92080  1.0000
  H   H2169     1.0  0.43160  0.36565  0.90071  1.0000
  H   H2170     1.0  0.40339  0.30192  0.91405  1.0000
  H   H2171     1.0  0.39628  0.32252  0.90030  1.0000
  H   H2172     1.0  0.41850  0.31534  0.90315  1.0000
  H   H2173     1.0  0.36476  0.35581  0.94470  1.0000
  H   H2174     1.0  0.37420  0.35122  0.96298  1.0000
  H   H2175     1.0  0.37392  0.33338  0.95487  1.0000
  H   H2176     1.0  0.35739  0.36005  0.91505  1.0000
  H   H2177     1.0  0.36526  0.33844  0.92615  1.0000
  H   H2178     1.0  0.36730  0.34360  0.90298  1.0000
  N   N94       1.0  0.45833  0.02828  0.83631  1.0000
  C   C1272     1.0  0.47621  0.01623  0.83519  1.0000
  C   C1273     1.0  0.44565  0.01777  0.84851  1.0000
  C   C1274     1.0  0.45834  0.04291  0.84407  1.0000
  C   C1275     1.0  0.45461  0.03519  0.81822  1.0000
  C   C1276     1.0  0.49178  0.02480  0.82579  1.0000
  H   H2179     1.0  0.59354  0.00904  0.76012  1.0000
  C   C1277     1.0  0.44140  0.05700  0.84623  1.0000
  H   H2180     1.0  0.47851  0.00915  0.84844  1.0000
  H   H2181     1.0  0.47739  0.00595  0.82822  1.0000
  H   H2182     1.0  0.43214  0.02560  0.85050  1.0000
  H   H2183     1.0  0.50975  0.12291  0.75255  1.0000
  H   H2184     1.0  0.46192  0.03758  0.85705  1.0000
  H   H2185     1.0  0.46829  0.05028  0.83587  1.0000
  H   H2186     1.0  0.46105  0.04616  0.81108  1.0000
  H   H2187     1.0  0.46038  0.02496  0.81048  1.0000
  H   H2188     1.0  0.48972  0.03388  0.81333  1.0000
  C   C1278     1.0  0.39178  0.42766  0.89867  1.0000
  H   H2189     1.0  0.50362  0.01452  0.82282  1.0000
  H   H2190     1.0  0.45815  0.19777  0.96874  1.0000
  H   H2191     1.0  0.43863  0.06479  0.83339  1.0000
  C   C1279     1.0  0.63514  0.37016  0.93786  1.0000
  H   H2192     1.0  0.38819  0.46041  0.92896  1.0000
  H   H2193     1.0  0.55799  0.26842  0.92444  1.0000
  H   H2194     1.0  0.52723  0.10938  0.79222  1.0000
  C   C1280     1.0  0.62758  0.23936  0.83392  1.0000
  S   S377      1.0  0.61544  0.13493  0.98510  1.0000
  H   H2195     1.0  0.64464  0.14548  0.79549  1.0000
  H   H2196     1.0  0.47803  0.24186  0.82806  1.0000
  Fe  Fe182     1.0  0.33030  0.40244  0.89623  1.0000
  H   H2197     1.0  0.37447  0.43626  0.95040  1.0000
  Fe  Fe183     1.0  0.37253  0.40251  0.98244  1.0000
  H   H2198     1.0  0.65349  0.31310  0.85386  1.0000
  H   H2199     1.0  0.57192  0.11573  0.79510  1.0000
  H   H2200     1.0  0.49072  0.20682  0.85449  1.0000
  H   H2201     1.0  0.51671  0.12957  0.76755  1.0000
  C   C1281     1.0  0.65437  0.32216  0.90039  1.0000
  C   C1282     1.0  0.50075  0.20357  0.82826  1.0000
  H   H2202     1.0  0.56876  0.06334  0.74901  1.0000
  C   C1283     1.0  0.64654  0.21259  0.82626  1.0000
  H   H2203     1.0  0.49489  0.22497  0.87949  1.0000
  H   H2204     1.0  0.58528  0.09459  0.79419  1.0000
  C   C1284     1.0  0.63682  0.20026  0.90604  1.0000
  C   C1285     1.0  0.52613  0.22253  0.82830  1.0000
  Fe  Fe184     1.0  0.62961  0.04663  0.75022  1.0000
  H   H2205     1.0  0.34770  0.39282  0.97253  1.0000
  C   C1286     1.0  0.46194  0.33707  0.79137  1.0000
  C   C1287     1.0  0.48600  0.33238  0.82033  1.0000
  C   C1288     1.0  0.46982  0.35332  0.78483  1.0000
  H   H2206     1.0  0.47069  0.32754  0.78367  1.0000
  H   H2207     1.0  0.48742  0.34436  0.81018  1.0000
  H   H2208     1.0  0.49929  0.32495  0.82202  1.0000
  H   H2209     1.0  0.48425  0.34952  0.78166  1.0000
  H   H2210     1.0  0.46555  0.36208  0.79398  1.0000
  H   H2211     1.0  0.46525  0.36143  0.77286  1.0000
  H   H2212     1.0  0.53614  0.21017  0.82938  1.0000
  N   N95       1.0  0.56797  0.11111  0.83233  1.0000
  C   C1289     1.0  0.56983  0.10163  0.85069  1.0000
  C   C1290     1.0  0.54906  0.11467  0.83165  1.0000
  C   C1291     1.0  0.57318  0.12821  0.82884  1.0000
  C   C1292     1.0  0.57981  0.10001  0.81990  1.0000
  C   C1293     1.0  0.58800  0.09845  0.85461  1.0000
  C   C1294     1.0  0.54076  0.09868  0.83834  1.0000
  C   C1295     1.0  0.57054  0.14124  0.81158  1.0000
  C   C1296     1.0  0.57447  0.10212  0.80260  1.0000
  H   H2213     1.0  0.56028  0.10881  0.86032  1.0000
  H   H2214     1.0  0.56681  0.08853  0.85397  1.0000
  H   H2215     1.0  0.54687  0.12082  0.81827  1.0000
  H   H2216     1.0  0.54112  0.12434  0.83951  1.0000
  H   H2217     1.0  0.56602  0.13514  0.83951  1.0000
  H   H2218     1.0  0.58718  0.12605  0.82884  1.0000
  H   H2219     1.0  0.59315  0.10231  0.81646  1.0000
  H   H2220     1.0  0.58137  0.08586  0.82619  1.0000
  H   H2221     1.0  0.58853  0.08924  0.86744  1.0000
  H   H2222     1.0  0.59858  0.09264  0.84476  1.0000
  H   H2223     1.0  0.59057  0.11065  0.85565  1.0000
  H   H2224     1.0  0.53742  0.09533  0.85281  1.0000
  H   H2225     1.0  0.52833  0.10187  0.83391  1.0000
  H   H2226     1.0  0.54929  0.08710  0.83356  1.0000
  H   H2227     1.0  0.55692  0.14479  0.80998  1.0000
  H   H2228     1.0  0.57962  0.13653  0.80028  1.0000
  H   H2229     1.0  0.57380  0.15352  0.81151  1.0000
  H   H2230     1.0  0.56296  0.09667  0.80477  1.0000
  C   C1297     1.0  0.64543  0.35449  0.85912  1.0000
  C   C1298     1.0  0.64204  0.33888  0.85845  1.0000
  C   C1299     1.0  0.50581  0.21359  0.87758  1.0000
  H   H2231     1.0  0.49148  0.12435  0.79028  1.0000
  H   H2232     1.0  0.36757  0.47819  0.89790  1.0000
  H   H2233     1.0  0.63050  0.08134  0.79265  1.0000
  H   H2234     1.0  0.50063  0.20202  0.87926  1.0000
  H   H2235     1.0  0.47071  0.16788  0.90605  1.0000
  H   H2236     1.0  0.64831  0.11052  0.97102  1.0000
  S   S378      1.0  0.47342  0.06410  0.74250  1.0000
  C   C1300     1.0  0.49193  0.12232  0.77730  1.0000
  N   N96       1.0  0.45963  0.32886  0.81057  1.0000
  C   C1301     1.0  0.44879  0.34160  0.82168  1.0000
  H   H2237     1.0  0.48660  0.31464  0.80512  1.0000
  H   H2238     1.0  0.42187  0.34240  0.82069  1.0000
  C   C1302     1.0  0.62004  0.10873  0.78380  1.0000
  H   H2239     1.0  0.43389  0.05284  0.80571  1.0000
  C   C1303     1.0  0.43524  0.04141  0.81683  1.0000
  H   H2240     1.0  0.54106  0.31167  0.97283  1.0000
  H   H2241     1.0  0.33883  0.47090  0.90441  1.0000
  H   H2242     1.0  0.43096  0.03130  0.81349  1.0000
  C   C1304     1.0  0.65363  0.16923  0.78326  1.0000
  S   S379      1.0  0.47623  0.99326  0.79446  1.0000
  H   H2243     1.0  0.62731  0.35581  0.80114  1.0000
  H   H2244     1.0  0.49963  0.17422  0.89949  1.0000
  C   C1305     1.0  0.50621  0.09117  0.75367  1.0000
  H   H2245     1.0  0.34210  0.47345  0.92427  1.0000
  S   S380      1.0  0.62033  0.30865  0.95593  1.0000
  H   H2246     1.0  0.53197  0.07979  0.81222  1.0000
  C   C1306     1.0  0.61672  0.29489  0.94501  1.0000
  S   S381      1.0  0.61710  0.10731  0.76383  1.0000
  H   H2247     1.0  0.50519  0.08351  0.78098  1.0000
  C   C1307     1.0  0.53436  0.08128  0.79789  1.0000
  C   C1308     1.0  0.64762  0.33491  0.96134  1.0000
  H   H2248     1.0  0.46847  0.11823  0.97075  1.0000
  H   H2249     1.0  0.43169  0.35881  0.80392  1.0000
  H   H2250     1.0  0.60451  0.19932  0.91141  1.0000
  H   H2251     1.0  0.45153  0.28906  0.81032  1.0000
  H   H2252     1.0  0.54951  0.25724  0.90496  1.0000
  H   H2253     1.0  0.51288  0.21078  0.88820  1.0000
  S   S382      1.0  0.61703  0.05523  0.77549  1.0000
  C   C1309     1.0  0.45977  0.29879  0.80599  1.0000
  H   H2254     1.0  0.43746  0.31956  0.81004  1.0000
  C   C1310     1.0  0.61646  0.28940  0.91757  1.0000
  C   C1311     1.0  0.61739  0.30060  0.92713  1.0000
  H   H2255     1.0  0.46152  0.19308  0.92919  1.0000
  C   C1312     1.0  0.51210  0.31882  0.92334  1.0000
  S   S383      1.0  0.60304  0.30792  0.84309  1.0000
  H   H2256     1.0  0.51862  0.32949  0.92159  1.0000
  H   H2257     1.0  0.50982  0.27729  0.96162  1.0000
  H   H2258     1.0  0.47221  0.29206  0.81021  1.0000
  H   H2259     1.0  0.62433  0.20266  0.86850  1.0000
  Fe  Fe185     1.0  0.61972  0.28074  0.84819  1.0000
  H   H2260     1.0  0.47835  0.21533  0.92233  1.0000
  H   H2261     1.0  0.40202  0.41545  0.90039  1.0000
  H   H2262     1.0  0.54239  0.23548  0.83575  1.0000
  H   H2263     1.0  0.35793  0.45932  0.84461  1.0000
  C   C1313     1.0  0.46803  0.24810  0.95672  1.0000
  H   H2264     1.0  0.65032  0.33638  0.82016  1.0000
  H   H2265     1.0  0.63253  0.14461  0.89261  1.0000
  C   C1314     1.0  0.64129  0.24794  0.82657  1.0000
  H   H2266     1.0  0.53467  0.27696  0.89807  1.0000
  H   H2267     1.0  0.65447  0.17173  0.79560  1.0000
  C   C1315     1.0  0.51857  0.21741  0.85989  1.0000
  Fe  Fe186     1.0  0.61371  0.31167  0.86390  1.0000
  C   C1316     1.0  0.63431  0.31573  0.79914  1.0000
  H   H2268     1.0  0.37615  0.46138  0.88648  1.0000
  C   C1317     1.0  0.53283  0.03701  0.76616  1.0000
  H   H2269     1.0  0.50967  0.09884  0.79864  1.0000
  H   H2270     1.0  0.50118  0.32447  0.91638  1.0000
  C   C1318     1.0  0.63958  0.30500  0.78501  1.0000
  C   C1319     1.0  0.61383  0.27269  0.92594  1.0000
  H   H2271     1.0  0.62840  0.30749  0.81143  1.0000
  S   S384      1.0  0.65316  0.02441  0.74725  1.0000
  C   C1320     1.0  0.64081  0.14580  0.91495  1.0000
  H   H2272     1.0  0.50899  0.07904  0.74895  1.0000
  C   C1321     1.0  0.51509  0.08721  0.76922  1.0000
  Fe  Fe187     1.0  0.60939  0.27619  0.88710  1.0000
  H   H2273     1.0  0.53130  0.06980  0.79581  1.0000
  N   N97       1.0  0.64855  0.32223  0.80204  1.0000
  C   C1322     1.0  0.38813  0.43589  0.91446  1.0000
  H   H2274     1.0  0.47488  0.19550  0.90791  1.0000
  H   H2275     1.0  0.59499  0.22860  0.87975  1.0000
  N   N98       1.0  0.52206  0.10153  0.77124  1.0000
  C   C1323     1.0  0.52280  0.09863  0.79013  1.0000
  C   C1324     1.0  0.47521  0.19013  0.92195  1.0000
  H   H2276     1.0  0.52986  0.99452  0.75062  1.0000
  C   C1325     1.0  0.52446  0.30365  0.91540  1.0000
  C   C1326     1.0  0.54273  0.03743  0.77748  1.0000
  H   H2277     1.0  0.49838  0.19953  0.92086  1.0000
  H   H2278     1.0  0.50356  0.17548  0.94605  1.0000
  C   C1327     1.0  0.47131  0.16250  0.92002  1.0000
  H   H2279     1.0  0.55426  0.17495  0.94472  1.0000
  C   C1328     1.0  0.62589  0.11269  0.81464  1.0000
  C   C1329     1.0  0.61266  0.26702  0.94398  1.0000
  H   H2280     1.0  0.65357  0.14232  0.81908  1.0000
  C   C1330     1.0  0.44536  0.00134  0.84303  1.0000
  S   S385      1.0  0.63184  0.28538  0.86746  1.0000
  C   C1331     1.0  0.62707  0.09410  0.79556  1.0000
  C   C1332     1.0  0.54010  0.26861  0.90948  1.0000
  H   H2281     1.0  0.48209  0.14928  0.94797  1.0000
  N   N99       1.0  0.37432  0.45258  0.91446  1.0000
  H   H2282     1.0  0.50906  0.27979  0.93985  1.0000
  H   H2283     1.0  0.52997  0.30928  0.90157  1.0000
  C   C1333     1.0  0.51817  0.27547  0.94876  1.0000
  H   H2284     1.0  0.65425  0.13970  0.91043  1.0000
  C   C1334     1.0  0.61841  0.12717  0.80309  1.0000
  C   C1335     1.0  0.63017  0.09613  0.81089  1.0000
  H   H2285     1.0  0.63596  0.08485  0.81979  1.0000
  S   S386      1.0  0.63862  0.27010  0.82603  1.0000
  C   C1336     1.0  0.48437  0.20136  0.92700  1.0000
  H   H2286     1.0  0.42113  0.25672  0.94822  1.0000
  C   C1337     1.0  0.49971  0.16286  0.95009  1.0000
  C   C1338     1.0  0.54034  0.10112  0.76066  1.0000
  C   C1339     1.0  0.61577  0.12523  0.78761  1.0000
  H   H2287     1.0  0.61032  0.13658  0.77854  1.0000
  S   S387      1.0  0.61155  0.25936  0.91367  1.0000
  H   H2288     1.0  0.40643  0.45939  0.89164  1.0000
  H   H2289     1.0  0.38024  0.42389  0.89760  1.0000
  H   H2290     1.0  0.62360  0.00766  0.75777  1.0000
  H   H2291     1.0  0.44472  0.00396  0.82915  1.0000
  H   H2292     1.0  0.55919  0.28344  0.90397  1.0000
  H   H2293     1.0  0.35687  0.44348  0.90536  1.0000
  C   C1340     1.0  0.63016  0.22173  0.83358  1.0000
  H   H2294     1.0  0.54838  0.08106  0.79276  1.0000
  H   H2295     1.0  0.51605  0.29562  0.91453  1.0000
  Fe  Fe188     1.0  0.49666  0.04323  0.74889  1.0000
  H   H2296     1.0  0.51191  0.19348  0.85071  1.0000
  H   H2297     1.0  0.39679  0.43621  0.88622  1.0000
  H   H2298     1.0  0.56854  0.26393  0.97415  1.0000
  H   H2299     1.0  0.46170  0.22527  0.95500  1.0000
  H   H2300     1.0  0.43741  0.20916  0.96296  1.0000
  C   C1341     1.0  0.65525  0.14969  0.78471  1.0000
  H   H2301     1.0  0.62270  0.35475  0.82405  1.0000
  H   H2302     1.0  0.64496  0.34164  0.77842  1.0000
  C   C1342     1.0  0.65028  0.00512  0.74403  1.0000
  H   H2303     1.0  0.63128  0.34287  0.90392  1.0000
  Fe  Fe189     1.0  0.32947  0.39883  0.86081  1.0000
  H   H2304     1.0  0.57826  0.02396  0.74806  1.0000
  C   C1343     1.0  0.62508  0.34698  0.81416  1.0000
  C   C1344     1.0  0.65596  0.32517  0.85440  1.0000
  H   H2305     1.0  0.54905  0.08822  0.76450  1.0000
  H   H2306     1.0  0.65349  0.06674  0.97574  1.0000
  C   C1345     1.0  0.63505  0.21166  0.91879  1.0000
  H   H2307     1.0  0.64062  0.17663  0.78069  1.0000
  H   H2308     1.0  0.49999  0.21440  0.98162  1.0000
  H   H2309     1.0  0.43884  0.19087  0.98098  1.0000
  Fe  Fe190     1.0  0.46205  0.04175  0.74374  1.0000
  H   H2310     1.0  0.39647  0.47768  0.90209  1.0000
  H   H2311     1.0  0.54588  0.11084  0.76326  1.0000
  C   C1346     1.0  0.65311  0.36282  0.94278  1.0000
  S   S388      1.0  0.62327  0.17352  0.97965  1.0000
  H   H2312     1.0  0.49182  0.09459  0.75797  1.0000
  S   S389      1.0  0.50809  0.30211  0.98519  1.0000
  H   H2313     1.0  0.64507  0.30909  0.97660  1.0000
  H   H2314     1.0  0.47939  0.33709  0.98185  1.0000
  C   C1347     1.0  0.54883  0.05564  0.74268  1.0000
  H   H2315     1.0  0.65338  0.12025  0.77569  1.0000
  C   C1348     1.0  0.37759  0.46579  0.89757  1.0000
  H   H2316     1.0  0.65832  0.21784  0.88001  1.0000
  H   H2317     1.0  0.47987  0.24567  0.94639  1.0000
  H   H2318     1.0  0.64801  0.17810  0.86567  1.0000
  H   H2319     1.0  0.64162  0.38768  0.96225  1.0000
  H   H2320     1.0  0.63879  0.22423  0.91194  1.0000
  H   H2321     1.0  0.43374  0.99632  0.85101  1.0000
  H   H2322     1.0  0.32931  0.45894  0.92537  1.0000
  C   C1349     1.0  0.39536  0.47077  0.89273  1.0000
  N   N100      1.0  0.65323  0.35110  0.96066  1.0000
  C   C1350     1.0  0.58649  0.99756  0.74286  1.0000
  C   C1351     1.0  0.65646  0.07440  0.98339  1.0000
  H   H2323     1.0  0.45693  0.99074  0.84544  1.0000
  C   C1352     1.0  0.46219  0.23082  0.96564  1.0000
  H   H2324     1.0  0.65235  0.09080  0.94248  1.0000
  H   H2325     1.0  0.65090  0.19660  0.90039  1.0000
  H   H2326     1.0  0.65175  0.14881  0.77282  1.0000
  H   H2327     1.0  0.65607  0.30705  0.93539  1.0000
  H   H2328     1.0  0.41810  0.24452  0.98220  1.0000
  H   H2329     1.0  0.62703  0.36155  0.97389  1.0000
  H   H2330     1.0  0.65037  0.23977  0.87056  1.0000
  H   H2331     1.0  0.65187  0.22331  0.85933  1.0000
  N   N101      1.0  0.44545  0.23203  0.97920  1.0000
  C   C1353     1.0  0.64326  0.37794  0.97455  1.0000
  C   C1354     1.0  0.55560  0.11158  0.98289  1.0000
  H   H2332     1.0  0.65599  0.37702  0.97737  1.0000
  C   C1355     1.0  0.65752  0.23887  0.81901  1.0000
  H   H2333     1.0  0.45979  0.35319  0.98377  1.0000
  C   C1356     1.0  0.44411  0.20261  0.97386  1.0000
  Fe  Fe191     1.0  0.61233  0.30076  0.98497  1.0000
  C   C1357     1.0  0.33113  0.48616  0.87061  1.0000
  C   C1358     1.0  0.65569  0.33397  0.78528  1.0000
  H   H2334     1.0  0.41726  0.23524  0.95833  1.0000
  H   H2335     1.0  0.65561  0.36058  0.78617  1.0000
  H   H2336     1.0  0.65678  0.29785  0.81976  1.0000
  H   H2337     1.0  0.63317  0.38314  0.98515  1.0000
  H   H2338     1.0  0.43216  0.98412  0.18415  1.0000
  C   C1359     1.0  0.47263  0.97463  0.12159  1.0000
  C   C1360     1.0  0.59055  0.96212  0.11794  1.0000
  Fe  Fe192     1.0  0.47599  0.78970  0.03770  1.0000
  S   S390      1.0  0.49993  0.76899  0.03172  1.0000
  S   S391      1.0  0.47229  0.79616  0.06379  1.0000
  Fe  Fe193     1.0  0.50366  0.78571  0.00484  1.0000
  H   H2339     1.0  0.52738  0.59034  0.04406  1.0000
  Fe  Fe194     1.0  0.48351  0.75752  0.02245  1.0000
  S   S392      1.0  0.48841  0.72824  0.02954  1.0000
  S   S393      1.0  0.48098  0.80741  0.01121  1.0000
  S   S394      1.0  0.45889  0.77651  0.03091  1.0000
  Fe  Fe195     1.0  0.59672  0.80832  0.01780  1.0000
  S   S395      1.0  0.62171  0.80159  0.02663  1.0000
  S   S396      1.0  0.57222  0.80248  0.03564  1.0000
  C   C1361     1.0  0.60016  0.88697  0.01524  1.0000
  H   H2340     1.0  0.64732  0.97857  0.14728  1.0000
  Fe  Fe196     1.0  0.63291  0.79020  0.00302  1.0000
  C   C1362     1.0  0.48245  0.70149  0.99039  1.0000
  Fe  Fe197     1.0  0.62604  0.82684  0.00821  1.0000
  H   H2341     1.0  0.56486  0.83454  0.16623  1.0000
  S   S397      1.0  0.60745  0.79474  0.99578  1.0000
  S   S398      1.0  0.59971  0.83464  0.00151  1.0000
  Fe  Fe198     1.0  0.62958  0.65745  0.00743  1.0000
  H   H2342     1.0  0.36832  0.60933  0.05788  1.0000
  H   H2343     1.0  0.60792  0.87708  0.04878  1.0000
  Fe  Fe199     1.0  0.60725  0.68771  0.02432  1.0000
  S   S399      1.0  0.58319  0.68733  0.01659  1.0000
  S   S400      1.0  0.60311  0.70850  0.03892  1.0000
  Fe  Fe200     1.0  0.59139  0.65833  0.02496  1.0000
  S   S401      1.0  0.57311  0.64198  0.04342  1.0000
  C   C1363     1.0  0.55385  0.57884  0.99304  1.0000
  S   S402      1.0  0.61442  0.65876  0.03469  1.0000
  H   H2344     1.0  0.61150  0.88025  0.02126  1.0000
  H   H2345     1.0  0.64114  0.61622  0.02199  1.0000
  S   S403      1.0  0.46325  0.65746  0.01565  1.0000
  C   C1364     1.0  0.50377  0.96839  0.15995  1.0000
  C   C1365     1.0  0.63188  0.93071  0.17276  1.0000
  S   S404      1.0  0.47993  0.61608  0.01588  1.0000
  C   C1366     1.0  0.46299  0.90043  0.17483  1.0000
  Fe  Fe201     1.0  0.45759  0.63656  0.00661  1.0000
  S   S405      1.0  0.43111  0.63289  0.00709  1.0000
  Fe  Fe202     1.0  0.48752  0.63785  0.02164  1.0000
  S   S406      1.0  0.49789  0.63432  0.04541  1.0000
  H   H2346     1.0  0.46170  0.50915  0.03205  1.0000
  H   H2347     1.0  0.53499  0.57466  0.03027  1.0000
  C   C1367     1.0  0.39716  0.76295  0.99660  1.0000
  H   H2348     1.0  0.59501  0.88448  0.06729  1.0000
  C   C1368     1.0  0.37199  0.49351  0.00772  1.0000
  H   H2349     1.0  0.59715  0.87881  0.18162  1.0000
  S   S407      1.0  0.56825  0.90250  0.13406  1.0000
  C   C1369     1.0  0.36394  0.60088  0.05242  1.0000
  H   H2350     1.0  0.56765  0.88374  0.18070  1.0000
  Fe  Fe203     1.0  0.47134  0.87908  0.09257  1.0000
  S   S408      1.0  0.48463  0.90164  0.08279  1.0000
  S   S409      1.0  0.46090  0.87341  0.07234  1.0000
  Fe  Fe204     1.0  0.47819  0.87166  0.12902  1.0000
  S   S410      1.0  0.49224  0.89317  0.12200  1.0000
  Fe  Fe205     1.0  0.47083  0.90886  0.10833  1.0000
  S   S411      1.0  0.45762  0.93575  0.11286  1.0000
  Fe  Fe206     1.0  0.50474  0.88391  0.09739  1.0000
  S   S412      1.0  0.53347  0.87993  0.08675  1.0000
  S   S413      1.0  0.45558  0.88796  0.11704  1.0000
  S   S414      1.0  0.49267  0.86079  0.10541  1.0000
  H   H2351     1.0  0.51008  0.97920  0.15843  1.0000
  C   C1370     1.0  0.63747  0.92105  0.19013  1.0000
  C   C1371     1.0  0.47078  0.94869  0.11412  1.0000
  C   C1372     1.0  0.48871  0.94538  0.10724  1.0000
  C   C1373     1.0  0.49849  0.95701  0.10716  1.0000
  C   C1374     1.0  0.49035  0.97187  0.11404  1.0000
  C   C1375     1.0  0.44464  0.97836  0.17613  1.0000
  C   C1376     1.0  0.46286  0.96316  0.12153  1.0000
  H   H2352     1.0  0.49489  0.93420  0.10149  1.0000
  H   H2353     1.0  0.51224  0.95470  0.10136  1.0000
  H   H2354     1.0  0.37214  0.50714  0.00383  1.0000
  H   H2355     1.0  0.64904  0.98097  0.16752  1.0000
  H   H2356     1.0  0.46222  0.89335  0.15174  1.0000
  H   H2357     1.0  0.60086  0.91454  0.05332  1.0000
  C   C1377     1.0  0.65781  0.95065  0.09333  1.0000
  H   H2358     1.0  0.57487  0.58800  0.99610  1.0000
  C   C1378     1.0  0.55842  0.89653  0.12085  1.0000
  C   C1379     1.0  0.54180  0.90560  0.11818  1.0000
  C   C1380     1.0  0.53428  0.90089  0.10723  1.0000
  C   C1381     1.0  0.54324  0.88694  0.09925  1.0000
  C   C1382     1.0  0.55998  0.87812  0.10170  1.0000
  C   C1383     1.0  0.56749  0.88283  0.11259  1.0000
  H   H2359     1.0  0.53480  0.91633  0.12439  1.0000
  H   H2360     1.0  0.52159  0.90812  0.10489  1.0000
  H   H2361     1.0  0.56694  0.86724  0.09568  1.0000
  H   H2362     1.0  0.58023  0.87557  0.11485  1.0000
  H   H2363     1.0  0.38465  0.54353  0.09356  1.0000
  Fe  Fe207     1.0  0.63404  0.89024  0.12503  1.0000
  H   H2364     1.0  0.57940  0.60260  0.03570  1.0000
  C   C1384     1.0  0.43375  0.72071  0.00017  1.0000
  C   C1385     1.0  0.48185  0.72801  0.99839  1.0000
  C   C1386     1.0  0.42693  0.61196  0.01663  1.0000
  C   C1387     1.0  0.41364  0.60729  0.01245  1.0000
  C   C1388     1.0  0.40991  0.59075  0.02006  1.0000
  C   C1389     1.0  0.41918  0.57895  0.03220  1.0000
  C   C1390     1.0  0.43230  0.58371  0.03654  1.0000
  C   C1391     1.0  0.43633  0.60007  0.02861  1.0000
  H   H2365     1.0  0.40628  0.61645  0.00326  1.0000
  H   H2366     1.0  0.43948  0.57467  0.04598  1.0000
  H   H2367     1.0  0.44642  0.60365  0.03208  1.0000
  H   H2368     1.0  0.60418  0.88751  0.19541  1.0000
  H   H2369     1.0  0.54215  0.96729  0.09444  1.0000
  H   H2370     1.0  0.34048  0.59750  0.07138  1.0000
  H   H2371     1.0  0.44651  0.72296  0.01961  1.0000
  C   C1392     1.0  0.47223  0.87088  0.17041  1.0000
  H   H2372     1.0  0.43072  0.77148  0.00660  1.0000
  H   H2373     1.0  0.50933  0.68967  0.06213  1.0000
  H   H2374     1.0  0.51091  0.84355  0.17203  1.0000
  H   H2375     1.0  0.45810  0.97724  0.19546  1.0000
  H   H2376     1.0  0.44683  0.71650  0.99225  1.0000
  H   H2377     1.0  0.44927  0.75453  0.01026  1.0000
  H   H2378     1.0  0.36275  0.61316  0.08581  1.0000
  H   H2379     1.0  0.56794  0.61871  0.99270  1.0000
  H   H2380     1.0  0.54305  0.88492  0.21158  1.0000
  C   C1393     1.0  0.55166  0.64218  0.04313  1.0000
  C   C1394     1.0  0.54210  0.63341  0.05828  1.0000
  C   C1395     1.0  0.52550  0.63171  0.05876  1.0000
  C   C1396     1.0  0.51822  0.63856  0.04403  1.0000
  C   C1397     1.0  0.52749  0.64787  0.02884  1.0000
  C   C1398     1.0  0.54428  0.64971  0.02839  1.0000
  H   H2381     1.0  0.54770  0.62757  0.06971  1.0000
  H   H2382     1.0  0.51842  0.62463  0.07055  1.0000
  H   H2383     1.0  0.52181  0.65355  0.01750  1.0000
  H   H2384     1.0  0.55164  0.65646  0.01661  1.0000
  H   H2385     1.0  0.64477  0.92990  0.13133  1.0000
  C   C1399     1.0  0.63784  0.74778  0.01451  1.0000
  C   C1400     1.0  0.64362  0.73094  0.01135  1.0000
  C   C1401     1.0  0.63308  0.71874  0.01881  1.0000
  C   C1402     1.0  0.61693  0.72321  0.02983  1.0000
  C   C1403     1.0  0.61139  0.73990  0.03334  1.0000
  C   C1404     1.0  0.62170  0.75221  0.02554  1.0000
  H   H2386     1.0  0.47441  0.60508  0.98731  1.0000
  H   H2387     1.0  0.63757  0.70581  0.01623  1.0000
  H   H2388     1.0  0.59892  0.74346  0.04185  1.0000
  H   H2389     1.0  0.61712  0.76515  0.02811  1.0000
  C   C1405     1.0  0.46804  0.81776  0.06628  1.0000
  C   C1406     1.0  0.47011  0.82054  0.08167  1.0000
  C   C1407     1.0  0.46796  0.83753  0.08371  1.0000
  C   C1408     1.0  0.46319  0.85190  0.07055  1.0000
  C   C1409     1.0  0.46055  0.84916  0.05538  1.0000
  C   C1410     1.0  0.46315  0.83214  0.05315  1.0000
  H   H2390     1.0  0.47372  0.80947  0.09195  1.0000
  H   H2391     1.0  0.46982  0.83951  0.09552  1.0000
  H   H2392     1.0  0.45674  0.86024  0.04520  1.0000
  H   H2393     1.0  0.46133  0.83014  0.04132  1.0000
  C   C1411     1.0  0.48571  0.71826  0.01445  1.0000
  C   C1412     1.0  0.48792  0.70013  0.01844  1.0000
  C   C1413     1.0  0.48634  0.69176  0.00643  1.0000
  C   C1414     1.0  0.64608  0.87867  0.16400  1.0000
  H   H2394     1.0  0.56411  0.97756  0.06749  1.0000
  H   H2395     1.0  0.52464  0.61489  0.01956  1.0000
  H   H2396     1.0  0.49084  0.69249  0.03086  1.0000
  H   H2397     1.0  0.48838  0.67775  0.00959  1.0000
  Fe  Fe208     1.0  0.47039  0.89993  0.23044  1.0000
  H   H2398     1.0  0.54852  0.94450  0.11740  1.0000
  C   C1415     1.0  0.54162  0.79359  0.00155  1.0000
  C   C1416     1.0  0.53992  0.78490  0.01907  1.0000
  C   C1417     1.0  0.54939  0.78753  0.02954  1.0000
  C   C1418     1.0  0.56073  0.79881  0.02246  1.0000
  C   C1419     1.0  0.56270  0.80732  0.00483  1.0000
  C   C1420     1.0  0.55321  0.80465  0.99435  1.0000
  H   H2399     1.0  0.53151  0.77594  0.02457  1.0000
  H   H2400     1.0  0.54801  0.78076  0.04311  1.0000
  H   H2401     1.0  0.57131  0.81624  0.99931  1.0000
  H   H2402     1.0  0.51666  0.73440  0.98836  1.0000
  H   H2403     1.0  0.57401  0.90113  0.02092  1.0000
  H   H2404     1.0  0.54636  0.90711  0.22337  1.0000
  C   C1421     1.0  0.47375  0.87677  0.19737  1.0000
  H   H2405     1.0  0.56667  0.95715  0.23228  1.0000
  H   H2406     1.0  0.56856  0.74972  0.01720  1.0000
  H   H2407     1.0  0.58474  0.90962  0.20901  1.0000
  C   C1422     1.0  0.53704  0.71642  0.04208  1.0000
  H   H2408     1.0  0.65325  0.58451  0.03188  1.0000
  H   H2409     1.0  0.39946  0.73511  0.00297  1.0000
  S   S415      1.0  0.64500  0.88999  0.09672  1.0000
  C   C1423     1.0  0.53810  0.68543  0.05387  1.0000
  H   H2410     1.0  0.62208  0.93227  0.14237  1.0000
  H   H2411     1.0  0.54566  0.71292  0.02986  1.0000
  S   S416      1.0  0.46409  0.90982  0.20380  1.0000
  H   H2412     1.0  0.54085  0.67379  0.06449  1.0000
  H   H2413     1.0  0.54779  0.68224  0.04203  1.0000
  H   H2414     1.0  0.33066  0.53994  0.99853  1.0000
  H   H2415     1.0  0.43345  0.57828  0.99105  1.0000
  C   C1424     1.0  0.56192  0.58583  0.00395  1.0000
  H   H2416     1.0  0.48777  0.54378  0.01236  1.0000
  C   C1425     1.0  0.43659  0.75166  0.99128  1.0000
  Fe  Fe209     1.0  0.48002  0.66327  0.98900  1.0000
  H   H2417     1.0  0.42818  0.75063  0.02021  1.0000
  S   S417      1.0  0.60719  0.65456  0.99866  1.0000
  C   C1426     1.0  0.48026  0.71961  0.98636  1.0000
  C   C1427     1.0  0.33146  0.56802  0.09505  1.0000
  C   C1428     1.0  0.46556  0.88865  0.16441  1.0000
  H   H2418     1.0  0.38960  0.56165  0.09850  1.0000
  H   H2419     1.0  0.62844  0.94720  0.12264  1.0000
  H   H2420     1.0  0.56721  0.70382  0.04664  1.0000
  H   H2421     1.0  0.47952  0.52359  0.00700  1.0000
  C   C1429     1.0  0.52735  0.70648  0.07344  1.0000
  H   H2422     1.0  0.57215  0.67259  0.05678  1.0000
  C   C1430     1.0  0.52345  0.84492  0.17369  1.0000
  S   S418      1.0  0.48914  0.77267  0.99493  1.0000
  C   C1431     1.0  0.55817  0.98411  0.21916  1.0000
  S   S419      1.0  0.41497  0.55805  0.04193  1.0000
  H   H2423     1.0  0.55604  0.96435  0.14038  1.0000
  H   H2424     1.0  0.48811  0.56475  0.99725  1.0000
  H   H2425     1.0  0.43513  0.84284  0.22593  1.0000
  C   C1432     1.0  0.37971  0.56846  0.07430  1.0000
  C   C1433     1.0  0.55720  0.60238  0.02617  1.0000
  H   H2426     1.0  0.51104  0.95699  0.16801  1.0000
  H   H2427     1.0  0.58020  0.93258  0.07644  1.0000
  C   C1434     1.0  0.33786  0.49958  0.04285  1.0000
  H   H2428     1.0  0.45354  0.85236  0.22218  1.0000
  H   H2429     1.0  0.54831  0.61287  0.03252  1.0000
  H   H2430     1.0  0.34946  0.58121  0.05903  1.0000
  N   N102      1.0  0.64290  0.94294  0.16042  1.0000
  H   H2431     1.0  0.53083  0.71112  0.00718  1.0000
  S   S420      1.0  0.44626  0.80679  0.98714  1.0000
  H   H2432     1.0  0.63191  0.92019  0.16665  1.0000
  H   H2433     1.0  0.53844  0.74336  0.03007  1.0000
  H   H2434     1.0  0.38769  0.57816  0.06718  1.0000
  H   H2435     1.0  0.51933  0.85131  0.18491  1.0000
  H   H2436     1.0  0.42446  0.71959  0.02856  1.0000
  C   C1435     1.0  0.44108  0.54939  0.99712  1.0000
  H   H2437     1.0  0.58271  0.98012  0.09569  1.0000
  H   H2438     1.0  0.58559  0.59582  0.01548  1.0000
  N   N103      1.0  0.56585  0.96199  0.10395  1.0000
  S   S421      1.0  0.50230  0.98725  0.11237  1.0000
  C   C1436     1.0  0.51999  0.68616  0.05116  1.0000
  H   H2439     1.0  0.51671  0.69735  0.10084  1.0000
  C   C1437     1.0  0.60839  0.90311  0.04775  1.0000
  N   N104      1.0  0.52211  0.83769  0.04985  1.0000
  C   C1438     1.0  0.52890  0.82010  0.06075  1.0000
  C   C1439     1.0  0.53663  0.84245  0.03483  1.0000
  C   C1440     1.0  0.50723  0.83736  0.04267  1.0000
  C   C1441     1.0  0.51563  0.85077  0.06122  1.0000
  C   C1442     1.0  0.51528  0.81164  0.07520  1.0000
  C   C1443     1.0  0.55143  0.84699  0.03963  1.0000
  C   C1444     1.0  0.51099  0.82370  0.03171  1.0000
  C   C1445     1.0  0.50951  0.86996  0.05197  1.0000
  H   H2440     1.0  0.53581  0.81056  0.05247  1.0000
  H   H2441     1.0  0.53882  0.82086  0.06726  1.0000
  H   H2442     1.0  0.53169  0.85342  0.02452  1.0000
  H   H2443     1.0  0.54282  0.83156  0.02806  1.0000
  H   H2444     1.0  0.49594  0.83508  0.05338  1.0000
  H   H2445     1.0  0.50253  0.85029  0.03437  1.0000
  H   H2446     1.0  0.50416  0.84764  0.07147  1.0000
  H   H2447     1.0  0.52529  0.85006  0.06882  1.0000
  H   H2448     1.0  0.50792  0.81993  0.08459  1.0000
  H   H2449     1.0  0.50615  0.80807  0.06976  1.0000
  H   H2450     1.0  0.52209  0.79927  0.08273  1.0000
  H   H2451     1.0  0.54682  0.85886  0.04498  1.0000
  H   H2452     1.0  0.55773  0.83599  0.04897  1.0000
  H   H2453     1.0  0.56162  0.84957  0.02768  1.0000
  H   H2454     1.0  0.51443  0.81019  0.03936  1.0000
  H   H2455     1.0  0.52129  0.82594  0.01983  1.0000
  H   H2456     1.0  0.49899  0.82476  0.02735  1.0000
  H   H2457     1.0  0.49563  0.87282  0.05125  1.0000
  H   H2458     1.0  0.51719  0.87368  0.03869  1.0000
  H   H2459     1.0  0.51109  0.87863  0.05938  1.0000
  H   H2460     1.0  0.56738  0.98280  0.11486  1.0000
  C   C1446     1.0  0.59713  0.90585  0.17243  1.0000
  H   H2461     1.0  0.58891  0.90820  0.16290  1.0000
  H   H2462     1.0  0.61084  0.90285  0.16519  1.0000
  H   H2463     1.0  0.65102  0.91329  0.18819  1.0000
  C   C1447     1.0  0.54753  0.95949  0.13533  1.0000
  H   H2464     1.0  0.38467  0.76557  0.00611  1.0000
  H   H2465     1.0  0.58563  0.95853  0.08058  1.0000
  C   C1448     1.0  0.37023  0.59994  0.09095  1.0000
  H   H2466     1.0  0.56733  0.90336  0.06787  1.0000
  H   H2467     1.0  0.65258  0.92519  0.23279  1.0000
  C   C1449     1.0  0.63571  0.86649  0.16876  1.0000
  C   C1450     1.0  0.64925  0.94159  0.08737  1.0000
  C   C1451     1.0  0.46545  0.52741  0.00694  1.0000
  H   H2468     1.0  0.54849  0.83581  0.14424  1.0000
  H   H2469     1.0  0.41194  0.86707  0.21911  1.0000
  H   H2470     1.0  0.43301  0.54883  0.01047  1.0000
  H   H2471     1.0  0.35609  0.55355  0.10079  1.0000
  H   H2472     1.0  0.56444  0.92985  0.09632  1.0000
  H   H2473     1.0  0.38362  0.53172  0.98542  1.0000
  H   H2474     1.0  0.53439  0.68838  0.00878  1.0000
  C   C1452     1.0  0.52692  0.69217  0.09031  1.0000
  N   N105      1.0  0.46012  0.54603  0.99728  1.0000
  C   C1453     1.0  0.43318  0.56712  0.98615  1.0000
  Fe  Fe210     1.0  0.46590  0.79263  0.00379  1.0000
  C   C1454     1.0  0.47309  0.94835  0.16871  1.0000
  Fe  Fe211     1.0  0.35677  0.54822  0.04171  1.0000
  H   H2475     1.0  0.65179  0.87703  0.20407  1.0000
  H   H2476     1.0  0.54235  0.82007  0.16985  1.0000
  C   C1455     1.0  0.53726  0.70070  0.99986  1.0000
  H   H2477     1.0  0.48004  0.74199  0.99523  1.0000
  H   H2478     1.0  0.42755  0.90846  0.20345  1.0000
  H   H2479     1.0  0.52987  0.71778  0.07654  1.0000
  C   C1456     1.0  0.53963  0.73412  0.04277  1.0000
  H   H2480     1.0  0.62128  0.95960  0.14919  1.0000
  H   H2481     1.0  0.62894  0.91182  0.19743  1.0000
  H   H2482     1.0  0.51392  0.71098  0.07093  1.0000
  C   C1457     1.0  0.57819  0.95067  0.09209  1.0000
  H   H2483     1.0  0.61804  0.93781  0.17599  1.0000
  C   C1458     1.0  0.57261  0.90817  0.20643  1.0000
  C   C1459     1.0  0.64711  0.87423  0.19431  1.0000
  C   C1460     1.0  0.65439  0.61046  0.01644  1.0000
  H   H2484     1.0  0.46907  0.95661  0.15652  1.0000
  Fe  Fe212     1.0  0.37674  0.55517  0.00446  1.0000
  S   S422      1.0  0.37070  0.56937  0.02583  1.0000
  C   C1461     1.0  0.48427  0.97375  0.16805  1.0000
  H   H2485     1.0  0.62031  0.89806  0.05324  1.0000
  H   H2486     1.0  0.37365  0.60019  0.10309  1.0000
  H   H2487     1.0  0.60564  0.89496  0.00256  1.0000
  H   H2488     1.0  0.57439  0.91920  0.04930  1.0000
  C   C1462     1.0  0.35295  0.58888  0.06633  1.0000
  H   H2489     1.0  0.49157  0.92319  0.17462  1.0000
  C   C1463     1.0  0.35140  0.56232  0.08910  1.0000
  H   H2490     1.0  0.53667  0.90698  0.19946  1.0000
  H   H2491     1.0  0.32772  0.57511  0.10567  1.0000
  S   S423      1.0  0.40165  0.53774  0.01089  1.0000
  H   H2492     1.0  0.53936  0.68842  0.09466  1.0000
  S   S424      1.0  0.64066  0.89296  0.23284  1.0000
  H   H2493     1.0  0.59532  0.91789  0.17693  1.0000
  Fe  Fe213     1.0  0.59664  0.89686  0.12163  1.0000
  H   H2494     1.0  0.64755  0.86846  0.02893  1.0000
  H   H2495     1.0  0.47788  0.98084  0.15689  1.0000
  C   C1464     1.0  0.63619  0.86259  0.19918  1.0000
  S   S425      1.0  0.60430  0.89747  0.09311  1.0000
  C   C1465     1.0  0.43588  0.75717  0.00812  1.0000
  H   H2496     1.0  0.57867  0.84805  0.22111  1.0000
  H   H2497     1.0  0.49590  0.94869  0.21475  1.0000
  H   H2498     1.0  0.56454  0.87698  0.22430  1.0000
  C   C1466     1.0  0.59835  0.88848  0.05280  1.0000
  C   C1467     1.0  0.48041  0.55735  0.00890  1.0000
  Fe  Fe214     1.0  0.38486  0.51950  0.02789  1.0000
  H   H2499     1.0  0.64419  0.86994  0.05967  1.0000
  H   H2500     1.0  0.38285  0.59721  0.08183  1.0000
  C   C1468     1.0  0.63450  0.95164  0.14498  1.0000
  C   C1469     1.0  0.56941  0.90709  0.05336  1.0000
  N   N106      1.0  0.54030  0.70162  0.05755  1.0000
  H   H2501     1.0  0.40427  0.77293  0.99569  1.0000
  H   H2502     1.0  0.54426  0.86299  0.17477  1.0000
  H   H2503     1.0  0.51309  0.58746  0.03273  1.0000
  C   C1470     1.0  0.64235  0.95658  0.16979  1.0000
  H   H2504     1.0  0.52346  0.68053  0.08906  1.0000
  C   C1471     1.0  0.43662  0.71654  0.01886  1.0000
  C   C1472     1.0  0.63545  0.84662  0.03574  1.0000
  H   H2505     1.0  0.65847  0.97792  0.21273  1.0000
  S   S426      1.0  0.63727  0.84634  0.01390  1.0000
  C   C1473     1.0  0.59405  0.89013  0.18770  1.0000
  H   H2506     1.0  0.46234  0.94154  0.17586  1.0000
  C   C1474     1.0  0.65632  0.97471  0.22714  1.0000
  N   N107      1.0  0.58230  0.89267  0.04546  1.0000
  H   H2507     1.0  0.47904  0.56295  0.02020  1.0000
  C   C1475     1.0  0.55876  0.69937  0.05943  1.0000
  H   H2508     1.0  0.44905  0.96557  0.12710  1.0000
  H   H2509     1.0  0.56166  0.67402  0.07893  1.0000
  H   H2510     1.0  0.44204  0.70230  0.02277  1.0000
  H   H2511     1.0  0.51438  0.85496  0.13197  1.0000
  H   H2512     1.0  0.49562  0.96814  0.19796  1.0000
  Fe  Fe215     1.0  0.60112  0.68380  0.99130  1.0000
  H   H2513     1.0  0.44159  0.97001  0.16936  1.0000
  H   H2514     1.0  0.60255  0.95704  0.10892  1.0000
  N   N108      1.0  0.57616  0.89201  0.19944  1.0000
  C   C1476     1.0  0.56322  0.89377  0.18869  1.0000
  H   H2515     1.0  0.56247  0.90624  0.17870  1.0000
  H   H2516     1.0  0.61624  0.97506  0.07526  1.0000
  C   C1477     1.0  0.62792  0.83459  0.04942  1.0000
  H   H2517     1.0  0.62316  0.82485  0.04672  1.0000
  C   C1478     1.0  0.57929  0.85857  0.20905  1.0000
  C   C1479     1.0  0.45738  0.96794  0.18823  1.0000
  H   H2518     1.0  0.63588  0.93001  0.19857  1.0000
  C   C1480     1.0  0.56876  0.68075  0.06648  1.0000
  C   C1481     1.0  0.56524  0.84800  0.15881  1.0000
  H   H2519     1.0  0.44193  0.52346  0.02743  1.0000
  H   H2520     1.0  0.52477  0.89190  0.16411  1.0000
  H   H2521     1.0  0.45772  0.91413  0.17006  1.0000
  H   H2522     1.0  0.57450  0.85236  0.16341  1.0000
  N   N109      1.0  0.42556  0.73930  0.99253  1.0000
  H   H2523     1.0  0.35527  0.49559  0.99072  1.0000
  C   C1482     1.0  0.62637  0.83522  0.06673  1.0000
  H   H2524     1.0  0.62047  0.82590  0.07728  1.0000
  S   S427      1.0  0.65035  0.76352  0.00398  1.0000
  C   C1483     1.0  0.53407  0.82658  0.18034  1.0000
  H   H2525     1.0  0.47706  0.87210  0.20999  1.0000
  H   H2526     1.0  0.55923  0.70780  0.06774  1.0000
  S   S428      1.0  0.62322  0.93908  0.07371  1.0000
  C   C1484     1.0  0.62783  0.96820  0.08029  1.0000
  C   C1485     1.0  0.63108  0.85817  0.18632  1.0000
  S   S429      1.0  0.36042  0.53587  0.01950  1.0000
  H   H2527     1.0  0.58891  0.91218  0.02186  1.0000
  S   S430      1.0  0.52933  0.79070  0.98860  1.0000
  C   C1486     1.0  0.52403  0.84321  0.13666  1.0000
  C   C1487     1.0  0.46216  0.55890  0.00615  1.0000
  N   N110      1.0  0.36108  0.57682  0.08116  1.0000
  H   H2528     1.0  0.62858  0.96299  0.17474  1.0000
  C   C1488     1.0  0.48882  0.93395  0.16327  1.0000
  C   C1489     1.0  0.57583  0.60497  0.02294  1.0000
  H   H2529     1.0  0.58128  0.68149  0.06870  1.0000
  H   H2530     1.0  0.51735  0.69514  0.03876  1.0000
  H   H2531     1.0  0.56849  0.92011  0.19657  1.0000
  C   C1490     1.0  0.48808  0.95814  0.20552  1.0000
  C   C1491     1.0  0.57851  0.74525  0.00616  1.0000
  H   H2532     1.0  0.57399  0.73545  0.00261  1.0000
  H   H2533     1.0  0.54979  0.87342  0.15247  1.0000
  H   H2534     1.0  0.34553  0.59326  0.09890  1.0000
  H   H2535     1.0  0.54709  0.63001  0.00219  1.0000
  H   H2536     1.0  0.59346  0.97084  0.12443  1.0000
  S   S431      1.0  0.62793  0.85435  0.22122  1.0000
  S   S432      1.0  0.61337  0.91453  0.12022  1.0000
  Fe  Fe216     1.0  0.62290  0.91315  0.09227  1.0000
  C   C1492     1.0  0.63589  0.97703  0.08704  1.0000
  C   C1493     1.0  0.63183  0.84821  0.07049  1.0000
  Fe  Fe217     1.0  0.39460  0.55052  0.03348  1.0000
  H   H2537     1.0  0.50303  0.89636  0.16129  1.0000
  H   H2538     1.0  0.45288  0.55890  0.01889  1.0000
  H   H2539     1.0  0.45727  0.53116  0.03402  1.0000
  C   C1494     1.0  0.54738  0.86086  0.16131  1.0000
  C   C1495     1.0  0.63433  0.95040  0.08071  1.0000
  C   C1496     1.0  0.53829  0.84792  0.14223  1.0000
  H   H2540     1.0  0.52496  0.81797  0.18779  1.0000
  H   H2541     1.0  0.33054  0.56544  0.02385  1.0000
  H   H2542     1.0  0.52346  0.71908  0.04037  1.0000
  Fe  Fe218     1.0  0.49488  0.62484  0.98903  1.0000
  S   S433      1.0  0.33071  0.55176  0.06005  1.0000
  H   H2543     1.0  0.51952  0.67304  0.05034  1.0000
  C   C1497     1.0  0.38965  0.55560  0.08800  1.0000
  H   H2544     1.0  0.55661  0.59009  0.03630  1.0000
  H   H2545     1.0  0.38027  0.56132  0.06437  1.0000
  S   S434      1.0  0.50448  0.64476  0.99542  1.0000
  H   H2546     1.0  0.55262  0.73325  0.04498  1.0000
  H   H2547     1.0  0.57667  0.61863  0.01631  1.0000
  S   S435      1.0  0.62445  0.68665  0.99806  1.0000
  H   H2548     1.0  0.35386  0.55385  0.07977  1.0000
  S   S436      1.0  0.65681  0.64351  0.99656  1.0000
  H   H2549     1.0  0.52599  0.97977  0.22133  1.0000
  Fe  Fe219     1.0  0.62538  0.87416  0.10027  1.0000
  S   S437      1.0  0.65078  0.89058  0.14250  1.0000
  H   H2550     1.0  0.61279  0.90722  0.03345  1.0000
  H   H2551     1.0  0.57079  0.84807  0.14479  1.0000
  H   H2552     1.0  0.48555  0.92816  0.15417  1.0000
  H   H2553     1.0  0.49729  0.94020  0.18870  1.0000
  H   H2554     1.0  0.37533  0.59336  0.04462  1.0000
  H   H2555     1.0  0.56769  0.93913  0.12530  1.0000
  S   S438      1.0  0.61622  0.87247  0.12916  1.0000
  H   H2556     1.0  0.52936  0.73999  0.05282  1.0000
  H   H2557     1.0  0.48118  0.85117  0.19176  1.0000
  C   C1498     1.0  0.46723  0.89457  0.19126  1.0000
  H   H2558     1.0  0.53667  0.97034  0.13150  1.0000
  H   H2559     1.0  0.54457  0.85674  0.13071  1.0000
  H   H2560     1.0  0.41681  0.91209  0.22454  1.0000
  C   C1499     1.0  0.55127  0.91253  0.04878  1.0000
  H   H2561     1.0  0.54177  0.94982  0.14627  1.0000
  H   H2562     1.0  0.45092  0.95795  0.19814  1.0000
  H   H2563     1.0  0.45836  0.57245  0.99865  1.0000
  S   S439      1.0  0.38013  0.53046  0.05137  1.0000
  H   H2564     1.0  0.39988  0.58717  0.01650  1.0000
  C   C1500     1.0  0.57663  0.87598  0.21415  1.0000
  H   H2565     1.0  0.55977  0.94792  0.07819  1.0000
  H   H2566     1.0  0.59623  0.85788  0.03918  1.0000
  C   C1501     1.0  0.57421  0.87702  0.05088  1.0000
  C   C1502     1.0  0.55775  0.95046  0.12025  1.0000
  H   H2567     1.0  0.59226  0.85489  0.20072  1.0000
  H   H2568     1.0  0.58832  0.94121  0.09883  1.0000
  H   H2569     1.0  0.51584  0.70459  0.98799  1.0000
  H   H2570     1.0  0.39528  0.88024  0.23187  1.0000
  H   H2571     1.0  0.61108  0.75778  0.99354  1.0000
  C   C1503     1.0  0.35926  0.58622  0.09516  1.0000
  H   H2572     1.0  0.54212  0.82697  0.18908  1.0000
  H   H2573     1.0  0.42594  0.71172  0.99987  1.0000
  C   C1504     1.0  0.52682  0.58770  0.03167  1.0000
  H   H2574     1.0  0.35586  0.60962  0.04308  1.0000
  H   H2575     1.0  0.65435  0.92783  0.08772  1.0000
  C   C1505     1.0  0.65232  0.88198  0.17670  1.0000
  N   N111      1.0  0.55124  0.60194  0.01042  1.0000
  S   S440      1.0  0.62882  0.84895  0.09238  1.0000
  C   C1506     1.0  0.41962  0.90279  0.21606  1.0000
  C   C1507     1.0  0.47610  0.86491  0.18703  1.0000
  N   N112      1.0  0.53231  0.85624  0.15773  1.0000
  H   H2576     1.0  0.52384  0.88038  0.13975  1.0000
  H   H2577     1.0  0.50682  0.87015  0.15262  1.0000
  H   H2578     1.0  0.61431  0.96992  0.22710  1.0000
  H   H2579     1.0  0.53805  0.88836  0.19123  1.0000
  H   H2580     1.0  0.55185  0.91907  0.03485  1.0000
  H   H2581     1.0  0.57895  0.84891  0.05408  1.0000
  C   C1508     1.0  0.48459  0.94828  0.19378  1.0000
  C   C1509     1.0  0.58593  0.89901  0.02593  1.0000
  H   H2582     1.0  0.40699  0.74265  0.01685  1.0000
  S   S441      1.0  0.47688  0.85634  0.15676  1.0000
  C   C1510     1.0  0.51401  0.88571  0.16528  1.0000
  C   C1511     1.0  0.56990  0.93977  0.08550  1.0000
  H   H2583     1.0  0.59061  0.73897  0.01101  1.0000
  C   C1512     1.0  0.57599  0.97253  0.10796  1.0000
  C   C1513     1.0  0.45590  0.52283  0.02615  1.0000
  H   H2584     1.0  0.65423  0.80781  0.02706  1.0000
  H   H2585     1.0  0.58691  0.95113  0.12851  1.0000
  H   H2586     1.0  0.56526  0.87831  0.04233  1.0000
  S   S442      1.0  0.39267  0.49050  0.03029  1.0000
  H   H2587     1.0  0.63138  0.86338  0.15894  1.0000
  H   H2588     1.0  0.62314  0.84869  0.19000  1.0000
  C   C1514     1.0  0.44371  0.84609  0.23229  1.0000
  H   H2589     1.0  0.50066  0.93878  0.15628  1.0000
  C   C1515     1.0  0.54427  0.89361  0.19846  1.0000
  H   H2590     1.0  0.51731  0.83399  0.14723  1.0000
  H   H2591     1.0  0.58155  0.77174  0.99642  1.0000
  H   H2592     1.0  0.53010  0.83675  0.12553  1.0000
  H   H2593     1.0  0.47588  0.96422  0.21363  1.0000
  C   C1516     1.0  0.58659  0.85889  0.05149  1.0000
  H   H2594     1.0  0.59481  0.87718  0.01263  1.0000
  H   H2595     1.0  0.50558  0.96594  0.14686  1.0000
  C   C1517     1.0  0.63965  0.86010  0.05683  1.0000
  H   H2596     1.0  0.40744  0.90201  0.21327  1.0000
  C   C1518     1.0  0.51913  0.87295  0.15306  1.0000
  H   H2597     1.0  0.50941  0.87954  0.17907  1.0000
  H   H2598     1.0  0.36180  0.57686  0.10753  1.0000
  H   H2599     1.0  0.47700  0.93863  0.20246  1.0000
  H   H2600     1.0  0.54266  0.92207  0.05651  1.0000
  H   H2601     1.0  0.54487  0.90146  0.05214  1.0000
  C   C1519     1.0  0.63245  0.93933  0.13493  1.0000
  C   C1520     1.0  0.64159  0.85919  0.03947  1.0000
  N   N113      1.0  0.47532  0.95948  0.17946  1.0000
  H   H2602     1.0  0.59330  0.85526  0.06250  1.0000
  H   H2603     1.0  0.56604  0.87617  0.06426  1.0000
  C   C1521     1.0  0.65097  0.96832  0.09349  1.0000
  H   H2604     1.0  0.65804  0.78208  0.05181  1.0000
  H   H2605     1.0  0.43624  0.87819  0.21282  1.0000
  H   H2606     1.0  0.56461  0.57481  0.01521  1.0000
  H   H2607     1.0  0.56892  0.85864  0.20274  1.0000
  H   H2608     1.0  0.64165  0.96098  0.13524  1.0000
  H   H2609     1.0  0.40347  0.55147  0.08151  1.0000
  C   C1522     1.0  0.53203  0.60227  0.01600  1.0000
  S   S443      1.0  0.60732  0.93845  0.22435  1.0000
  H   H2610     1.0  0.55156  0.69912  0.99690  1.0000
  H   H2611     1.0  0.52649  0.60167  0.00536  1.0000
  C   C1523     1.0  0.58051  0.76118  0.99092  1.0000
  C   C1524     1.0  0.40733  0.74419  0.00292  1.0000
  C   C1525     1.0  0.43021  0.88480  0.22388  1.0000
  H   H2612     1.0  0.56786  0.76569  0.98677  1.0000
  H   H2613     1.0  0.46346  0.51836  0.00012  1.0000
  H   H2614     1.0  0.41928  0.56778  0.98695  1.0000
  H   H2615     1.0  0.58711  0.87453  0.22105  1.0000
  C   C1526     1.0  0.55395  0.61826  0.99677  1.0000
  C   C1527     1.0  0.65185  0.97127  0.15943  1.0000
  H   H2616     1.0  0.34020  0.50778  0.02946  1.0000
  H   H2617     1.0  0.43863  0.53907  0.99230  1.0000
  H   H2618     1.0  0.54741  0.56820  0.00138  1.0000
  H   H2619     1.0  0.64336  0.94766  0.22689  1.0000
  C   C1528     1.0  0.55721  0.98557  0.07724  1.0000
  C   C1529     1.0  0.55144  0.97435  0.09548  1.0000
  H   H2620     1.0  0.64821  0.95060  0.18141  1.0000
  H   H2621     1.0  0.65611  0.72743  0.00286  1.0000
  H   H2622     1.0  0.56390  0.89998  0.23487  1.0000
  H   H2623     1.0  0.55410  0.97994  0.20938  1.0000
  H   H2624     1.0  0.48270  0.98409  0.17503  1.0000
  H   H2625     1.0  0.32601  0.55617  0.10026  1.0000
  H   H2626     1.0  0.45043  0.74630  0.98588  1.0000
  H   H2627     1.0  0.65390  0.77611  0.03434  1.0000
  C   C1530     1.0  0.55896  0.90930  0.22358  1.0000
  H   H2628     1.0  0.65780  0.98615  0.23080  1.0000
  H   H2629     1.0  0.34413  0.50413  0.05064  1.0000
  H   H2630     1.0  0.54339  0.98368  0.10371  1.0000
  H   H2631     1.0  0.64271  0.97350  0.23291  1.0000
  H   H2632     1.0  0.61442  0.73741  0.98834  1.0000
  H   H2633     1.0  0.55645  0.92250  0.22608  1.0000
  H   H2634     1.0  0.46627  0.98576  0.12717  1.0000
  H   H2635     1.0  0.44121  0.88719  0.22772  1.0000
  C   C1531     1.0  0.40673  0.86904  0.23267  1.0000
  H   H2636     1.0  0.32736  0.49223  0.01964  1.0000
  H   H2637     1.0  0.57207  0.98462  0.21347  1.0000
  H   H2638     1.0  0.54474  0.58870  0.98555  1.0000
  C   C1532     1.0  0.65207  0.93803  0.23520  1.0000
  C   C1533     1.0  0.40077  0.87457  0.26971  1.0000
  Fe  Fe220     1.0  0.49809  0.88229  0.25147  1.0000
  H   H2639     1.0  0.61819  0.93998  0.32324  1.0000
  S   S444      1.0  0.52632  0.86827  0.24754  1.0000
  Fe  Fe221     1.0  0.46056  0.87892  0.26738  1.0000
  S   S445      1.0  0.44981  0.90598  0.25365  1.0000
  S   S446      1.0  0.44140  0.86297  0.28449  1.0000
  C   C1534     1.0  0.34522  0.94378  0.42987  1.0000
  C   C1535     1.0  0.38408  0.97197  0.32274  1.0000
  Fe  Fe222     1.0  0.47050  0.91296  0.26150  1.0000
  S   S447      1.0  0.46227  0.93550  0.27427  1.0000
  S   S448      1.0  0.47953  0.87204  0.24340  1.0000
  S   S449      1.0  0.48003  0.88624  0.27689  1.0000
  Fe  Fe223     1.0  0.36336  0.89527  0.35598  1.0000
  S   S450      1.0  0.34385  0.90229  0.33910  1.0000
  S   S451      1.0  0.39130  0.89782  0.34557  1.0000
  H   H2640     1.0  0.54474  0.95479  0.30690  1.0000
  Fe  Fe224     1.0  0.62556  0.87243  0.23830  1.0000
  H   H2641     1.0  0.38325  0.93294  0.46142  1.0000
  H   H2642     1.0  0.62983  0.93498  0.25648  1.0000
  Fe  Fe225     1.0  0.63946  0.88571  0.26173  1.0000
  C   C1536     1.0  0.51693  0.96392  0.33005  1.0000
  H   H2643     1.0  0.52936  0.85638  0.34476  1.0000
  S   S452      1.0  0.35189  0.87381  0.37559  1.0000
  S   S453      1.0  0.34847  0.91497  0.37193  1.0000
  H   H2644     1.0  0.55744  0.98300  0.27840  1.0000
  C   C1537     1.0  0.39981  0.85260  0.24340  1.0000
  C   C1538     1.0  0.59705  0.96174  0.27064  1.0000
  H   H2645     1.0  0.34650  0.98288  0.43699  1.0000
  H   H2646     1.0  0.38828  0.94816  0.38006  1.0000
  H   H2647     1.0  0.64996  0.92648  0.26314  1.0000
  C   C1539     1.0  0.55350  0.95887  0.31247  1.0000
  Fe  Fe226     1.0  0.33508  0.89443  0.38979  1.0000
  C   C1540     1.0  0.63748  0.90880  0.34063  1.0000
  H   H2648     1.0  0.35800  0.95444  0.34602  1.0000
  C   C1541     1.0  0.36942  0.89602  0.43098  1.0000
  H   H2649     1.0  0.64777  0.95993  0.41625  1.0000
  S   S454      1.0  0.59981  0.89122  0.24178  1.0000
  C   C1542     1.0  0.55770  0.98107  0.32469  1.0000
  H   H2650     1.0  0.52718  0.85015  0.29961  1.0000
  H   H2651     1.0  0.55975  0.97234  0.33747  1.0000
  N   N114      1.0  0.64650  0.93433  0.31575  1.0000
  H   H2652     1.0  0.35700  0.83877  0.44451  1.0000
  H   H2653     1.0  0.50287  0.88492  0.34422  1.0000
  H   H2654     1.0  0.62327  0.91561  0.31265  1.0000
  H   H2655     1.0  0.45098  0.83362  0.23924  1.0000
  H   H2656     1.0  0.58511  0.93169  0.25790  1.0000
  C   C1543     1.0  0.42710  0.87293  0.30114  1.0000
  C   C1544     1.0  0.43033  0.88725  0.30474  1.0000
  C   C1545     1.0  0.41919  0.89479  0.31835  1.0000
  C   C1546     1.0  0.40445  0.88841  0.32814  1.0000
  C   C1547     1.0  0.40094  0.87436  0.32428  1.0000
  C   C1548     1.0  0.41240  0.86648  0.31097  1.0000
  H   H2657     1.0  0.44158  0.89237  0.29723  1.0000
  H   H2658     1.0  0.42202  0.90559  0.32130  1.0000
  H   H2659     1.0  0.38967  0.86929  0.33187  1.0000
  H   H2660     1.0  0.40987  0.85533  0.30834  1.0000
  C   C1549     1.0  0.47965  0.94201  0.27704  1.0000
  C   C1550     1.0  0.49679  0.93612  0.26847  1.0000
  C   C1551     1.0  0.51024  0.94282  0.26982  1.0000
  C   C1552     1.0  0.50645  0.95521  0.27986  1.0000
  C   C1553     1.0  0.48955  0.96004  0.28934  1.0000
  C   C1554     1.0  0.47613  0.95368  0.28773  1.0000
  H   H2661     1.0  0.49955  0.92697  0.26032  1.0000
  H   H2662     1.0  0.52333  0.93900  0.26254  1.0000
  H   H2663     1.0  0.48661  0.96924  0.29749  1.0000
  H   H2664     1.0  0.46295  0.95810  0.29452  1.0000
  H   H2665     1.0  0.50341  0.84955  0.32659  1.0000
  C   C1555     1.0  0.38593  0.94578  0.45404  1.0000
  C   C1556     1.0  0.60674  0.96436  0.23942  1.0000
  H   H2666     1.0  0.42785  0.84893  0.25743  1.0000
  N   N115      1.0  0.50677  0.87617  0.32039  1.0000
  H   H2667     1.0  0.64840  0.96329  0.39350  1.0000
  H   H2668     1.0  0.56486  0.96040  0.30164  1.0000
  C   C1557     1.0  0.50401  0.90960  0.31068  1.0000
  H   H2669     1.0  0.34788  0.94647  0.47932  1.0000
  C   C1558     1.0  0.56680  0.86575  0.26791  1.0000
  C   C1559     1.0  0.55594  0.86224  0.25939  1.0000
  C   C1560     1.0  0.53973  0.87344  0.25789  1.0000
  C   C1561     1.0  0.53452  0.88842  0.26466  1.0000
  C   C1562     1.0  0.54530  0.89180  0.27347  1.0000
  H   H2670     1.0  0.56007  0.85069  0.25410  1.0000
  H   H2671     1.0  0.52219  0.89733  0.26318  1.0000
  H   H2672     1.0  0.61133  0.98057  0.25351  1.0000
  H   H2673     1.0  0.37499  0.92991  0.32129  1.0000
  H   H2674     1.0  0.61291  0.96475  0.33545  1.0000
  H   H2675     1.0  0.51258  0.86689  0.28746  1.0000
  H   H2676     1.0  0.36637  0.96420  0.46700  1.0000
  H   H2677     1.0  0.54125  0.90331  0.27880  1.0000
  H   H2678     1.0  0.40501  0.84192  0.23625  1.0000
  H   H2679     1.0  0.64143  0.90017  0.35274  1.0000
  H   H2680     1.0  0.41986  0.96032  0.31784  1.0000
  H   H2681     1.0  0.49944  0.86392  0.34770  1.0000
  S   S455      1.0  0.59795  0.96679  0.28965  1.0000
  H   H2682     1.0  0.53328  0.87317  0.30538  1.0000
  C   C1563     1.0  0.62908  0.94670  0.31943  1.0000
  H   H2683     1.0  0.57210  0.94545  0.32948  1.0000
  H   H2684     1.0  0.65162  0.92674  0.34169  1.0000
  C   C1564     1.0  0.33565  0.97049  0.38040  1.0000
  H   H2685     1.0  0.47427  0.89850  0.33554  1.0000
  S   S456      1.0  0.32627  0.89156  0.41891  1.0000
  Fe  Fe227     1.0  0.32807  0.92064  0.35639  1.0000
  H   H2686     1.0  0.65759  0.91381  0.30154  1.0000
  C   C1565     1.0  0.47755  0.88437  0.34160  1.0000
  S   S457      1.0  0.61451  0.90509  0.26763  1.0000
  S   S458      1.0  0.34982  0.97449  0.39060  1.0000
  H   H2687     1.0  0.62181  0.93370  0.29423  1.0000
  C   C1566     1.0  0.33302  0.98229  0.46377  1.0000
  H   H2688     1.0  0.36940  0.93655  0.43723  1.0000
  H   H2689     1.0  0.62405  0.91631  0.34447  1.0000
  C   C1567     1.0  0.64739  0.92606  0.30113  1.0000
  H   H2690     1.0  0.43012  0.93783  0.32345  1.0000
  H   H2691     1.0  0.56290  0.97221  0.24573  1.0000
  H   H2692     1.0  0.53215  0.84438  0.32832  1.0000
  C   C1568     1.0  0.34625  0.84812  0.45095  1.0000
  H   H2693     1.0  0.50818  0.89212  0.29422  1.0000
  H   H2694     1.0  0.33993  0.93321  0.43976  1.0000
  C   C1569     1.0  0.59057  0.94260  0.25684  1.0000
  H   H2695     1.0  0.58307  0.94149  0.28430  1.0000
  C   C1570     1.0  0.65428  0.95467  0.40441  1.0000
  H   H2696     1.0  0.35238  0.85525  0.45635  1.0000
  H   H2697     1.0  0.40277  0.92949  0.33956  1.0000
  H   H2698     1.0  0.52922  0.88398  0.32227  1.0000
  H   H2699     1.0  0.38875  0.87312  0.26712  1.0000
  H   H2700     1.0  0.64709  0.86908  0.30063  1.0000
  S   S459      1.0  0.57447  0.88383  0.28714  1.0000
  H   H2701     1.0  0.38291  0.89581  0.42474  1.0000
  H   H2702     1.0  0.47190  0.88293  0.35578  1.0000
  C   C1571     1.0  0.37037  0.94692  0.33935  1.0000
  H   H2703     1.0  0.42090  0.94960  0.34033  1.0000
  C   C1572     1.0  0.60519  0.97026  0.25437  1.0000
  C   C1573     1.0  0.56136  0.88031  0.27530  1.0000
  H   H2704     1.0  0.35531  0.93015  0.46728  1.0000
  H   H2705     1.0  0.35573  0.97956  0.32377  1.0000
  H   H2706     1.0  0.57925  0.85693  0.26914  1.0000
  C   C1574     1.0  0.53424  0.85616  0.33076  1.0000
  C   C1575     1.0  0.43357  0.85756  0.24547  1.0000
  C   C1576     1.0  0.49741  0.87710  0.33886  1.0000
  C   C1577     1.0  0.56034  0.94358  0.32671  1.0000
  C   C1578     1.0  0.36929  0.96048  0.45425  1.0000
  H   H2707     1.0  0.33255  0.94665  0.39935  1.0000
  C   C1579     1.0  0.35797  0.89485  0.42155  1.0000
  H   H2708     1.0  0.39534  0.96680  0.35141  1.0000
  H   H2709     1.0  0.65137  0.93473  0.28827  1.0000
  H   H2710     1.0  0.54854  0.85497  0.32787  1.0000
  H   H2711     1.0  0.53239  0.96808  0.34518  1.0000
  H   H2712     1.0  0.55043  0.94165  0.33894  1.0000
  C   C1580     1.0  0.65788  0.87277  0.30273  1.0000
  H   H2713     1.0  0.35326  0.94338  0.32509  1.0000
  H   H2714     1.0  0.37037  0.95274  0.31101  1.0000
  H   H2715     1.0  0.36518  0.95809  0.42400  1.0000
  S   S460      1.0  0.52180  0.96672  0.27887  1.0000
  H   H2716     1.0  0.40797  0.86189  0.27621  1.0000
  H   H2717     1.0  0.63401  0.91256  0.29136  1.0000
  H   H2718     1.0  0.56430  0.93138  0.32185  1.0000
  H   H2719     1.0  0.51598  0.91314  0.30167  1.0000
  C   C1581     1.0  0.40193  0.94251  0.33045  1.0000
  S   S461      1.0  0.37830  0.89798  0.46020  1.0000
  H   H2720     1.0  0.62687  0.95672  0.30733  1.0000
  H   H2721     1.0  0.33097  0.86923  0.47446  1.0000
  C   C1582     1.0  0.35923  0.94883  0.43540  1.0000
  H   H2722     1.0  0.48855  0.86499  0.31467  1.0000
  C   C1583     1.0  0.50236  0.86150  0.31593  1.0000
  H   H2723     1.0  0.40095  0.93414  0.36578  1.0000
  C   C1584     1.0  0.34611  0.89740  0.45643  1.0000
  H   H2724     1.0  0.50819  0.84584  0.29672  1.0000
  H   H2725     1.0  0.39654  0.88302  0.27926  1.0000
  C   C1585     1.0  0.50112  0.89291  0.30772  1.0000
  C   C1586     1.0  0.51335  0.85597  0.29898  1.0000
  H   H2726     1.0  0.54491  0.96652  0.24155  1.0000
  S   S462      1.0  0.49019  0.90984  0.23681  1.0000
  Fe  Fe228     1.0  0.60103  0.88412  0.26987  1.0000
  N   N116      1.0  0.38545  0.95516  0.33642  1.0000
  C   C1587     1.0  0.36357  0.89705  0.44853  1.0000
  H   H2727     1.0  0.37755  0.93641  0.37283  1.0000
  H   H2728     1.0  0.37282  0.96774  0.35797  1.0000
  H   H2729     1.0  0.47109  0.87723  0.33656  1.0000
  C   C1588     1.0  0.65044  0.92060  0.33171  1.0000
  C   C1589     1.0  0.38545  0.95919  0.35329  1.0000
  H   H2730     1.0  0.32940  0.97230  0.44380  1.0000
  S   S463      1.0  0.62603  0.86360  0.26686  1.0000
  H   H2731     1.0  0.34166  0.82729  0.47340  1.0000
  H   H2732     1.0  0.48725  0.89515  0.30708  1.0000
  C   C1590     1.0  0.63059  0.92177  0.30006  1.0000
  H   H2733     1.0  0.34147  0.89815  0.46990  1.0000
  C   C1591     1.0  0.33460  0.89660  0.44693  1.0000
  H   H2734     1.0  0.49277  0.92058  0.30813  1.0000
  H   H2735     1.0  0.44625  0.98055  0.26330  1.0000
  C   C1592     1.0  0.33368  0.83791  0.46504  1.0000
  H   H2736     1.0  0.36269  0.89358  0.40816  1.0000
  C   C1593     1.0  0.52605  0.87311  0.31901  1.0000
  N   N117      1.0  0.35357  0.95635  0.45140  1.0000
  C   C1594     1.0  0.41902  0.94814  0.32797  1.0000
  H   H2737     1.0  0.40189  0.94001  0.31778  1.0000
  H   H2738     1.0  0.50508  0.90861  0.32409  1.0000
  H   H2739     1.0  0.42852  0.98705  0.28013  1.0000
  Fe  Fe229     1.0  0.61477  0.91082  0.23915  1.0000
  C   C1595     1.0  0.36730  0.94303  0.32318  1.0000
  C   C1596     1.0  0.38829  0.94338  0.36865  1.0000
  C   C1597     1.0  0.58926  0.94828  0.27179  1.0000
  H   H2740     1.0  0.37235  0.93410  0.34864  1.0000
  C   C1598     1.0  0.34057  0.89489  0.42962  1.0000
  C   C1599     1.0  0.62634  0.95653  0.33382  1.0000
  H   H2741     1.0  0.63789  0.90005  0.33236  1.0000
  H   H2742     1.0  0.39272  0.94487  0.44047  1.0000
  H   H2743     1.0  0.57083  0.97933  0.31603  1.0000
  H   H2744     1.0  0.62759  0.94753  0.34659  1.0000
  H   H2745     1.0  0.64101  0.94984  0.25824  1.0000
  H   H2746     1.0  0.65085  0.94187  0.40696  1.0000
  C   C1600     1.0  0.41202  0.88350  0.25308  1.0000
  H   H2747     1.0  0.38751  0.96950  0.30941  1.0000
  H   H2748     1.0  0.40319  0.89597  0.24828  1.0000
  H   H2749     1.0  0.34313  0.98611  0.46756  1.0000
  H   H2750     1.0  0.50417  0.96649  0.33919  1.0000
  H   H2751     1.0  0.39507  0.94873  0.46004  1.0000
  C   C1601     1.0  0.34687  0.94340  0.46729  1.0000
  H   H2752     1.0  0.33980  0.85724  0.44054  1.0000
  C   C1602     1.0  0.64291  0.93743  0.25440  1.0000
  H   H2753     1.0  0.52242  0.94968  0.33321  1.0000
  H   H2754     1.0  0.32868  0.83113  0.45811  1.0000
  H   H2755     1.0  0.35152  0.93838  0.41808  1.0000
  H   H2756     1.0  0.37296  0.97202  0.44423  1.0000
  H   H2757     1.0  0.63518  0.96555  0.33029  1.0000
  Fe  Fe230     1.0  0.33109  0.88232  0.35985  1.0000
  H   H2758     1.0  0.65429  0.85982  0.32995  1.0000
  H   H2759     1.0  0.32627  0.97402  0.47535  1.0000
  H   H2760     1.0  0.39377  0.97915  0.32266  1.0000
  C   C1603     1.0  0.34054  0.97343  0.44814  1.0000
  C   C1604     1.0  0.60014  0.94996  0.24087  1.0000
  C   C1605     1.0  0.52894  0.97430  0.33224  1.0000
  H   H2761     1.0  0.40230  0.84759  0.25670  1.0000
  H   H2762     1.0  0.65688  0.95651  0.29925  1.0000
  C   C1606     1.0  0.36627  0.98495  0.32479  1.0000
  H   H2763     1.0  0.51443  0.96756  0.31674  1.0000
  N   N118      1.0  0.54499  0.97588  0.31797  1.0000
  H   H2764     1.0  0.44343  0.86158  0.24957  1.0000
  H   H2765     1.0  0.42217  0.88709  0.25716  1.0000
  C   C1607     1.0  0.32979  0.95504  0.38719  1.0000
  H   H2766     1.0  0.53013  0.98552  0.29784  1.0000
  N   N119      1.0  0.42031  0.87340  0.23896  1.0000
  C   C1608     1.0  0.32782  0.94185  0.47016  1.0000
  H   H2767     1.0  0.32753  0.92810  0.47151  1.0000
  H   H2768     1.0  0.33464  0.95505  0.42627  1.0000
  H   H2769     1.0  0.38546  0.85561  0.24483  1.0000
  C   C1609     1.0  0.33164  0.98137  0.36475  1.0000
  C   C1610     1.0  0.55798  0.96934  0.23575  1.0000
  Fe  Fe231     1.0  0.42458  0.89922  0.61738  1.0000
  S   S464      1.0  0.44727  0.90922  0.59879  1.0000
  S   S465      1.0  0.40442  0.88995  0.61034  1.0000
  Fe  Fe232     1.0  0.43104  0.90889  0.64843  1.0000
  S   S466      1.0  0.45366  0.92014  0.63209  1.0000
  C   C1611     1.0  0.51750  0.95302  0.61858  1.0000
  Fe  Fe233     1.0  0.43714  0.93169  0.61207  1.0000
  S   S467      1.0  0.43296  0.95983  0.59827  1.0000
  Fe  Fe234     1.0  0.46144  0.89652  0.62088  1.0000
  S   S468      1.0  0.48848  0.88033  0.62224  1.0000
  S   S469      1.0  0.41375  0.92252  0.62936  1.0000
  S   S470      1.0  0.43955  0.88446  0.63836  1.0000
  Fe  Fe235     1.0  0.56356  0.92278  0.61482  1.0000
  S   S471      1.0  0.55574  0.91840  0.64398  1.0000
  S   S472      1.0  0.54779  0.92279  0.59619  1.0000
  Fe  Fe236     1.0  0.59713  0.93263  0.61286  1.0000
  S   S473      1.0  0.59232  0.92952  0.64172  1.0000
  S   S474      1.0  0.62043  0.94217  0.59484  1.0000
  Fe  Fe237     1.0  0.58389  0.90542  0.64345  1.0000
  S   S475      1.0  0.59305  0.88090  0.66242  1.0000
  Fe  Fe238     1.0  0.56476  0.94281  0.64016  1.0000
  H   H2770     1.0  0.51490  0.94294  0.61375  1.0000
  S   S476      1.0  0.59094  0.90723  0.61456  1.0000
  S   S477      1.0  0.57018  0.94851  0.61111  1.0000
  H   H2771     1.0  0.52684  0.96347  0.59097  1.0000
  H   H2772     1.0  0.64265  0.91447  0.64017  1.0000
  C   C1612     1.0  0.34933  0.86687  0.57990  1.0000
  H   H2773     1.0  0.48822  0.92624  0.64791  1.0000
  Fe  Fe239     1.0  0.38199  0.89757  0.52119  1.0000
  S   S478      1.0  0.37572  0.91873  0.49806  1.0000
  S   S479      1.0  0.40612  0.89427  0.53130  1.0000
  S   S480      1.0  0.42231  0.90869  0.67716  1.0000
  C   C1613     1.0  0.49257  0.96122  0.72599  1.0000
  H   H2774     1.0  0.65545  0.94849  0.67536  1.0000
  H   H2775     1.0  0.42499  0.96929  0.56358  1.0000
  Fe  Fe240     1.0  0.34835  0.92216  0.51356  1.0000
  S   S481      1.0  0.37800  0.87715  0.51021  1.0000
  N   N120      1.0  0.64345  0.93330  0.66617  1.0000
  H   H2776     1.0  0.56023  0.86151  0.67612  1.0000
  H   H2777     1.0  0.36669  0.93822  0.52304  1.0000
  H   H2778     1.0  0.38404  0.95347  0.53114  1.0000
  C   C1614     1.0  0.53247  0.86671  0.71103  1.0000
  C   C1615     1.0  0.58971  0.94373  0.56708  1.0000
  H   H2779     1.0  0.64253  0.90648  0.67924  1.0000
  H   H2780     1.0  0.34716  0.96283  0.56823  1.0000
  H   H2781     1.0  0.47581  0.96032  0.64320  1.0000
  C   C1616     1.0  0.64588  0.94413  0.64777  1.0000
  H   H2782     1.0  0.64290  0.97082  0.63236  1.0000
  S   S482      1.0  0.34083  0.90376  0.50270  1.0000
  H   H2783     1.0  0.52632  0.95397  0.72850  1.0000
  H   H2784     1.0  0.59527  0.95497  0.56596  1.0000
  C   C1617     1.0  0.63246  0.92997  0.57922  1.0000
  H   H2785     1.0  0.34960  0.96939  0.59285  1.0000
  C   C1618     1.0  0.36363  0.96919  0.59019  1.0000
  H   H2786     1.0  0.54375  0.94864  0.70029  1.0000
  H   H2787     1.0  0.64167  0.88932  0.57154  1.0000
  C   C1619     1.0  0.63279  0.91225  0.58224  1.0000
  H   H2788     1.0  0.36304  0.96890  0.61742  1.0000
  H   H2789     1.0  0.53634  0.85601  0.70406  1.0000
  S   S483      1.0  0.63013  0.88992  0.71663  1.0000
  H   H2790     1.0  0.62619  0.90569  0.59463  1.0000
  C   C1620     1.0  0.60248  0.88387  0.67794  1.0000
  C   C1621     1.0  0.59640  0.89877  0.68497  1.0000
  C   C1622     1.0  0.60417  0.90052  0.69759  1.0000
  C   C1623     1.0  0.61837  0.88762  0.70269  1.0000
  C   C1624     1.0  0.62424  0.87276  0.69571  1.0000
  C   C1625     1.0  0.61614  0.87075  0.68365  1.0000
  H   H2791     1.0  0.58565  0.90886  0.68080  1.0000
  H   H2792     1.0  0.59946  0.91196  0.70308  1.0000
  H   H2793     1.0  0.63517  0.86275  0.69961  1.0000
  H   H2794     1.0  0.62080  0.85916  0.67840  1.0000
  C   C1626     1.0  0.40486  0.89267  0.58808  1.0000
  C   C1627     1.0  0.38930  0.89504  0.58280  1.0000
  C   C1628     1.0  0.38936  0.89649  0.56525  1.0000
  C   C1629     1.0  0.40509  0.89490  0.55297  1.0000
  C   C1630     1.0  0.42059  0.89285  0.55823  1.0000
  C   C1631     1.0  0.42048  0.89191  0.57568  1.0000
  H   H2795     1.0  0.37715  0.89579  0.59232  1.0000
  H   H2796     1.0  0.37730  0.89842  0.56133  1.0000
  H   H2797     1.0  0.43281  0.89167  0.54881  1.0000
  H   H2798     1.0  0.43255  0.89002  0.57962  1.0000
  C   C1632     1.0  0.50463  0.89250  0.61556  1.0000
  C   C1633     1.0  0.50292  0.90806  0.60289  1.0000
  C   C1634     1.0  0.51639  0.91709  0.59687  1.0000
  C   C1635     1.0  0.53129  0.91101  0.60401  1.0000
  C   C1636     1.0  0.53280  0.89573  0.61709  1.0000
  C   C1637     1.0  0.51960  0.88634  0.62265  1.0000
  H   H2799     1.0  0.49145  0.91285  0.59734  1.0000
  H   H2800     1.0  0.51516  0.92891  0.58676  1.0000
  H   H2801     1.0  0.54429  0.89094  0.62261  1.0000
  H   H2802     1.0  0.52096  0.87428  0.63243  1.0000
  H   H2803     1.0  0.47617  0.83023  0.68141  1.0000
  H   H2804     1.0  0.42776  0.95055  0.63566  1.0000
  H   H2805     1.0  0.61153  0.94963  0.65561  1.0000
  C   C1638     1.0  0.43145  0.96294  0.63100  1.0000
  H   H2806     1.0  0.48683  0.94118  0.71728  1.0000
  H   H2807     1.0  0.56697  0.93044  0.55833  1.0000
  H   H2808     1.0  0.57607  0.93450  0.53573  1.0000
  C   C1639     1.0  0.49736  0.97672  0.65632  1.0000
  H   H2809     1.0  0.59882  0.97525  0.70186  1.0000
  C   C1640     1.0  0.39357  0.95317  0.58339  1.0000
  H   H2810     1.0  0.56184  0.90252  0.71050  1.0000
  H   H2811     1.0  0.35093  0.87259  0.56576  1.0000
  H   H2812     1.0  0.49742  0.95542  0.69949  1.0000
  C   C1641     1.0  0.60959  0.94414  0.66977  1.0000
  H   H2813     1.0  0.40438  0.95581  0.72825  1.0000
  H   H2814     1.0  0.63690  0.94282  0.64051  1.0000
  H   H2815     1.0  0.63886  0.89570  0.65683  1.0000
  N   N121      1.0  0.54554  0.87801  0.70535  1.0000
  H   H2816     1.0  0.46951  0.93938  0.68539  1.0000
  H   H2817     1.0  0.64903  0.97592  0.52041  1.0000
  H   H2818     1.0  0.48569  0.94013  0.62088  1.0000
  H   H2819     1.0  0.48320  0.97817  0.65784  1.0000
  C   C1642     1.0  0.50217  0.92500  0.64739  1.0000
  H   H2820     1.0  0.53213  0.97304  0.71381  1.0000
  C   C1643     1.0  0.65056  0.91128  0.55321  1.0000
  C   C1644     1.0  0.43925  0.90288  0.68846  1.0000
  H   H2821     1.0  0.52346  0.94254  0.70552  1.0000
  C   C1645     1.0  0.34460  0.95993  0.52148  1.0000
  H   H2822     1.0  0.34019  0.85806  0.58384  1.0000
  C   C1646     1.0  0.37311  0.93827  0.60619  1.0000
  N   N122      1.0  0.37907  0.84518  0.57404  1.0000
  C   C1647     1.0  0.36691  0.85744  0.58514  1.0000
  C   C1648     1.0  0.39438  0.83597  0.58255  1.0000
  S   S484      1.0  0.60876  0.93815  0.72224  1.0000
  C   C1649     1.0  0.38425  0.85548  0.55567  1.0000
  H   H2823     1.0  0.40893  0.95769  0.67730  1.0000
  C   C1650     1.0  0.40386  0.84800  0.58611  1.0000
  C   C1651     1.0  0.37933  0.81801  0.56370  1.0000
  C   C1652     1.0  0.40232  0.84843  0.54492  1.0000
  H   H2824     1.0  0.36400  0.85046  0.59906  1.0000
  H   H2825     1.0  0.37308  0.86796  0.58487  1.0000
  H   H2826     1.0  0.40431  0.82722  0.57474  1.0000
  H   H2827     1.0  0.39021  0.82720  0.59530  1.0000
  H   H2828     1.0  0.35163  0.92545  0.61086  1.0000
  H   H2829     1.0  0.41800  0.86630  0.70552  1.0000
  H   H2830     1.0  0.37447  0.85698  0.54794  1.0000
  H   H2831     1.0  0.38416  0.86906  0.55558  1.0000
  H   H2832     1.0  0.34325  0.94443  0.58606  1.0000
  C   C1653     1.0  0.61030  0.92175  0.51928  1.0000
  H   H2833     1.0  0.35119  0.94170  0.56423  1.0000
  H   H2834     1.0  0.41683  0.84047  0.58868  1.0000
  H   H2835     1.0  0.40589  0.85914  0.57497  1.0000
  H   H2836     1.0  0.39656  0.85315  0.59787  1.0000
  H   H2837     1.0  0.39195  0.81076  0.56719  1.0000
  C   C1654     1.0  0.52338  0.96394  0.71663  1.0000
  H   H2838     1.0  0.37132  0.80829  0.56638  1.0000
  H   H2839     1.0  0.41301  0.84994  0.54979  1.0000
  H   H2840     1.0  0.40359  0.85629  0.53133  1.0000
  H   H2841     1.0  0.40447  0.83470  0.54427  1.0000
  H   H2842     1.0  0.61632  0.93259  0.51833  1.0000
  H   H2843     1.0  0.43503  0.96330  0.65587  1.0000
  C   C1655     1.0  0.64356  0.96382  0.64603  1.0000
  H   H2844     1.0  0.45073  0.81191  0.67973  1.0000
  C   C1656     1.0  0.50534  0.94188  0.64939  1.0000
  H   H2845     1.0  0.37813  0.95072  0.56202  1.0000
  H   H2846     1.0  0.38094  0.92512  0.60454  1.0000
  C   C1657     1.0  0.36127  0.95147  0.52439  1.0000
  C   C1658     1.0  0.41766  0.94743  0.72518  1.0000
  H   H2847     1.0  0.51843  0.93876  0.65252  1.0000
  H   H2848     1.0  0.62362  0.92919  0.68950  1.0000
  H   H2849     1.0  0.62297  0.91551  0.65699  1.0000
  C   C1659     1.0  0.59980  0.93466  0.55194  1.0000
  H   H2850     1.0  0.53041  0.94717  0.62217  1.0000
  C   C1660     1.0  0.43523  0.97033  0.64258  1.0000
  H   H2851     1.0  0.40802  0.92599  0.59093  1.0000
  H   H2852     1.0  0.57978  0.97209  0.63134  1.0000
  H   H2853     1.0  0.45014  0.94545  0.67738  1.0000
  H   H2854     1.0  0.55938  0.89165  0.68119  1.0000
  H   H2855     1.0  0.53655  0.89654  0.68312  1.0000
  H   H2856     1.0  0.37892  0.94111  0.61559  1.0000
  H   H2857     1.0  0.39751  0.95680  0.59360  1.0000
  H   H2858     1.0  0.48056  0.86084  0.67716  1.0000
  H   H2859     1.0  0.49576  0.94480  0.66131  1.0000
  H   H2860     1.0  0.35401  0.93116  0.62965  1.0000
  C   C1661     1.0  0.41828  0.86244  0.69351  1.0000
  H   H2861     1.0  0.46708  0.82700  0.71987  1.0000
  H   H2862     1.0  0.51033  0.92082  0.63548  1.0000
  H   H2863     1.0  0.44238  0.85278  0.71515  1.0000
  H   H2864     1.0  0.32606  0.83014  0.55225  1.0000
  S   S485      1.0  0.33278  0.94926  0.51465  1.0000
  H   H2865     1.0  0.45514  0.94349  0.71384  1.0000
  C   C1662     1.0  0.43916  0.82054  0.68618  1.0000
  S   S486      1.0  0.55010  0.96192  0.65680  1.0000
  C   C1663     1.0  0.46999  0.89376  0.68897  1.0000
  N   N123      1.0  0.59444  0.91857  0.55175  1.0000
  H   H2866     1.0  0.46728  0.86863  0.66095  1.0000
  S   S487      1.0  0.33989  0.86021  0.54128  1.0000
  S   S488      1.0  0.64220  0.96200  0.72407  1.0000
  H   H2867     1.0  0.56170  0.86637  0.72468  1.0000
  H   H2868     1.0  0.34438  0.94762  0.61385  1.0000
  H   H2869     1.0  0.44435  0.93121  0.70781  1.0000
  C   C1664     1.0  0.36397  0.97700  0.53181  1.0000
  C   C1665     1.0  0.47569  0.85705  0.66775  1.0000
  H   H2870     1.0  0.48720  0.85295  0.65766  1.0000
  C   C1666     1.0  0.56858  0.90989  0.54665  1.0000
  C   C1667     1.0  0.62599  0.93940  0.67743  1.0000
  H   H2871     1.0  0.60346  0.93291  0.67309  1.0000
  H   H2872     1.0  0.60151  0.98703  0.63286  1.0000
  H   H2873     1.0  0.62582  0.95083  0.68233  1.0000
  H   H2874     1.0  0.40111  0.94822  0.69954  1.0000
  H   H2875     1.0  0.45457  0.81830  0.70410  1.0000
  H   H2876     1.0  0.52182  0.96964  0.63889  1.0000
  C   C1668     1.0  0.63708  0.91008  0.65422  1.0000
  H   H2877     1.0  0.48851  0.95949  0.60423  1.0000
  N   N124      1.0  0.50378  0.95738  0.63420  1.0000
  H   H2878     1.0  0.58150  0.97161  0.73293  1.0000
  H   H2879     1.0  0.48339  0.89078  0.68209  1.0000
  H   H2880     1.0  0.61382  0.93149  0.55236  1.0000
  H   H2881     1.0  0.43292  0.83031  0.67599  1.0000
  H   H2882     1.0  0.35088  0.84186  0.48788  1.0000
  C   C1669     1.0  0.41285  0.95168  0.69002  1.0000
  C   C1670     1.0  0.59448  0.90625  0.56946  1.0000
  C   C1671     1.0  0.48197  0.95452  0.61779  1.0000
  H   H2883     1.0  0.47497  0.96240  0.70970  1.0000
  H   H2884     1.0  0.39508  0.96388  0.57153  1.0000
  C   C1672     1.0  0.59877  0.88648  0.57024  1.0000
  S   S489      1.0  0.35503  0.90242  0.53738  1.0000
  C   C1673     1.0  0.36941  0.83193  0.57430  1.0000
  H   H2885     1.0  0.62066  0.90568  0.54146  1.0000
  H   H2886     1.0  0.60446  0.89835  0.53683  1.0000
  H   H2887     1.0  0.58183  0.90941  0.57861  1.0000
  H   H2888     1.0  0.60431  0.90780  0.57553  1.0000
  H   H2889     1.0  0.55566  0.91596  0.54320  1.0000
  H   H2890     1.0  0.56980  0.98351  0.71678  1.0000
  H   H2891     1.0  0.46786  0.95821  0.61799  1.0000
  H   H2892     1.0  0.51964  0.84940  0.73300  1.0000
  N   N125      1.0  0.37493  0.95131  0.58899  1.0000
  H   H2893     1.0  0.46327  0.83833  0.66553  1.0000
  C   C1674     1.0  0.36586  0.97718  0.60415  1.0000
  H   H2894     1.0  0.61283  0.88173  0.56497  1.0000
  H   H2895     1.0  0.59600  0.87939  0.58409  1.0000
  H   H2896     1.0  0.59107  0.88278  0.56330  1.0000
  C   C1675     1.0  0.54823  0.90750  0.70881  1.0000
  H   H2897     1.0  0.34305  0.87774  0.58670  1.0000
  C   C1676     1.0  0.56466  0.97379  0.65714  1.0000
  H   H2898     1.0  0.57663  0.90294  0.53634  1.0000
  H   H2899     1.0  0.64119  0.95196  0.56089  1.0000
  H   H2900     1.0  0.56620  0.90058  0.55937  1.0000
  H   H2901     1.0  0.57244  0.87671  0.70458  1.0000
  H   H2902     1.0  0.50215  0.96687  0.66738  1.0000
  H   H2903     1.0  0.44552  0.89222  0.73009  1.0000
  H   H2904     1.0  0.42185  0.90291  0.71353  1.0000
  Fe  Fe241     1.0  0.35041  0.88349  0.52492  1.0000
  H   H2905     1.0  0.56273  0.84340  0.70461  1.0000
  H   H2906     1.0  0.55331  0.88025  0.66031  1.0000
  H   H2907     1.0  0.42047  0.93992  0.57511  1.0000
  H   H2908     1.0  0.64836  0.98053  0.55551  1.0000
  C   C1677     1.0  0.54787  0.88567  0.68600  1.0000
  C   C1678     1.0  0.53799  0.89296  0.71447  1.0000
  H   H2909     1.0  0.59105  0.93507  0.57996  1.0000
  H   H2910     1.0  0.42933  0.81278  0.69382  1.0000
  S   S490      1.0  0.48287  0.88062  0.71853  1.0000
  H   H2911     1.0  0.53698  0.88825  0.72876  1.0000
  H   H2912     1.0  0.44731  0.96712  0.52690  1.0000
  H   H2913     1.0  0.59808  0.92684  0.51439  1.0000
  C   C1679     1.0  0.60766  0.91021  0.53788  1.0000
  C   C1680     1.0  0.40743  0.93681  0.57926  1.0000
  H   H2914     1.0  0.42761  0.97135  0.68349  1.0000
  C   C1681     1.0  0.52946  0.95389  0.70203  1.0000
  C   C1682     1.0  0.35201  0.94875  0.57363  1.0000
  C   C1683     1.0  0.54978  0.87334  0.67412  1.0000
  C   C1684     1.0  0.35468  0.93557  0.61538  1.0000
  H   H2915     1.0  0.40796  0.97525  0.69890  1.0000
  C   C1685     1.0  0.64152  0.93823  0.56332  1.0000
  H   H2916     1.0  0.41245  0.85097  0.69680  1.0000
  H   H2917     1.0  0.40552  0.93236  0.56847  1.0000
  C   C1686     1.0  0.46644  0.84180  0.67633  1.0000
  C   C1687     1.0  0.45645  0.94834  0.68625  1.0000
  C   C1688     1.0  0.57643  0.92427  0.54797  1.0000
  H   H2918     1.0  0.50559  0.91427  0.65856  1.0000
  C   C1689     1.0  0.43321  0.97120  0.61333  1.0000
  H   H2919     1.0  0.50259  0.98121  0.69233  1.0000
  H   H2920     1.0  0.57910  0.84236  0.71515  1.0000
  H   H2921     1.0  0.45984  0.90130  0.66567  1.0000
  C   C1690     1.0  0.44623  0.94467  0.70528  1.0000
  H   H2922     1.0  0.53732  0.86972  0.67562  1.0000
  C   C1691     1.0  0.59662  0.98490  0.70984  1.0000
  H   H2923     1.0  0.33326  0.83864  0.50675  1.0000
  H   H2924     1.0  0.37625  0.93059  0.57674  1.0000
  C   C1692     1.0  0.57170  0.85091  0.70517  1.0000
  H   H2925     1.0  0.54800  0.91487  0.69520  1.0000
  C   C1693     1.0  0.45396  0.85153  0.70428  1.0000
  C   C1694     1.0  0.56272  0.86849  0.71040  1.0000
  C   C1695     1.0  0.44867  0.89460  0.71601  1.0000
  C   C1696     1.0  0.46603  0.89087  0.70718  1.0000
  H   H2926     1.0  0.59835  0.94485  0.53980  1.0000
  C   C1697     1.0  0.37103  0.96006  0.52926  1.0000
  C   C1698     1.0  0.37115  0.94490  0.57513  1.0000
  C   C1699     1.0  0.48556  0.96285  0.63081  1.0000
  C   C1700     1.0  0.44347  0.96266  0.54120  1.0000
  H   H2927     1.0  0.51989  0.87448  0.70749  1.0000
  H   H2928     1.0  0.61958  0.91371  0.51032  1.0000
  C   C1701     1.0  0.43529  0.90056  0.70664  1.0000
  H   H2929     1.0  0.52445  0.89932  0.71270  1.0000
  C   C1702     1.0  0.56300  0.97972  0.67205  1.0000
  N   N126      1.0  0.50460  0.97366  0.71966  1.0000
  H   H2930     1.0  0.63133  0.96932  0.65443  1.0000
  C   C1703     1.0  0.50774  0.97223  0.63878  1.0000
  H   H2931     1.0  0.59990  0.95454  0.67566  1.0000
  C   C1704     1.0  0.65045  0.92895  0.55030  1.0000
  H   H2932     1.0  0.42292  0.93962  0.68862  1.0000
  H   H2933     1.0  0.58109  0.85283  0.69248  1.0000
  H   H2934     1.0  0.35750  0.83835  0.56895  1.0000
  H   H2935     1.0  0.36483  0.82504  0.58796  1.0000
  H   H2936     1.0  0.44055  0.87211  0.67798  1.0000
  C   C1705     1.0  0.64643  0.91434  0.66591  1.0000
  H   H2937     1.0  0.41597  0.97442  0.54502  1.0000
  H   H2938     1.0  0.45636  0.86483  0.69922  1.0000
  C   C1706     1.0  0.43673  0.85937  0.68203  1.0000
  C   C1707     1.0  0.64168  0.90296  0.56920  1.0000
  H   H2939     1.0  0.65473  0.96668  0.64898  1.0000
  C   C1708     1.0  0.45664  0.89974  0.67964  1.0000
  C   C1709     1.0  0.51995  0.96849  0.60289  1.0000
  H   H2940     1.0  0.43570  0.85697  0.66971  1.0000
  N   N127      1.0  0.45035  0.84530  0.69027  1.0000
  C   C1710     1.0  0.48799  0.95496  0.71204  1.0000
  H   H2941     1.0  0.44039  0.96675  0.72574  1.0000
  H   H2942     1.0  0.54202  0.91687  0.71738  1.0000
  C   C1711     1.0  0.44420  0.82861  0.69848  1.0000
  N   N128      1.0  0.42912  0.95722  0.71008  1.0000
  Fe  Fe242     1.0  0.61950  0.91004  0.73295  1.0000
  C   C1712     1.0  0.41949  0.96479  0.69540  1.0000
  H   H2943     1.0  0.34217  0.85743  0.50117  1.0000
  H   H2944     1.0  0.44031  0.94975  0.54370  1.0000
  H   H2945     1.0  0.45843  0.96176  0.68132  1.0000
  H   H2946     1.0  0.45467  0.96045  0.54728  1.0000
  H   H2947     1.0  0.40976  0.87347  0.68610  1.0000
  H   H2948     1.0  0.45300  0.98150  0.69560  1.0000
  Fe  Fe243     1.0  0.36883  0.89889  0.48871  1.0000
  H   H2949     1.0  0.48188  0.83884  0.70312  1.0000
  C   C1713     1.0  0.42738  0.97516  0.54940  1.0000
  H   H2950     1.0  0.52711  0.96225  0.68934  1.0000
  H   H2951     1.0  0.38103  0.82386  0.54951  1.0000
  H   H2952     1.0  0.43329  0.82995  0.70999  1.0000
  C   C1714     1.0  0.43178  0.97188  0.71613  1.0000
  C   C1715     1.0  0.33750  0.97692  0.52399  1.0000
  C   C1716     1.0  0.46933  0.84008  0.71268  1.0000
  H   H2953     1.0  0.52824  0.97604  0.60488  1.0000
  C   C1717     1.0  0.52860  0.85814  0.73061  1.0000
  H   H2954     1.0  0.57575  0.94900  0.56680  1.0000
  H   H2955     1.0  0.41582  0.93590  0.72186  1.0000
  H   H2956     1.0  0.47072  0.84645  0.72239  1.0000
  H   H2957     1.0  0.41915  0.97869  0.72319  1.0000
  H   H2958     1.0  0.63256  0.98578  0.53677  1.0000
  H   H2959     1.0  0.64176  0.97986  0.68026  1.0000
  H   H2960     1.0  0.40538  0.98636  0.57935  1.0000
  H   H2961     1.0  0.50744  0.97739  0.60049  1.0000
  C   C1718     1.0  0.57849  0.97656  0.64296  1.0000
  H   H2962     1.0  0.37894  0.97990  0.60139  1.0000
  H   H2963     1.0  0.48183  0.97717  0.62568  1.0000
  C   C1719     1.0  0.50186  0.98344  0.73363  1.0000
  C   C1720     1.0  0.33866  0.84834  0.49560  1.0000
  H   H2964     1.0  0.64592  0.92613  0.70219  1.0000
  H   H2965     1.0  0.55241  0.97759  0.68304  1.0000
  C   C1721     1.0  0.34715  0.98542  0.52926  1.0000
  H   H2966     1.0  0.65676  0.93563  0.53783  1.0000
  H   H2967     1.0  0.47988  0.96750  0.73330  1.0000
  C   C1722     1.0  0.57942  0.98439  0.72346  1.0000
  H   H2968     1.0  0.36600  0.97856  0.57738  1.0000
  H   H2969     1.0  0.60790  0.98119  0.71614  1.0000
  C   C1723     1.0  0.65733  0.93487  0.67418  1.0000
  C   C1724     1.0  0.44015  0.98629  0.63665  1.0000
  H   H2970     1.0  0.54335  0.98618  0.73234  1.0000
  H   H2971     1.0  0.50523  0.98446  0.62868  1.0000
  H   H2972     1.0  0.44110  0.98657  0.56823  1.0000
  C   C1725     1.0  0.59073  0.98513  0.64376  1.0000
  C   C1726     1.0  0.65830  0.92338  0.69263  1.0000
  C   C1727     1.0  0.50108  0.98714  0.70336  1.0000
  C   C1728     1.0  0.43947  0.98631  0.70206  1.0000
  H   H2973     1.0  0.45590  0.98713  0.54801  1.0000
  S   S491      1.0  0.37607  0.98698  0.53908  1.0000
  C   C1729     1.0  0.64562  0.97670  0.73426  1.0000
  H   H2974     1.0  0.55042  0.61844  0.90700  1.0000
  Fe  Fe244     1.0  0.61398  0.91553  0.76954  1.0000
  H   H2975     1.0  0.44778  0.75486  0.85097  1.0000
  S   S492      1.0  0.61394  0.90279  0.79778  1.0000
  H   H2976     1.0  0.63455  0.70788  0.88837  1.0000
  H   H2977     1.0  0.38474  0.51031  0.96882  1.0000
  S   S493      1.0  0.60266  0.94432  0.76169  1.0000
  Fe  Fe245     1.0  0.50283  0.88545  0.76757  1.0000
  S   S494      1.0  0.48122  0.89703  0.78739  1.0000
  C   C1730     1.0  0.65654  0.66582  0.92200  1.0000
  H   H2978     1.0  0.54419  0.78546  0.94790  1.0000
  S   S495      1.0  0.45498  0.89620  0.76343  1.0000
  H   H2979     1.0  0.50030  0.81768  0.96970  1.0000
  H   H2980     1.0  0.50270  0.66606  0.93127  1.0000
  Fe  Fe246     1.0  0.46774  0.87768  0.78501  1.0000
  S   S496      1.0  0.45298  0.86297  0.80986  1.0000
  H   H2981     1.0  0.50241  0.98070  0.76068  1.0000
  S   S497      1.0  0.49027  0.86498  0.76663  1.0000
  Fe  Fe247     1.0  0.48135  0.77440  0.87516  1.0000
  S   S498      1.0  0.50395  0.75307  0.88225  1.0000
  S   S499      1.0  0.48815  0.78658  0.84635  1.0000
  Fe  Fe248     1.0  0.46027  0.76584  0.91196  1.0000
  S   S500      1.0  0.48102  0.74348  0.92162  1.0000
  S   S501      1.0  0.43550  0.77453  0.93031  1.0000
  Fe  Fe249     1.0  0.49834  0.76181  0.90692  1.0000
  S   S502      1.0  0.51992  0.76334  0.91781  1.0000
  Fe  Fe250     1.0  0.48464  0.73662  0.89605  1.0000
  S   S503      1.0  0.49469  0.70959  0.89107  1.0000
  S   S504      1.0  0.47746  0.78483  0.89890  1.0000
  S   S505      1.0  0.46213  0.75731  0.88752  1.0000
  Fe  Fe251     1.0  0.61656  0.78908  0.87844  1.0000
  S   S506      1.0  0.59354  0.77968  0.87805  1.0000
  S   S507      1.0  0.62778  0.78039  0.90257  1.0000
  Fe  Fe252     1.0  0.62144  0.80740  0.84021  1.0000
  S   S508      1.0  0.59863  0.79986  0.83688  1.0000
  S   S509      1.0  0.63713  0.82058  0.81531  1.0000
  Fe  Fe253     1.0  0.58538  0.80682  0.86248  1.0000
  S   S510      1.0  0.55729  0.82081  0.86563  1.0000
  Fe  Fe254     1.0  0.60878  0.77349  0.85251  1.0000
  S   S511      1.0  0.60790  0.75101  0.84225  1.0000
  S   S512      1.0  0.60726  0.81686  0.86466  1.0000
  S   S513      1.0  0.63273  0.78040  0.85409  1.0000
  S   S514      1.0  0.60390  0.83131  0.95434  1.0000
  Fe  Fe255     1.0  0.61735  0.65573  0.88630  1.0000
  S   S515      1.0  0.61641  0.64053  0.86766  1.0000
  S   S516      1.0  0.63354  0.67449  0.88446  1.0000
  Fe  Fe256     1.0  0.59083  0.63992  0.91535  1.0000
  S   S517      1.0  0.58710  0.62343  0.89981  1.0000
  S   S518      1.0  0.57732  0.63980  0.94311  1.0000
  Fe  Fe257     1.0  0.61626  0.61787  0.89108  1.0000
  Fe  Fe258     1.0  0.58731  0.64710  0.87782  1.0000
  S   S519      1.0  0.56558  0.65895  0.86309  1.0000
  S   S520      1.0  0.61976  0.63252  0.90865  1.0000
  S   S521      1.0  0.58845  0.66414  0.89427  1.0000
  H   H2982     1.0  0.63439  0.77176  0.78320  1.0000
  Fe  Fe259     1.0  0.45549  0.60632  0.87881  1.0000
  S   S522      1.0  0.47615  0.59028  0.89367  1.0000
  S   S523      1.0  0.44668  0.59049  0.86565  1.0000
  Fe  Fe260     1.0  0.45465  0.63895  0.88983  1.0000
  S   S524      1.0  0.47496  0.62541  0.90567  1.0000
  S   S525      1.0  0.44154  0.66678  0.89128  1.0000
  Fe  Fe261     1.0  0.48887  0.61305  0.88308  1.0000
  S   S526      1.0  0.51815  0.60570  0.87625  1.0000
  Fe  Fe262     1.0  0.46062  0.60402  0.91469  1.0000
  S   S527      1.0  0.45503  0.59106  0.94290  1.0000
  S   S528      1.0  0.46962  0.62821  0.86615  1.0000
  S   S529      1.0  0.43889  0.61841  0.90095  1.0000
  Fe  Fe263     1.0  0.36209  0.56019  0.88266  1.0000
  S   S530      1.0  0.38259  0.53530  0.88453  1.0000
  S   S531      1.0  0.36806  0.58694  0.87542  1.0000
  C   C1731     1.0  0.54457  0.61450  0.92098  1.0000
  Fe  Fe264     1.0  0.36418  0.52481  0.87650  1.0000
  S   S532      1.0  0.37387  0.50612  0.85864  1.0000
  C   C1732     1.0  0.50696  0.97249  0.75090  1.0000
  C   C1733     1.0  0.57959  0.78322  0.95431  1.0000
  S   S533      1.0  0.47240  0.64427  0.97928  1.0000
  H   H2983     1.0  0.39441  0.62103  0.97558  1.0000
  C   C1734     1.0  0.40803  0.64946  0.96354  1.0000
  C   C1735     1.0  0.40002  0.61636  0.96333  1.0000
  H   H2984     1.0  0.43826  0.73659  0.94843  1.0000
  H   H2985     1.0  0.51541  0.71097  0.93914  1.0000
  H   H2986     1.0  0.53690  0.70133  0.94314  1.0000
  H   H2987     1.0  0.64888  0.74440  0.81534  1.0000
  C   C1736     1.0  0.57861  0.85911  0.83479  1.0000
  H   H2988     1.0  0.33853  0.56110  0.94555  1.0000
  C   C1737     1.0  0.42468  0.59025  0.86799  1.0000
  C   C1738     1.0  0.42092  0.57636  0.86399  1.0000
  C   C1739     1.0  0.40364  0.57510  0.86654  1.0000
  C   C1740     1.0  0.38990  0.58799  0.87267  1.0000
  C   C1741     1.0  0.39362  0.60215  0.87626  1.0000
  C   C1742     1.0  0.41097  0.60323  0.87408  1.0000
  H   H2989     1.0  0.43145  0.56641  0.85906  1.0000
  H   H2990     1.0  0.40094  0.56435  0.86336  1.0000
  H   H2991     1.0  0.38305  0.61227  0.88081  1.0000
  H   H2992     1.0  0.41372  0.61409  0.87701  1.0000
  C   C1743     1.0  0.46602  0.59803  0.96817  1.0000
  C   C1744     1.0  0.47084  0.59359  0.95198  1.0000
  C   C1745     1.0  0.48826  0.59110  0.94320  1.0000
  C   C1746     1.0  0.50083  0.59333  0.95054  1.0000
  C   C1747     1.0  0.47212  0.94984  0.78279  1.0000
  H   H2993     1.0  0.49208  0.58741  0.93076  1.0000
  C   C1748     1.0  0.58079  0.65724  0.94896  1.0000
  C   C1749     1.0  0.57490  0.65915  0.96617  1.0000
  C   C1750     1.0  0.48951  0.53937  0.97508  1.0000
  C   C1751     1.0  0.58837  0.68372  0.95881  1.0000
  C   C1752     1.0  0.59345  0.68244  0.94144  1.0000
  C   C1753     1.0  0.58998  0.66895  0.93662  1.0000
  H   H2994     1.0  0.40283  0.60187  0.96714  1.0000
  H   H2995     1.0  0.45131  0.74036  0.96050  1.0000
  H   H2996     1.0  0.60099  0.69117  0.93194  1.0000
  H   H2997     1.0  0.59515  0.66724  0.92352  1.0000
  C   C1754     1.0  0.55252  0.64434  0.86554  1.0000
  C   C1755     1.0  0.55919  0.62639  0.86998  1.0000
  C   C1756     1.0  0.54848  0.61476  0.87304  1.0000
  C   C1757     1.0  0.53093  0.62098  0.87205  1.0000
  C   C1758     1.0  0.52419  0.63897  0.86754  1.0000
  C   C1759     1.0  0.53508  0.65064  0.86400  1.0000
  H   H2998     1.0  0.57267  0.62140  0.87091  1.0000
  H   H2999     1.0  0.55378  0.60086  0.87635  1.0000
  H   H3000     1.0  0.51069  0.64383  0.86660  1.0000
  H   H3001     1.0  0.52986  0.66453  0.86055  1.0000
  C   C1760     1.0  0.61570  0.72987  0.85377  1.0000
  C   C1761     1.0  0.62309  0.72710  0.86808  1.0000
  C   C1762     1.0  0.62871  0.71002  0.87737  1.0000
  C   C1763     1.0  0.62651  0.69575  0.87267  1.0000
  C   C1764     1.0  0.61900  0.69855  0.85844  1.0000
  C   C1765     1.0  0.61393  0.71556  0.84880  1.0000
  H   H3002     1.0  0.61744  0.68757  0.85465  1.0000
  H   H3003     1.0  0.60839  0.71765  0.83762  1.0000
  C   C1766     1.0  0.62171  0.79522  0.91622  1.0000
  C   C1767     1.0  0.60803  0.80987  0.91411  1.0000
  C   C1768     1.0  0.60286  0.82106  0.92569  1.0000
  C   C1769     1.0  0.61118  0.81754  0.93956  1.0000
  C   C1770     1.0  0.62497  0.80300  0.94158  1.0000
  C   C1771     1.0  0.55622  0.86614  0.80799  1.0000
  H   H3004     1.0  0.60131  0.81249  0.90368  1.0000
  H   H3005     1.0  0.59225  0.83236  0.92404  1.0000
  C   C1772     1.0  0.47961  0.69802  0.89124  1.0000
  C   C1773     1.0  0.46169  0.70458  0.89594  1.0000
  C   C1774     1.0  0.45000  0.69500  0.89581  1.0000
  C   C1775     1.0  0.45622  0.67884  0.89108  1.0000
  C   C1776     1.0  0.47414  0.67243  0.88620  1.0000
  C   C1777     1.0  0.48579  0.68202  0.88625  1.0000
  H   H3006     1.0  0.45685  0.71695  0.89978  1.0000
  H   H3007     1.0  0.43614  0.70003  0.89952  1.0000
  H   H3008     1.0  0.47903  0.66014  0.88221  1.0000
  H   H3009     1.0  0.49963  0.67702  0.88234  1.0000
  C   C1778     1.0  0.52994  0.77967  0.90354  1.0000
  C   C1779     1.0  0.54414  0.78309  0.90717  1.0000
  C   C1780     1.0  0.55210  0.79629  0.89585  1.0000
  C   C1781     1.0  0.54609  0.80580  0.88072  1.0000
  C   C1782     1.0  0.53193  0.80231  0.87706  1.0000
  C   C1783     1.0  0.52383  0.78927  0.88848  1.0000
  H   H3010     1.0  0.54908  0.77547  0.91864  1.0000
  H   H3011     1.0  0.56306  0.79900  0.89870  1.0000
  H   H3012     1.0  0.52774  0.80914  0.86503  1.0000
  H   H3013     1.0  0.51320  0.78635  0.88532  1.0000
  C   C1784     1.0  0.46248  0.84145  0.81960  1.0000
  C   C1785     1.0  0.47813  0.83220  0.81120  1.0000
  C   C1786     1.0  0.48567  0.81530  0.81950  1.0000
  C   C1787     1.0  0.47781  0.80761  0.83637  1.0000
  C   C1788     1.0  0.46211  0.81678  0.84477  1.0000
  C   C1789     1.0  0.45440  0.83359  0.83633  1.0000
  H   H3014     1.0  0.48445  0.83805  0.79832  1.0000
  H   H3015     1.0  0.49779  0.80825  0.81289  1.0000
  H   H3016     1.0  0.45582  0.81087  0.85769  1.0000
  H   H3017     1.0  0.44220  0.84061  0.84284  1.0000
  C   C1790     1.0  0.62232  0.88013  0.80254  1.0000
  C   C1791     1.0  0.63049  0.87112  0.78923  1.0000
  C   C1792     1.0  0.63539  0.85282  0.79330  1.0000
  C   C1793     1.0  0.63194  0.84349  0.81063  1.0000
  C   C1794     1.0  0.62414  0.85252  0.82394  1.0000
  C   C1795     1.0  0.61951  0.87080  0.81991  1.0000
  H   H3018     1.0  0.63274  0.87824  0.77580  1.0000
  N   N129      1.0  0.59552  0.75814  0.97576  1.0000
  H   H3019     1.0  0.62175  0.84543  0.83736  1.0000
  H   H3020     1.0  0.61337  0.87773  0.83025  1.0000
  C   C1796     1.0  0.58596  0.86360  0.77710  1.0000
  C   C1797     1.0  0.53425  0.92830  0.76092  1.0000
  C   C1798     1.0  0.52790  0.91310  0.76549  1.0000
  H   H3021     1.0  0.51702  0.82805  0.95719  1.0000
  H   H3022     1.0  0.64506  0.53369  0.84474  1.0000
  C   C1799     1.0  0.42788  0.80216  0.96643  1.0000
  H   H3023     1.0  0.52657  0.93946  0.76613  1.0000
  H   H3024     1.0  0.51513  0.91283  0.77374  1.0000
  H   H3025     1.0  0.47850  0.65634  0.93085  1.0000
  H   H3026     1.0  0.50284  0.64623  0.94719  1.0000
  C   C1800     1.0  0.40585  0.64890  0.93389  1.0000
  S   S534      1.0  0.45921  0.94344  0.75790  1.0000
  H   H3027     1.0  0.43780  0.93207  0.74024  1.0000
  H   H3028     1.0  0.45260  0.59975  0.97512  1.0000
  H   H3029     1.0  0.47615  0.75235  0.85017  1.0000
  H   H3030     1.0  0.41461  0.73239  0.97473  1.0000
  C   C1801     1.0  0.52195  0.72265  0.95651  1.0000
  H   H3031     1.0  0.37139  0.57369  0.94228  1.0000
  S   S535      1.0  0.62953  0.58927  0.89398  1.0000
  H   H3032     1.0  0.56745  0.78692  0.96380  1.0000
  Fe  Fe265     1.0  0.47899  0.88527  0.74530  1.0000
  H   H3033     1.0  0.65298  0.55660  0.90246  1.0000
  H   H3034     1.0  0.52442  0.73344  0.94518  1.0000
  H   H3035     1.0  0.63115  0.75108  0.95742  1.0000
  H   H3036     1.0  0.64310  0.63646  0.93203  1.0000
  H   H3037     1.0  0.45066  0.98044  0.75343  1.0000
  H   H3038     1.0  0.49353  0.85057  0.96517  1.0000
  C   C1802     1.0  0.48676  0.80393  0.93144  1.0000
  H   H3039     1.0  0.51783  0.69644  0.95945  1.0000
  C   C1803     1.0  0.45736  0.78484  0.96412  1.0000
  H   H3040     1.0  0.51683  0.81901  0.91482  1.0000
  H   H3041     1.0  0.51320  0.79199  0.95897  1.0000
  C   C1804     1.0  0.52335  0.70679  0.94925  1.0000
  H   H3042     1.0  0.65312  0.50409  0.86319  1.0000
  C   C1805     1.0  0.42540  0.79500  0.95392  1.0000
  H   H3043     1.0  0.50808  0.72693  0.96264  1.0000
  H   H3044     1.0  0.50089  0.96111  0.75633  1.0000
  H   H3045     1.0  0.60959  0.75255  0.94196  1.0000
  C   C1806     1.0  0.34261  0.49620  0.87011  1.0000
  C   C1807     1.0  0.52577  0.83795  0.92181  1.0000
  S   S536      1.0  0.59794  0.90752  0.75646  1.0000
  C   C1808     1.0  0.53850  0.89802  0.76027  1.0000
  H   H3046     1.0  0.39513  0.67225  0.91626  1.0000
  H   H3047     1.0  0.42386  0.95084  0.74844  1.0000
  C   C1809     1.0  0.44098  0.73363  0.96167  1.0000
  H   H3048     1.0  0.46968  0.78083  0.96804  1.0000
  C   C1810     1.0  0.49131  0.64805  0.92616  1.0000
  N   N130      1.0  0.53325  0.71978  0.96926  1.0000
  N   N131      1.0  0.42804  0.55700  0.91967  1.0000
  C   C1811     1.0  0.43076  0.54777  0.90525  1.0000
  C   C1812     1.0  0.44435  0.56332  0.91693  1.0000
  C   C1813     1.0  0.41301  0.57254  0.91752  1.0000
  C   C1814     1.0  0.42417  0.54445  0.93696  1.0000
  C   C1815     1.0  0.41511  0.54134  0.90445  1.0000
  C   C1816     1.0  0.46123  0.54902  0.91762  1.0000
  C   C1817     1.0  0.40823  0.58457  0.93032  1.0000
  C   C1818     1.0  0.42726  0.54854  0.95306  1.0000
  H   H3049     1.0  0.43481  0.55627  0.89229  1.0000
  H   H3050     1.0  0.44157  0.53597  0.90631  1.0000
  H   H3051     1.0  0.44337  0.57098  0.92640  1.0000
  H   H3052     1.0  0.44643  0.57263  0.90404  1.0000
  H   H3053     1.0  0.41559  0.58083  0.90421  1.0000
  H   H3054     1.0  0.40088  0.56843  0.91877  1.0000
  H   H3055     1.0  0.41048  0.54319  0.93996  1.0000
  H   H3056     1.0  0.43215  0.53110  0.93622  1.0000
  H   H3057     1.0  0.40436  0.55227  0.90050  1.0000
  H   H3058     1.0  0.41929  0.53359  0.89429  1.0000
  H   H3059     1.0  0.41022  0.53270  0.91688  1.0000
  H   H3060     1.0  0.47158  0.55469  0.91872  1.0000
  H   H3061     1.0  0.45969  0.53795  0.92895  1.0000
  H   H3062     1.0  0.46598  0.54420  0.90540  1.0000
  H   H3063     1.0  0.40299  0.57791  0.94376  1.0000
  H   H3064     1.0  0.39758  0.59575  0.92649  1.0000
  H   H3065     1.0  0.41909  0.59021  0.93001  1.0000
  H   H3066     1.0  0.41622  0.54622  0.96422  1.0000
  H   H3067     1.0  0.42823  0.56204  0.95148  1.0000
  H   H3068     1.0  0.43904  0.53942  0.95716  1.0000
  N   N132      1.0  0.55938  0.72532  0.87624  1.0000
  C   C1819     1.0  0.56588  0.72467  0.85723  1.0000
  C   C1820     1.0  0.55244  0.74431  0.87691  1.0000
  C   C1821     1.0  0.54472  0.71587  0.88345  1.0000
  C   C1822     1.0  0.57422  0.71653  0.88553  1.0000
  C   C1823     1.0  0.57200  0.70634  0.85317  1.0000
  C   C1824     1.0  0.53580  0.71511  0.90272  1.0000
  C   C1825     1.0  0.57281  0.72110  0.90301  1.0000
  H   H3069     1.0  0.55568  0.73225  0.84965  1.0000
  H   H3070     1.0  0.57713  0.73098  0.85133  1.0000
  H   H3071     1.0  0.54650  0.74617  0.89028  1.0000
  H   H3072     1.0  0.53442  0.72170  0.87566  1.0000
  H   H3073     1.0  0.54936  0.70200  0.88245  1.0000
  H   H3074     1.0  0.57641  0.70212  0.88796  1.0000
  H   H3075     1.0  0.58653  0.71972  0.87705  1.0000
  H   H3076     1.0  0.58138  0.69735  0.86100  1.0000
  H   H3077     1.0  0.56090  0.70038  0.85490  1.0000
  H   H3078     1.0  0.57877  0.70748  0.83927  1.0000
  H   H3079     1.0  0.53043  0.72811  0.90584  1.0000
  H   H3080     1.0  0.54468  0.70667  0.91134  1.0000
  H   H3081     1.0  0.52454  0.70899  0.90580  1.0000
  H   H3082     1.0  0.57708  0.70892  0.91251  1.0000
  H   H3083     1.0  0.55970  0.72739  0.90917  1.0000
  H   H3084     1.0  0.58197  0.72944  0.90137  1.0000
  H   H3085     1.0  0.46563  0.76885  0.94515  1.0000
  H   H3086     1.0  0.64374  0.52727  0.87466  1.0000
  C   C1826     1.0  0.53718  0.79920  0.94397  1.0000
  H   H3087     1.0  0.61762  0.73091  0.95420  1.0000
  S   S537      1.0  0.48037  0.69106  0.97536  1.0000
  H   H3088     1.0  0.44585  0.71929  0.96517  1.0000
  C   C1827     1.0  0.58733  0.86772  0.79387  1.0000
  H   H3089     1.0  0.43557  0.65646  0.93150  1.0000
  C   C1828     1.0  0.48804  0.81440  0.94386  1.0000
  H   H3090     1.0  0.39301  0.64537  0.93833  1.0000
  H   H3091     1.0  0.55903  0.98380  0.75591  1.0000
  H   H3092     1.0  0.34863  0.50237  0.95856  1.0000
  H   H3093     1.0  0.62499  0.76340  0.80584  1.0000
  H   H3094     1.0  0.57499  0.84010  0.81262  1.0000
  C   C1829     1.0  0.33462  0.50841  0.96256  1.0000
  H   H3095     1.0  0.62940  0.76912  0.96689  1.0000
  S   S538      1.0  0.53129  0.87861  0.76713  1.0000
  H   H3096     1.0  0.46411  0.54390  0.97054  1.0000
  C   C1830     1.0  0.44380  0.79709  0.97164  1.0000
  H   H3097     1.0  0.63631  0.56485  0.83392  1.0000
  H   H3098     1.0  0.57156  0.72442  0.93813  1.0000
  H   H3099     1.0  0.61708  0.78530  0.79525  1.0000
  H   H3100     1.0  0.59635  0.87669  0.78974  1.0000
  H   H3101     1.0  0.45034  0.73343  0.84753  1.0000
  H   H3102     1.0  0.62644  0.67583  0.94843  1.0000
  S   S539      1.0  0.51075  0.60474  0.97396  1.0000
  H   H3103     1.0  0.64155  0.84589  0.78296  1.0000
  H   H3104     1.0  0.57480  0.67337  0.98460  1.0000
  C   C1831     1.0  0.42401  0.74007  0.97431  1.0000
  N   N133      1.0  0.52407  0.64442  0.92484  1.0000
  C   C1832     1.0  0.53609  0.64593  0.93513  1.0000
  C   C1833     1.0  0.52897  0.65315  0.90592  1.0000
  C   C1834     1.0  0.53062  0.66193  0.94349  1.0000
  C   C1835     1.0  0.52919  0.67252  0.90189  1.0000
  H   H3105     1.0  0.53758  0.63444  0.94625  1.0000
  H   H3106     1.0  0.54939  0.64575  0.92686  1.0000
  H   H3107     1.0  0.54228  0.64675  0.90002  1.0000
  H   H3108     1.0  0.55331  0.61485  0.92901  1.0000
  C   C1836     1.0  0.59548  0.77546  0.96290  1.0000
  H   H3109     1.0  0.51982  0.66041  0.95507  1.0000
  H   H3110     1.0  0.52665  0.67443  0.93445  1.0000
  H   H3111     1.0  0.51658  0.68037  0.90739  1.0000
  H   H3112     1.0  0.53170  0.67757  0.88753  1.0000
  H   H3113     1.0  0.53981  0.67440  0.90659  1.0000
  H   H3114     1.0  0.54483  0.91804  0.79419  1.0000
  C   C1837     1.0  0.47455  0.75856  0.81315  1.0000
  H   H3115     1.0  0.46725  0.76567  0.82356  1.0000
  H   H3116     1.0  0.48679  0.76306  0.80677  1.0000
  H   H3117     1.0  0.46659  0.76238  0.80310  1.0000
  N   N134      1.0  0.49044  0.85050  0.85743  1.0000
  C   C1838     1.0  0.47232  0.84794  0.86650  1.0000
  C   C1839     1.0  0.48861  0.86936  0.84785  1.0000
  C   C1840     1.0  0.50080  0.84655  0.87130  1.0000
  C   C1841     1.0  0.49822  0.83809  0.84537  1.0000
  C   C1842     1.0  0.47117  0.83007  0.87904  1.0000
  C   C1843     1.0  0.47851  0.87510  0.83307  1.0000
  C   C1844     1.0  0.51740  0.85370  0.86625  1.0000
  H   H3118     1.0  0.46526  0.85808  0.87416  1.0000
  H   H3119     1.0  0.46437  0.84952  0.85690  1.0000
  H   H3120     1.0  0.50137  0.87284  0.84189  1.0000
  H   H3121     1.0  0.48205  0.87805  0.85715  1.0000
  H   H3122     1.0  0.49261  0.85189  0.88276  1.0000
  H   H3123     1.0  0.50473  0.83224  0.87633  1.0000
  H   H3124     1.0  0.50060  0.82434  0.85290  1.0000
  H   H3125     1.0  0.48880  0.83848  0.83773  1.0000
  H   H3126     1.0  0.45724  0.82964  0.88428  1.0000
  H   H3127     1.0  0.47711  0.81915  0.87234  1.0000
  H   H3128     1.0  0.47701  0.82786  0.89041  1.0000
  H   H3129     1.0  0.48449  0.86736  0.82294  1.0000
  H   H3130     1.0  0.46460  0.87460  0.83794  1.0000
  H   H3131     1.0  0.47873  0.88892  0.82656  1.0000
  H   H3132     1.0  0.52451  0.84819  0.87707  1.0000
  H   H3133     1.0  0.51427  0.86808  0.86451  1.0000
  C   C1845     1.0  0.46314  0.95681  0.76919  1.0000
  S   S540      1.0  0.55979  0.94677  0.74652  1.0000
  H   H3134     1.0  0.51983  0.85209  0.92060  1.0000
  H   H3135     1.0  0.55645  0.84026  0.80531  1.0000
  H   H3136     1.0  0.55430  0.84147  0.82728  1.0000
  H   H3137     1.0  0.58922  0.84927  0.82906  1.0000
  H   H3138     1.0  0.49530  0.54393  0.96109  1.0000
  C   C1846     1.0  0.33119  0.52815  0.95428  1.0000
  C   C1847     1.0  0.56096  0.84597  0.81361  1.0000
  Fe  Fe266     1.0  0.47040  0.91446  0.76439  1.0000
  H   H3139     1.0  0.52339  0.76331  0.97273  1.0000
  H   H3140     1.0  0.48275  0.95565  0.80135  1.0000
  C   C1848     1.0  0.62907  0.75515  0.96972  1.0000
  H   H3141     1.0  0.47856  0.82708  0.94127  1.0000
  H   H3142     1.0  0.53309  0.75580  0.95324  1.0000
  H   H3143     1.0  0.55073  0.86956  0.79610  1.0000
  C   C1849     1.0  0.57385  0.87652  0.82175  1.0000
  H   H3144     1.0  0.56231  0.88417  0.82922  1.0000
  H   H3145     1.0  0.44232  0.63121  0.96582  1.0000
  C   C1850     1.0  0.45768  0.97493  0.76387  1.0000
  C   C1851     1.0  0.40169  0.66888  0.92737  1.0000
  H   H3146     1.0  0.55464  0.81142  0.98079  1.0000
  C   C1852     1.0  0.41123  0.66751  0.96238  1.0000
  C   C1853     1.0  0.63959  0.66971  0.95130  1.0000
  H   H3147     1.0  0.55050  0.73669  0.93642  1.0000
  C   C1854     1.0  0.51793  0.79953  0.94569  1.0000
  C   C1855     1.0  0.47568  0.96104  0.79095  1.0000
  H   H3148     1.0  0.53515  0.83681  0.90925  1.0000
  C   C1856     1.0  0.62907  0.77484  0.79624  1.0000
  H   H3149     1.0  0.33122  0.50565  0.97696  1.0000
  H   H3150     1.0  0.41877  0.67331  0.94970  1.0000
  H   H3151     1.0  0.42660  0.61540  0.96203  1.0000
  H   H3152     1.0  0.56895  0.75864  0.85474  1.0000
  C   C1857     1.0  0.50437  0.82614  0.95667  1.0000
  C   C1858     1.0  0.52835  0.73524  0.97755  1.0000
  H   H3153     1.0  0.54399  0.60064  0.92330  1.0000
  C   C1859     1.0  0.54706  0.90482  0.80285  1.0000
  H   H3154     1.0  0.53619  0.89906  0.80335  1.0000
  H   H3155     1.0  0.54650  0.90684  0.81580  1.0000
  C   C1860     1.0  0.63030  0.79194  0.92985  1.0000
  H   H3156     1.0  0.51430  0.59128  0.94375  1.0000
  H   H3157     1.0  0.47733  0.72714  0.97393  1.0000
  H   H3158     1.0  0.52651  0.84991  0.85455  1.0000
  H   H3159     1.0  0.52024  0.65178  0.89843  1.0000
  H   H3160     1.0  0.63158  0.80035  0.95212  1.0000
  H   H3161     1.0  0.63683  0.56116  0.85634  1.0000
  H   H3162     1.0  0.59458  0.85563  0.80124  1.0000
  H   H3163     1.0  0.52126  0.96820  0.74945  1.0000
  C   C1861     1.0  0.57885  0.67229  0.97115  1.0000
  C   C1862     1.0  0.37429  0.55987  0.94810  1.0000
  H   H3164     1.0  0.37398  0.55228  0.92519  1.0000
  H   H3165     1.0  0.50079  0.75159  0.82908  1.0000
  H   H3166     1.0  0.47913  0.68903  0.84695  1.0000
  H   H3167     1.0  0.64581  0.67527  0.91606  1.0000
  C   C1863     1.0  0.35956  0.49313  0.86018  1.0000
  C   C1864     1.0  0.37543  0.54775  0.93853  1.0000
  C   C1865     1.0  0.52591  0.62536  0.92581  1.0000
  C   C1866     1.0  0.50541  0.65173  0.93286  1.0000
  H   H3168     1.0  0.59909  0.85703  0.77086  1.0000
  H   H3169     1.0  0.54163  0.75020  0.86979  1.0000
  C   C1867     1.0  0.37708  0.55413  0.96509  1.0000
  H   H3170     1.0  0.51058  0.75595  0.96292  1.0000
  C   C1868     1.0  0.47811  0.73856  0.81996  1.0000
  C   C1869     1.0  0.56578  0.75592  0.86918  1.0000
  C   C1870     1.0  0.51552  0.84016  0.83239  1.0000
  H   H3171     1.0  0.51745  0.85362  0.82800  1.0000
  H   H3172     1.0  0.52033  0.61895  0.93920  1.0000
  H   H3173     1.0  0.39249  0.67540  0.93754  1.0000
  H   H3174     1.0  0.41259  0.64323  0.92227  1.0000
  C   C1871     1.0  0.52370  0.75347  0.96570  1.0000
  C   C1872     1.0  0.50291  0.73716  0.83140  1.0000
  C   C1873     1.0  0.47433  0.73908  0.85135  1.0000
  C   C1874     1.0  0.45446  0.74090  0.85434  1.0000
  H   H3175     1.0  0.46574  0.73473  0.82182  1.0000
  H   H3176     1.0  0.48689  0.73261  0.80909  1.0000
  H   H3177     1.0  0.48278  0.80771  0.95743  1.0000
  H   H3178     1.0  0.51847  0.62362  0.91712  1.0000
  N   N135      1.0  0.48576  0.73173  0.83603  1.0000
  H   H3179     1.0  0.51102  0.73360  0.81902  1.0000
  H   H3180     1.0  0.52522  0.73637  0.84132  1.0000
  H   H3181     1.0  0.44921  0.73631  0.86845  1.0000
  H   H3182     1.0  0.56008  0.76874  0.87278  1.0000
  H   H3183     1.0  0.51573  0.83643  0.82028  1.0000
  H   H3184     1.0  0.33108  0.52952  0.94037  1.0000
  H   H3185     1.0  0.53892  0.73527  0.98365  1.0000
  C   C1875     1.0  0.51437  0.72957  0.84510  1.0000
  H   H3186     1.0  0.47840  0.73112  0.86360  1.0000
  H   H3187     1.0  0.50702  0.73159  0.85813  1.0000
  S   S541      1.0  0.35068  0.51506  0.90379  1.0000
  H   H3188     1.0  0.63991  0.69267  0.95926  1.0000
  H   H3189     1.0  0.49363  0.65105  0.91180  1.0000
  Fe  Fe267     1.0  0.36705  0.52798  0.91144  1.0000
  H   H3190     1.0  0.49158  0.78972  0.93621  1.0000
  H   H3191     1.0  0.57791  0.75023  0.87417  1.0000
  H   H3192     1.0  0.57478  0.90177  0.79337  1.0000
  H   H3193     1.0  0.56403  0.89455  0.78164  1.0000
  H   H3194     1.0  0.52674  0.83142  0.83789  1.0000
  C   C1876     1.0  0.64767  0.68519  0.94923  1.0000
  C   C1877     1.0  0.43483  0.64343  0.94007  1.0000
  C   C1878     1.0  0.56101  0.91381  0.74446  1.0000
  H   H3195     1.0  0.56787  0.65012  0.97581  1.0000
  H   H3196     1.0  0.58969  0.98413  0.75100  1.0000
  H   H3197     1.0  0.52034  0.71549  0.84582  1.0000
  S   S542      1.0  0.63681  0.91527  0.74696  1.0000
  H   H3198     1.0  0.65741  0.63750  0.96249  1.0000
  H   H3199     1.0  0.49367  0.80810  0.91784  1.0000
  C   C1879     1.0  0.63640  0.64740  0.93867  1.0000
  H   H3200     1.0  0.57721  0.85469  0.77963  1.0000
  H   H3201     1.0  0.56705  0.85355  0.84141  1.0000
  C   C1880     1.0  0.56487  0.89417  0.79502  1.0000
  C   C1881     1.0  0.44642  0.64000  0.95323  1.0000
  H   H3202     1.0  0.39370  0.65069  0.96663  1.0000
  H   H3203     1.0  0.34164  0.52545  0.98448  1.0000
  C   C1882     1.0  0.37889  0.52989  0.94606  1.0000
  H   H3204     1.0  0.65591  0.57864  0.93218  1.0000
  C   C1883     1.0  0.48961  0.71205  0.84056  1.0000
  H   H3205     1.0  0.41595  0.93183  0.75175  1.0000
  H   H3206     1.0  0.49953  0.70675  0.82985  1.0000
  N   N136      1.0  0.50587  0.81722  0.94237  1.0000
  H   H3207     1.0  0.58438  0.88361  0.81901  1.0000
  H   H3208     1.0  0.41340  0.67442  0.92232  1.0000
  H   H3209     1.0  0.62449  0.73809  0.87199  1.0000
  C   C1884     1.0  0.43902  0.78314  0.94605  1.0000
  C   C1885     1.0  0.38105  0.53625  0.97246  1.0000
  H   H3210     1.0  0.46734  0.70706  0.83371  1.0000
  H   H3211     1.0  0.56010  0.71386  0.97066  1.0000
  C   C1886     1.0  0.59294  0.74458  0.96816  1.0000
  C   C1887     1.0  0.49580  0.59892  0.96619  1.0000
  H   H3212     1.0  0.41818  0.66652  0.97265  1.0000
  H   H3213     1.0  0.41737  0.81162  0.97218  1.0000
  H   H3214     1.0  0.56144  0.74057  0.95094  1.0000
  S   S543      1.0  0.34753  0.55336  0.91026  1.0000
  C   C1888     1.0  0.47415  0.70341  0.84461  1.0000
  H   H3215     1.0  0.49533  0.70676  0.85237  1.0000
  H   H3216     1.0  0.59939  0.73578  0.94401  1.0000
  H   H3217     1.0  0.60691  0.77474  0.95202  1.0000
  C   C1889     1.0  0.55093  0.92858  0.75061  1.0000
  H   H3218     1.0  0.34279  0.53274  0.95381  1.0000
  S   S544      1.0  0.49349  0.90471  0.74485  1.0000
  S   S545      1.0  0.37602  0.56929  0.97688  1.0000
  S   S546      1.0  0.37920  0.51473  0.93456  1.0000
  C   C1890     1.0  0.38187  0.52414  0.96300  1.0000
  C   C1891     1.0  0.41717  0.62208  0.95343  1.0000
  H   H3219     1.0  0.64032  0.74773  0.97581  1.0000
  C   C1892     1.0  0.45507  0.77810  0.95110  1.0000
  H   H3220     1.0  0.46492  0.70590  0.85682  1.0000
  C   C1893     1.0  0.63204  0.98577  0.74523  1.0000
  H   H3221     1.0  0.64507  0.79289  0.79129  1.0000
  Fe  Fe268     1.0  0.62438  0.94350  0.73802  1.0000
  C   C1894     1.0  0.64511  0.56019  0.84328  1.0000
  H   H3222     1.0  0.54508  0.87076  0.81819  1.0000
  H   H3223     1.0  0.43962  0.56877  0.97224  1.0000
  H   H3224     1.0  0.63295  0.62983  0.96496  1.0000
  H   H3225     1.0  0.58184  0.87554  0.76741  1.0000
  H   H3226     1.0  0.44140  0.63451  0.93099  1.0000
  H   H3227     1.0  0.47642  0.93588  0.78694  1.0000
  H   H3228     1.0  0.46929  0.56258  0.97268  1.0000
  H   H3229     1.0  0.53362  0.83350  0.93189  1.0000
  H   H3230     1.0  0.49023  0.63426  0.93139  1.0000
  H   H3231     1.0  0.47777  0.84238  0.96057  1.0000
  C   C1895     1.0  0.47841  0.60102  0.97510  1.0000
  N   N137      1.0  0.57045  0.87560  0.80486  1.0000
  H   H3232     1.0  0.63737  0.66317  0.96541  1.0000
  C   C1896     1.0  0.46153  0.98608  0.77175  1.0000
  H   H3233     1.0  0.41255  0.64058  0.97534  1.0000
  H   H3234     1.0  0.47287  0.80587  0.93115  1.0000
  H   H3235     1.0  0.42213  0.61606  0.94188  1.0000
  H   H3236     1.0  0.39859  0.67692  0.96501  1.0000
  C   C1897     1.0  0.55226  0.71619  0.96082  1.0000
  H   H3237     1.0  0.58322  0.86165  0.84519  1.0000
  H   H3238     1.0  0.59402  0.73176  0.97767  1.0000
  H   H3239     1.0  0.53912  0.80643  0.95255  1.0000
  C   C1898     1.0  0.55497  0.89841  0.74961  1.0000
  H   H3240     1.0  0.49305  0.85269  0.94291  1.0000
  H   H3241     1.0  0.51807  0.79176  0.93655  1.0000
  Fe  Fe269     1.0  0.61261  0.82047  0.97986  1.0000
  N   N138      1.0  0.41635  0.64148  0.94790  1.0000
  C   C1899     1.0  0.60578  0.74086  0.95124  1.0000
  H   H3242     1.0  0.41299  0.79892  0.95009  1.0000
  C   C1900     1.0  0.42440  0.94024  0.74225  1.0000
  C   C1901     1.0  0.47054  0.97919  0.78531  1.0000
  H   H3243     1.0  0.56305  0.88686  0.74524  1.0000
  H   H3244     1.0  0.57946  0.74751  0.96612  1.0000
  H   H3245     1.0  0.43294  0.76395  0.98169  1.0000
  H   H3246     1.0  0.32720  0.50187  0.95791  1.0000
  C   C1902     1.0  0.49141  0.84398  0.95604  1.0000
  H   H3247     1.0  0.57803  0.77438  0.94711  1.0000
  H   H3248     1.0  0.41876  0.75369  0.96766  1.0000
  H   H3249     1.0  0.49779  0.94945  0.73551  1.0000
  H   H3250     1.0  0.65396  0.56927  0.83939  1.0000
  H   H3251     1.0  0.54349  0.80413  0.93031  1.0000
  C   C1903     1.0  0.47008  0.54854  0.97859  1.0000
  N   N139      1.0  0.64929  0.65661  0.94020  1.0000
  H   H3252     1.0  0.64071  0.75877  0.82965  1.0000
  H   H3253     1.0  0.55640  0.70386  0.95622  1.0000
  Fe  Fe270     1.0  0.58827  0.93620  0.74674  1.0000
  H   H3254     1.0  0.39018  0.62028  0.95518  1.0000
  C   C1904     1.0  0.65224  0.58296  0.88760  1.0000
  H   H3255     1.0  0.44663  0.65243  0.95592  1.0000
  H   H3256     1.0  0.46000  0.63402  0.94757  1.0000
  C   C1905     1.0  0.55904  0.73049  0.94585  1.0000
  H   H3257     1.0  0.33826  0.50653  0.87712  1.0000
  H   H3258     1.0  0.65571  0.60807  0.87166  1.0000
  S   S547      1.0  0.59514  0.69856  0.96551  1.0000
  Fe  Fe271     1.0  0.33235  0.54125  0.90011  1.0000
  H   H3259     1.0  0.59657  0.78537  0.96919  1.0000
  H   H3260     1.0  0.64098  0.78070  0.93145  1.0000
  H   H3261     1.0  0.54174  0.66288  0.94814  1.0000
  H   H3262     1.0  0.58163  0.79544  0.94463  1.0000
  H   H3263     1.0  0.63455  0.78713  0.81343  1.0000
  H   H3264     1.0  0.54867  0.63437  0.97206  1.0000
  S   S548      1.0  0.34476  0.55045  0.87207  1.0000
  H   H3265     1.0  0.62730  0.65644  0.93041  1.0000
  H   H3266     1.0  0.65159  0.54398  0.87718  1.0000
  H   H3267     1.0  0.50044  0.83748  0.91977  1.0000
  C   C1906     1.0  0.51176  0.82766  0.92427  1.0000
  H   H3268     1.0  0.61979  0.98189  0.74981  1.0000
  C   C1907     1.0  0.62509  0.63948  0.95595  1.0000
  H   H3269     1.0  0.61675  0.63256  0.95303  1.0000
  H   H3270     1.0  0.55733  0.61197  0.97151  1.0000
  C   C1908     1.0  0.65604  0.53109  0.87354  1.0000
  H   H3271     1.0  0.39378  0.76472  0.98389  1.0000
  H   H3272     1.0  0.64700  0.69442  0.93643  1.0000
  H   H3273     1.0  0.65674  0.51988  0.90090  1.0000
  H   H3274     1.0  0.53553  0.69174  0.97838  1.0000
  C   C1909     1.0  0.53000  0.70389  0.98342  1.0000
  C   C1910     1.0  0.61211  0.75171  0.98263  1.0000
  C   C1911     1.0  0.64196  0.78159  0.80188  1.0000
  H   H3275     1.0  0.33937  0.54850  0.97626  1.0000
  H   H3276     1.0  0.61615  0.64970  0.96258  1.0000
  C   C1912     1.0  0.54824  0.62091  0.97965  1.0000
  H   H3277     1.0  0.52183  0.86794  0.73858  1.0000
  H   H3278     1.0  0.49125  0.52503  0.97746  1.0000
  H   H3279     1.0  0.53476  0.61978  0.98155  1.0000
  H   H3280     1.0  0.57357  0.91419  0.73583  1.0000
  H   H3281     1.0  0.56447  0.57277  0.98336  1.0000
  H   H3282     1.0  0.49707  0.54240  0.98265  1.0000
  C   C1913     1.0  0.65262  0.75368  0.82051  1.0000
  C   C1914     1.0  0.33269  0.53831  0.98506  1.0000
  H   H3283     1.0  0.54051  0.85010  0.73524  1.0000
  C   C1915     1.0  0.65507  0.54128  0.84254  1.0000
  N   N140      1.0  0.65825  0.76842  0.80597  1.0000
  H   H3284     1.0  0.65845  0.64714  0.90633  1.0000
  S   S549      1.0  0.63941  0.81487  0.98499  1.0000
  C   C1916     1.0  0.66299  0.06128  0.99919  1.0000
  H   H3285     1.0  0.90439  0.47344  0.18508  1.0000
  H   H3286     1.0  0.93559  0.43829  0.13258  1.0000
  Fe  Fe272     1.0  0.71007  0.38742  0.02457  1.0000
  S   S550      1.0  0.68303  0.40356  0.03093  1.0000
  S   S551      1.0  0.72636  0.37181  0.04408  1.0000
  Fe  Fe273     1.0  0.67769  0.39230  0.01129  1.0000
  C   C1917     1.0  0.95160  0.46711  0.04810  1.0000
  Fe  Fe274     1.0  0.69253  0.42379  0.00802  1.0000
  S   S552      1.0  0.68584  0.45286  0.00589  1.0000
  S   S553      1.0  0.70416  0.37463  0.00669  1.0000
  S   S554      1.0  0.72003  0.40847  0.00334  1.0000
  C   C1918     1.0  0.77927  0.37480  0.99548  1.0000
  H   H3287     1.0  0.88708  0.38184  0.03265  1.0000
  Fe  Fe275     1.0  0.80122  0.40875  0.04414  1.0000
  S   S555      1.0  0.81692  0.38151  0.05162  1.0000
  S   S556      1.0  0.77222  0.41945  0.04990  1.0000
  Fe  Fe276     1.0  0.83326  0.42287  0.02390  1.0000
  S   S557      1.0  0.85168  0.39704  0.02926  1.0000
  S   S558      1.0  0.84312  0.44613  0.00675  1.0000
  Fe  Fe277     1.0  0.83167  0.38675  0.02372  1.0000
  S   S559      1.0  0.83767  0.36937  0.00500  1.0000
  Fe  Fe278     1.0  0.83561  0.39434  0.05652  1.0000
  S   S560      1.0  0.84671  0.38784  0.08070  1.0000
  S   S561      1.0  0.81458  0.41294  0.01603  1.0000
  S   S562      1.0  0.81846  0.42113  0.05142  1.0000
  C   C1919     1.0  0.86475  0.36444  0.17109  1.0000
  C   C1920     1.0  0.92514  0.44042  0.14426  1.0000
  H   H3288     1.0  0.84030  0.34997  0.12778  1.0000
  C   C1921     1.0  0.95483  0.47126  0.09609  1.0000
  H   H3289     1.0  0.88967  0.36386  0.15415  1.0000
  H   H3290     1.0  0.91355  0.35673  0.11108  1.0000
  H   H3291     1.0  0.90871  0.42495  0.05495  1.0000
  C   C1922     1.0  0.85754  0.35519  0.14077  1.0000
  H   H3292     1.0  0.89804  0.48137  0.21687  1.0000
  H   H3293     1.0  0.99148  0.47309  0.18674  1.0000
  H   H3294     1.0  0.88361  0.39968  0.11958  1.0000
  C   C1923     1.0  0.87814  0.35884  0.15520  1.0000
  H   H3295     1.0  0.86049  0.35296  0.11359  1.0000
  S   S563      1.0  0.96030  0.43008  0.23414  1.0000
  H   H3296     1.0  0.67413  0.45428  0.06524  1.0000
  H   H3297     1.0  0.86195  0.34087  0.14570  1.0000
  Fe  Fe279     1.0  0.94326  0.41733  0.10312  1.0000
  S   S564      1.0  0.91954  0.40640  0.11053  1.0000
  S   S565      1.0  0.93971  0.44628  0.09483  1.0000
  Fe  Fe280     1.0  0.96739  0.38217  0.11085  1.0000
  S   S566      1.0  0.94579  0.36791  0.11903  1.0000
  C   C1924     1.0  0.67308  0.47674  0.09084  1.0000
  Fe  Fe281     1.0  0.93609  0.38628  0.09569  1.0000
  S   S567      1.0  0.92720  0.37695  0.07676  1.0000
  Fe  Fe282     1.0  0.93114  0.38924  0.13314  1.0000
  S   S568      1.0  0.95911  0.39875  0.08623  1.0000
  S   S569      1.0  0.95347  0.40200  0.12693  1.0000
  H   H3298     1.0  0.85379  0.35780  0.17519  1.0000
  H   H3299     1.0  0.91845  0.40759  0.99945  1.0000
  H   H3300     1.0  0.87126  0.36063  0.18229  1.0000
  H   H3301     1.0  0.84609  0.35964  0.15076  1.0000
  H   H3302     1.0  0.86742  0.40814  0.13671  1.0000
  H   H3303     1.0  0.92363  0.46193  0.21076  1.0000
  H   H3304     1.0  0.74147  0.45102  0.01868  1.0000
  H   H3305     1.0  0.76542  0.37377  0.00069  1.0000
  C   C1925     1.0  0.68822  0.45374  0.05994  1.0000
  H   H3306     1.0  0.89169  0.40249  0.04562  1.0000
  H   H3307     1.0  0.91523  0.44844  0.17476  1.0000
  H   H3308     1.0  0.67314  0.46369  0.08955  1.0000
  C   C1926     1.0  0.77275  0.48456  0.03892  1.0000
  C   C1927     1.0  0.88640  0.35838  0.12383  1.0000
  H   H3309     1.0  0.85979  0.37878  0.16875  1.0000
  C   C1928     1.0  0.90703  0.40499  0.18455  1.0000
  C   C1929     1.0  0.92003  0.39524  0.17375  1.0000
  C   C1930     1.0  0.89744  0.38895  0.02519  1.0000
  H   H3310     1.0  0.99034  0.41878  0.19547  1.0000
  H   H3311     1.0  0.93910  0.47523  0.14606  1.0000
  H   H3312     1.0  0.87684  0.48553  0.00820  1.0000
  H   H3313     1.0  0.68370  0.08225  0.99088  1.0000
  H   H3314     1.0  0.92161  0.42830  0.99850  1.0000
  H   H3315     1.0  0.90115  0.48738  0.06674  1.0000
  C   C1931     1.0  0.87592  0.39602  0.13293  1.0000
  C   C1932     1.0  0.92394  0.40593  0.03024  1.0000
  H   H3316     1.0  0.97194  0.42404  0.18543  1.0000
  H   H3317     1.0  0.92974  0.43048  0.15543  1.0000
  H   H3318     1.0  0.88477  0.39083  0.14211  1.0000
  H   H3319     1.0  0.68095  0.31334  0.09523  1.0000
  H   H3320     1.0  0.78094  0.39726  0.01347  1.0000
  C   C1933     1.0  0.86917  0.38610  0.07779  1.0000
  C   C1934     1.0  0.87497  0.39691  0.08448  1.0000
  C   C1935     1.0  0.89276  0.39432  0.08411  1.0000
  C   C1936     1.0  0.90483  0.38079  0.07722  1.0000
  C   C1937     1.0  0.89908  0.37022  0.07023  1.0000
  C   C1938     1.0  0.88130  0.37281  0.07058  1.0000
  H   H3321     1.0  0.86564  0.40725  0.09003  1.0000
  H   H3322     1.0  0.89715  0.40284  0.08905  1.0000
  H   H3323     1.0  0.90836  0.35978  0.06479  1.0000
  H   H3324     1.0  0.87692  0.36425  0.06565  1.0000
  H   H3325     1.0  0.94819  0.46054  0.13234  1.0000
  S   S570      1.0  0.97323  0.39093  0.22603  1.0000
  C   C1939     1.0  0.70034  0.48021  0.00225  1.0000
  H   H3326     1.0  0.98801  0.43011  0.15733  1.0000
  H   H3327     1.0  0.69556  0.44700  0.07034  1.0000
  H   H3328     1.0  0.78853  0.48559  0.00525  1.0000
  H   H3329     1.0  0.86138  0.38745  0.12038  1.0000
  N   N141      1.0  0.67737  0.34089  0.06469  1.0000
  H   H3330     1.0  0.98568  0.40319  0.18661  1.0000
  H   H3331     1.0  0.80607  0.39222  0.99180  1.0000
  H   H3332     1.0  0.68067  0.35262  0.08390  1.0000
  H   H3333     1.0  0.95342  0.44453  0.03784  1.0000
  C   C1940     1.0  0.86202  0.46805  0.00761  1.0000
  C   C1941     1.0  0.85279  0.45533  0.01740  1.0000
  C   C1942     1.0  0.85103  0.45049  0.03552  1.0000
  C   C1943     1.0  0.85750  0.45926  0.04390  1.0000
  H   H3334     1.0  0.69118  0.32143  0.03778  1.0000
  H   H3335     1.0  0.78451  0.42573  0.99454  1.0000
  H   H3336     1.0  0.84432  0.44036  0.04314  1.0000
  H   H3337     1.0  0.85557  0.45598  0.05796  1.0000
  N   N142      1.0  0.90775  0.41639  0.02364  1.0000
  C   C1944     1.0  0.89380  0.40610  0.03120  1.0000
  C   C1945     1.0  0.67402  0.35942  0.05411  1.0000
  C   C1946     1.0  0.93754  0.39371  0.17358  1.0000
  Fe  Fe283     1.0  0.71157  0.39738  0.98598  1.0000
  H   H3338     1.0  0.88098  0.41414  0.02853  1.0000
  H   H3339     1.0  0.67734  0.35257  0.00972  1.0000
  H   H3340     1.0  0.67357  0.32246  0.01410  1.0000
  C   C1947     1.0  0.70232  0.46204  0.00701  1.0000
  C   C1948     1.0  0.71721  0.45153  0.01287  1.0000
  C   C1949     1.0  0.73008  0.45915  0.01390  1.0000
  C   C1950     1.0  0.72797  0.47730  0.00942  1.0000
  H   H3341     1.0  0.91918  0.46674  0.11995  1.0000
  H   H3342     1.0  0.94977  0.40638  0.03182  1.0000
  H   H3343     1.0  0.71871  0.43757  0.01691  1.0000
  C   C1951     1.0  0.68416  0.32546  0.09543  1.0000
  H   H3344     1.0  0.90983  0.38001  0.02784  1.0000
  C   C1952     1.0  0.73892  0.38485  0.04640  1.0000
  C   C1953     1.0  0.75552  0.37732  0.04999  1.0000
  C   C1954     1.0  0.76593  0.38785  0.05095  1.0000
  C   C1955     1.0  0.75951  0.40588  0.04887  1.0000
  C   C1956     1.0  0.74272  0.41332  0.04575  1.0000
  C   C1957     1.0  0.73256  0.40289  0.04423  1.0000
  H   H3345     1.0  0.76047  0.36337  0.05173  1.0000
  H   H3346     1.0  0.77882  0.38200  0.05349  1.0000
  H   H3347     1.0  0.73764  0.42721  0.04430  1.0000
  H   H3348     1.0  0.71968  0.40877  0.04163  1.0000
  H   H3349     1.0  0.88274  0.34439  0.15863  1.0000
  C   C1958     1.0  0.66230  0.33293  0.01632  1.0000
  H   H3350     1.0  0.69851  0.32395  0.09217  1.0000
  H   H3351     1.0  0.97243  0.42775  0.10505  1.0000
  C   C1959     1.0  0.69585  0.33227  0.05752  1.0000
  H   H3352     1.0  0.78828  0.35054  0.01319  1.0000
  C   C1960     1.0  0.92892  0.41217  0.19452  1.0000
  S   S571      1.0  0.68463  0.41422  0.98896  1.0000
  N   N143      1.0  0.92225  0.45865  0.14676  1.0000
  H   H3353     1.0  0.96230  0.45405  0.15713  1.0000
  H   H3354     1.0  0.94766  0.38601  0.16543  1.0000
  H   H3355     1.0  0.77484  0.46028  0.01916  1.0000
  C   C1961     1.0  0.90124  0.43356  0.02910  1.0000
  C   C1962     1.0  0.95644  0.45342  0.09820  1.0000
  H   H3356     1.0  0.92986  0.39429  0.02448  1.0000
  H   H3357     1.0  0.95603  0.46685  0.01221  1.0000
  H   H3358     1.0  0.70227  0.47047  0.03906  1.0000
  H   H3359     1.0  0.85165  0.38761  0.14213  1.0000
  H   H3360     1.0  0.84393  0.37144  0.11967  1.0000
  H   H3361     1.0  0.66548  0.09966  0.99192  1.0000
  C   C1963     1.0  0.97093  0.44153  0.10374  1.0000
  H   H3362     1.0  0.91813  0.48473  0.03834  1.0000
  C   C1964     1.0  0.91380  0.47126  0.13237  1.0000
  H   H3363     1.0  0.93175  0.45772  0.04095  1.0000
  C   C1965     1.0  0.77294  0.40271  0.00337  1.0000
  H   H3364     1.0  0.79446  0.44719  0.02635  1.0000
  S   S572      1.0  0.87322  0.48435  0.04443  1.0000
  C   C1966     1.0  0.96734  0.47718  0.10011  1.0000
  H   H3365     1.0  0.77037  0.47916  0.06724  1.0000
  H   H3366     1.0  0.95409  0.43596  0.15755  1.0000
  H   H3367     1.0  0.92079  0.40055  0.04452  1.0000
  H   H3368     1.0  0.70525  0.46227  0.08109  1.0000
  H   H3369     1.0  0.82012  0.47191  0.05572  1.0000
  H   H3370     1.0  0.68003  0.47889  0.04432  1.0000
  H   H3371     1.0  0.94287  0.46188  0.21670  1.0000
  H   H3372     1.0  0.97313  0.48075  0.05760  1.0000
  H   H3373     1.0  0.94287  0.45025  0.17248  1.0000
  C   C1967     1.0  0.86619  0.47246  0.03409  1.0000
  S   S573      1.0  0.74349  0.48627  0.01273  1.0000
  H   H3374     1.0  0.89556  0.48605  0.16623  1.0000
  C   C1968     1.0  0.90470  0.36041  0.12306  1.0000
  C   C1969     1.0  0.91146  0.41367  0.19464  1.0000
  H   H3375     1.0  0.88794  0.34425  0.12462  1.0000
  H   H3376     1.0  0.70503  0.33999  0.05765  1.0000
  S   S574      1.0  0.93402  0.42548  0.20505  1.0000
  H   H3377     1.0  0.78399  0.36901  0.02215  1.0000
  C   C1970     1.0  0.98159  0.46529  0.10616  1.0000
  H   H3378     1.0  0.96570  0.46410  0.04195  1.0000
  H   H3379     1.0  0.90132  0.42165  0.20248  1.0000
  H   H3380     1.0  0.94031  0.44409  0.05917  1.0000
  H   H3381     1.0  0.89961  0.47174  0.13539  1.0000
  C   C1971     1.0  0.94198  0.40202  0.18409  1.0000
  H   H3382     1.0  0.95128  0.46505  0.06216  1.0000
  C   C1972     1.0  0.72651  0.46626  0.05964  1.0000
  H   H3383     1.0  0.95550  0.40095  0.18376  1.0000
  H   H3384     1.0  0.79412  0.45429  0.00376  1.0000
  C   C1973     1.0  0.90917  0.43544  0.14214  1.0000
  H   H3385     1.0  0.79400  0.45609  0.05037  1.0000
  H   H3386     1.0  0.70017  0.31924  0.06570  1.0000
  H   H3387     1.0  0.80345  0.36422  0.00567  1.0000
  H   H3388     1.0  0.80915  0.47230  0.00873  1.0000
  H   H3389     1.0  0.89436  0.44584  0.05111  1.0000
  C   C1974     1.0  0.98352  0.44747  0.10768  1.0000
  H   H3390     1.0  0.93462  0.42656  0.03320  1.0000
  H   H3391     1.0  0.81419  0.45991  0.03674  1.0000
  C   C1975     1.0  0.78939  0.36432  0.00993  1.0000
  H   H3392     1.0  0.68417  0.36611  0.05399  1.0000
  C   C1976     1.0  0.93987  0.46178  0.14534  1.0000
  H   H3393     1.0  0.88592  0.42196  0.99934  1.0000
  H   H3394     1.0  0.71092  0.48226  0.07771  1.0000
  H   H3395     1.0  0.88596  0.42688  0.05580  1.0000
  H   H3396     1.0  0.69806  0.34187  0.02912  1.0000
  C   C1977     1.0  0.70875  0.47349  0.07070  1.0000
  C   C1978     1.0  0.95016  0.44965  0.15904  1.0000
  H   H3397     1.0  0.88323  0.36523  0.11089  1.0000
  H   H3398     1.0  0.69293  0.44516  0.05046  1.0000
  H   H3399     1.0  0.71322  0.32230  0.03547  1.0000
  H   H3400     1.0  0.90461  0.44335  0.13013  1.0000
  H   H3401     1.0  0.67969  0.32715  0.10906  1.0000
  C   C1979     1.0  0.91056  0.45957  0.16440  1.0000
  H   H3402     1.0  0.68040  0.30520  0.06932  1.0000
  H   H3403     1.0  0.67492  0.35977  0.04024  1.0000
  H   H3404     1.0  0.91029  0.35142  0.13412  1.0000
  C   C1980     1.0  0.86452  0.38373  0.13351  1.0000
  C   C1981     1.0  0.94367  0.45285  0.04623  1.0000
  H   H3405     1.0  0.98298  0.46838  0.22626  1.0000
  C   C1982     1.0  0.91202  0.41989  0.00402  1.0000
  H   H3406     1.0  0.94360  0.48052  0.09192  1.0000
  H   H3407     1.0  0.89833  0.43605  0.15367  1.0000
  C   C1983     1.0  0.69142  0.47203  0.05041  1.0000
  C   C1984     1.0  0.80618  0.47148  0.05886  1.0000
  N   N144      1.0  0.87190  0.36437  0.13831  1.0000
  C   C1985     1.0  0.85038  0.35768  0.12440  1.0000
  C   C1986     1.0  0.66448  0.34992  0.01397  1.0000
  H   H3408     1.0  0.91821  0.48280  0.16646  1.0000
  H   H3409     1.0  0.75968  0.40046  0.00994  1.0000
  H   H3410     1.0  0.90501  0.37393  0.12241  1.0000
  H   H3411     1.0  0.94113  0.47503  0.18526  1.0000
  C   C1987     1.0  0.86905  0.47630  0.01592  1.0000
  C   C1988     1.0  0.94659  0.47960  0.01083  1.0000
  C   C1989     1.0  0.93598  0.48272  0.19549  1.0000
  H   H3412     1.0  0.66330  0.06800  0.00908  1.0000
  N   N145      1.0  0.79210  0.48080  0.03167  1.0000
  C   C1990     1.0  0.79508  0.47503  0.01491  1.0000
  H   H3413     1.0  0.91917  0.46951  0.06975  1.0000
  C   C1991     1.0  0.77155  0.42251  0.99916  1.0000
  H   H3414     1.0  0.73547  0.45828  0.06841  1.0000
  C   C1992     1.0  0.78918  0.45827  0.01643  1.0000
  H   H3415     1.0  0.76288  0.42993  0.99002  1.0000
  H   H3416     1.0  0.73279  0.47684  0.05095  1.0000
  H   H3417     1.0  0.91303  0.42173  0.14083  1.0000
  H   H3418     1.0  0.89124  0.44266  0.99664  1.0000
  H   H3419     1.0  0.89350  0.40624  0.18474  1.0000
  S   S575      1.0  0.91403  0.38587  0.16000  1.0000
  H   H3420     1.0  0.89752  0.45779  0.16477  1.0000
  H   H3421     1.0  0.89722  0.39137  0.01122  1.0000
  H   H3422     1.0  0.76742  0.47292  0.04109  1.0000
  C   C1993     1.0  0.93060  0.47053  0.21322  1.0000
  H   H3423     1.0  0.80457  0.46104  0.07089  1.0000
  H   H3424     1.0  0.68186  0.47548  0.09953  1.0000
  C   C1994     1.0  0.69949  0.32943  0.03891  1.0000
  H   H3425     1.0  0.65971  0.48224  0.09754  1.0000
  C   C1995     1.0  0.89750  0.43245  0.04889  1.0000
  Fe  Fe284     1.0  0.94897  0.41218  0.22650  1.0000
  H   H3426     1.0  0.94283  0.48432  0.23183  1.0000
  N   N146      1.0  0.69442  0.48296  0.06086  1.0000
  H   H3427     1.0  0.79819  0.48380  0.06234  1.0000
  H   H3428     1.0  0.98181  0.40452  0.15600  1.0000
  H   H3429     1.0  0.94342  0.42033  0.01241  1.0000
  H   H3430     1.0  0.84845  0.40205  0.99079  1.0000
  C   C1996     1.0  0.80160  0.46637  0.04411  1.0000
  H   H3431     1.0  0.93318  0.47769  0.01396  1.0000
  H   H3432     1.0  0.67584  0.05272  0.99562  1.0000
  C   C1997     1.0  0.98578  0.41705  0.18463  1.0000
  H   H3433     1.0  0.72554  0.45760  0.05191  1.0000
  H   H3434     1.0  0.86390  0.47143  0.99356  1.0000
  C   C1998     1.0  0.89654  0.42909  0.99496  1.0000
  H   H3435     1.0  0.88885  0.44065  0.02493  1.0000
  H   H3436     1.0  0.76573  0.42716  0.01142  1.0000
  C   C1999     1.0  0.67532  0.34174  0.08338  1.0000
  H   H3437     1.0  0.91034  0.44237  0.02239  1.0000
  H   H3438     1.0  0.66685  0.14507  0.03898  1.0000
  H   H3439     1.0  0.66376  0.12356  0.04312  1.0000
  C   C2000     1.0  0.93861  0.41561  0.02655  1.0000
  C   C2001     1.0  0.90704  0.47654  0.17062  1.0000
  N   N147      1.0  0.78044  0.39366  0.98838  1.0000
  C   C2002     1.0  0.91552  0.48384  0.06522  1.0000
  N   N148      1.0  0.91984  0.47924  0.22793  1.0000
  H   H3440     1.0  0.82635  0.48534  0.02607  1.0000
  C   C2003     1.0  0.66668  0.31232  0.07034  1.0000
  H   H3441     1.0  0.66279  0.33500  0.04939  1.0000
  C   C2004     1.0  0.66413  0.33219  0.06311  1.0000
  H   H3442     1.0  0.66130  0.34473  0.08982  1.0000
  H   H3443     1.0  0.66140  0.30681  0.06247  1.0000
  N   N149      1.0  0.94349  0.48587  0.04107  1.0000
  H   H3444     1.0  0.65955  0.30932  0.08409  1.0000
  H   H3445     1.0  0.94928  0.48617  0.99680  1.0000
  C   C2005     1.0  0.98987  0.45221  0.29496  1.0000
  H   H3446     1.0  0.97726  0.24452  0.43101  1.0000
  S   S576      1.0  0.93642  0.40104  0.25398  1.0000
  H   H3447     1.0  0.93664  0.25824  0.46075  1.0000
  H   H3448     1.0  0.80418  0.06494  0.41179  1.0000
  S   S577      1.0  0.97373  0.39643  0.26439  1.0000
  H   H3449     1.0  0.91242  0.25170  0.48200  1.0000
  Fe  Fe285     1.0  0.96171  0.38104  0.25430  1.0000
  S   S578      1.0  0.96630  0.35190  0.26493  1.0000
  Fe  Fe286     1.0  0.94973  0.41747  0.26148  1.0000
  H   H3450     1.0  0.86534  0.04006  0.45822  1.0000
  H   H3451     1.0  0.73065  0.01104  0.45603  1.0000
  Fe  Fe287     1.0  0.95656  0.30017  0.36140  1.0000
  S   S579      1.0  0.97193  0.27623  0.35139  1.0000
  S   S580      1.0  0.94313  0.32580  0.34650  1.0000
  Fe  Fe288     1.0  0.96079  0.28317  0.39885  1.0000
  H   H3452     1.0  0.81284  0.01915  0.43128  1.0000
  H   H3453     1.0  0.92993  0.14534  0.47035  1.0000
  Fe  Fe289     1.0  0.95729  0.26144  0.37590  1.0000
  S   S581      1.0  0.94307  0.24002  0.38153  1.0000
  C   C2006     1.0  0.81850  0.99441  0.37275  1.0000
  S   S582      1.0  0.94039  0.28549  0.38449  1.0000
  Fe  Fe290     1.0  0.95974  0.13666  0.37817  1.0000
  S   S583      1.0  0.93998  0.14509  0.36143  1.0000
  S   S584      1.0  0.95259  0.13081  0.40728  1.0000
  C   C2007     1.0  0.67799  0.99642  0.32614  1.0000
  S   S585      1.0  0.97372  0.14378  0.32834  1.0000
  Fe  Fe291     1.0  0.98982  0.27514  0.36836  1.0000
  Fe  Fe292     1.0  0.95736  0.16304  0.34439  1.0000
  S   S586      1.0  0.94994  0.19136  0.33126  1.0000
  Fe  Fe293     1.0  0.95814  0.12502  0.34709  1.0000
  S   S587      1.0  0.95139  0.10414  0.33875  1.0000
  S   S588      1.0  0.97545  0.15628  0.36255  1.0000
  S   S589      1.0  0.97677  0.11529  0.36513  1.0000
  Fe  Fe294     1.0  0.71466  0.02631  0.34479  1.0000
  S   S590      1.0  0.74269  0.01406  0.33548  1.0000
  S   S591      1.0  0.69614  0.03766  0.32619  1.0000
  Fe  Fe295     1.0  0.71921  0.02006  0.38191  1.0000
  S   S592      1.0  0.74747  0.00721  0.37578  1.0000
  S   S593      1.0  0.70616  0.01949  0.40995  1.0000
  Fe  Fe296     1.0  0.74868  0.02861  0.35172  1.0000
  S   S594      1.0  0.77261  0.03963  0.34044  1.0000
  H   H3454     1.0  0.98707  0.17643  0.40525  1.0000
  C   C2008     1.0  0.74618  0.98807  0.42368  1.0000
  S   S595      1.0  0.72086  0.04292  0.35903  1.0000
  S   S596      1.0  0.71080  0.00467  0.36838  1.0000
  Fe  Fe297     1.0  0.72824  0.06353  0.46757  1.0000
  H   H3455     1.0  0.98109  0.22116  0.37790  1.0000
  H   H3456     1.0  0.96005  0.13066  0.30582  1.0000
  H   H3457     1.0  0.92020  0.09996  0.44623  1.0000
  Fe  Fe298     1.0  0.98335  0.40792  0.23618  1.0000
  N   N150      1.0  0.83853  0.02455  0.45652  1.0000
  H   H3458     1.0  0.96454  0.48276  0.25988  1.0000
  S   S597      1.0  0.88989  0.08697  0.44376  1.0000
  Fe  Fe299     1.0  0.87248  0.06351  0.36271  1.0000
  S   S598      1.0  0.85801  0.05586  0.39033  1.0000
  S   S599      1.0  0.87535  0.09149  0.35421  1.0000
  Fe  Fe300     1.0  0.88102  0.02657  0.35737  1.0000
  S   S600      1.0  0.86771  0.01632  0.38457  1.0000
  S   S601      1.0  0.89548  0.00530  0.34308  1.0000
  Fe  Fe301     1.0  0.84651  0.04013  0.37997  1.0000
  S   S602      1.0  0.81924  0.03600  0.39211  1.0000
  Fe  Fe302     1.0  0.88053  0.03291  0.39195  1.0000
  S   S603      1.0  0.89469  0.02277  0.41374  1.0000
  S   S604      1.0  0.85897  0.04966  0.35193  1.0000
  S   S605      1.0  0.89569  0.04130  0.36524  1.0000
  H   H3459     1.0  0.92579  0.26627  0.44363  1.0000
  C   C2009     1.0  0.81379  0.01916  0.48351  1.0000
  C   C2010     1.0  0.86423  0.00127  0.34071  1.0000
  H   H3460     1.0  0.66288  0.02497  0.29161  1.0000
  S   S606      1.0  0.95187  0.28566  0.42671  1.0000
  H   H3461     1.0  0.97636  0.20552  0.39759  1.0000
  H   H3462     1.0  0.78489  0.00458  0.32405  1.0000
  H   H3463     1.0  0.85943  0.01500  0.34067  1.0000
  H   H3464     1.0  0.79162  0.08800  0.43293  1.0000
  H   H3465     1.0  0.96074  0.05058  0.36991  1.0000
  C   C2011     1.0  0.89555  0.04061  0.42096  1.0000
  C   C2012     1.0  0.89096  0.05761  0.41120  1.0000
  C   C2013     1.0  0.88958  0.07193  0.41801  1.0000
  C   C2014     1.0  0.89279  0.06922  0.43460  1.0000
  C   C2015     1.0  0.89835  0.05223  0.44391  1.0000
  C   C2016     1.0  0.89982  0.03793  0.43705  1.0000
  H   H3466     1.0  0.88826  0.05980  0.39847  1.0000
  H   H3467     1.0  0.88555  0.08505  0.41064  1.0000
  H   H3468     1.0  0.90129  0.05002  0.45655  1.0000
  H   H3469     1.0  0.90359  0.02482  0.44457  1.0000
  H   H3470     1.0  0.95763  0.11402  0.29668  1.0000
  C   C2017     1.0  0.71170  0.03424  0.41824  1.0000
  C   C2018     1.0  0.70611  0.03426  0.43601  1.0000
  Fe  Fe303     1.0  0.96963  0.17880  0.46064  1.0000
  C   C2019     1.0  0.72030  0.05781  0.43176  1.0000
  C   C2020     1.0  0.72587  0.05780  0.41398  1.0000
  C   C2021     1.0  0.72181  0.04584  0.40728  1.0000
  H   H3471     1.0  0.76397  0.05382  0.41598  1.0000
  C   C2022     1.0  0.81536  0.02606  0.43986  1.0000
  H   H3472     1.0  0.73327  0.06708  0.40537  1.0000
  H   H3473     1.0  0.72618  0.04589  0.39355  1.0000
  C   C2023     1.0  0.66922  0.01999  0.30255  1.0000
  H   H3474     1.0  0.91530  0.45877  0.30024  1.0000
  H   H3475     1.0  0.93255  0.12569  0.44178  1.0000
  H   H3476     1.0  0.95010  0.21285  0.45992  1.0000
  C   C2024     1.0  0.90562  0.28906  0.32275  1.0000
  H   H3477     1.0  0.89180  0.13104  0.42470  1.0000
  H   H3478     1.0  0.91419  0.12583  0.42559  1.0000
  H   H3479     1.0  0.87268  0.13547  0.48175  1.0000
  C   C2025     1.0  0.91673  0.24742  0.42588  1.0000
  C   C2026     1.0  0.92279  0.23350  0.44147  1.0000
  C   C2027     1.0  0.78528  0.03877  0.35497  1.0000
  C   C2028     1.0  0.80181  0.04249  0.34833  1.0000
  C   C2029     1.0  0.81227  0.04173  0.35963  1.0000
  C   C2030     1.0  0.80625  0.03731  0.37765  1.0000
  C   C2031     1.0  0.78970  0.03356  0.38431  1.0000
  C   C2032     1.0  0.77922  0.03433  0.37301  1.0000
  H   H3480     1.0  0.80656  0.04592  0.33438  1.0000
  H   H3481     1.0  0.82499  0.04457  0.35432  1.0000
  H   H3482     1.0  0.78498  0.02983  0.39818  1.0000
  H   H3483     1.0  0.76639  0.03170  0.37824  1.0000
  C   C2033     1.0  0.93018  0.10052  0.34422  1.0000
  C   C2034     1.0  0.91575  0.11231  0.35124  1.0000
  C   C2035     1.0  0.89896  0.10929  0.35463  1.0000
  C   C2036     1.0  0.89655  0.09439  0.35122  1.0000
  C   C2037     1.0  0.91103  0.08254  0.34444  1.0000
  C   C2038     1.0  0.92775  0.08567  0.34083  1.0000
  H   H3484     1.0  0.91747  0.12383  0.35387  1.0000
  H   H3485     1.0  0.88777  0.11854  0.35981  1.0000
  H   H3486     1.0  0.90929  0.07124  0.34139  1.0000
  H   H3487     1.0  0.93883  0.07658  0.33527  1.0000
  C   C2039     1.0  0.94623  0.22627  0.36740  1.0000
  C   C2040     1.0  0.93787  0.21235  0.37327  1.0000
  C   C2041     1.0  0.93954  0.20130  0.36235  1.0000
  C   C2042     1.0  0.94901  0.20454  0.34523  1.0000
  C   C2043     1.0  0.95733  0.21855  0.33923  1.0000
  C   C2044     1.0  0.95622  0.22924  0.35044  1.0000
  H   H3488     1.0  0.93001  0.21010  0.38633  1.0000
  H   H3489     1.0  0.93306  0.19055  0.36705  1.0000
  H   H3490     1.0  0.96480  0.22098  0.32600  1.0000
  H   H3491     1.0  0.96286  0.23986  0.34591  1.0000
  C   C2045     1.0  0.95203  0.17861  0.41234  1.0000
  C   C2046     1.0  0.95091  0.16511  0.40563  1.0000
  C   C2047     1.0  0.95417  0.14786  0.41520  1.0000
  C   C2048     1.0  0.95853  0.14415  0.43141  1.0000
  C   C2049     1.0  0.79525  0.07546  0.40435  1.0000
  H   H3492     1.0  0.94973  0.19192  0.40490  1.0000
  H   H3493     1.0  0.94741  0.16807  0.39313  1.0000
  H   H3494     1.0  0.74887  0.01331  0.43794  1.0000
  Fe  Fe304     1.0  0.99068  0.13575  0.34780  1.0000
  C   C2050     1.0  0.95953  0.34469  0.28755  1.0000
  C   C2051     1.0  0.96552  0.32720  0.29549  1.0000
  C   C2052     1.0  0.96085  0.32130  0.31364  1.0000
  C   C2053     1.0  0.94965  0.33274  0.32382  1.0000
  C   C2054     1.0  0.94351  0.35016  0.31584  1.0000
  C   C2055     1.0  0.94864  0.35620  0.29778  1.0000
  H   H3495     1.0  0.66220  0.00433  0.39049  1.0000
  H   H3496     1.0  0.96596  0.30800  0.31978  1.0000
  H   H3497     1.0  0.93490  0.35909  0.32369  1.0000
  H   H3498     1.0  0.94399  0.36972  0.29175  1.0000
  H   H3499     1.0  0.89677  0.15976  0.45507  1.0000
  S   S607      1.0  0.78322  0.06652  0.47396  1.0000
  H   H3500     1.0  0.95547  0.22913  0.42858  1.0000
  H   H3501     1.0  0.76069  0.09223  0.44951  1.0000
  S   S608      1.0  0.72520  0.07311  0.43980  1.0000
  H   H3502     1.0  0.91029  0.31576  0.31510  1.0000
  H   H3503     1.0  0.75094  0.09154  0.41623  1.0000
  H   H3504     1.0  0.77019  0.11579  0.39658  1.0000
  H   H3505     1.0  0.90221  0.26881  0.35462  1.0000
  S   S609      1.0  0.73301  0.08113  0.48137  1.0000
  C   C2056     1.0  0.76496  0.10229  0.43807  1.0000
  C   C2057     1.0  0.85159  0.01119  0.46603  1.0000
  C   C2058     1.0  0.68658  0.02384  0.32053  1.0000
  C   C2059     1.0  0.67793  0.03035  0.30660  1.0000
  C   C2060     1.0  0.68686  0.00672  0.33007  1.0000
  H   H3506     1.0  0.95058  0.28222  0.46266  1.0000
  H   H3507     1.0  0.98862  0.28601  0.41455  1.0000
  S   S610      1.0  0.93542  0.43307  0.28173  1.0000
  H   H3508     1.0  0.94409  0.29697  0.30435  1.0000
  H   H3509     1.0  0.93167  0.45854  0.24704  1.0000
  H   H3510     1.0  0.78575  0.10575  0.41599  1.0000
  C   C2061     1.0  0.96812  0.28425  0.43755  1.0000
  H   H3511     1.0  0.92973  0.11563  0.30957  1.0000
  N   N151      1.0  0.94391  0.07870  0.39884  1.0000
  C   C2062     1.0  0.93037  0.09124  0.38920  1.0000
  C   C2063     1.0  0.95701  0.06884  0.38604  1.0000
  C   C2064     1.0  0.95241  0.08929  0.40498  1.0000
  C   C2065     1.0  0.93477  0.06692  0.41408  1.0000
  C   C2066     1.0  0.91775  0.10548  0.39835  1.0000
  C   C2067     1.0  0.94993  0.05727  0.37900  1.0000
  C   C2068     1.0  0.97068  0.08084  0.40888  1.0000
  C   C2069     1.0  0.94614  0.05172  0.42488  1.0000
  H   H3512     1.0  0.93680  0.09834  0.37643  1.0000
  H   H3513     1.0  0.92210  0.08422  0.38627  1.0000
  H   H3514     1.0  0.96818  0.06020  0.39157  1.0000
  H   H3515     1.0  0.96287  0.07813  0.37459  1.0000
  H   H3516     1.0  0.95395  0.10143  0.39496  1.0000
  H   H3517     1.0  0.94393  0.09370  0.41684  1.0000
  H   H3518     1.0  0.92589  0.07456  0.42355  1.0000
  H   H3519     1.0  0.92596  0.06143  0.41005  1.0000
  H   H3520     1.0  0.92442  0.11541  0.39858  1.0000
  H   H3521     1.0  0.90737  0.11243  0.39089  1.0000
  H   H3522     1.0  0.91124  0.10008  0.41171  1.0000
  C   C2070     1.0  0.91850  0.46505  0.24435  1.0000
  H   H3523     1.0  0.68191  0.99299  0.39734  1.0000
  C   C2071     1.0  0.80635  0.08875  0.39350  1.0000
  H   H3524     1.0  0.97436  0.08966  0.41466  1.0000
  H   H3525     1.0  0.98060  0.07946  0.39671  1.0000
  H   H3526     1.0  0.97137  0.06814  0.41828  1.0000
  H   H3527     1.0  0.94847  0.05583  0.43569  1.0000
  H   H3528     1.0  0.95865  0.04590  0.41715  1.0000
  H   H3529     1.0  0.93919  0.04091  0.43065  1.0000
  H   H3530     1.0  0.90166  0.14795  0.42451  1.0000
  C   C2072     1.0  0.85328  0.99170  0.33912  1.0000
  C   C2073     1.0  0.84644  0.03906  0.44398  1.0000
  H   H3531     1.0  0.98664  0.46014  0.30482  1.0000
  H   H3532     1.0  0.80720  0.00247  0.36700  1.0000
  H   H3533     1.0  0.85661  0.03418  0.43320  1.0000
  H   H3534     1.0  0.83651  0.04915  0.43750  1.0000
  H   H3535     1.0  0.91081  0.23086  0.45099  1.0000
  H   H3536     1.0  0.89275  0.11703  0.45484  1.0000
  C   C2074     1.0  0.81155  0.07384  0.47897  1.0000
  C   C2075     1.0  0.74476  0.00624  0.45153  1.0000
  N   N152      1.0  0.92683  0.14289  0.29600  1.0000
  C   C2076     1.0  0.92210  0.12540  0.30035  1.0000
  C   C2077     1.0  0.94507  0.14098  0.28503  1.0000
  C   C2078     1.0  0.91415  0.15607  0.28571  1.0000
  C   C2079     1.0  0.92546  0.14762  0.31291  1.0000
  C   C2080     1.0  0.90279  0.12509  0.30859  1.0000
  C   C2081     1.0  0.92003  0.17261  0.27387  1.0000
  C   C2082     1.0  0.93113  0.16433  0.31183  1.0000
  H   H3537     1.0  0.92548  0.12001  0.28848  1.0000
  H   H3538     1.0  0.94936  0.15345  0.28062  1.0000
  H   H3539     1.0  0.94556  0.13727  0.27280  1.0000
  H   H3540     1.0  0.91088  0.15001  0.27678  1.0000
  H   H3541     1.0  0.90160  0.16044  0.29458  1.0000
  H   H3542     1.0  0.91182  0.14939  0.32045  1.0000
  H   H3543     1.0  0.93256  0.13676  0.32180  1.0000
  H   H3544     1.0  0.89803  0.13010  0.32064  1.0000
  H   H3545     1.0  0.89418  0.13234  0.29931  1.0000
  H   H3546     1.0  0.90136  0.11136  0.31230  1.0000
  H   H3547     1.0  0.90880  0.18180  0.26870  1.0000
  H   H3548     1.0  0.93028  0.16950  0.26240  1.0000
  H   H3549     1.0  0.92466  0.17964  0.28073  1.0000
  H   H3550     1.0  0.92026  0.17598  0.31032  1.0000
  H   H3551     1.0  0.94274  0.16651  0.30155  1.0000
  H   H3552     1.0  0.93513  0.16312  0.32409  1.0000
  C   C2083     1.0  0.94978  0.28331  0.31011  1.0000
  H   H3553     1.0  0.69394  0.00147  0.34043  1.0000
  H   H3554     1.0  0.81638  0.03932  0.43209  1.0000
  H   H3555     1.0  0.97934  0.20027  0.37682  1.0000
  H   H3556     1.0  0.91704  0.15392  0.44068  1.0000
  C   C2084     1.0  0.93973  0.22346  0.46477  1.0000
  C   C2085     1.0  0.91464  0.26431  0.34574  1.0000
  H   H3557     1.0  0.87676  0.01325  0.44849  1.0000
  H   H3558     1.0  0.92432  0.25808  0.35416  1.0000
  H   H3559     1.0  0.98349  0.33202  0.32569  1.0000
  C   C2086     1.0  0.93179  0.99243  0.36801  1.0000
  H   H3560     1.0  0.79654  0.01269  0.30277  1.0000
  C   C2087     1.0  0.92612  0.46389  0.29144  1.0000
  H   H3561     1.0  0.87635  0.99254  0.46289  1.0000
  H   H3562     1.0  0.93241  0.26842  0.30896  1.0000
  H   H3563     1.0  0.94392  0.25965  0.32603  1.0000
  H   H3564     1.0  0.91466  0.30738  0.35952  1.0000
  H   H3565     1.0  0.91138  0.47016  0.25609  1.0000
  H   H3566     1.0  0.76273  0.08029  0.40004  1.0000
  H   H3567     1.0  0.82966  0.99940  0.40757  1.0000
  H   H3568     1.0  0.76833  0.11173  0.44328  1.0000
  C   C2088     1.0  0.92487  0.29072  0.34091  1.0000
  C   C2089     1.0  0.93627  0.27202  0.31927  1.0000
  H   H3569     1.0  0.93996  0.09403  0.45375  1.0000
  H   H3570     1.0  0.84503  0.05603  0.46130  1.0000
  H   H3571     1.0  0.75116  0.11402  0.39201  1.0000
  H   H3572     1.0  0.90826  0.23916  0.35064  1.0000
  H   H3573     1.0  0.92353  0.24346  0.33075  1.0000
  H   H3574     1.0  0.94527  0.22813  0.47313  1.0000
  H   H3575     1.0  0.85495  0.01656  0.47543  1.0000
  C   C2090     1.0  0.78114  0.09450  0.42542  1.0000
  C   C2091     1.0  0.71064  0.04585  0.44282  1.0000
  H   H3576     1.0  0.96131  0.13081  0.43876  1.0000
  H   H3577     1.0  0.78340  0.06163  0.43944  1.0000
  C   C2092     1.0  0.91000  0.29851  0.35472  1.0000
  H   H3578     1.0  0.89854  0.30651  0.34930  1.0000
  H   H3579     1.0  0.81380  0.00781  0.47878  1.0000
  H   H3580     1.0  0.75398  0.10947  0.43154  1.0000
  H   H3581     1.0  0.67805  0.04343  0.29889  1.0000
  C   C2093     1.0  0.77354  0.05058  0.42433  1.0000
  C   C2094     1.0  0.77402  0.06646  0.43060  1.0000
  H   H3582     1.0  0.73714  0.00110  0.42159  1.0000
  C   C2095     1.0  0.89560  0.13027  0.45017  1.0000
  H   H3583     1.0  0.95748  0.28320  0.31936  1.0000
  C   C2096     1.0  0.95256  0.46049  0.26928  1.0000
  H   H3584     1.0  0.83029  0.00267  0.45364  1.0000
  H   H3585     1.0  0.91982  0.09492  0.46923  1.0000
  H   H3586     1.0  0.84409  0.99273  0.38938  1.0000
  C   C2097     1.0  0.92739  0.25514  0.45503  1.0000
  H   H3587     1.0  0.93432  0.12022  0.46372  1.0000
  H   H3588     1.0  0.96222  0.45270  0.26092  1.0000
  C   C2098     1.0  0.97647  0.28118  0.46473  1.0000
  H   H3589     1.0  0.90618  0.28834  0.36630  1.0000
  C   C2099     1.0  0.91765  0.99116  0.38488  1.0000
  H   H3590     1.0  0.70618  0.04592  0.45652  1.0000
  H   H3591     1.0  0.98791  0.36625  0.33053  1.0000
  H   H3592     1.0  0.96315  0.15448  0.45053  1.0000
  H   H3593     1.0  0.81264  0.09253  0.40184  1.0000
  Fe  Fe305     1.0  0.88561  0.07663  0.47257  1.0000
  C   C2100     1.0  0.76378  0.08963  0.40703  1.0000
  H   H3594     1.0  0.97354  0.22633  0.44850  1.0000
  C   C2101     1.0  0.93855  0.45375  0.28066  1.0000
  C   C2102     1.0  0.92578  0.12050  0.45515  1.0000
  H   H3595     1.0  0.81453  0.04325  0.46355  1.0000
  H   H3596     1.0  0.90089  0.25020  0.46665  1.0000
  H   H3597     1.0  0.90871  0.25962  0.42980  1.0000
  C   C2103     1.0  0.92545  0.21412  0.47682  1.0000
  H   H3598     1.0  0.91870  0.30360  0.29799  1.0000
  H   H3599     1.0  0.90299  0.28070  0.31563  1.0000
  H   H3600     1.0  0.81558  0.07648  0.46493  1.0000
  H   H3601     1.0  0.89602  0.31223  0.30419  1.0000
  H   H3602     1.0  0.94470  0.04700  0.38955  1.0000
  C   C2104     1.0  0.90808  0.30608  0.30932  1.0000
  C   C2105     1.0  0.90986  0.15079  0.45446  1.0000
  N   N153      1.0  0.90806  0.13212  0.45970  1.0000
  H   H3603     1.0  0.68962  0.00875  0.47933  1.0000
  H   H3604     1.0  0.92908  0.22112  0.43696  1.0000
  H   H3605     1.0  0.97201  0.35406  0.34320  1.0000
  C   C2106     1.0  0.95662  0.17482  0.42847  1.0000
  H   H3606     1.0  0.89333  0.29228  0.33239  1.0000
  H   H3607     1.0  0.79259  0.06945  0.39501  1.0000
  S   S611      1.0  0.97544  0.30013  0.37670  1.0000
  S   S612      1.0  0.95974  0.19134  0.43613  1.0000
  H   H3608     1.0  0.78658  0.04463  0.41756  1.0000
  H   H3609     1.0  0.90074  0.25432  0.33236  1.0000
  H   H3610     1.0  0.90987  0.16086  0.47671  1.0000
  H   H3611     1.0  0.95910  0.27757  0.29942  1.0000
  N   N154      1.0  0.93492  0.23799  0.44957  1.0000
  C   C2107     1.0  0.95134  0.23977  0.43581  1.0000
  H   H3612     1.0  0.90326  0.27068  0.46699  1.0000
  H   H3613     1.0  0.90850  0.24236  0.42063  1.0000
  C   C2108     1.0  0.96737  0.23971  0.44231  1.0000
  H   H3614     1.0  0.97405  0.31829  0.28760  1.0000
  C   C2109     1.0  0.67006  0.99106  0.39482  1.0000
  C   C2110     1.0  0.90115  0.12687  0.47902  1.0000
  H   H3615     1.0  0.88278  0.13937  0.45299  1.0000
  H   H3616     1.0  0.84231  0.01343  0.43433  1.0000
  Fe  Fe306     1.0  0.73930  0.99380  0.36028  1.0000
  C   C2111     1.0  0.91009  0.25671  0.46854  1.0000
  C   C2112     1.0  0.88155  0.99327  0.34155  1.0000
  H   H3617     1.0  0.75123  0.00989  0.45980  1.0000
  H   H3618     1.0  0.80622  0.00762  0.32105  1.0000
  H   H3619     1.0  0.90620  0.00188  0.38214  1.0000
  H   H3620     1.0  0.82764  0.00296  0.37013  1.0000
  S   S613      1.0  0.75259  0.04337  0.47093  1.0000
  N   N155      1.0  0.77856  0.08193  0.41652  1.0000
  H   H3621     1.0  0.97194  0.36326  0.32077  1.0000
  H   H3622     1.0  0.81705  0.08248  0.38398  1.0000
  C   C2113     1.0  0.95972  0.15759  0.43803  1.0000
  H   H3623     1.0  0.86035  0.05880  0.44135  1.0000
  C   C2114     1.0  0.91169  0.24967  0.33919  1.0000
  H   H3624     1.0  0.92969  0.30194  0.33154  1.0000
  C   C2115     1.0  0.92619  0.10132  0.45622  1.0000
  H   H3625     1.0  0.79897  0.10053  0.38592  1.0000
  C   C2116     1.0  0.96379  0.28252  0.45564  1.0000
  C   C2117     1.0  0.76462  0.10675  0.39317  1.0000
  H   H3626     1.0  0.77191  0.10404  0.38026  1.0000
  S   S614      1.0  0.97668  0.25806  0.39191  1.0000
  C   C2118     1.0  0.98402  0.20701  0.38399  1.0000
  H   H3627     1.0  0.76949  0.04039  0.43576  1.0000
  H   H3628     1.0  0.71721  0.99613  0.44813  1.0000
  C   C2119     1.0  0.85469  0.04883  0.45194  1.0000
  H   H3629     1.0  0.88287  0.15178  0.48330  1.0000
  H   H3630     1.0  0.86659  0.99827  0.44442  1.0000
  C   C2120     1.0  0.83226  0.01585  0.44619  1.0000
  C   C2121     1.0  0.91927  0.15587  0.46564  1.0000
  H   H3631     1.0  0.69815  0.02542  0.44450  1.0000
  C   C2122     1.0  0.90136  0.13402  0.43013  1.0000
  C   C2123     1.0  0.95933  0.12755  0.29379  1.0000
  H   H3632     1.0  0.93989  0.06499  0.37142  1.0000
  H   H3633     1.0  0.76105  0.07019  0.43902  1.0000
  C   C2124     1.0  0.79787  0.00320  0.31532  1.0000
  H   H3634     1.0  0.90749  0.44238  0.25767  1.0000
  H   H3635     1.0  0.96370  0.08944  0.48070  1.0000
  H   H3636     1.0  0.76411  0.00530  0.40974  1.0000
  H   H3637     1.0  0.82877  0.03809  0.47762  1.0000
  N   N156      1.0  0.92040  0.27939  0.33188  1.0000
  H   H3638     1.0  0.93577  0.28315  0.34753  1.0000
  H   H3639     1.0  0.84013  0.99818  0.33766  1.0000
  C   C2125     1.0  0.92732  0.48072  0.29075  1.0000
  H   H3640     1.0  0.80390  0.02694  0.45085  1.0000
  H   H3641     1.0  0.94905  0.25203  0.42572  1.0000
  H   H3642     1.0  0.97218  0.12786  0.28477  1.0000
  H   H3643     1.0  0.93307  0.00621  0.36320  1.0000
  C   C2126     1.0  0.98065  0.35696  0.33015  1.0000
  H   H3644     1.0  0.97853  0.44646  0.29699  1.0000
  C   C2127     1.0  0.91002  0.45056  0.24425  1.0000
  C   C2128     1.0  0.66898  0.00309  0.31251  1.0000
  C   C2129     1.0  0.86871  0.00349  0.45455  1.0000
  C   C2130     1.0  0.82385  0.03214  0.46984  1.0000
  H   H3645     1.0  0.92773  0.25037  0.41502  1.0000
  H   H3646     1.0  0.96429  0.24828  0.45151  1.0000
  H   H3647     1.0  0.92519  0.16698  0.45763  1.0000
  S   S615      1.0  0.97876  0.19264  0.47516  1.0000
  C   C2131     1.0  0.98522  0.28460  0.42854  1.0000
  H   H3648     1.0  0.84589  0.99998  0.47410  1.0000
  C   C2132     1.0  0.95394  0.47742  0.26880  1.0000
  H   H3649     1.0  0.71247  0.01963  0.48450  1.0000
  H   H3650     1.0  0.88923  0.98810  0.40782  1.0000
  H   H3651     1.0  0.92209  0.20591  0.47008  1.0000
  H   H3652     1.0  0.98811  0.35332  0.29284  1.0000
  H   H3653     1.0  0.89984  0.11314  0.48285  1.0000
  H   H3654     1.0  0.91358  0.22305  0.48210  1.0000
  H   H3655     1.0  0.80495  0.99901  0.39791  1.0000
  H   H3656     1.0  0.77989  0.99622  0.29511  1.0000
  H   H3657     1.0  0.97303  0.27960  0.47870  1.0000
  H   H3658     1.0  0.92268  0.99479  0.39430  1.0000
  H   H3659     1.0  0.80027  0.99354  0.42693  1.0000
  C   C2133     1.0  0.76471  0.99113  0.41515  1.0000
  S   S616      1.0  0.95322  0.16523  0.48424  1.0000
  H   H3660     1.0  0.83451  0.07898  0.48261  1.0000
  H   H3661     1.0  0.75953  0.98995  0.30302  1.0000
  H   H3662     1.0  0.99113  0.46085  0.28175  1.0000
  H   H3663     1.0  0.68214  0.98800  0.36860  1.0000
  H   H3664     1.0  0.87838  0.48375  0.24221  1.0000
  H   H3665     1.0  0.89747  0.45577  0.24001  1.0000
  H   H3666     1.0  0.92857  0.98905  0.35729  1.0000
  H   H3667     1.0  0.91888  0.44169  0.23594  1.0000
  C   C2134     1.0  0.83730  0.98747  0.40281  1.0000
  S   S617      1.0  0.87020  0.05613  0.48523  1.0000
  H   H3668     1.0  0.85471  0.98775  0.41864  1.0000
  Fe  Fe307     1.0  0.97719  0.14378  0.48511  1.0000
  C   C2135     1.0  0.81206  0.98743  0.39237  1.0000
  S   S618      1.0  0.74026  0.00233  0.50348  1.0000
  C   C2136     1.0  0.82231  0.07519  0.48896  1.0000
  H   H3669     1.0  0.93060  0.20511  0.48817  1.0000
  H   H3670     1.0  0.91816  0.02196  0.57227  1.0000
  H   H3671     1.0  0.89864  0.29854  0.55798  1.0000
  Fe  Fe308     1.0  0.96696  0.38345  0.63957  1.0000
  H   H3672     1.0  0.66868  0.02893  0.50783  1.0000
  Fe  Fe309     1.0  0.96471  0.17689  0.49894  1.0000
  S   S619      1.0  0.94797  0.18778  0.52182  1.0000
  H   H3673     1.0  0.98170  0.44987  0.64932  1.0000
  H   H3674     1.0  0.92633  0.44742  0.68508  1.0000
  H   H3675     1.0  0.98181  0.37619  0.66907  1.0000
  H   H3676     1.0  0.89428  0.00410  0.55214  1.0000
  C   C2137     1.0  0.95813  0.34171  0.71243  1.0000
  C   C2138     1.0  0.67237  0.08908  0.60463  1.0000
  H   H3677     1.0  0.96354  0.33283  0.67262  1.0000
  Fe  Fe310     1.0  0.97165  0.26978  0.52719  1.0000
  H   H3678     1.0  0.91133  0.05362  0.53108  1.0000
  S   S620      1.0  0.94825  0.25823  0.53896  1.0000
  S   S621      1.0  0.94743  0.39191  0.66282  1.0000
  S   S622      1.0  0.97286  0.33956  0.60394  1.0000
  H   H3679     1.0  0.67898  0.03506  0.60859  1.0000
  H   H3680     1.0  0.93582  0.05069  0.50991  1.0000
  S   S623      1.0  0.97126  0.29490  0.50711  1.0000
  C   C2139     1.0  0.95413  0.44309  0.67433  1.0000
  H   H3681     1.0  0.67851  0.08416  0.56313  1.0000
  H   H3682     1.0  0.90874  0.02790  0.52766  1.0000
  Fe  Fe311     1.0  0.89357  0.07782  0.50585  1.0000
  H   H3683     1.0  0.96596  0.43409  0.70505  1.0000
  S   S624      1.0  0.90522  0.09165  0.51863  1.0000
  Fe  Fe312     1.0  0.85858  0.07135  0.50599  1.0000
  C   C2140     1.0  0.92626  0.31860  0.53118  1.0000
  S   S625      1.0  0.83048  0.07375  0.51974  1.0000
  Fe  Fe313     1.0  0.89153  0.04347  0.49982  1.0000
  S   S626      1.0  0.66274  0.01773  0.58289  1.0000
  H   H3684     1.0  0.66489  0.99664  0.51189  1.0000
  S   S627      1.0  0.87887  0.05716  0.52176  1.0000
  H   H3685     1.0  0.66092  0.06358  0.60313  1.0000
  H   H3686     1.0  0.95807  0.35568  0.70658  1.0000
  H   H3687     1.0  0.70316  0.08950  0.58425  1.0000
  H   H3688     1.0  0.86526  0.02379  0.51359  1.0000
  S   S628      1.0  0.74369  0.04585  0.51159  1.0000
  H   H3689     1.0  0.96269  0.45184  0.63073  1.0000
  C   C2141     1.0  0.94359  0.28075  0.57922  1.0000
  C   C2142     1.0  0.97175  0.45241  0.61832  1.0000
  H   H3690     1.0  0.93224  0.35441  0.69335  1.0000
  H   H3691     1.0  0.92960  0.33157  0.52623  1.0000
  H   H3692     1.0  0.66037  0.01952  0.70351  1.0000
  H   H3693     1.0  0.94332  0.33285  0.55238  1.0000
  H   H3694     1.0  0.93848  0.30425  0.58743  1.0000
  C   C2143     1.0  0.95842  0.33996  0.68323  1.0000
  H   H3695     1.0  0.67301  0.06880  0.62881  1.0000
  H   H3696     1.0  0.67827  0.00930  0.54350  1.0000
  H   H3697     1.0  0.93347  0.33166  0.69453  1.0000
  H   H3698     1.0  0.88037  0.13322  0.50075  1.0000
  C   C2144     1.0  0.97178  0.34900  0.55270  1.0000
  C   C2145     1.0  0.97130  0.35164  0.56910  1.0000
  C   C2146     1.0  0.72389  0.99501  0.49958  1.0000
  H   H3699     1.0  0.93882  0.02664  0.56371  1.0000
  H   H3700     1.0  0.93267  0.40103  0.69624  1.0000
  C   C2147     1.0  0.85585  0.00291  0.51089  1.0000
  H   H3701     1.0  0.93584  0.07977  0.49291  1.0000
  H   H3702     1.0  0.92734  0.05514  0.54094  1.0000
  H   H3703     1.0  0.88551  0.02690  0.55102  1.0000
  C   C2148     1.0  0.94332  0.11821  0.50665  1.0000
  C   C2149     1.0  0.92781  0.11232  0.51400  1.0000
  C   C2150     1.0  0.92497  0.09848  0.50906  1.0000
  C   C2151     1.0  0.93786  0.09042  0.49682  1.0000
  H   H3704     1.0  0.96290  0.46337  0.69201  1.0000
  H   H3705     1.0  0.94537  0.12885  0.51060  1.0000
  H   H3706     1.0  0.91792  0.11861  0.52348  1.0000
  C   C2152     1.0  0.97493  0.42986  0.69334  1.0000
  C   C2153     1.0  0.68586  0.04591  0.60446  1.0000
  H   H3707     1.0  0.70549  0.06793  0.59684  1.0000
  C   C2154     1.0  0.94836  0.20784  0.52536  1.0000
  C   C2155     1.0  0.93872  0.21210  0.54113  1.0000
  C   C2156     1.0  0.93874  0.22764  0.54497  1.0000
  C   C2157     1.0  0.94866  0.23900  0.53322  1.0000
  C   C2158     1.0  0.95834  0.23492  0.51729  1.0000
  C   C2159     1.0  0.95799  0.21941  0.51325  1.0000
  H   H3708     1.0  0.93113  0.20331  0.55047  1.0000
  H   H3709     1.0  0.93114  0.23077  0.55721  1.0000
  H   H3710     1.0  0.96576  0.24385  0.50800  1.0000
  H   H3711     1.0  0.96514  0.21644  0.50086  1.0000
  C   C2160     1.0  0.92963  0.02016  0.56147  1.0000
  C   C2161     1.0  0.81708  0.07205  0.50710  1.0000
  H   H3712     1.0  0.95556  0.30279  0.56870  1.0000
  H   H3713     1.0  0.66154  0.01872  0.65888  1.0000
  C   C2162     1.0  0.88325  0.13767  0.48631  1.0000
  S   S629      1.0  0.97181  0.48500  0.62050  1.0000
  H   H3714     1.0  0.67350  0.05877  0.58319  1.0000
  C   C2163     1.0  0.93842  0.34337  0.68676  1.0000
  C   C2164     1.0  0.98667  0.17137  0.54506  1.0000
  C   C2165     1.0  0.98326  0.31812  0.56230  1.0000
  H   H3715     1.0  0.79994  0.02586  0.48718  1.0000
  C   C2166     1.0  0.96356  0.31268  0.70667  1.0000
  H   H3716     1.0  0.93425  0.34736  0.67411  1.0000
  C   C2167     1.0  0.97777  0.46766  0.60980  1.0000
  H   H3717     1.0  0.71099  0.03902  0.53972  1.0000
  H   H3718     1.0  0.79690  0.06523  0.52924  1.0000
  C   C2168     1.0  0.93817  0.44821  0.68863  1.0000
  S   S630      1.0  0.90263  0.01466  0.50250  1.0000
  C   C2169     1.0  0.66260  0.02091  0.67133  1.0000
  N   N157      1.0  0.92513  0.02863  0.54388  1.0000
  C   C2170     1.0  0.80101  0.06759  0.51520  1.0000
  H   H3719     1.0  0.96639  0.36454  0.57175  1.0000
  C   C2171     1.0  0.66949  0.06278  0.54784  1.0000
  H   H3720     1.0  0.91677  0.28286  0.56591  1.0000
  H   H3721     1.0  0.93664  0.29344  0.54586  1.0000
  S   S631      1.0  0.71189  0.05000  0.49134  1.0000
  H   H3722     1.0  0.94499  0.39498  0.72246  1.0000
  H   H3723     1.0  0.78621  0.99417  0.49451  1.0000
  H   H3724     1.0  0.98758  0.34438  0.68932  1.0000
  C   C2172     1.0  0.67824  0.08056  0.62203  1.0000
  C   C2173     1.0  0.97045  0.46147  0.67889  1.0000
  H   H3725     1.0  0.66170  0.07569  0.54385  1.0000
  H   H3726     1.0  0.95045  0.31323  0.71547  1.0000
  H   H3727     1.0  0.96319  0.47149  0.66941  1.0000
  H   H3728     1.0  0.69251  0.07766  0.62064  1.0000
  C   C2174     1.0  0.97064  0.38265  0.71040  1.0000
  H   H3729     1.0  0.95157  0.03225  0.53378  1.0000
  S   S632      1.0  0.98259  0.27791  0.54516  1.0000
  H   H3730     1.0  0.91200  0.32026  0.53586  1.0000
  N   N158      1.0  0.96650  0.33091  0.69886  1.0000
  H   H3731     1.0  0.77805  0.06231  0.51150  1.0000
  H   H3732     1.0  0.67366  0.01050  0.67570  1.0000
  Fe  Fe314     1.0  0.98446  0.30199  0.52402  1.0000
  C   C2175     1.0  0.67436  0.06227  0.59499  1.0000
  H   H3733     1.0  0.95407  0.27427  0.58663  1.0000
  C   C2176     1.0  0.94221  0.30056  0.57462  1.0000
  H   H3734     1.0  0.95160  0.45194  0.66171  1.0000
  H   H3735     1.0  0.68682  0.02970  0.51542  1.0000
  S   S633      1.0  0.87201  0.09331  0.49190  1.0000
  C   C2177     1.0  0.98867  0.46858  0.59325  1.0000
  H   H3736     1.0  0.95386  0.42986  0.67351  1.0000
  H   H3737     1.0  0.92523  0.35170  0.57335  1.0000
  H   H3738     1.0  0.90210  0.32158  0.56593  1.0000
  H   H3739     1.0  0.98982  0.41086  0.66831  1.0000
  S   S634      1.0  0.96313  0.38963  0.61204  1.0000
  H   H3740     1.0  0.67824  0.10299  0.56979  1.0000
  N   N159      1.0  0.92989  0.31162  0.56295  1.0000
  C   C2178     1.0  0.93053  0.33046  0.56031  1.0000
  H   H3741     1.0  0.89697  0.06710  0.55477  1.0000
  C   C2179     1.0  0.93638  0.30712  0.54530  1.0000
  H   H3742     1.0  0.90875  0.30885  0.58546  1.0000
  H   H3743     1.0  0.97715  0.18113  0.55195  1.0000
  H   H3744     1.0  0.92082  0.33935  0.55271  1.0000
  H   H3745     1.0  0.96187  0.35286  0.67732  1.0000
  H   H3746     1.0  0.72328  0.06494  0.56954  1.0000
  C   C2180     1.0  0.91146  0.30970  0.57118  1.0000
  C   C2181     1.0  0.91716  0.04783  0.54276  1.0000
  N   N160      1.0  0.97155  0.44337  0.67703  1.0000
  H   H3747     1.0  0.84235  0.00882  0.51543  1.0000
  H   H3748     1.0  0.67252  0.08981  0.63081  1.0000
  H   H3749     1.0  0.98795  0.30518  0.55980  1.0000
  C   C2182     1.0  0.98229  0.32068  0.57883  1.0000
  H   H3750     1.0  0.67515  0.10236  0.60025  1.0000
  S   S635      1.0  0.97932  0.37644  0.72923  1.0000
  H   H3751     1.0  0.89238  0.04600  0.56207  1.0000
  H   H3752     1.0  0.93886  0.99537  0.57836  1.0000
  C   C2183     1.0  0.90608  0.29415  0.56850  1.0000
  H   H3753     1.0  0.67978  0.03788  0.65541  1.0000
  H   H3754     1.0  0.95021  0.30809  0.54014  1.0000
  H   H3755     1.0  0.94719  0.27510  0.56761  1.0000
  H   H3756     1.0  0.70825  0.08051  0.55749  1.0000
  C   C2184     1.0  0.97399  0.38082  0.68046  1.0000
  H   H3757     1.0  0.98803  0.19429  0.51386  1.0000
  C   C2185     1.0  0.68955  0.02946  0.55826  1.0000
  H   H3758     1.0  0.95382  0.03427  0.50293  1.0000
  H   H3759     1.0  0.91547  0.33402  0.58654  1.0000
  H   H3760     1.0  0.95107  0.99752  0.55653  1.0000
  C   C2186     1.0  0.98711  0.48237  0.71690  1.0000
  H   H3761     1.0  0.92083  0.00739  0.53564  1.0000
  S   S636      1.0  0.96683  0.45865  0.72672  1.0000
  H   H3762     1.0  0.96736  0.35997  0.54271  1.0000
  H   H3763     1.0  0.80014  0.99625  0.51610  1.0000
  C   C2187     1.0  0.98629  0.46492  0.72403  1.0000
  C   C2188     1.0  0.90299  0.05296  0.55839  1.0000
  C   C2189     1.0  0.91348  0.01987  0.53954  1.0000
  H   H3764     1.0  0.89695  0.28916  0.58049  1.0000
  H   H3765     1.0  0.98521  0.21479  0.56125  1.0000
  H   H3766     1.0  0.69741  0.01664  0.56239  1.0000
  H   H3767     1.0  0.98210  0.17089  0.53371  1.0000
  S   S637      1.0  0.98747  0.15410  0.50214  1.0000
  H   H3768     1.0  0.65941  0.98955  0.66714  1.0000
  C   C2190     1.0  0.94065  0.03640  0.51146  1.0000
  C   C2191     1.0  0.97742  0.43778  0.61089  1.0000
  H   H3769     1.0  0.95090  0.30236  0.69260  1.0000
  C   C2192     1.0  0.86883  0.01146  0.50976  1.0000
  C   C2193     1.0  0.94201  0.02708  0.53044  1.0000
  H   H3770     1.0  0.94417  0.34129  0.71755  1.0000
  H   H3771     1.0  0.67263  0.04020  0.67738  1.0000
  C   C2194     1.0  0.88633  0.00393  0.50397  1.0000
  Fe  Fe315     1.0  0.71923  0.06530  0.50577  1.0000
  H   H3772     1.0  0.93242  0.03107  0.50651  1.0000
  S   S638      1.0  0.97912  0.35534  0.63974  1.0000
  H   H3773     1.0  0.98155  0.20771  0.53744  1.0000
  C   C2195     1.0  0.95639  0.10988  0.49475  1.0000
  C   C2196     1.0  0.94622  0.39464  0.69586  1.0000
  H   H3774     1.0  0.97279  0.42606  0.61768  1.0000
  S   S639      1.0  0.69728  0.07560  0.52634  1.0000
  C   C2197     1.0  0.67183  0.03348  0.56604  1.0000
  C   C2198     1.0  0.66171  0.05000  0.56039  1.0000
  C   C2199     1.0  0.79135  0.99450  0.52909  1.0000
  C   C2200     1.0  0.98105  0.37763  0.69516  1.0000
  H   H3775     1.0  0.98487  0.47955  0.67975  1.0000
  H   H3776     1.0  0.78538  0.00773  0.53169  1.0000
  H   H3777     1.0  0.96951  0.28776  0.69940  1.0000
  H   H3778     1.0  0.97894  0.34037  0.72535  1.0000
  C   C2201     1.0  0.69959  0.07689  0.58598  1.0000
  N   N161      1.0  0.68008  0.07929  0.59022  1.0000
  Fe  Fe316     1.0  0.97810  0.36195  0.61138  1.0000
  C   C2202     1.0  0.70922  0.06993  0.56941  1.0000
  C   C2203     1.0  0.67344  0.09070  0.57427  1.0000
  C   C2204     1.0  0.79034  0.06595  0.50520  1.0000
  H   H3779     1.0  0.94821  0.01320  0.53011  1.0000
  C   C2205     1.0  0.97626  0.33741  0.58234  1.0000
  C   C2206     1.0  0.97759  0.33220  0.54932  1.0000
  C   C2207     1.0  0.96423  0.30170  0.69384  1.0000
  H   H3780     1.0  0.93144  0.27736  0.58784  1.0000
  C   C2208     1.0  0.66835  0.03825  0.66647  1.0000
  H   H3781     1.0  0.93013  0.31234  0.51989  1.0000
  S   S640      1.0  0.97658  0.32916  0.52914  1.0000
  H   H3782     1.0  0.93872  0.33234  0.58309  1.0000
  H   H3783     1.0  0.93888  0.43911  0.70147  1.0000
  H   H3784     1.0  0.90862  0.05115  0.56982  1.0000
  H   H3785     1.0  0.97158  0.41754  0.69373  1.0000
  C   C2209     1.0  0.95362  0.09595  0.48989  1.0000
  H   H3786     1.0  0.81944  0.01422  0.49535  1.0000
  H   H3787     1.0  0.69833  0.04151  0.59566  1.0000
  C   C2210     1.0  0.92721  0.33726  0.57695  1.0000
  C   C2211     1.0  0.67384  0.00930  0.53181  1.0000
  H   H3788     1.0  0.70417  0.05919  0.56835  1.0000
  H   H3789     1.0  0.68456  0.00031  0.52482  1.0000
  C   C2212     1.0  0.69724  0.04211  0.54539  1.0000
  H   H3790     1.0  0.93622  0.46181  0.68977  1.0000
  Fe  Fe317     1.0  0.73691  0.03134  0.49584  1.0000
  H   H3791     1.0  0.66559  0.03805  0.52661  1.0000
  C   C2213     1.0  0.68732  0.05895  0.54051  1.0000
  C   C2214     1.0  0.89703  0.01619  0.55331  1.0000
  C   C2215     1.0  0.95657  0.38919  0.68079  1.0000
  H   H3792     1.0  0.99195  0.32472  0.70517  1.0000
  H   H3793     1.0  0.67676  0.99848  0.73016  1.0000
  C   C2216     1.0  0.95323  0.39135  0.71067  1.0000
  C   C2217     1.0  0.79566  0.06905  0.48706  1.0000
  C   C2218     1.0  0.98567  0.33080  0.69381  1.0000
  H   H3794     1.0  0.97556  0.42092  0.65300  1.0000
  H   H3795     1.0  0.99209  0.32570  0.66729  1.0000
  C   C2219     1.0  0.98884  0.43845  0.59465  1.0000
  Fe  Fe318     1.0  0.98965  0.39575  0.60477  1.0000
  H   H3796     1.0  0.98673  0.15841  0.55414  1.0000
  H   H3797     1.0  0.68856  0.04765  0.61626  1.0000
  C   C2220     1.0  0.67338  0.02758  0.51971  1.0000
  H   H3798     1.0  0.89816  0.01371  0.56695  1.0000
  C   C2221     1.0  0.96629  0.33656  0.72857  1.0000
  C   C2222     1.0  0.98490  0.43964  0.66096  1.0000
  C   C2223     1.0  0.71170  0.00627  0.49005  1.0000
  H   H3799     1.0  0.97247  0.30493  0.68075  1.0000
  C   C2224     1.0  0.98774  0.46687  0.67599  1.0000
  H   H3800     1.0  0.97305  0.30507  0.71506  1.0000
  C   C2225     1.0  0.98706  0.42174  0.65709  1.0000
  H   H3801     1.0  0.98608  0.30961  0.58903  1.0000
  H   H3802     1.0  0.76845  0.99448  0.52081  1.0000
  H   H3803     1.0  0.91043  0.12730  0.48645  1.0000
  C   C2226     1.0  0.69884  0.00004  0.48696  1.0000
  S   S641      1.0  0.97656  0.11607  0.48638  1.0000
  C   C2227     1.0  0.93772  0.00041  0.56452  1.0000
  H   H3804     1.0  0.92954  0.99304  0.56208  1.0000
  H   H3805     1.0  0.66276  0.98822  0.56219  1.0000
  C   C2228     1.0  0.66425  0.99499  0.73442  1.0000
  C   C2229     1.0  0.89078  0.98781  0.49927  1.0000
  Fe  Fe319     1.0  0.75687  0.06025  0.48580  1.0000
  H   H3806     1.0  0.96785  0.32247  0.73474  1.0000
  S   S642      1.0  0.90817  0.06272  0.48534  1.0000
  C   C2230     1.0  0.84808  0.39696  0.98012  1.0000
  Fe  Fe320     1.0  0.73897  0.37213  0.85917  1.0000
  S   S643      1.0  0.72454  0.39461  0.87158  1.0000
  S   S644      1.0  0.76814  0.36518  0.85282  1.0000
  Fe  Fe321     1.0  0.70600  0.36543  0.85440  1.0000
  S   S645      1.0  0.68876  0.38811  0.86554  1.0000
  S   S646      1.0  0.69830  0.34466  0.84662  1.0000
  Fe  Fe322     1.0  0.70971  0.40269  0.85035  1.0000
  S   S647      1.0  0.70778  0.43076  0.83575  1.0000
  Fe  Fe323     1.0  0.70510  0.37824  0.88576  1.0000
  S   S648      1.0  0.69093  0.37639  0.91366  1.0000
  S   S649      1.0  0.72534  0.38104  0.83694  1.0000
  S   S650      1.0  0.72121  0.35472  0.87562  1.0000
  H   H3807     1.0  0.66509  0.32601  0.77626  1.0000
  H   H3808     1.0  0.87108  0.30736  0.85219  1.0000
  Fe  Fe324     1.0  0.86195  0.38775  0.87505  1.0000
  S   S651      1.0  0.83712  0.40078  0.86569  1.0000
  S   S652      1.0  0.88449  0.37149  0.85953  1.0000
  Fe  Fe325     1.0  0.85046  0.40506  0.90610  1.0000
  S   S653      1.0  0.82478  0.41935  0.89922  1.0000
  S   S654      1.0  0.85676  0.41259  0.92763  1.0000
  Fe  Fe326     1.0  0.82430  0.39419  0.89398  1.0000
  S   S655      1.0  0.79920  0.38527  0.90488  1.0000
  Fe  Fe327     1.0  0.83997  0.42447  0.87189  1.0000
  S   S656      1.0  0.83620  0.45102  0.85441  1.0000
  S   S657      1.0  0.84897  0.37919  0.90314  1.0000
  S   S658      1.0  0.86591  0.41202  0.87892  1.0000
  H   H3809     1.0  0.69903  0.09975  0.96292  1.0000
  S   S659      1.0  0.94732  0.41800  0.74341  1.0000
  H   H3810     1.0  0.92545  0.45736  0.85350  1.0000
  N   N162      1.0  0.66807  0.08637  0.97172  1.0000
  H   H3811     1.0  0.89300  0.44626  0.84997  1.0000
  C   C2231     1.0  0.84721  0.38409  0.95221  1.0000
  H   H3812     1.0  0.92817  0.44903  0.81827  1.0000
  H   H3813     1.0  0.66374  0.31465  0.97855  1.0000
  H   H3814     1.0  0.93051  0.47036  0.83214  1.0000
  H   H3815     1.0  0.69469  0.44715  0.89174  1.0000
  H   H3816     1.0  0.66442  0.09891  0.78478  1.0000
  C   C2232     1.0  0.67087  0.11923  0.79243  1.0000
  H   H3817     1.0  0.66882  0.14912  0.82567  1.0000
  H   H3818     1.0  0.90682  0.44365  0.87238  1.0000
  H   H3819     1.0  0.94699  0.39627  0.82230  1.0000
  H   H3820     1.0  0.94726  0.40044  0.84242  1.0000
  H   H3821     1.0  0.89560  0.42648  0.87674  1.0000
  H   H3822     1.0  0.93467  0.42141  0.86009  1.0000
  H   H3823     1.0  0.92031  0.40787  0.86261  1.0000
  H   H3824     1.0  0.92387  0.42220  0.81650  1.0000
  H   H3825     1.0  0.91349  0.42320  0.88651  1.0000
  H   H3826     1.0  0.88008  0.45068  0.82505  1.0000
  H   H3827     1.0  0.89994  0.44061  0.81286  1.0000
  C   C2233     1.0  0.67871  0.30992  0.81039  1.0000
  H   H3828     1.0  0.85335  0.47888  0.83437  1.0000
  H   H3829     1.0  0.68007  0.14043  0.75886  1.0000
  C   C2234     1.0  0.69964  0.45085  0.87785  1.0000
  C   C2235     1.0  0.83689  0.46570  0.91769  1.0000
  H   H3830     1.0  0.70314  0.11486  0.77101  1.0000
  H   H3831     1.0  0.83878  0.45471  0.91157  1.0000
  C   C2236     1.0  0.79930  0.39435  0.98104  1.0000
  C   C2237     1.0  0.86938  0.48064  0.85051  1.0000
  H   H3832     1.0  0.81273  0.43112  0.84249  1.0000
  C   C2238     1.0  0.94426  0.40681  0.82938  1.0000
  H   H3833     1.0  0.68302  0.32335  0.95264  1.0000
  H   H3834     1.0  0.80615  0.38334  0.97448  1.0000
  C   C2239     1.0  0.87440  0.47414  0.86659  1.0000
  H   H3835     1.0  0.69994  0.06367  0.97628  1.0000
  H   H3836     1.0  0.68259  0.27597  0.88763  1.0000
  C   C2240     1.0  0.84997  0.46091  0.85927  1.0000
  C   C2241     1.0  0.85487  0.45462  0.87536  1.0000
  C   C2242     1.0  0.86724  0.46104  0.87895  1.0000
  C   C2243     1.0  0.66597  0.11252  0.77902  1.0000
  H   H3837     1.0  0.68780  0.34350  0.93834  1.0000
  H   H3838     1.0  0.84911  0.44475  0.88514  1.0000
  H   H3839     1.0  0.87120  0.45586  0.89132  1.0000
  C   C2244     1.0  0.67653  0.34277  0.85147  1.0000
  H   H3840     1.0  0.66624  0.29433  0.87968  1.0000
  C   C2245     1.0  0.81076  0.47175  0.89477  1.0000
  H   H3841     1.0  0.80313  0.46294  0.92898  1.0000
  H   H3842     1.0  0.90898  0.46698  0.84054  1.0000
  H   H3843     1.0  0.68808  0.08713  0.94783  1.0000
  S   S660      1.0  0.98809  0.40994  0.74748  1.0000
  H   H3844     1.0  0.71512  0.48365  0.84697  1.0000
  H   H3845     1.0  0.71145  0.43097  0.96173  1.0000
  H   H3846     1.0  0.68388  0.31654  0.84764  1.0000
  C   C2246     1.0  0.70667  0.44453  0.84920  1.0000
  C   C2247     1.0  0.71174  0.46048  0.84190  1.0000
  H   H3847     1.0  0.74347  0.43976  0.96640  1.0000
  H   H3848     1.0  0.90115  0.42993  0.98072  1.0000
  H   H3849     1.0  0.80934  0.40829  0.95457  1.0000
  C   C2248     1.0  0.70074  0.43972  0.86721  1.0000
  H   H3850     1.0  0.71629  0.46424  0.82795  1.0000
  C   C2249     1.0  0.66237  0.30645  0.80750  1.0000
  H   H3851     1.0  0.81323  0.41539  0.97136  1.0000
  H   H3852     1.0  0.66070  0.11735  0.80455  1.0000
  C   C2250     1.0  0.70182  0.38220  0.92607  1.0000
  C   C2251     1.0  0.69284  0.38581  0.94228  1.0000
  C   C2252     1.0  0.70147  0.38944  0.95291  1.0000
  C   C2253     1.0  0.71898  0.39016  0.94709  1.0000
  C   C2254     1.0  0.72790  0.38708  0.93066  1.0000
  C   C2255     1.0  0.71937  0.38289  0.92022  1.0000
  H   H3853     1.0  0.67915  0.38599  0.94660  1.0000
  H   H3854     1.0  0.68293  0.11018  0.79605  1.0000
  H   H3855     1.0  0.74144  0.38767  0.92614  1.0000
  H   H3856     1.0  0.72646  0.37992  0.90781  1.0000
  C   C2256     1.0  0.77650  0.37085  0.86734  1.0000
  C   C2257     1.0  0.79223  0.37619  0.86147  1.0000
  C   C2258     1.0  0.79914  0.38082  0.87290  1.0000
  C   C2259     1.0  0.79051  0.37988  0.89029  1.0000
  C   C2260     1.0  0.77471  0.37460  0.89614  1.0000
  C   C2261     1.0  0.76760  0.37025  0.88463  1.0000
  H   H3857     1.0  0.79891  0.37701  0.84798  1.0000
  H   H3858     1.0  0.81100  0.38532  0.86814  1.0000
  H   H3859     1.0  0.76802  0.37376  0.90962  1.0000
  H   H3860     1.0  0.75541  0.36611  0.88921  1.0000
  C   C2262     1.0  0.68788  0.10565  0.97224  1.0000
  C   C2263     1.0  0.88785  0.41029  0.81605  1.0000
  C   C2264     1.0  0.88187  0.40025  0.83246  1.0000
  C   C2265     1.0  0.89199  0.38399  0.83880  1.0000
  C   C2266     1.0  0.90819  0.37783  0.82856  1.0000
  C   C2267     1.0  0.91442  0.38813  0.81227  1.0000
  H   H3861     1.0  0.87985  0.42282  0.81127  1.0000
  H   H3862     1.0  0.86938  0.40516  0.84018  1.0000
  H   H3863     1.0  0.91609  0.36524  0.83339  1.0000
  C   C2268     1.0  0.73620  0.44003  0.93593  1.0000
  C   C2269     1.0  0.72374  0.46141  0.95497  1.0000
  H   H3864     1.0  0.71338  0.46113  0.91725  1.0000
  H   H3865     1.0  0.75140  0.45773  0.91595  1.0000
  H   H3866     1.0  0.78770  0.48046  0.95053  1.0000
  H   H3867     1.0  0.68065  0.11816  0.96535  1.0000
  S   S661      1.0  0.91187  0.41852  0.78641  1.0000
  C   C2270     1.0  0.85915  0.30568  0.86229  1.0000
  H   H3868     1.0  0.75714  0.45161  0.93702  1.0000
  C   C2271     1.0  0.70492  0.46664  0.87062  1.0000
  H   H3869     1.0  0.70767  0.42868  0.93260  1.0000
  C   C2272     1.0  0.76480  0.43419  0.87314  1.0000
  H   H3870     1.0  0.70795  0.06162  0.95462  1.0000
  H   H3871     1.0  0.84000  0.36199  0.97192  1.0000
  H   H3872     1.0  0.66512  0.36850  0.85622  1.0000
  C   C2273     1.0  0.70620  0.44289  0.95246  1.0000
  H   H3873     1.0  0.69272  0.34263  0.90090  1.0000
  H   H3874     1.0  0.79221  0.42241  0.96655  1.0000
  C   C2274     1.0  0.94864  0.48466  0.77797  1.0000
  H   H3875     1.0  0.73375  0.43478  0.92593  1.0000
  C   C2275     1.0  0.69807  0.48074  0.93209  1.0000
  H   H3876     1.0  0.85010  0.46700  0.91735  1.0000
  C   C2276     1.0  0.67992  0.32108  0.91173  1.0000
  H   H3877     1.0  0.71160  0.47005  0.96065  1.0000
  C   C2277     1.0  0.85683  0.36243  0.83949  1.0000
  H   H3878     1.0  0.67114  0.12617  0.82703  1.0000
  H   H3879     1.0  0.87317  0.34140  0.85447  1.0000
  H   H3880     1.0  0.69199  0.13253  0.80233  1.0000
  H   H3881     1.0  0.67536  0.07220  0.95127  1.0000
  H   H3882     1.0  0.76795  0.40130  0.94868  1.0000
  H   H3883     1.0  0.68238  0.15471  0.79661  1.0000
  C   C2278     1.0  0.85700  0.47414  0.84690  1.0000
  H   H3884     1.0  0.69812  0.33321  0.95625  1.0000
  H   H3885     1.0  0.68870  0.42878  0.94962  1.0000
  H   H3886     1.0  0.69324  0.29209  0.89980  1.0000
  H   H3887     1.0  0.68758  0.15451  0.76643  1.0000
  H   H3888     1.0  0.68658  0.28804  0.93552  1.0000
  H   H3889     1.0  0.71082  0.13022  0.77755  1.0000
  C   C2279     1.0  0.76107  0.41517  0.83664  1.0000
  H   H3890     1.0  0.68117  0.27389  0.92528  1.0000
  H   H3891     1.0  0.71143  0.13211  0.75521  1.0000
  H   H3892     1.0  0.67234  0.32793  0.92228  1.0000
  H   H3893     1.0  0.83473  0.33322  0.84672  1.0000
  H   H3894     1.0  0.73425  0.45685  0.97776  1.0000
  C   C2280     1.0  0.75818  0.42010  0.85422  1.0000
  C   C2281     1.0  0.82695  0.48322  0.90808  1.0000
  C   C2282     1.0  0.76930  0.40124  0.97492  1.0000
  H   H3895     1.0  0.67548  0.34935  0.77524  1.0000
  C   C2283     1.0  0.79590  0.48659  0.93839  1.0000
  H   H3896     1.0  0.81896  0.31913  0.87675  1.0000
  H   H3897     1.0  0.66503  0.11038  0.95187  1.0000
  H   H3898     1.0  0.78917  0.39156  0.95310  1.0000
  H   H3899     1.0  0.95765  0.34391  0.73842  1.0000
  H   H3900     1.0  0.83056  0.46212  0.93162  1.0000
  C   C2284     1.0  0.79378  0.47116  0.89043  1.0000
  C   C2285     1.0  0.70363  0.12871  0.76861  1.0000
  C   C2286     1.0  0.66753  0.13957  0.81907  1.0000
  H   H3901     1.0  0.83056  0.35282  0.90399  1.0000
  C   C2287     1.0  0.71114  0.47142  0.85264  1.0000
  H   H3902     1.0  0.98416  0.45164  0.82262  1.0000
  C   C2288     1.0  0.67314  0.32716  0.85083  1.0000
  C   C2289     1.0  0.66243  0.29923  0.92535  1.0000
  H   H3903     1.0  0.69553  0.45045  0.96098  1.0000
  H   H3904     1.0  0.69686  0.32883  0.88614  1.0000
  H   H3905     1.0  0.93770  0.46514  0.76143  1.0000
  C   C2290     1.0  0.68097  0.29976  0.89553  1.0000
  N   N163      1.0  0.66943  0.31054  0.90825  1.0000
  H   H3906     1.0  0.69191  0.04969  0.96829  1.0000
  H   H3907     1.0  0.67049  0.34415  0.79832  1.0000
  C   C2291     1.0  0.80330  0.41112  0.96768  1.0000
  H   H3908     1.0  0.73272  0.47019  0.94793  1.0000
  H   H3909     1.0  0.69655  0.42758  0.87291  1.0000
  S   S662      1.0  0.70270  0.48040  0.88442  1.0000
  H   H3910     1.0  0.75111  0.47632  0.84940  1.0000
  H   H3911     1.0  0.76360  0.43639  0.92338  1.0000
  H   H3912     1.0  0.84673  0.33304  0.90305  1.0000
  N   N164      1.0  0.72021  0.45279  0.94274  1.0000
  C   C2292     1.0  0.84339  0.37441  0.96942  1.0000
  C   C2293     1.0  0.69789  0.43688  0.94105  1.0000
  Fe  Fe328     1.0  0.96926  0.39476  0.74752  1.0000
  H   H3913     1.0  0.69131  0.48558  0.92102  1.0000
  N   N165      1.0  0.76759  0.43346  0.85434  1.0000
  S   S663      1.0  0.72961  0.39517  0.96027  1.0000
  H   H3914     1.0  0.74384  0.42471  0.85828  1.0000
  H   H3915     1.0  0.67631  0.34433  0.88984  1.0000
  H   H3916     1.0  0.69450  0.39174  0.96557  1.0000
  H   H3917     1.0  0.68663  0.31581  0.79793  1.0000
  H   H3918     1.0  0.81970  0.47560  0.88208  1.0000
  H   H3919     1.0  0.67284  0.21430  0.81330  1.0000
  H   H3920     1.0  0.67617  0.11222  0.76694  1.0000
  H   H3921     1.0  0.76174  0.40772  0.86387  1.0000
  H   H3922     1.0  0.66737  0.29835  0.79763  1.0000
  H   H3923     1.0  0.79717  0.46301  0.88069  1.0000
  Fe  Fe329     1.0  0.96547  0.43280  0.74534  1.0000
  C   C2294     1.0  0.84367  0.38091  0.98342  1.0000
  H   H3924     1.0  0.97081  0.46260  0.77509  1.0000
  H   H3925     1.0  0.75814  0.42671  0.82604  1.0000
  H   H3926     1.0  0.85574  0.41881  0.96050  1.0000
  H   H3927     1.0  0.75205  0.40677  0.83798  1.0000
  S   S664      1.0  0.96065  0.38829  0.77683  1.0000
  C   C2295     1.0  0.66468  0.34757  0.78679  1.0000
  H   H3928     1.0  0.77439  0.40730  0.83294  1.0000
  C   C2296     1.0  0.92861  0.44443  0.83234  1.0000
  C   C2297     1.0  0.71470  0.46676  0.92756  1.0000
  C   C2298     1.0  0.77510  0.39293  0.95893  1.0000
  H   H3929     1.0  0.68701  0.29728  0.81571  1.0000
  H   H3930     1.0  0.83518  0.48690  0.89487  1.0000
  H   H3931     1.0  0.73794  0.43063  0.88446  1.0000
  C   C2299     1.0  0.76369  0.46737  0.84534  1.0000
  H   H3932     1.0  0.84391  0.31438  0.88516  1.0000
  C   C2300     1.0  0.79791  0.47708  0.92400  1.0000
  H   H3933     1.0  0.74605  0.45261  0.84494  1.0000
  C   C2301     1.0  0.79923  0.43765  0.84784  1.0000
  H   H3934     1.0  0.77170  0.38006  0.96220  1.0000
  H   H3935     1.0  0.84695  0.36460  0.83174  1.0000
  C   C2302     1.0  0.85223  0.40645  0.96294  1.0000
  Fe  Fe330     1.0  0.94007  0.41294  0.77264  1.0000
  H   H3936     1.0  0.85260  0.37192  0.84791  1.0000
  H   H3937     1.0  0.73942  0.42832  0.94636  1.0000
  H   H3938     1.0  0.69023  0.44806  0.93297  1.0000
  H   H3939     1.0  0.76834  0.41537  0.96981  1.0000
  H   H3940     1.0  0.76535  0.45023  0.82898  1.0000
  H   H3941     1.0  0.69158  0.31246  0.91655  1.0000
  C   C2303     1.0  0.89925  0.43736  0.84097  1.0000
  H   H3942     1.0  0.68564  0.30837  0.88288  1.0000
  H   H3943     1.0  0.82544  0.33519  0.89946  1.0000
  C   C2304     1.0  0.75288  0.44710  0.92767  1.0000
  Fe  Fe331     1.0  0.97741  0.40604  0.77625  1.0000
  C   C2305     1.0  0.66263  0.35640  0.85576  1.0000
  C   C2306     1.0  0.68565  0.33604  0.95203  1.0000
  C   C2307     1.0  0.74575  0.44042  0.88218  1.0000
  H   H3944     1.0  0.91749  0.47332  0.77525  1.0000
  H   H3945     1.0  0.98266  0.43405  0.81478  1.0000
  H   H3946     1.0  0.96382  0.47380  0.75518  1.0000
  H   H3947     1.0  0.79916  0.43813  0.86124  1.0000
  H   H3948     1.0  0.73946  0.45311  0.87480  1.0000
  C   C2308     1.0  0.68668  0.33489  0.89610  1.0000
  H   H3949     1.0  0.78450  0.47806  0.92277  1.0000
  H   H3950     1.0  0.84686  0.37908  0.94148  1.0000
  S   S665      1.0  0.95618  0.43020  0.77412  1.0000
  C   C2309     1.0  0.92286  0.46058  0.84024  1.0000
  H   H3951     1.0  0.74544  0.44230  0.89513  1.0000
  C   C2310     1.0  0.76038  0.45058  0.84299  1.0000
  C   C2311     1.0  0.67931  0.14158  0.80063  1.0000
  H   H3952     1.0  0.81669  0.45805  0.90041  1.0000
  H   H3953     1.0  0.72154  0.44174  0.97946  1.0000
  C   C2312     1.0  0.92504  0.41663  0.83026  1.0000
  N   N166      1.0  0.91842  0.43045  0.84085  1.0000
  H   H3954     1.0  0.89233  0.42645  0.84600  1.0000
  C   C2313     1.0  0.73121  0.44898  0.97045  1.0000
  C   C2314     1.0  0.78669  0.42705  0.84725  1.0000
  H   H3955     1.0  0.78906  0.42658  0.83333  1.0000
  C   C2315     1.0  0.90425  0.40446  0.80603  1.0000
  C   C2316     1.0  0.90855  0.42944  0.87434  1.0000
  H   H3956     1.0  0.66813  0.24545  0.81323  1.0000
  H   H3957     1.0  0.79126  0.41349  0.85433  1.0000
  C   C2317     1.0  0.67131  0.34667  0.96406  1.0000
  H   H3958     1.0  0.77185  0.46550  0.85469  1.0000
  H   H3959     1.0  0.86884  0.36541  0.83008  1.0000
  C   C2318     1.0  0.96574  0.47565  0.76731  1.0000
  H   H3960     1.0  0.92707  0.38349  0.80462  1.0000
  H   H3961     1.0  0.79700  0.45093  0.83944  1.0000
  H   H3962     1.0  0.76995  0.42107  0.88098  1.0000
  C   C2319     1.0  0.89444  0.44781  0.82338  1.0000
  C   C2320     1.0  0.68162  0.07758  0.95838  1.0000
  H   H3963     1.0  0.66259  0.28222  0.90179  1.0000
  H   H3964     1.0  0.77220  0.44269  0.87488  1.0000
  C   C2321     1.0  0.67585  0.28379  0.93334  1.0000
  H   H3965     1.0  0.89828  0.46051  0.81913  1.0000
  H   H3966     1.0  0.95336  0.41537  0.82185  1.0000
  H   H3967     1.0  0.94259  0.43916  0.83279  1.0000
  H   H3968     1.0  0.91706  0.40661  0.83547  1.0000
  C   C2322     1.0  0.92127  0.42179  0.85915  1.0000
  H   H3969     1.0  0.77020  0.47451  0.83265  1.0000
  N   N167      1.0  0.84677  0.33784  0.86495  1.0000
  H   H3970     1.0  0.86441  0.33531  0.84005  1.0000
  C   C2323     1.0  0.85362  0.31921  0.87370  1.0000
  C   C2324     1.0  0.84278  0.34961  0.87750  1.0000
  C   C2325     1.0  0.83106  0.33983  0.85776  1.0000
  C   C2326     1.0  0.85172  0.40011  0.94895  1.0000
  H   H3971     1.0  0.72502  0.47414  0.92077  1.0000
  C   C2327     1.0  0.83596  0.34203  0.89700  1.0000
  C   C2328     1.0  0.81552  0.33319  0.87064  1.0000
  N   N168      1.0  0.67271  0.13787  0.78690  1.0000
  H   H3972     1.0  0.78505  0.46503  0.90203  1.0000
  C   C2329     1.0  0.66018  0.22124  0.81904  1.0000
  H   H3973     1.0  0.86509  0.31839  0.87895  1.0000
  H   H3974     1.0  0.85461  0.35393  0.87719  1.0000
  H   H3975     1.0  0.83328  0.36182  0.87354  1.0000
  H   H3976     1.0  0.82583  0.35377  0.85216  1.0000
  C   C2330     1.0  0.86100  0.34337  0.84986  1.0000
  H   H3977     1.0  0.80525  0.33492  0.86342  1.0000
  C   C2331     1.0  0.67596  0.09296  0.98252  1.0000
  H   H3978     1.0  0.86239  0.29244  0.87068  1.0000
  H   H3979     1.0  0.80951  0.34097  0.88069  1.0000
  H   H3980     1.0  0.84858  0.30576  0.85624  1.0000
  H   H3981     1.0  0.97587  0.48331  0.76391  1.0000
  C   C2332     1.0  0.69594  0.06227  0.96503  1.0000
  H   H3982     1.0  0.68845  0.47575  0.94346  1.0000
  H   H3983     1.0  0.80851  0.48567  0.94146  1.0000
  H   H3984     1.0  0.75562  0.40010  0.98095  1.0000
  S   S666      1.0  0.88975  0.48212  0.87133  1.0000
  C   C2333     1.0  0.67248  0.28751  0.89095  1.0000
  H   H3985     1.0  0.91852  0.47398  0.75304  1.0000
  H   H3986     1.0  0.67570  0.35867  0.96267  1.0000
  C   C2334     1.0  0.68542  0.14107  0.76973  1.0000
  H   H3987     1.0  0.66920  0.27718  0.94626  1.0000
  H   H3988     1.0  0.94157  0.47433  0.78571  1.0000
  H   H3989     1.0  0.67566  0.31806  0.81997  1.0000
  C   C2335     1.0  0.92568  0.47556  0.76200  1.0000
  H   H3990     1.0  0.66344  0.17468  0.77238  1.0000
  H   H3991     1.0  0.91717  0.48650  0.80123  1.0000
  H   H3992     1.0  0.67153  0.33956  0.97780  1.0000
  S   S667      1.0  0.99173  0.40215  0.79743  1.0000
  H   H3993     1.0  0.69334  0.10900  0.98156  1.0000
  N   N169      1.0  0.80887  0.48367  0.90658  1.0000
  H   H3994     1.0  0.78438  0.36741  0.98498  1.0000
  H   H3995     1.0  0.66146  0.35586  0.93253  1.0000
  H   H3996     1.0  0.78668  0.48420  0.88446  1.0000
  S   S668      1.0  0.74790  0.48713  0.88339  1.0000
  C   C2336     1.0  0.99199  0.44050  0.81671  1.0000
  H   H3997     1.0  0.65905  0.32899  0.88686  1.0000
  H   H3998     1.0  0.65894  0.37403  0.94104  1.0000
  H   H3999     1.0  0.71320  0.77022  0.01457  1.0000
  H   H4000     1.0  0.68135  0.82024  0.06374  1.0000
  H   H4001     1.0  0.66615  0.96632  0.15670  1.0000
  C   C2337     1.0  0.92386  0.49007  0.04587  1.0000
  S   S669      1.0  0.73782  0.56450  0.00326  1.0000
  H   H4002     1.0  0.90254  0.57236  0.05479  1.0000
  H   H4003     1.0  0.88412  0.60726  0.02072  1.0000
  Fe  Fe332     1.0  0.86272  0.54639  0.00811  1.0000
  S   S670      1.0  0.86439  0.52084  0.00265  1.0000
  S   S671      1.0  0.83869  0.56715  0.00391  1.0000
  Fe  Fe333     1.0  0.89901  0.53602  0.01505  1.0000
  S   S672      1.0  0.90420  0.50970  0.00925  1.0000
  S   S673      1.0  0.91972  0.54410  0.02245  1.0000
  C   C2338     1.0  0.98596  0.56992  0.18084  1.0000
  N   N170      1.0  0.66997  0.94169  0.23022  1.0000
  Fe  Fe334     1.0  0.87749  0.50913  0.02527  1.0000
  C   C2339     1.0  0.66119  0.93249  0.15554  1.0000
  S   S674      1.0  0.87295  0.53456  0.03271  1.0000
  C   C2340     1.0  0.67649  0.94307  0.21091  1.0000
  C   C2341     1.0  0.67291  0.94043  0.13854  1.0000
  C   C2342     1.0  0.68670  0.81846  0.05017  1.0000
  C   C2343     1.0  0.85399  0.60376  0.04631  1.0000
  Fe  Fe335     1.0  0.75213  0.54090  0.01993  1.0000
  H   H4004     1.0  0.90353  0.50156  0.21411  1.0000
  H   H4005     1.0  0.84388  0.61265  0.03912  1.0000
  C   C2344     1.0  0.86257  0.61528  0.05169  1.0000
  C   C2345     1.0  0.91587  0.49024  0.12762  1.0000
  H   H4006     1.0  0.68292  0.91423  0.21360  1.0000
  H   H4007     1.0  0.67365  0.93419  0.12789  1.0000
  H   H4008     1.0  0.94611  0.51129  0.04138  1.0000
  C   C2346     1.0  0.88517  0.58975  0.00517  1.0000
  H   H4009     1.0  0.69789  0.78063  0.03889  1.0000
  Fe  Fe336     1.0  0.71541  0.55101  0.01339  1.0000
  Fe  Fe337     1.0  0.89094  0.52324  0.98690  1.0000
  H   H4010     1.0  0.99206  0.52171  0.16015  1.0000
  C   C2347     1.0  0.98811  0.60576  0.13829  1.0000
  H   H4011     1.0  0.96890  0.59525  0.15963  1.0000
  Fe  Fe338     1.0  0.73843  0.51531  0.00937  1.0000
  Fe  Fe339     1.0  0.95043  0.52750  0.10948  1.0000
  H   H4012     1.0  0.68880  0.48839  0.99777  1.0000
  S   S675      1.0  0.92526  0.53011  0.10146  1.0000
  Fe  Fe340     1.0  0.96448  0.52136  0.14256  1.0000
  H   H4013     1.0  0.77841  0.56577  0.00730  1.0000
  S   S676      1.0  0.95578  0.51915  0.17156  1.0000
  H   H4014     1.0  0.96572  0.49096  0.09875  1.0000
  H   H4015     1.0  0.83719  0.56380  0.04256  1.0000
  H   H4016     1.0  0.70853  0.79746  0.02763  1.0000
  H   H4017     1.0  0.90774  0.49817  0.11803  1.0000
  S   S677      1.0  0.95635  0.54534  0.12247  1.0000
  S   S678      1.0  0.95602  0.50424  0.13117  1.0000
  H   H4018     1.0  0.70037  0.81107  0.04953  1.0000
  C   C2348     1.0  0.84280  0.57204  0.04723  1.0000
  H   H4019     1.0  0.97179  0.50355  0.05308  1.0000
  H   H4020     1.0  0.87628  0.58756  0.99833  1.0000
  H   H4021     1.0  0.87223  0.57444  0.06008  1.0000
  N   N171      1.0  0.68097  0.80471  0.02795  1.0000
  C   C2349     1.0  0.85445  0.58180  0.03150  1.0000
  H   H4022     1.0  0.68497  0.83496  0.98746  1.0000
  H   H4023     1.0  0.84578  0.59118  0.02295  1.0000
  C   C2350     1.0  0.70513  0.78354  0.01091  1.0000
  C   C2351     1.0  0.98403  0.57957  0.19519  1.0000
  C   C2352     1.0  0.68284  0.82155  0.01473  1.0000
  C   C2353     1.0  0.97105  0.51982  0.18263  1.0000
  C   C2354     1.0  0.96596  0.51931  0.20051  1.0000
  C   C2355     1.0  0.97767  0.52035  0.20961  1.0000
  H   H4024     1.0  0.85218  0.62531  0.05754  1.0000
  H   H4025     1.0  0.89443  0.59688  0.99510  1.0000
  H   H4026     1.0  0.79094  0.50774  0.01792  1.0000
  H   H4027     1.0  0.95280  0.51857  0.20727  1.0000
  H   H4028     1.0  0.97353  0.52014  0.22337  1.0000
  S   S679      1.0  0.72915  0.52861  0.03167  1.0000
  C   C2356     1.0  0.98805  0.52109  0.17394  1.0000
  H   H4029     1.0  0.94676  0.48831  0.19560  1.0000
  C   C2357     1.0  0.81788  0.49609  0.01852  1.0000
  H   H4030     1.0  0.89277  0.57697  0.01106  1.0000
  H   H4031     1.0  0.75202  0.49367  0.05941  1.0000
  H   H4032     1.0  0.79586  0.50313  0.03844  1.0000
  C   C2358     1.0  0.66477  0.62092  0.00387  1.0000
  C   C2359     1.0  0.94914  0.49107  0.02150  1.0000
  H   H4033     1.0  0.66925  0.95470  0.13401  1.0000
  C   C2360     1.0  0.68886  0.59538  0.00238  1.0000
  H   H4034     1.0  0.66816  0.92954  0.16629  1.0000
  C   C2361     1.0  0.68196  0.61330  0.99675  1.0000
  C   C2362     1.0  0.67856  0.58495  0.01513  1.0000
  H   H4035     1.0  0.66076  0.91961  0.15383  1.0000
  H   H4036     1.0  0.84678  0.59694  0.05877  1.0000
  H   H4037     1.0  0.76595  0.49497  0.02940  1.0000
  C   C2363     1.0  0.76646  0.49010  0.05646  1.0000
  C   C2364     1.0  0.69811  0.79154  0.02711  1.0000
  H   H4038     1.0  0.69541  0.82474  0.01384  1.0000
  H   H4039     1.0  0.86244  0.57192  0.02392  1.0000
  C   C2365     1.0  0.90240  0.48894  0.22358  1.0000
  C   C2366     1.0  0.92961  0.49155  0.22956  1.0000
  H   H4040     1.0  0.67549  0.76996  0.03765  1.0000
  H   H4041     1.0  0.86985  0.60757  0.06201  1.0000
  H   H4042     1.0  0.67256  0.83268  0.01891  1.0000
  H   H4043     1.0  0.85017  0.56323  0.05709  1.0000
  H   H4044     1.0  0.66736  0.95344  0.20361  1.0000
  S   S680      1.0  0.88850  0.54991  0.99073  1.0000
  H   H4045     1.0  0.80423  0.52724  0.04542  1.0000
  H   H4046     1.0  0.94222  0.50474  0.01659  1.0000
  S   S681      1.0  0.68686  0.56243  0.02262  1.0000
  H   H4047     1.0  0.83158  0.58119  0.05335  1.0000
  H   H4048     1.0  0.97909  0.61875  0.13606  1.0000
  H   H4049     1.0  0.67524  0.79649  0.05626  1.0000
  H   H4050     1.0  0.89452  0.59496  0.04701  1.0000
  Fe  Fe341     1.0  0.98313  0.49998  0.11545  1.0000
  H   H4051     1.0  0.87093  0.62243  0.04058  1.0000
  S   S682      1.0  0.76248  0.52576  0.99918  1.0000
  H   H4052     1.0  0.70387  0.50654  0.05528  1.0000
  H   H4053     1.0  0.66612  0.92611  0.20184  1.0000
  C   C2367     1.0  0.92101  0.54020  0.04450  1.0000
  C   C2368     1.0  0.90846  0.53345  0.05813  1.0000
  C   C2369     1.0  0.90997  0.53037  0.07551  1.0000
  C   C2370     1.0  0.92419  0.53370  0.07941  1.0000
  C   C2371     1.0  0.93686  0.54025  0.06578  1.0000
  C   C2372     1.0  0.93515  0.54370  0.04841  1.0000
  H   H4054     1.0  0.89755  0.53063  0.05535  1.0000
  H   H4055     1.0  0.90011  0.52533  0.08599  1.0000
  H   H4056     1.0  0.94780  0.54298  0.06864  1.0000
  H   H4057     1.0  0.94492  0.54893  0.03795  1.0000
  C   C2373     1.0  0.78958  0.54566  0.02712  1.0000
  C   C2374     1.0  0.80447  0.53801  0.03416  1.0000
  C   C2375     1.0  0.81973  0.54424  0.02669  1.0000
  C   C2376     1.0  0.81991  0.55868  0.01266  1.0000
  C   C2377     1.0  0.80498  0.56645  0.00568  1.0000
  C   C2378     1.0  0.78993  0.55972  0.01268  1.0000
  H   H4058     1.0  0.97262  0.56871  0.18150  1.0000
  H   H4059     1.0  0.83119  0.53815  0.03215  1.0000
  S   S683      1.0  0.97726  0.52207  0.09292  1.0000
  H   H4060     1.0  0.77078  0.50177  0.05626  1.0000
  N   N172      1.0  0.86586  0.59093  0.03575  1.0000
  H   H4061     1.0  0.98137  0.55609  0.13884  1.0000
  H   H4062     1.0  0.66648  0.49296  0.06682  1.0000
  H   H4063     1.0  0.70650  0.92357  0.22134  1.0000
  H   H4064     1.0  0.69043  0.81182  0.99034  1.0000
  C   C2379     1.0  0.79839  0.49746  0.02701  1.0000
  C   C2380     1.0  0.96916  0.49327  0.04842  1.0000
  H   H4065     1.0  0.98506  0.56989  0.20771  1.0000
  H   H4066     1.0  0.68890  0.94758  0.20603  1.0000
  S   S684      1.0  0.77062  0.53768  0.03702  1.0000
  H   H4067     1.0  0.69496  0.78160  0.00565  1.0000
  H   H4068     1.0  0.97008  0.57707  0.14265  1.0000
  H   H4069     1.0  0.88206  0.56483  0.04199  1.0000
  H   H4070     1.0  0.92946  0.49113  0.12106  1.0000
  H   H4071     1.0  0.69237  0.52250  0.02928  1.0000
  H   H4072     1.0  0.66190  0.81664  0.04790  1.0000
  H   H4073     1.0  0.98727  0.59888  0.12879  1.0000
  H   H4074     1.0  0.82084  0.49455  0.00493  1.0000
  C   C2381     1.0  0.87846  0.57751  0.04599  1.0000
  H   H4075     1.0  0.66950  0.94385  0.09817  1.0000
  H   H4076     1.0  0.71337  0.79149  0.00043  1.0000
  H   H4077     1.0  0.91169  0.49649  0.13882  1.0000
  H   H4078     1.0  0.80505  0.57766  0.99485  1.0000
  H   H4079     1.0  0.93161  0.50161  0.21729  1.0000
  C   C2382     1.0  0.89591  0.58199  0.04470  1.0000
  H   H4080     1.0  0.97068  0.55794  0.16051  1.0000
  H   H4081     1.0  0.68874  0.92645  0.19224  1.0000
  H   H4082     1.0  0.68623  0.83174  0.04170  1.0000
  S   S685      1.0  0.72272  0.53640  0.99212  1.0000
  C   C2383     1.0  0.66128  0.59251  0.02202  1.0000
  H   H4083     1.0  0.70217  0.58970  0.99698  1.0000
  C   C2384     1.0  0.87489  0.60077  0.01874  1.0000
  Fe  Fe342     1.0  0.98388  0.53771  0.10776  1.0000
  H   H4084     1.0  0.86527  0.61157  0.01240  1.0000
  H   H4085     1.0  0.68293  0.50543  0.02951  1.0000
  H   H4086     1.0  0.97752  0.49310  0.03530  1.0000
  C   C2385     1.0  0.67544  0.80865  0.04588  1.0000
  C   C2386     1.0  0.67855  0.92651  0.20441  1.0000
  H   H4087     1.0  0.90483  0.58094  0.03193  1.0000
  H   H4088     1.0  0.87899  0.50608  0.23495  1.0000
  H   H4089     1.0  0.66803  0.82345  0.99532  1.0000
  C   C2387     1.0  0.68653  0.51159  0.03803  1.0000
  H   H4090     1.0  0.68644  0.93730  0.14046  1.0000
  C   C2388     1.0  0.98271  0.59600  0.15735  1.0000
  H   H4091     1.0  0.97123  0.58895  0.19688  1.0000
  H   H4092     1.0  0.68259  0.96203  0.22898  1.0000
  H   H4093     1.0  0.96316  0.49124  0.01753  1.0000
  H   H4094     1.0  0.91848  0.49015  0.07401  1.0000
  C   C2389     1.0  0.68156  0.82268  0.99598  1.0000
  C   C2390     1.0  0.97826  0.56455  0.14825  1.0000
  H   H4095     1.0  0.71143  0.50187  0.00003  1.0000
  H   H4096     1.0  0.67827  0.50142  0.07646  1.0000
  C   C2391     1.0  0.94953  0.49750  0.04850  1.0000
  H   H4097     1.0  0.91868  0.50441  0.04220  1.0000
  H   H4098     1.0  0.94287  0.49743  0.06226  1.0000
  H   H4099     1.0  0.69007  0.62133  0.98707  1.0000
  H   H4100     1.0  0.82146  0.50836  0.01790  1.0000
  H   H4101     1.0  0.92501  0.49333  0.19155  1.0000
  H   H4102     1.0  0.67470  0.51757  0.04664  1.0000
  H   H4103     1.0  0.98255  0.60467  0.16570  1.0000
  H   H4104     1.0  0.71175  0.49500  0.03832  1.0000
  C   C2392     1.0  0.70004  0.49882  0.04831  1.0000
  H   H4105     1.0  0.66887  0.79585  0.01231  1.0000
  H   H4106     1.0  0.70436  0.93891  0.23440  1.0000
  C   C2393     1.0  0.66671  0.79788  0.02562  1.0000
  C   C2394     1.0  0.66967  0.95861  0.23427  1.0000
  S   S686      1.0  0.66087  0.97920  0.10244  1.0000
  H   H4107     1.0  0.66105  0.89070  0.17292  1.0000
  C   C2395     1.0  0.66358  0.78055  0.03822  1.0000
  C   C2396     1.0  0.71314  0.48785  0.00347  1.0000
  C   C2397     1.0  0.70128  0.92661  0.23441  1.0000
  C   C2398     1.0  0.67781  0.48929  0.07316  1.0000
  C   C2399     1.0  0.76973  0.95312  0.43987  1.0000
  H   H4108     1.0  0.68315  0.91734  0.45638  1.0000
  H   H4109     1.0  0.69380  0.96081  0.35779  1.0000
  H   H4110     1.0  0.74820  0.81286  0.32223  1.0000
  H   H4111     1.0  0.77287  0.93863  0.44349  1.0000
  C   C2400     1.0  0.92513  0.81540  0.30572  1.0000
  H   H4112     1.0  0.95613  0.85292  0.31667  1.0000
  N   N173      1.0  0.68344  0.96199  0.38480  1.0000
  Fe  Fe343     1.0  0.97938  0.55103  0.26498  1.0000
  S   S687      1.0  0.97445  0.52858  0.28747  1.0000
  S   S688      1.0  0.97289  0.57912  0.26711  1.0000
  C   C2401     1.0  0.99062  0.83023  0.38605  1.0000
  Fe  Fe344     1.0  0.96554  0.51909  0.26894  1.0000
  S   S689      1.0  0.94085  0.50945  0.27837  1.0000
  H   H4113     1.0  0.69355  0.94008  0.37225  1.0000
  S   S690      1.0  0.96805  0.54283  0.24730  1.0000
  H   H4114     1.0  0.91794  0.49373  0.25692  1.0000
  Fe  Fe345     1.0  0.96924  0.61543  0.34758  1.0000
  S   S691      1.0  0.96779  0.59081  0.34129  1.0000
  Fe  Fe346     1.0  0.96002  0.65449  0.34612  1.0000
  S   S692      1.0  0.94513  0.68202  0.33806  1.0000
  H   H4115     1.0  0.86303  0.85855  0.47827  1.0000
  S   S693      1.0  0.95681  0.62542  0.40890  1.0000
  S   S694      1.0  0.94753  0.63252  0.36297  1.0000
  C   C2402     1.0  0.67426  0.95188  0.40148  1.0000
  S   S695      1.0  0.94428  0.80827  0.44375  1.0000
  C   C2403     1.0  0.80668  0.98463  0.31211  1.0000
  H   H4116     1.0  0.78835  0.81415  0.33801  1.0000
  S   S696      1.0  0.92771  0.80028  0.35290  1.0000
  H   H4117     1.0  0.91381  0.82327  0.31325  1.0000
  H   H4118     1.0  0.93722  0.70262  0.43494  1.0000
  C   C2404     1.0  0.97417  0.78458  0.43389  1.0000
  Fe  Fe347     1.0  0.69573  0.87985  0.35101  1.0000
  C   C2405     1.0  0.98307  0.72215  0.43170  1.0000
  H   H4119     1.0  0.93119  0.76834  0.43286  1.0000
  Fe  Fe348     1.0  0.72789  0.87892  0.36324  1.0000
  S   S697      1.0  0.71725  0.90549  0.36895  1.0000
  S   S698      1.0  0.75397  0.86306  0.36901  1.0000
  Fe  Fe349     1.0  0.69211  0.89712  0.38051  1.0000
  S   S699      1.0  0.68105  0.86499  0.34299  1.0000
  Fe  Fe350     1.0  0.70881  0.91251  0.34355  1.0000
  S   S700      1.0  0.71072  0.93808  0.32496  1.0000
  S   S701      1.0  0.70323  0.86976  0.37712  1.0000
  S   S702      1.0  0.72139  0.88661  0.33672  1.0000
  S   S703      1.0  0.71939  0.90083  0.45776  1.0000
  S   S704      1.0  0.88057  0.93579  0.43618  1.0000
  Fe  Fe351     1.0  0.87452  0.89588  0.34844  1.0000
  S   S705      1.0  0.85254  0.88300  0.36442  1.0000
  S   S706      1.0  0.90292  0.88230  0.34228  1.0000
  Fe  Fe352     1.0  0.85178  0.93283  0.34603  1.0000
  S   S707      1.0  0.82849  0.92267  0.36206  1.0000
  N   N174      1.0  0.94456  0.83792  0.29477  1.0000
  Fe  Fe353     1.0  0.84625  0.90430  0.37886  1.0000
  S   S708      1.0  0.83678  0.90205  0.40767  1.0000
  Fe  Fe354     1.0  0.83671  0.90278  0.34596  1.0000
  S   S709      1.0  0.81533  0.90272  0.33348  1.0000
  S   S710      1.0  0.86898  0.91607  0.36416  1.0000
  S   S711      1.0  0.85931  0.91397  0.32863  1.0000
  C   C2406     1.0  0.86855  0.92689  0.42757  1.0000
  C   C2407     1.0  0.85077  0.92820  0.43458  1.0000
  C   C2408     1.0  0.84121  0.92009  0.42881  1.0000
  C   C2409     1.0  0.84926  0.91110  0.41552  1.0000
  C   C2410     1.0  0.86701  0.90999  0.40826  1.0000
  C   C2411     1.0  0.87666  0.91789  0.41426  1.0000
  H   H4120     1.0  0.84425  0.93560  0.44444  1.0000
  H   H4121     1.0  0.82750  0.92105  0.43449  1.0000
  H   H4122     1.0  0.87345  0.90257  0.39839  1.0000
  H   H4123     1.0  0.89044  0.91663  0.40887  1.0000
  C   C2412     1.0  0.68643  0.90308  0.42008  1.0000
  C   C2413     1.0  0.70372  0.89376  0.41817  1.0000
  C   C2414     1.0  0.71351  0.89280  0.43012  1.0000
  C   C2415     1.0  0.70623  0.90145  0.44381  1.0000
  C   C2416     1.0  0.68888  0.91069  0.44582  1.0000
  C   C2417     1.0  0.67893  0.91138  0.43404  1.0000
  H   H4124     1.0  0.70950  0.88709  0.40760  1.0000
  H   H4125     1.0  0.72673  0.88522  0.42880  1.0000
  H   H4126     1.0  0.79282  0.96987  0.36488  1.0000
  H   H4127     1.0  0.86380  0.97252  0.40452  1.0000
  C   C2418     1.0  0.77120  0.87386  0.35924  1.0000
  C   C2419     1.0  0.78695  0.86770  0.36498  1.0000
  C   C2420     1.0  0.80054  0.87663  0.35750  1.0000
  C   C2421     1.0  0.79850  0.89152  0.34401  1.0000
  C   C2422     1.0  0.78283  0.89745  0.33817  1.0000
  C   C2423     1.0  0.76922  0.88871  0.34581  1.0000
  H   H4128     1.0  0.78860  0.85612  0.37530  1.0000
  H   H4129     1.0  0.81269  0.87180  0.36187  1.0000
  H   H4130     1.0  0.78121  0.90886  0.32763  1.0000
  H   H4131     1.0  0.75730  0.89327  0.34107  1.0000
  C   C2424     1.0  0.92042  0.82286  0.35203  1.0000
  C   C2425     1.0  0.93166  0.83290  0.35194  1.0000
  C   C2426     1.0  0.92590  0.85109  0.34973  1.0000
  C   C2427     1.0  0.90884  0.85934  0.34767  1.0000
  C   C2428     1.0  0.89740  0.84924  0.34840  1.0000
  C   C2429     1.0  0.90320  0.83105  0.35055  1.0000
  H   H4132     1.0  0.84831  0.96771  0.42441  1.0000
  H   H4133     1.0  0.93480  0.85885  0.34917  1.0000
  H   H4134     1.0  0.88427  0.85550  0.34674  1.0000
  H   H4135     1.0  0.89442  0.82335  0.35069  1.0000
  H   H4136     1.0  0.69893  0.97945  0.44622  1.0000
  S   S712      1.0  0.97191  0.78232  0.47978  1.0000
  H   H4137     1.0  0.83699  0.93929  0.38501  1.0000
  S   S713      1.0  0.99166  0.50315  0.25929  1.0000
  H   H4138     1.0  0.86973  0.86766  0.44888  1.0000
  H   H4139     1.0  0.94309  0.81818  0.31874  1.0000
  C   C2430     1.0  0.96814  0.63426  0.41830  1.0000
  H   H4140     1.0  0.95268  0.74076  0.45820  1.0000
  H   H4141     1.0  0.92941  0.84853  0.31717  1.0000
  H   H4142     1.0  0.68437  0.92484  0.31348  1.0000
  H   H4143     1.0  0.75571  0.88586  0.42758  1.0000
  H   H4144     1.0  0.67980  0.93776  0.40245  1.0000
  C   C2431     1.0  0.96047  0.63901  0.43433  1.0000
  C   C2432     1.0  0.97564  0.69320  0.32550  1.0000
  H   H4145     1.0  0.94731  0.63770  0.44060  1.0000
  N   N175      1.0  0.89585  0.86378  0.45281  1.0000
  C   C2433     1.0  0.76825  0.88731  0.42894  1.0000
  C   C2434     1.0  0.73759  0.93476  0.33992  1.0000
  C   C2435     1.0  0.95141  0.71259  0.33990  1.0000
  C   C2436     1.0  0.95824  0.69695  0.33416  1.0000
  S   S714      1.0  0.97348  0.78457  0.32409  1.0000
  H   H4146     1.0  0.93794  0.71555  0.34658  1.0000
  C   C2437     1.0  0.97418  0.58281  0.28683  1.0000
  C   C2438     1.0  0.97944  0.56884  0.30011  1.0000
  C   C2439     1.0  0.97821  0.57166  0.31654  1.0000
  C   C2440     1.0  0.97203  0.58848  0.31975  1.0000
  C   C2441     1.0  0.96785  0.60265  0.30616  1.0000
  C   C2442     1.0  0.96887  0.59979  0.28971  1.0000
  C   C2443     1.0  0.71349  0.94348  0.39101  1.0000
  C   C2444     1.0  0.66964  0.95273  0.36469  1.0000
  H   H4147     1.0  0.96303  0.61567  0.30856  1.0000
  H   H4148     1.0  0.96490  0.61067  0.27942  1.0000
  S   S715      1.0  0.75092  0.96533  0.36234  1.0000
  C   C2445     1.0  0.93330  0.70594  0.44784  1.0000
  H   H4149     1.0  0.84657  0.95310  0.40170  1.0000
  C   C2446     1.0  0.66027  0.94493  0.30982  1.0000
  C   C2447     1.0  0.82722  0.94973  0.39077  1.0000
  H   H4150     1.0  0.94100  0.84643  0.44684  1.0000
  H   H4151     1.0  0.68010  0.92967  0.29182  1.0000
  C   C2448     1.0  0.98835  0.57591  0.48453  1.0000
  H   H4152     1.0  0.72541  0.94515  0.39367  1.0000
  C   C2449     1.0  0.98508  0.63600  0.41018  1.0000
  H   H4153     1.0  0.81005  0.98593  0.29772  1.0000
  C   C2450     1.0  0.68206  0.88702  0.29170  1.0000
  C   C2451     1.0  0.68575  0.88235  0.30842  1.0000
  H   H4154     1.0  0.73825  0.82482  0.37767  1.0000
  S   S716      1.0  0.97254  0.82343  0.46440  1.0000
  H   H4155     1.0  0.66553  0.91855  0.43558  1.0000
  H   H4156     1.0  0.68997  0.89443  0.28098  1.0000
  H   H4157     1.0  0.69649  0.88612  0.31052  1.0000
  H   H4158     1.0  0.79510  0.93711  0.38514  1.0000
  H   H4159     1.0  0.98097  0.68121  0.32096  1.0000
  H   H4160     1.0  0.88980  0.98158  0.38048  1.0000
  H   H4161     1.0  0.92959  0.84174  0.27534  1.0000
  H   H4162     1.0  0.80184  0.98546  0.34743  1.0000
  Fe  Fe355     1.0  0.96635  0.62877  0.37978  1.0000
  C   C2452     1.0  0.89762  0.95351  0.38502  1.0000
  H   H4163     1.0  0.74429  0.95399  0.43786  1.0000
  H   H4164     1.0  0.71684  0.84251  0.34971  1.0000
  H   H4165     1.0  0.80600  0.96311  0.41997  1.0000
  H   H4166     1.0  0.96938  0.68949  0.36850  1.0000
  H   H4167     1.0  0.91738  0.85037  0.30207  1.0000
  H   H4168     1.0  0.87523  0.86363  0.42048  1.0000
  H   H4169     1.0  0.95315  0.80973  0.30001  1.0000
  H   H4170     1.0  0.74595  0.95317  0.45931  1.0000
  C   C2453     1.0  0.77383  0.98494  0.30163  1.0000
  H   H4171     1.0  0.77433  0.95680  0.42559  1.0000
  H   H4172     1.0  0.76064  0.81518  0.35645  1.0000
  C   C2454     1.0  0.88313  0.85994  0.44486  1.0000
  H   H4173     1.0  0.76291  0.83709  0.34832  1.0000
  H   H4174     1.0  0.80334  0.95976  0.29788  1.0000
  S   S717      1.0  0.68264  0.90653  0.35562  1.0000
  H   H4175     1.0  0.74537  0.80313  0.34487  1.0000
  H   H4176     1.0  0.99110  0.63218  0.39793  1.0000
  N   N176      1.0  0.91211  0.97403  0.39247  1.0000
  C   C2455     1.0  0.67426  0.98092  0.38036  1.0000
  H   H4177     1.0  0.90150  0.88742  0.43448  1.0000
  H   H4178     1.0  0.91483  0.98540  0.42199  1.0000
  H   H4179     1.0  0.75589  0.84054  0.31186  1.0000
  H   H4180     1.0  0.95434  0.73127  0.39359  1.0000
  H   H4181     1.0  0.72794  0.81208  0.37044  1.0000
  H   H4182     1.0  0.92982  0.72606  0.46080  1.0000
  C   C2456     1.0  0.98683  0.64698  0.43409  1.0000
  H   H4183     1.0  0.71569  0.96045  0.44435  1.0000
  C   C2457     1.0  0.91381  0.85415  0.44545  1.0000
  H   H4184     1.0  0.82549  0.95734  0.42715  1.0000
  H   H4185     1.0  0.77595  0.80942  0.32577  1.0000
  C   C2458     1.0  0.73004  0.97018  0.33970  1.0000
  Fe  Fe356     1.0  0.82877  0.93655  0.48313  1.0000
  N   N177      1.0  0.94946  0.73149  0.43725  1.0000
  C   C2459     1.0  0.95006  0.74603  0.44482  1.0000
  C   C2460     1.0  0.96537  0.71715  0.44007  1.0000
  C   C2461     1.0  0.93310  0.72505  0.44693  1.0000
  C   C2462     1.0  0.94920  0.73878  0.41821  1.0000
  H   H4186     1.0  0.81944  0.98086  0.31605  1.0000
  C   C2463     1.0  0.79795  0.96351  0.33973  1.0000
  C   C2464     1.0  0.92726  0.95899  0.39592  1.0000
  H   H4187     1.0  0.67975  0.91415  0.24089  1.0000
  C   C2465     1.0  0.98928  0.60733  0.47992  1.0000
  H   H4188     1.0  0.96096  0.75229  0.43713  1.0000
  S   S718      1.0  0.84259  0.95811  0.46929  1.0000
  H   H4189     1.0  0.66321  0.91154  0.32850  1.0000
  H   H4190     1.0  0.89342  0.84209  0.47507  1.0000
  H   H4191     1.0  0.94188  0.69676  0.45651  1.0000
  H   H4192     1.0  0.93724  0.74915  0.41662  1.0000
  H   H4193     1.0  0.95977  0.74586  0.41131  1.0000
  H   H4194     1.0  0.66072  0.96555  0.36147  1.0000
  C   C2466     1.0  0.94315  0.84084  0.27617  1.0000
  H   H4195     1.0  0.84516  0.96682  0.38100  1.0000
  C   C2467     1.0  0.98004  0.77277  0.40841  1.0000
  H   H4196     1.0  0.77027  0.98515  0.32853  1.0000
  H   H4197     1.0  0.92725  0.85045  0.46685  1.0000
  H   H4198     1.0  0.95373  0.83106  0.25246  1.0000
  H   H4199     1.0  0.77460  0.95185  0.38946  1.0000
  C   C2468     1.0  0.96242  0.83944  0.29501  1.0000
  H   H4200     1.0  0.74310  0.98079  0.41575  1.0000
  H   H4201     1.0  0.95594  0.59347  0.47415  1.0000
  H   H4202     1.0  0.97754  0.82986  0.38491  1.0000
  N   N178      1.0  0.92709  0.56529  0.32038  1.0000
  C   C2469     1.0  0.92704  0.58447  0.31609  1.0000
  C   C2470     1.0  0.93617  0.55859  0.30407  1.0000
  C   C2471     1.0  0.93702  0.55616  0.33476  1.0000
  C   C2472     1.0  0.90846  0.56352  0.32631  1.0000
  C   C2473     1.0  0.92110  0.59346  0.33164  1.0000
  C   C2474     1.0  0.92784  0.56722  0.28807  1.0000
  C   C2475     1.0  0.94572  0.53665  0.33600  1.0000
  C   C2476     1.0  0.90522  0.54509  0.33002  1.0000
  H   H4203     1.0  0.94027  0.58659  0.30944  1.0000
  H   H4204     1.0  0.91851  0.59211  0.30677  1.0000
  H   H4205     1.0  0.93744  0.54438  0.30617  1.0000
  H   H4206     1.0  0.94979  0.56024  0.30009  1.0000
  H   H4207     1.0  0.94783  0.56245  0.33340  1.0000
  H   H4208     1.0  0.92854  0.55749  0.34773  1.0000
  H   H4209     1.0  0.90237  0.56802  0.33865  1.0000
  H   H4210     1.0  0.90026  0.57246  0.31713  1.0000
  H   H4211     1.0  0.92178  0.60739  0.32664  1.0000
  H   H4212     1.0  0.90747  0.59322  0.33845  1.0000
  H   H4213     1.0  0.92978  0.58789  0.34109  1.0000
  H   H4214     1.0  0.91415  0.56615  0.29077  1.0000
  H   H4215     1.0  0.92887  0.58102  0.28293  1.0000
  H   H4216     1.0  0.93515  0.56036  0.27742  1.0000
  H   H4217     1.0  0.95076  0.53136  0.34819  1.0000
  H   H4218     1.0  0.95713  0.53485  0.32508  1.0000
  H   H4219     1.0  0.93670  0.52874  0.33635  1.0000
  H   H4220     1.0  0.90655  0.53780  0.34344  1.0000
  H   H4221     1.0  0.91364  0.53730  0.32057  1.0000
  H   H4222     1.0  0.89180  0.54622  0.32867  1.0000
  N   N179      1.0  0.77727  0.90689  0.39824  1.0000
  C   C2477     1.0  0.77238  0.92599  0.38964  1.0000
  C   C2478     1.0  0.76789  0.89733  0.39191  1.0000
  C   C2479     1.0  0.79659  0.90076  0.39192  1.0000
  C   C2480     1.0  0.77258  0.90481  0.41781  1.0000
  C   C2481     1.0  0.78173  0.93811  0.39322  1.0000
  C   C2482     1.0  0.74799  0.90395  0.39484  1.0000
  C   C2483     1.0  0.80471  0.88155  0.39908  1.0000
  H   H4223     1.0  0.77482  0.92782  0.37521  1.0000
  H   H4224     1.0  0.75822  0.93139  0.39386  1.0000
  H   H4225     1.0  0.77055  0.88316  0.39788  1.0000
  H   H4226     1.0  0.77270  0.89828  0.37765  1.0000
  H   H4227     1.0  0.79989  0.90305  0.37741  1.0000
  H   H4228     1.0  0.80398  0.90828  0.39537  1.0000
  H   H4229     1.0  0.76099  0.91504  0.42173  1.0000
  H   H4230     1.0  0.78219  0.93544  0.40713  1.0000
  H   H4231     1.0  0.96496  0.71214  0.45427  1.0000
  H   H4232     1.0  0.74217  0.90781  0.40746  1.0000
  H   H4233     1.0  0.74448  0.91522  0.38419  1.0000
  H   H4234     1.0  0.74204  0.89350  0.39446  1.0000
  H   H4235     1.0  0.80524  0.87927  0.41296  1.0000
  H   H4236     1.0  0.81844  0.87852  0.39195  1.0000
  H   H4237     1.0  0.79824  0.87231  0.39717  1.0000
  H   H4238     1.0  0.77844  0.87579  0.42605  1.0000
  C   C2484     1.0  0.90070  0.89090  0.45987  1.0000
  C   C2485     1.0  0.77776  0.97621  0.31990  1.0000
  H   H4239     1.0  0.93614  0.72403  0.40921  1.0000
  H   H4240     1.0  0.81149  0.95697  0.34092  1.0000
  H   H4241     1.0  0.92567  0.80158  0.31282  1.0000
  H   H4242     1.0  0.78092  0.83079  0.32068  1.0000
  H   H4243     1.0  0.80066  0.97495  0.44487  1.0000
  H   H4244     1.0  0.96919  0.82582  0.26588  1.0000
  H   H4245     1.0  0.81866  0.95667  0.38140  1.0000
  H   H4246     1.0  0.93537  0.95808  0.36753  1.0000
  H   H4247     1.0  0.90926  0.51193  0.24057  1.0000
  C   C2486     1.0  0.76077  0.82593  0.34456  1.0000
  C   C2487     1.0  0.94232  0.81998  0.30500  1.0000
  C   C2488     1.0  0.72464  0.94632  0.33162  1.0000
  C   C2489     1.0  0.93122  0.87054  0.29499  1.0000
  C   C2490     1.0  0.96477  0.84107  0.31249  1.0000
  C   C2491     1.0  0.66806  0.88232  0.28883  1.0000
  H   H4248     1.0  0.74860  0.85631  0.32487  1.0000
  N   N180      1.0  0.79670  0.97047  0.32086  1.0000
  C   C2492     1.0  0.92102  0.50205  0.24376  1.0000
  Fe  Fe357     1.0  0.98922  0.65926  0.47040  1.0000
  H   H4249     1.0  0.74544  0.98045  0.46786  1.0000
  C   C2493     1.0  0.96210  0.72419  0.33741  1.0000
  H   H4250     1.0  0.97834  0.84217  0.31093  1.0000
  H   H4251     1.0  0.90663  0.90195  0.45173  1.0000
  S   S719      1.0  0.84478  0.96219  0.33835  1.0000
  C   C2494     1.0  0.80442  0.95548  0.31176  1.0000
  H   H4252     1.0  0.71598  0.80697  0.34897  1.0000
  C   C2495     1.0  0.87648  0.96572  0.34063  1.0000
  H   H4253     1.0  0.94486  0.82671  0.35329  1.0000
  H   H4254     1.0  0.88234  0.84598  0.44964  1.0000
  H   H4255     1.0  0.97034  0.70772  0.37612  1.0000
  S   S720      1.0  0.97987  0.63782  0.32896  1.0000
  C   C2496     1.0  0.95330  0.79401  0.41535  1.0000
  C   C2497     1.0  0.95826  0.79480  0.43007  1.0000
  H   H4256     1.0  0.89227  0.96526  0.41448  1.0000
  H   H4257     1.0  0.79712  0.94488  0.31774  1.0000
  C   C2498     1.0  0.93038  0.85126  0.30296  1.0000
  H   H4258     1.0  0.94098  0.80184  0.41235  1.0000
  H   H4259     1.0  0.93573  0.77051  0.45208  1.0000
  H   H4260     1.0  0.96290  0.82934  0.32295  1.0000
  H   H4261     1.0  0.77027  0.98472  0.40394  1.0000
  H   H4262     1.0  0.92297  0.81656  0.29263  1.0000
  H   H4263     1.0  0.81966  0.94321  0.40310  1.0000
  H   H4264     1.0  0.95686  0.73606  0.34215  1.0000
  H   H4265     1.0  0.94461  0.87258  0.28998  1.0000
  C   C2499     1.0  0.96418  0.78301  0.40452  1.0000
  C   C2500     1.0  0.77726  0.81974  0.33129  1.0000
  H   H4266     1.0  0.77910  0.98489  0.35123  1.0000
  H   H4267     1.0  0.94601  0.85368  0.26854  1.0000
  H   H4268     1.0  0.77773  0.97552  0.29312  1.0000
  H   H4269     1.0  0.88124  0.95200  0.34060  1.0000
  C   C2501     1.0  0.90723  0.97535  0.42492  1.0000
  Fe  Fe358     1.0  0.98554  0.76943  0.36903  1.0000
  H   H4270     1.0  0.70769  0.93457  0.40271  1.0000
  H   H4271     1.0  0.92246  0.94770  0.40539  1.0000
  H   H4272     1.0  0.92532  0.87812  0.30531  1.0000
  H   H4273     1.0  0.90932  0.94285  0.38334  1.0000
  H   H4274     1.0  0.93364  0.74740  0.48378  1.0000
  H   H4275     1.0  0.98872  0.59890  0.44560  1.0000
  H   H4276     1.0  0.83233  0.95628  0.30627  1.0000
  S   S721      1.0  0.97732  0.65179  0.36399  1.0000
  Fe  Fe359     1.0  0.98397  0.75741  0.33802  1.0000
  H   H4277     1.0  0.90005  0.85883  0.47912  1.0000
  S   S722      1.0  0.96518  0.75986  0.36336  1.0000
  N   N181      1.0  0.82580  0.97629  0.40236  1.0000
  C   C2502     1.0  0.74519  0.84514  0.32236  1.0000
  C   C2503     1.0  0.81670  0.96866  0.42048  1.0000
  H   H4278     1.0  0.73159  0.86370  0.30302  1.0000
  C   C2504     1.0  0.67587  0.87236  0.32222  1.0000
  C   C2505     1.0  0.92898  0.85513  0.45252  1.0000
  H   H4279     1.0  0.96012  0.78231  0.39330  1.0000
  S   S723      1.0  0.99121  0.68522  0.47213  1.0000
  C   C2506     1.0  0.82382  0.94683  0.31142  1.0000
  C   C2507     1.0  0.88774  0.97554  0.34124  1.0000
  C   C2508     1.0  0.88690  0.86382  0.42476  1.0000
  H   H4280     1.0  0.95197  0.81410  0.27165  1.0000
  Fe  Fe360     1.0  0.95643  0.78798  0.35010  1.0000
  H   H4281     1.0  0.91738  0.48851  0.29896  1.0000
  H   H4282     1.0  0.92396  0.87614  0.28431  1.0000
  C   C2509     1.0  0.97949  0.72042  0.32865  1.0000
  C   C2510     1.0  0.90219  0.97150  0.38067  1.0000
  H   H4283     1.0  0.74055  0.92111  0.33991  1.0000
  Fe  Fe361     1.0  0.86573  0.93678  0.46347  1.0000
  H   H4284     1.0  0.89642  0.97793  0.43615  1.0000
  C   C2511     1.0  0.89440  0.88326  0.44809  1.0000
  C   C2512     1.0  0.66195  0.86759  0.31932  1.0000
  H   H4285     1.0  0.71726  0.85750  0.32308  1.0000
  H   H4286     1.0  0.76670  0.88706  0.44292  1.0000
  H   H4287     1.0  0.71530  0.83038  0.37943  1.0000
  H   H4288     1.0  0.97833  0.78544  0.44490  1.0000
  H   H4289     1.0  0.96646  0.85063  0.28480  1.0000
  H   H4290     1.0  0.78326  0.90677  0.42249  1.0000
  C   C2513     1.0  0.88712  0.49288  0.23900  1.0000
  H   H4291     1.0  0.80072  0.97951  0.48174  1.0000
  C   C2514     1.0  0.89944  0.97581  0.40957  1.0000
  H   H4292     1.0  0.93154  0.86841  0.44830  1.0000
  H   H4293     1.0  0.70839  0.96920  0.37488  1.0000
  C   C2515     1.0  0.95530  0.82703  0.26619  1.0000
  H   H4294     1.0  0.77151  0.96485  0.32502  1.0000
  C   C2516     1.0  0.70129  0.96162  0.38691  1.0000
  H   H4295     1.0  0.71248  0.82786  0.33388  1.0000
  H   H4296     1.0  0.88953  0.89667  0.46930  1.0000
  H   H4297     1.0  0.89771  0.85366  0.41963  1.0000
  H   H4298     1.0  0.92000  0.70367  0.45374  1.0000
  H   H4299     1.0  0.92170  0.73344  0.44142  1.0000
  H   H4300     1.0  0.97249  0.82782  0.29169  1.0000
  H   H4301     1.0  0.82591  0.93902  0.32441  1.0000
  C   C2517     1.0  0.93949  0.95200  0.38005  1.0000
  H   H4302     1.0  0.91051  0.88176  0.46696  1.0000
  H   H4303     1.0  0.91408  0.84003  0.44755  1.0000
  C   C2518     1.0  0.72149  0.96416  0.33071  1.0000
  C   C2519     1.0  0.72789  0.82539  0.37105  1.0000
  H   H4304     1.0  0.75609  0.93164  0.35536  1.0000
  C   C2520     1.0  0.74636  0.94075  0.34864  1.0000
  C   C2521     1.0  0.80873  0.98137  0.43281  1.0000
  C   C2522     1.0  0.93365  0.76103  0.44591  1.0000
  H   H4305     1.0  0.90918  0.97367  0.36691  1.0000
  C   C2523     1.0  0.85925  0.97385  0.33946  1.0000
  C   C2524     1.0  0.89136  0.85657  0.47220  1.0000
  H   H4306     1.0  0.71174  0.97317  0.32393  1.0000
  H   H4307     1.0  0.86908  0.87814  0.47828  1.0000
  H   H4308     1.0  0.66728  0.95743  0.24858  1.0000
  Fe  Fe362     1.0  0.95492  0.80620  0.46687  1.0000
  S   S724      1.0  0.85146  0.91535  0.47586  1.0000
  H   H4309     1.0  0.96386  0.64911  0.45457  1.0000
  H   H4310     1.0  0.72112  0.80832  0.32628  1.0000
  H   H4311     1.0  0.93556  0.96257  0.40248  1.0000
  C   C2525     1.0  0.98609  0.70510  0.32239  1.0000
  H   H4312     1.0  0.95282  0.95378  0.37837  1.0000
  H   H4313     1.0  0.95845  0.71316  0.41067  1.0000
  H   H4314     1.0  0.94056  0.93775  0.38237  1.0000
  C   C2526     1.0  0.83702  0.96170  0.39378  1.0000
  S   S725      1.0  0.97541  0.79778  0.35793  1.0000
  H   H4315     1.0  0.90120  0.96936  0.34156  1.0000
  C   C2527     1.0  0.72142  0.81493  0.33627  1.0000
  H   H4316     1.0  0.70037  0.96785  0.39762  1.0000
  C   C2528     1.0  0.79248  0.97693  0.35121  1.0000
  H   H4317     1.0  0.79020  0.95333  0.34604  1.0000
  H   H4318     1.0  0.68756  0.94466  0.29849  1.0000
  H   H4319     1.0  0.98167  0.56068  0.32697  1.0000
  H   H4320     1.0  0.76655  0.95403  0.47786  1.0000
  H   H4321     1.0  0.72687  0.84272  0.30838  1.0000
  H   H4322     1.0  0.82820  0.93744  0.30279  1.0000
  H   H4323     1.0  0.72037  0.97606  0.46371  1.0000
  H   H4324     1.0  0.92188  0.75653  0.45416  1.0000
  C   C2529     1.0  0.96980  0.64544  0.44223  1.0000
  H   H4325     1.0  0.91745  0.85903  0.43111  1.0000
  H   H4326     1.0  0.98447  0.72766  0.41754  1.0000
  C   C2530     1.0  0.74201  0.95834  0.34918  1.0000
  C   C2531     1.0  0.68603  0.95378  0.36969  1.0000
  H   H4327     1.0  0.73259  0.84985  0.35464  1.0000
  C   C2532     1.0  0.68165  0.92714  0.24054  1.0000
  H   H4328     1.0  0.88055  0.89027  0.44840  1.0000
  C   C2533     1.0  0.85183  0.97822  0.41315  1.0000
  H   H4329     1.0  0.67690  0.95465  0.41296  1.0000
  S   S726      1.0  0.71887  0.93229  0.48411  1.0000
  C   C2534     1.0  0.72916  0.85247  0.31401  1.0000
  H   H4330     1.0  0.67381  0.94754  0.35267  1.0000
  H   H4331     1.0  0.71790  0.93733  0.37968  1.0000
  S   S727      1.0  0.80308  0.94344  0.47507  1.0000
  H   H4332     1.0  0.98830  0.84830  0.47909  1.0000
  C   C2535     1.0  0.94943  0.72592  0.40760  1.0000
  H   H4333     1.0  0.96226  0.61372  0.46610  1.0000
  H   H4334     1.0  0.96786  0.59970  0.44260  1.0000
  H   H4335     1.0  0.98629  0.68407  0.39931  1.0000
  N   N182      1.0  0.74372  0.83088  0.33870  1.0000
  C   C2536     1.0  0.72986  0.83798  0.35296  1.0000
  C   C2537     1.0  0.67900  0.93521  0.30304  1.0000
  C   C2538     1.0  0.74982  0.98624  0.45376  1.0000
  H   H4336     1.0  0.96580  0.70563  0.43534  1.0000
  H   H4337     1.0  0.77726  0.95725  0.44668  1.0000
  H   H4338     1.0  0.88974  0.95366  0.37589  1.0000
  Fe  Fe363     1.0  0.70668  0.91231  0.48136  1.0000
  C   C2539     1.0  0.74055  0.81502  0.33526  1.0000
  S   S728      1.0  0.67446  0.90521  0.40453  1.0000
  C   C2540     1.0  0.74988  0.95963  0.44533  1.0000
  H   H4339     1.0  0.88984  0.87683  0.41869  1.0000
  H   H4340     1.0  0.99176  0.74106  0.47257  1.0000
  N   N183      1.0  0.97807  0.59451  0.48317  1.0000
  H   H4341     1.0  0.97959  0.57968  0.45333  1.0000
  C   C2541     1.0  0.97107  0.69352  0.37964  1.0000
  H   H4342     1.0  0.98851  0.83684  0.39676  1.0000
  H   H4343     1.0  0.98529  0.73136  0.43807  1.0000
  H   H4344     1.0  0.95969  0.69109  0.39031  1.0000
  H   H4345     1.0  0.89083  0.49282  0.25100  1.0000
  H   H4346     1.0  0.91530  0.96227  0.42943  1.0000
  H   H4347     1.0  0.88971  0.95022  0.39826  1.0000
  C   C2542     1.0  0.71304  0.97490  0.44097  1.0000
  H   H4348     1.0  0.80203  0.98023  0.39355  1.0000
  H   H4349     1.0  0.67819  0.92787  0.25450  1.0000
  C   C2543     1.0  0.97676  0.59401  0.45185  1.0000
  C   C2544     1.0  0.96754  0.59939  0.46929  1.0000
  N   N184      1.0  0.74279  0.97908  0.44269  1.0000
  H   H4350     1.0  0.67822  0.98320  0.33359  1.0000
  H   H4351     1.0  0.70831  0.91600  0.24357  1.0000
  H   H4352     1.0  0.94467  0.98460  0.37043  1.0000
  C   C2545     1.0  0.87263  0.86372  0.48141  1.0000
  H   H4353     1.0  0.72692  0.98388  0.33967  1.0000
  H   H4354     1.0  0.81900  0.98464  0.43692  1.0000
  H   H4355     1.0  0.93027  0.50939  0.24434  1.0000
  H   H4356     1.0  0.66186  0.98269  0.37652  1.0000
  H   H4357     1.0  0.76416  0.98255  0.45159  1.0000
  H   H4358     1.0  0.98157  0.62096  0.47682  1.0000
  Fe  Fe364     1.0  0.98814  0.80003  0.47969  1.0000
  H   H4359     1.0  0.82446  0.98376  0.36570  1.0000
  H   H4360     1.0  0.66234  0.98481  0.40718  1.0000
  S   S729      1.0  0.66369  0.88885  0.26774  1.0000
  H   H4361     1.0  0.71516  0.97990  0.42667  1.0000
  H   H4362     1.0  0.77397  0.98633  0.42388  1.0000
  C   C2546     1.0  0.98494  0.77335  0.42323  1.0000
  C   C2547     1.0  0.72334  0.98201  0.44954  1.0000
  H   H4363     1.0  0.98394  0.55579  0.29790  1.0000
  H   H4364     1.0  0.98794  0.66871  0.38759  1.0000
  S   S730      1.0  0.98710  0.60985  0.36593  1.0000
  C   C2548     1.0  0.98790  0.68268  0.38589  1.0000
  H   H4365     1.0  0.98703  0.72679  0.38129  1.0000
  H   H4366     1.0  0.66274  0.94335  0.37483  1.0000
  C   C2549     1.0  0.94117  0.48759  0.27951  1.0000
  H   H4367     1.0  0.66117  0.95022  0.32057  1.0000
  C   C2550     1.0  0.75525  0.93534  0.49890  1.0000
  C   C2551     1.0  0.79567  0.96735  0.50934  1.0000
  H   H4368     1.0  0.99199  0.76789  0.53225  1.0000
  H   H4369     1.0  0.98722  0.64869  0.57165  1.0000
  H   H4370     1.0  0.99161  0.63072  0.59725  1.0000
  C   C2552     1.0  0.69394  0.89264  0.56153  1.0000
  S   S731      1.0  0.96303  0.66063  0.48840  1.0000
  H   H4371     1.0  0.98435  0.87441  0.48673  1.0000
  H   H4372     1.0  0.93649  0.76942  0.49745  1.0000
  S   S732      1.0  0.68324  0.97420  0.48830  1.0000
  H   H4373     1.0  0.69048  0.88105  0.60299  1.0000
  S   S733      1.0  0.66161  0.89939  0.53709  1.0000
  C   C2553     1.0  0.69836  0.98243  0.49318  1.0000
  H   H4374     1.0  0.96203  0.60426  0.58163  1.0000
  H   H4375     1.0  0.96064  0.72856  0.53520  1.0000
  S   S734      1.0  0.84349  0.97719  0.50660  1.0000
  Fe  Fe365     1.0  0.69167  0.94516  0.49507  1.0000
  Fe  Fe366     1.0  0.68218  0.91171  0.51686  1.0000
  S   S735      1.0  0.69256  0.93136  0.52273  1.0000
  H   H4376     1.0  0.80824  0.96953  0.50998  1.0000
  C   C2554     1.0  0.70744  0.86713  0.58291  1.0000
  C   C2555     1.0  0.97897  0.57617  0.55419  1.0000
  Fe  Fe367     1.0  0.71888  0.91684  0.51145  1.0000
  S   S736      1.0  0.74115  0.91075  0.52501  1.0000
  C   C2556     1.0  0.72373  0.87689  0.55330  1.0000
  H   H4377     1.0  0.97225  0.56699  0.56408  1.0000
  S   S737      1.0  0.70873  0.89564  0.50803  1.0000
  S   S738      1.0  0.93744  0.81205  0.49185  1.0000
  Fe  Fe368     1.0  0.85974  0.91475  0.49986  1.0000
  H   H4378     1.0  0.95469  0.58429  0.65347  1.0000
  S   S739      1.0  0.86947  0.88803  0.51562  1.0000
  H   H4379     1.0  0.78253  0.93111  0.54744  1.0000
  C   C2557     1.0  0.78615  0.93467  0.48992  1.0000
  H   H4380     1.0  0.76112  0.97014  0.51496  1.0000
  H   H4381     1.0  0.67249  0.97403  0.72098  1.0000
  C   C2558     1.0  0.68217  0.85875  0.56621  1.0000
  H   H4382     1.0  0.74278  0.95499  0.54062  1.0000
  S   S740      1.0  0.83519  0.93366  0.50886  1.0000
  H   H4383     1.0  0.97608  0.49169  0.71234  1.0000
  H   H4384     1.0  0.72288  0.88349  0.53957  1.0000
  H   H4385     1.0  0.73617  0.85236  0.54444  1.0000
  H   H4386     1.0  0.76831  0.98553  0.54310  1.0000
  H   H4387     1.0  0.67829  0.87316  0.59274  1.0000
  H   H4388     1.0  0.71001  0.91159  0.55680  1.0000
  C   C2559     1.0  0.72334  0.97744  0.50579  1.0000
  Fe  Fe369     1.0  0.98703  0.54140  0.61608  1.0000
  H   H4389     1.0  0.70244  0.90251  0.57966  1.0000
  C   C2560     1.0  0.96543  0.59530  0.50043  1.0000
  H   H4390     1.0  0.95781  0.58503  0.50415  1.0000
  H   H4391     1.0  0.70926  0.85003  0.55767  1.0000
  H   H4392     1.0  0.71703  0.87244  0.58603  1.0000
  C   C2561     1.0  0.75838  0.92039  0.51202  1.0000
  C   C2562     1.0  0.77540  0.91305  0.51463  1.0000
  C   C2563     1.0  0.98862  0.59352  0.58717  1.0000
  C   C2564     1.0  0.98647  0.54760  0.66063  1.0000
  Fe  Fe370     1.0  0.98551  0.50735  0.60927  1.0000
  C   C2565     1.0  0.73806  0.86003  0.55269  1.0000
  H   H4393     1.0  0.77788  0.90154  0.52485  1.0000
  H   H4394     1.0  0.95868  0.62365  0.49906  1.0000
  H   H4395     1.0  0.67902  0.85103  0.55880  1.0000
  Fe  Fe371     1.0  0.97830  0.64755  0.50950  1.0000
  C   C2566     1.0  0.92764  0.86456  0.49971  1.0000
  C   C2567     1.0  0.91602  0.85374  0.50848  1.0000
  C   C2568     1.0  0.89825  0.86106  0.51373  1.0000
  C   C2569     1.0  0.89196  0.87919  0.50987  1.0000
  C   C2570     1.0  0.90366  0.88997  0.50133  1.0000
  H   H4396     1.0  0.69306  0.89748  0.54759  1.0000
  H   H4397     1.0  0.92072  0.83976  0.51147  1.0000
  H   H4398     1.0  0.88932  0.85265  0.52059  1.0000
  H   H4399     1.0  0.95357  0.58233  0.68433  1.0000
  S   S741      1.0  0.94603  0.71032  0.48970  1.0000
  H   H4400     1.0  0.96621  0.58216  0.59317  1.0000
  C   C2571     1.0  0.98397  0.84715  0.51532  1.0000
  S   S742      1.0  0.97465  0.56344  0.62976  1.0000
  H   H4401     1.0  0.89905  0.90393  0.49868  1.0000
  H   H4402     1.0  0.73918  0.85182  0.56583  1.0000
  C   C2572     1.0  0.71066  0.97117  0.50254  1.0000
  H   H4403     1.0  0.71063  0.95754  0.50716  1.0000
  H   H4404     1.0  0.75078  0.86367  0.54643  1.0000
  H   H4405     1.0  0.72896  0.88542  0.55802  1.0000
  C   C2573     1.0  0.76909  0.94244  0.48790  1.0000
  H   H4406     1.0  0.98642  0.74132  0.53088  1.0000
  H   H4407     1.0  0.95934  0.70654  0.52039  1.0000
  H   H4408     1.0  0.80250  0.91416  0.50520  1.0000
  Fe  Fe372     1.0  0.85053  0.95401  0.49447  1.0000
  C   C2574     1.0  0.94002  0.74323  0.49465  1.0000
  H   H4409     1.0  0.68795  0.97381  0.54348  1.0000
  C   C2575     1.0  0.78975  0.98047  0.49320  1.0000
  C   C2576     1.0  0.69904  0.90690  0.56669  1.0000
  S   S743      1.0  0.95188  0.76617  0.52615  1.0000
  H   H4410     1.0  0.79906  0.95428  0.50637  1.0000
  C   C2577     1.0  0.97504  0.56117  0.65170  1.0000
  N   N185      1.0  0.78278  0.96756  0.52646  1.0000
  H   H4411     1.0  0.80074  0.93228  0.52931  1.0000
  C   C2578     1.0  0.79158  0.95559  0.54083  1.0000
  C   C2579     1.0  0.97884  0.60564  0.53669  1.0000
  H   H4412     1.0  0.74215  0.94154  0.49732  1.0000
  C   C2580     1.0  0.76733  0.96153  0.52572  1.0000
  C   C2581     1.0  0.79474  0.93583  0.54203  1.0000
  C   C2582     1.0  0.96287  0.57268  0.67777  1.0000
  H   H4413     1.0  0.87151  0.85942  0.49574  1.0000
  H   H4414     1.0  0.80373  0.92855  0.55096  1.0000
  C   C2583     1.0  0.95444  0.72022  0.51533  1.0000
  H   H4415     1.0  0.78409  0.95802  0.55381  1.0000
  H   H4416     1.0  0.80455  0.95826  0.53940  1.0000
  Fe  Fe373     1.0  0.95636  0.82784  0.49035  1.0000
  H   H4417     1.0  0.68235  0.85055  0.57953  1.0000
  S   S744      1.0  0.97366  0.80593  0.50557  1.0000
  S   S745      1.0  0.96764  0.62754  0.53206  1.0000
  C   C2584     1.0  0.70003  0.86295  0.55703  1.0000
  H   H4418     1.0  0.97435  0.62593  0.57034  1.0000
  C   C2585     1.0  0.66183  0.98111  0.72925  1.0000
  H   H4419     1.0  0.74614  0.97404  0.54453  1.0000
  C   C2586     1.0  0.77678  0.98566  0.52990  1.0000
  H   H4420     1.0  0.95689  0.59787  0.55583  1.0000
  H   H4421     1.0  0.67047  0.93170  0.66570  1.0000
  H   H4422     1.0  0.77148  0.94844  0.52260  1.0000
  H   H4423     1.0  0.94407  0.61182  0.51486  1.0000
  C   C2587     1.0  0.67512  0.97144  0.54407  1.0000
  H   H4424     1.0  0.69974  0.86853  0.54296  1.0000
  N   N186      1.0  0.70598  0.87482  0.56416  1.0000
  S   S746      1.0  0.97988  0.67259  0.51456  1.0000
  H   H4425     1.0  0.99195  0.71476  0.52244  1.0000
  C   C2588     1.0  0.78932  0.92017  0.50353  1.0000
  C   C2589     1.0  0.98875  0.62245  0.56841  1.0000
  C   C2590     1.0  0.69062  0.87041  0.59704  1.0000
  H   H4426     1.0  0.67152  0.87054  0.56648  1.0000
  Fe  Fe374     1.0  0.96651  0.68538  0.49220  1.0000
  C   C2591     1.0  0.99058  0.60766  0.61725  1.0000
  H   H4427     1.0  0.73281  0.96856  0.51295  1.0000
  C   C2592     1.0  0.98608  0.54669  0.67825  1.0000
  C   C2593     1.0  0.87775  0.97939  0.50010  1.0000
  H   H4428     1.0  0.68786  0.91835  0.56709  1.0000
  C   C2594     1.0  0.97030  0.59364  0.54949  1.0000
  H   H4429     1.0  0.69062  0.85861  0.60785  1.0000
  H   H4430     1.0  0.68040  0.89239  0.56855  1.0000
  C   C2595     1.0  0.94693  0.72550  0.50071  1.0000
  C   C2596     1.0  0.75275  0.96080  0.54229  1.0000
  S   S747      1.0  0.97177  0.55839  0.70908  1.0000
  S   S748      1.0  0.94989  0.85579  0.49257  1.0000
  H   H4431     1.0  0.97242  0.59259  0.51111  1.0000
  C   C2597     1.0  0.95511  0.73267  0.52374  1.0000
  H   H4432     1.0  0.97249  0.62308  0.60095  1.0000
  H   H4433     1.0  0.90430  0.98194  0.49480  1.0000
  H   H4434     1.0  0.71271  0.85277  0.58498  1.0000
  S   S749      1.0  0.97420  0.53556  0.59803  1.0000
  C   C2598     1.0  0.92147  0.88268  0.49641  1.0000
  Fe  Fe375     1.0  0.95628  0.78956  0.50469  1.0000
  C   C2599     1.0  0.96350  0.57378  0.66028  1.0000
  C   C2600     1.0  0.94146  0.75572  0.50251  1.0000
  C   C2601     1.0  0.97406  0.55919  0.68686  1.0000
  C   C2602     1.0  0.94898  0.75047  0.51708  1.0000
  H   H4435     1.0  0.75755  0.95260  0.55405  1.0000
  H   H4436     1.0  0.88124  0.96707  0.49629  1.0000
  H   H4437     1.0  0.77882  0.97740  0.49004  1.0000
  H   H4438     1.0  0.66835  0.92633  0.69739  1.0000
  H   H4439     1.0  0.96272  0.59877  0.60454  1.0000
  C   C2603     1.0  0.98686  0.61870  0.59950  1.0000
  H   H4440     1.0  0.98229  0.84197  0.52962  1.0000
  C   C2604     1.0  0.96875  0.59514  0.59181  1.0000
  H   H4441     1.0  0.98594  0.59543  0.62114  1.0000
  H   H4442     1.0  0.94322  0.61612  0.49245  1.0000
  S   S750      1.0  0.67914  0.92671  0.48985  1.0000
  H   H4443     1.0  0.97489  0.86010  0.51331  1.0000
  C   C2605     1.0  0.86025  0.98694  0.50595  1.0000
  H   H4444     1.0  0.66055  0.90874  0.66157  1.0000
  H   H4445     1.0  0.98002  0.83811  0.51017  1.0000
  H   H4446     1.0  0.98426  0.74780  0.50157  1.0000
  H   H4447     1.0  0.93041  0.89112  0.48979  1.0000
  H   H4448     1.0  0.65908  0.93930  0.64018  1.0000
  H   H4449     1.0  0.67481  0.96992  0.53115  1.0000
  C   C2606     1.0  0.95220  0.61282  0.50144  1.0000
  C   C2607     1.0  0.66008  0.98602  0.55043  1.0000
  H   H4450     1.0  0.67413  0.95880  0.55347  1.0000
  H   H4451     1.0  0.66215  0.90926  0.69274  1.0000
  H   H4452     1.0  0.98348  0.61516  0.62743  1.0000
  H   H4453     1.0  0.97943  0.56697  0.48736  1.0000
  H   H4454     1.0  0.98974  0.72239  0.48987  1.0000
  S   S751      1.0  0.87567  0.93498  0.48706  1.0000
  H   H4455     1.0  0.99103  0.64689  0.54968  1.0000
  H   H4456     1.0  0.99144  0.56705  0.51185  1.0000
  H   H4457     1.0  0.79913  0.98719  0.53910  1.0000
  C   C2608     1.0  0.66685  0.65393  0.90926  1.0000
  C   C2609     1.0  0.70709  0.56904  0.91193  1.0000
  H   H4458     1.0  0.91476  0.52042  0.77263  1.0000
  H   H4459     1.0  0.67220  0.58536  0.91414  1.0000
  H   H4460     1.0  0.73180  0.57555  0.91135  1.0000
  Fe  Fe376     1.0  0.72303  0.53536  0.87356  1.0000
  S   S752      1.0  0.74998  0.52775  0.87864  1.0000
  S   S753      1.0  0.71042  0.56400  0.86710  1.0000
  H   H4461     1.0  0.86040  0.54020  0.93694  1.0000
  C   C2610     1.0  0.93929  0.55311  0.86027  1.0000
  Fe  Fe377     1.0  0.74079  0.50646  0.89991  1.0000
  H   H4462     1.0  0.78559  0.50382  0.90231  1.0000
  Fe  Fe378     1.0  0.75545  0.50906  0.86155  1.0000
  S   S754      1.0  0.78245  0.50364  0.84501  1.0000
  S   S755      1.0  0.71320  0.51586  0.89685  1.0000
  S   S756      1.0  0.72908  0.51824  0.85451  1.0000
  S   S757      1.0  0.75771  0.55508  0.95490  1.0000
  Fe  Fe379     1.0  0.89001  0.54167  0.83446  1.0000
  S   S758      1.0  0.87163  0.52438  0.83974  1.0000
  S   S759      1.0  0.90419  0.55030  0.80683  1.0000
  Fe  Fe380     1.0  0.88182  0.54460  0.87223  1.0000
  S   S760      1.0  0.86286  0.52721  0.88112  1.0000
  S   S761      1.0  0.88818  0.55849  0.88898  1.0000
  Fe  Fe381     1.0  0.88262  0.51107  0.86355  1.0000
  Fe  Fe382     1.0  0.85336  0.54185  0.85666  1.0000
  S   S762      1.0  0.82492  0.55156  0.85633  1.0000
  S   S763      1.0  0.90256  0.52685  0.85705  1.0000
  S   S764      1.0  0.87062  0.56080  0.84908  1.0000
  C   C2611     1.0  0.89131  0.54558  0.90954  1.0000
  C   C2612     1.0  0.89298  0.52755  0.91324  1.0000
  C   C2613     1.0  0.89552  0.51739  0.92969  1.0000
  C   C2614     1.0  0.89606  0.52522  0.94264  1.0000
  C   C2615     1.0  0.89422  0.54329  0.93901  1.0000
  C   C2616     1.0  0.89201  0.55343  0.92242  1.0000
  H   H4463     1.0  0.89252  0.52138  0.90338  1.0000
  H   H4464     1.0  0.91787  0.50334  0.75264  1.0000
  H   H4465     1.0  0.84030  0.56893  0.92536  1.0000
  H   H4466     1.0  0.89071  0.56738  0.91960  1.0000
  C   C2617     1.0  0.75319  0.51176  0.93325  1.0000
  C   C2618     1.0  0.75809  0.52668  0.92183  1.0000
  C   C2619     1.0  0.76057  0.53964  0.92837  1.0000
  C   C2620     1.0  0.75801  0.53769  0.94635  1.0000
  C   C2621     1.0  0.75427  0.52222  0.95760  1.0000
  C   C2622     1.0  0.75185  0.50929  0.95109  1.0000
  H   H4467     1.0  0.75978  0.52839  0.90800  1.0000
  H   H4468     1.0  0.76376  0.55146  0.91958  1.0000
  Fe  Fe383     1.0  0.72106  0.49806  0.87834  1.0000
  H   H4469     1.0  0.96385  0.56223  0.83297  1.0000
  C   C2623     1.0  0.79476  0.51664  0.84788  1.0000
  C   C2624     1.0  0.78687  0.53376  0.84945  1.0000
  C   C2625     1.0  0.79622  0.54408  0.85246  1.0000
  C   C2626     1.0  0.81367  0.53751  0.85361  1.0000
  C   C2627     1.0  0.82181  0.52042  0.85174  1.0000
  C   C2628     1.0  0.81235  0.51001  0.84876  1.0000
  H   H4470     1.0  0.77357  0.53923  0.84803  1.0000
  H   H4471     1.0  0.78992  0.55731  0.85370  1.0000
  H   H4472     1.0  0.83530  0.51522  0.85259  1.0000
  H   H4473     1.0  0.75286  0.52023  0.97141  1.0000
  C   C2629     1.0  0.96282  0.52823  0.79375  1.0000
  C   C2630     1.0  0.95468  0.54163  0.78172  1.0000
  C   C2631     1.0  0.93667  0.54838  0.78587  1.0000
  C   C2632     1.0  0.92673  0.54170  0.80201  1.0000
  C   C2633     1.0  0.93485  0.52808  0.81390  1.0000
  C   C2634     1.0  0.95288  0.52147  0.80984  1.0000
  H   H4474     1.0  0.96227  0.54688  0.76923  1.0000
  H   H4475     1.0  0.93045  0.55885  0.77657  1.0000
  H   H4476     1.0  0.92726  0.52249  0.82614  1.0000
  H   H4477     1.0  0.86497  0.56033  0.81204  1.0000
  H   H4478     1.0  0.69445  0.75090  0.77721  1.0000
  H   H4479     1.0  0.85767  0.52597  0.96702  1.0000
  C   C2635     1.0  0.91052  0.49852  0.79322  1.0000
  C   C2636     1.0  0.68819  0.57124  0.87573  1.0000
  C   C2637     1.0  0.67849  0.55977  0.88769  1.0000
  H   H4480     1.0  0.71347  0.52269  0.95888  1.0000
  H   H4481     1.0  0.85361  0.57392  0.79541  1.0000
  C   C2638     1.0  0.95165  0.56239  0.82934  1.0000
  H   H4482     1.0  0.68472  0.54635  0.89217  1.0000
  C   C2639     1.0  0.85419  0.55153  0.77163  1.0000
  H   H4483     1.0  0.67845  0.73739  0.82489  1.0000
  C   C2640     1.0  0.83555  0.55964  0.78039  1.0000
  H   H4484     1.0  0.89701  0.50341  0.93243  1.0000
  C   C2641     1.0  0.93506  0.58410  0.84675  1.0000
  H   H4485     1.0  0.72417  0.54666  0.93914  1.0000
  C   C2642     1.0  0.66566  0.50198  0.85378  1.0000
  H   H4486     1.0  0.69954  0.55639  0.83536  1.0000
  H   H4487     1.0  0.78911  0.50041  0.93500  1.0000
  C   C2643     1.0  0.90939  0.58208  0.82932  1.0000
  C   C2644     1.0  0.95138  0.57446  0.81116  1.0000
  H   H4488     1.0  0.85568  0.55587  0.75726  1.0000
  H   H4489     1.0  0.69886  0.54128  0.96583  1.0000
  N   N187      1.0  0.83015  0.55353  0.79992  1.0000
  C   C2645     1.0  0.82227  0.53783  0.80450  1.0000
  H   H4490     1.0  0.95839  0.52993  0.85326  1.0000
  H   H4491     1.0  0.86409  0.55605  0.77505  1.0000
  H   H4492     1.0  0.89476  0.54939  0.94889  1.0000
  C   C2646     1.0  0.79877  0.57231  0.80129  1.0000
  H   H4493     1.0  0.94795  0.58497  0.84803  1.0000
  H   H4494     1.0  0.84505  0.51635  0.81003  1.0000
  H   H4495     1.0  0.68627  0.78632  0.78700  1.0000
  H   H4496     1.0  0.81337  0.56472  0.82148  1.0000
  C   C2647     1.0  0.91962  0.56536  0.83976  1.0000
  H   H4497     1.0  0.83455  0.57399  0.77662  1.0000
  H   H4498     1.0  0.91737  0.58815  0.81714  1.0000
  C   C2648     1.0  0.68186  0.56308  0.93444  1.0000
  H   H4499     1.0  0.95911  0.51100  0.81913  1.0000
  C   C2649     1.0  0.83471  0.52016  0.80247  1.0000
  H   H4500     1.0  0.84845  0.57393  0.96410  1.0000
  H   H4501     1.0  0.94980  0.55528  0.86508  1.0000
  C   C2650     1.0  0.84059  0.55628  0.92282  1.0000
  N   N188      1.0  0.83570  0.54040  0.95525  1.0000
  H   H4502     1.0  0.79144  0.56190  0.80787  1.0000
  C   C2651     1.0  0.70339  0.53449  0.95500  1.0000
  C   C2652     1.0  0.84425  0.52502  0.96760  1.0000
  H   H4503     1.0  0.70066  0.58272  0.90668  1.0000
  H   H4504     1.0  0.68330  0.55574  0.82507  1.0000
  H   H4505     1.0  0.81851  0.51837  0.89343  1.0000
  H   H4506     1.0  0.95554  0.51543  0.76457  1.0000
  H   H4507     1.0  0.95328  0.54916  0.82724  1.0000
  H   H4508     1.0  0.81057  0.52091  0.98027  1.0000
  N   N189      1.0  0.93614  0.56649  0.84375  1.0000
  C   C2653     1.0  0.80592  0.53453  0.97341  1.0000
  H   H4509     1.0  0.66956  0.77286  0.77817  1.0000
  H   H4510     1.0  0.82572  0.56820  0.95396  1.0000
  C   C2654     1.0  0.68614  0.74956  0.79055  1.0000
  H   H4511     1.0  0.93673  0.53118  0.85118  1.0000
  H   H4512     1.0  0.89897  0.57872  0.82552  1.0000
  H   H4513     1.0  0.95230  0.48928  0.78776  1.0000
  H   H4514     1.0  0.84341  0.57255  0.81824  1.0000
  H   H4515     1.0  0.90280  0.59192  0.83730  1.0000
  H   H4516     1.0  0.79632  0.52977  0.89526  1.0000
  H   H4517     1.0  0.66013  0.78387  0.82260  1.0000
  H   H4518     1.0  0.68319  0.57091  0.96404  1.0000
  H   H4519     1.0  0.70000  0.53638  0.83067  1.0000
  H   H4520     1.0  0.68748  0.59772  0.86113  1.0000
  C   C2655     1.0  0.66943  0.58058  0.92850  1.0000
  H   H4521     1.0  0.66057  0.75449  0.78636  1.0000
  H   H4522     1.0  0.92751  0.55439  0.87100  1.0000
  H   H4523     1.0  0.70512  0.56675  0.96711  1.0000
  H   H4524     1.0  0.70376  0.56081  0.90517  1.0000
  H   H4525     1.0  0.85935  0.50292  0.95574  1.0000
  H   H4526     1.0  0.67209  0.66217  0.89663  1.0000
  C   C2656     1.0  0.84496  0.54935  0.80906  1.0000
  H   H4527     1.0  0.81503  0.53587  0.81825  1.0000
  C   C2657     1.0  0.67976  0.54348  0.85328  1.0000
  C   C2658     1.0  0.81626  0.56793  0.80696  1.0000
  N   N190      1.0  0.70070  0.56365  0.93140  1.0000
  C   C2659     1.0  0.85204  0.56507  0.80849  1.0000
  C   C2660     1.0  0.70317  0.57682  0.93966  1.0000
  H   H4528     1.0  0.68497  0.73577  0.79562  1.0000
  H   H4529     1.0  0.66235  0.54120  0.82890  1.0000
  H   H4530     1.0  0.69834  0.59043  0.93271  1.0000
  S   S765      1.0  0.89931  0.51196  0.96303  1.0000
  H   H4531     1.0  0.93196  0.59476  0.83545  1.0000
  C   C2661     1.0  0.69549  0.57537  0.95932  1.0000
  H   H4532     1.0  0.92235  0.55492  0.83259  1.0000
  H   H4533     1.0  0.84541  0.49710  0.97677  1.0000
  H   H4534     1.0  0.94913  0.58842  0.81114  1.0000
  H   H4535     1.0  0.68066  0.55358  0.92766  1.0000
  H   H4536     1.0  0.84092  0.54308  0.82301  1.0000
  H   H4537     1.0  0.73424  0.55421  0.90745  1.0000
  C   C2662     1.0  0.67651  0.79180  0.79757  1.0000
  H   H4538     1.0  0.91011  0.56143  0.85194  1.0000
  H   H4539     1.0  0.91924  0.60299  0.86229  1.0000
  C   C2663     1.0  0.84670  0.54066  0.93716  1.0000
  H   H4540     1.0  0.82077  0.58033  0.80300  1.0000
  H   H4541     1.0  0.94183  0.57225  0.80518  1.0000
  Fe  Fe384     1.0  0.74628  0.54792  0.98344  1.0000
  H   H4542     1.0  0.82767  0.55555  0.97501  1.0000
  H   H4543     1.0  0.82706  0.50988  0.80789  1.0000
  C   C2664     1.0  0.66503  0.51827  0.88797  1.0000
  C   C2665     1.0  0.92995  0.49377  0.75564  1.0000
  H   H4544     1.0  0.93142  0.53842  0.75483  1.0000
  H   H4545     1.0  0.92672  0.58190  0.87512  1.0000
  H   H4546     1.0  0.82678  0.49292  0.91521  1.0000
  H   H4547     1.0  0.92894  0.51453  0.78731  1.0000
  H   H4548     1.0  0.90203  0.50669  0.80243  1.0000
  H   H4549     1.0  0.66676  0.75032  0.84094  1.0000
  H   H4550     1.0  0.79051  0.58440  0.80535  1.0000
  H   H4551     1.0  0.94187  0.52537  0.87229  1.0000
  H   H4552     1.0  0.83761  0.52499  0.98144  1.0000
  H   H4553     1.0  0.81855  0.49676  0.84749  1.0000
  H   H4554     1.0  0.79266  0.53564  0.97169  1.0000
  H   H4555     1.0  0.87557  0.49005  0.84056  1.0000
  H   H4556     1.0  0.90904  0.58559  0.86452  1.0000
  H   H4557     1.0  0.71454  0.53759  0.92789  1.0000
  H   H4558     1.0  0.81239  0.53994  0.79668  1.0000
  H   H4559     1.0  0.86018  0.55185  0.96695  1.0000
  H   H4560     1.0  0.68439  0.51653  0.83796  1.0000
  H   H4561     1.0  0.72951  0.57329  0.89110  1.0000
  C   C2666     1.0  0.71141  0.54571  0.93769  1.0000
  C   C2667     1.0  0.67906  0.64895  0.94942  1.0000
  H   H4562     1.0  0.85724  0.53715  0.77477  1.0000
  C   C2668     1.0  0.93916  0.52945  0.74618  1.0000
  H   H4563     1.0  0.81803  0.52974  0.94776  1.0000
  S   S766      1.0  0.98532  0.51962  0.78893  1.0000
  H   H4564     1.0  0.85617  0.53957  0.80384  1.0000
  H   H4565     1.0  0.80387  0.51740  0.91457  1.0000
  H   H4566     1.0  0.82649  0.55750  0.77367  1.0000
  C   C2669     1.0  0.72681  0.56791  0.90541  1.0000
  H   H4567     1.0  0.66529  0.67396  0.92186  1.0000
  C   C2670     1.0  0.92168  0.58878  0.86310  1.0000
  C   C2671     1.0  0.68000  0.58875  0.87028  1.0000
  C   C2672     1.0  0.94432  0.53384  0.85900  1.0000
  S   S767      1.0  0.74836  0.49617  0.92570  1.0000
  C   C2673     1.0  0.85142  0.56192  0.95911  1.0000
  C   C2674     1.0  0.84641  0.50687  0.96418  1.0000
  H   H4568     1.0  0.84736  0.52871  0.93291  1.0000
  C   C2675     1.0  0.67679  0.51514  0.85160  1.0000
  C   C2676     1.0  0.69112  0.54808  0.83493  1.0000
  C   C2677     1.0  0.94859  0.51210  0.75644  1.0000
  C   C2678     1.0  0.66846  0.77764  0.81177  1.0000
  H   H4569     1.0  0.85833  0.56506  0.94534  1.0000
  C   C2679     1.0  0.83419  0.55677  0.96102  1.0000
  H   H4570     1.0  0.93084  0.52744  0.73863  1.0000
  H   H4571     1.0  0.67667  0.65391  0.96134  1.0000
  H   H4572     1.0  0.84016  0.51971  0.78863  1.0000
  H   H4573     1.0  0.69339  0.75272  0.79836  1.0000
  H   H4574     1.0  0.67807  0.64438  0.91403  1.0000
  H   H4575     1.0  0.84995  0.55519  0.91025  1.0000
  H   H4576     1.0  0.67279  0.48857  0.85890  1.0000
  H   H4577     1.0  0.69032  0.63758  0.94981  1.0000
  H   H4578     1.0  0.67302  0.55600  0.85728  1.0000
  H   H4579     1.0  0.66295  0.50243  0.84107  1.0000
  H   H4580     1.0  0.68339  0.79766  0.80360  1.0000
  C   C2680     1.0  0.81765  0.53923  0.95531  1.0000
  H   H4581     1.0  0.69259  0.52980  0.95347  1.0000
  H   H4582     1.0  0.68338  0.65879  0.93788  1.0000
  H   H4583     1.0  0.69217  0.58851  0.96223  1.0000
  H   H4584     1.0  0.96428  0.57100  0.80247  1.0000
  H   H4585     1.0  0.67630  0.55816  0.94835  1.0000
  H   H4586     1.0  0.67944  0.76852  0.81729  1.0000
  H   H4587     1.0  0.66664  0.80271  0.79198  1.0000
  H   H4588     1.0  0.80050  0.57466  0.78696  1.0000
  H   H4589     1.0  0.71727  0.57600  0.93813  1.0000
  H   H4590     1.0  0.83626  0.50613  0.95808  1.0000
  N   N191      1.0  0.93739  0.49954  0.76750  1.0000
  H   H4591     1.0  0.74840  0.49762  0.95999  1.0000
  C   C2681     1.0  0.66549  0.74271  0.83227  1.0000
  H   H4592     1.0  0.68695  0.50891  0.85948  1.0000
  H   H4593     1.0  0.68891  0.53671  0.86218  1.0000
  H   H4594     1.0  0.82767  0.55635  0.92097  1.0000
  H   H4595     1.0  0.81047  0.55187  0.94845  1.0000
  C   C2682     1.0  0.92315  0.50906  0.77984  1.0000
  H   H4596     1.0  0.93902  0.49358  0.74270  1.0000
  C   C2683     1.0  0.66813  0.76189  0.78978  1.0000
  H   H4597     1.0  0.80466  0.54356  0.98173  1.0000
  C   C2684     1.0  0.80508  0.51755  0.90076  1.0000
  C   C2685     1.0  0.66205  0.59464  0.87624  1.0000
  N   N192      1.0  0.66691  0.53271  0.85522  1.0000
  C   C2686     1.0  0.80000  0.50185  0.89819  1.0000
  H   H4598     1.0  0.95888  0.50604  0.74646  1.0000
  H   H4599     1.0  0.70138  0.49186  0.93469  1.0000
  H   H4600     1.0  0.66018  0.73144  0.84097  1.0000
  H   H4601     1.0  0.90174  0.49558  0.78683  1.0000
  H   H4602     1.0  0.80264  0.50369  0.88382  1.0000
  H   H4603     1.0  0.67784  0.52059  0.88737  1.0000
  S   S768      1.0  0.99102  0.51722  0.74186  1.0000
  H   H4604     1.0  0.66668  0.50453  0.88740  1.0000
  C   C2687     1.0  0.66306  0.64305  0.94870  1.0000
  H   H4605     1.0  0.66957  0.59073  0.93492  1.0000
  C   C2688     1.0  0.66054  0.56560  0.89350  1.0000
  H   H4606     1.0  0.66118  0.68111  0.95113  1.0000
  H   H4607     1.0  0.66782  0.63147  0.94278  1.0000
  H   H4608     1.0  0.94904  0.53623  0.73668  1.0000
