data_image0
_chemical_formula_structural       FeS2CH2FeSH2SHSCFeSNH3CHCSH3C6H4C2H4CSHC3H9NH3C2NC2H6C2H2CSHCHCHFeH2SFeH3CFeC2HCH3FeH3SCH2C2H2CH3S2NSCH3CHC3HCHSCH4FeSHCSFe2SFeHSH2SH4C6H6C2HC2HCSHC2SHCNH14CH2CHFeH3FeH4CHNHCNC3SHCH2SHCH5CH4CH2SHC2H5CHCHCHC3HCHC2H3SHCSC2HCH4CHSH2CH2CH3C2HSHFeSHSH4SCHC2HC2H3SHFeH2SC6H3CFeCFeC2HNHSHC2HCHC2HC2H3CH2CHCH5FeHCSCHCH7CHFeHSHS2FeC2H3CH3CH3SH3CH2CH2C2H8CFeH3SH4NFeSH2SCSHFeS2FeSFeS2HFeSCHSCH2C3H3SC4FeHCHC6H3C4H3CH5C3HCNC8H15NH4CHCSHCHCFeH2C2H3CHSH8CHNCH5SC2FeS2FeS2FeSFeS3HSHSHFeS2CHCH4C2NHCH5C8H4C6H4CH2CH2CNC4H2CH3CH8CH5CH2CH3CH2CHFeC2HCHC7H3C2HSH4SC2HCHC2SH4CH2CHCH5CHC3HCH5C2SH5CH6FeS2FeS2FeSFeS3HSHSHFeSC6H4C2HC3H3C2H6CHC6HSFeC5HCH4SC3H4CHC3HNHSHCH5CH2SH2SHSH2C2H3CHCHFeHNH2CH2CHFe2H5NH2CHSHCH2CNHC3FeC3H2CNCH4FeNCH2CH6CH2FeS2FeS2FeSFeS5H6CHC6HCHC3H2C3HC7H4C3H3NH6CFeNH2C3H4NHCH4FeH3CHCHCH3NH2C2H2CHCH7C2H6CH2CHSCH6CHCNHCH2C2H2CHCH2CHCH2NHCH3C3NCH8CH3CHCH3FeH2NH3CSH2CH7CHCH2C4FeCH3SCFeS2FeS2FeSFeS4C6H4C4H2C6H4C2H6CHC2H4C3H3CH2SH3CH3CNH2CH2CSH2NCH2C3H4SCH2C3HCH2CH4CHCH4CH3FeHSCH2CFeH2C3HCHCHCH2NCFeHCH3CH3C2H8CH3CH2CH4FeHSH5C2FeS2FeCSCSFeHS2CHC3H3C7H5CH2FeSHCH2CH2C2H4NC3H2CH7CH2CH4CH6C2H3SHNHC2HFeH4CH3CH7CHSH2NH2CH2CFeSCH3CHNCHFeCSH2C2HCHSH2CSCNSH2C2H4FeHC2H2C6H6SHC2H8SCHCH4C2HCH2SHCH2CH2CH2CHC2S2H2C2HFeCHS2HCHCH3CFeC2H5C2H2CH2CH5CSC2HCSCHCHCHSHSFeH6S2HC3H5FeSHC4HSH4SHCH3CSC5FeHC3SH2C2SH6CNH4C2H3Fe2HNC2HCHSC3FeH2SCH2CSHCH3C3FeSHCHSHCH7C6H9CH2CHSHNHSFeH5C2H2S2C2H3CHC3HCH3SCH2NHCH2FeH2CHC2HC3H6SHCH4
_chemical_formula_sum              "Fe80 S160 C560 H960 N40"
_cell_length_a       37.6917
_cell_length_b       37.4222
_cell_length_c       34.6931
_cell_angle_alpha    90.2311
_cell_angle_beta     91.2516
_cell_angle_gamma    90.2957

_space_group_name_H-M_alt    "P 1"
_space_group_IT_number       1

loop_
  _space_group_symop_operation_xyz
  'x, y, z'

loop_
  _atom_site_type_symbol
  _atom_site_label
  _atom_site_symmetry_multiplicity
  _atom_site_fract_x
  _atom_site_fract_y
  _atom_site_fract_z
  _atom_site_occupancy
  Fe  Fe1       1.0  0.04480  0.34492  0.10006  1.0000
  S   S1        1.0  0.08119  0.29841  0.10908  1.0000
  S   S2        1.0  0.04752  0.38850  0.05489  1.0000
  C   C1        1.0  0.02050  0.48152  0.27440  1.0000
  H   H1        1.0  0.08397  0.10353  0.47545  1.0000
  H   H2        1.0  0.19811  0.47717  0.19239  1.0000
  Fe  Fe2       1.0  0.07889  0.31284  0.17199  1.0000
  S   S3        1.0  0.13092  0.31827  0.20522  1.0000
  H   H3        1.0  0.17713  0.43128  0.48191  1.0000
  H   H4        1.0  0.02854  0.44764  0.32623  1.0000
  S   S4        1.0  0.04617  0.36180  0.16198  1.0000
  H   H5        1.0  0.18410  0.04718  0.04837  1.0000
  S   S5        1.0  0.23301  0.48782  0.33203  1.0000
  C   C2        1.0  0.06766  0.51341  0.21431  1.0000
  Fe  Fe3       1.0  0.18787  0.46190  0.36296  1.0000
  S   S6        1.0  0.13836  0.43417  0.33902  1.0000
  N   N1        1.0  0.04473  0.51283  0.28390  1.0000
  H   H6        1.0  0.15277  0.34390  0.11314  1.0000
  H   H7        1.0  0.18139  0.36130  0.14993  1.0000
  H   H8        1.0  0.19706  0.10243  0.05723  1.0000
  C   C3        1.0  0.14313  0.36621  0.00988  1.0000
  H   H9        1.0  0.07087  0.30496  0.99422  1.0000
  C   C4        1.0  0.03524  0.09451  0.10453  1.0000
  S   S7        1.0  0.22126  0.44747  0.41517  1.0000
  H   H10       1.0  0.18958  0.44956  0.05977  1.0000
  H   H11       1.0  0.02795  0.32270  0.00658  1.0000
  H   H12       1.0  0.03385  0.46172  0.25569  1.0000
  C   C5        1.0  0.13742  0.40237  0.30145  1.0000
  C   C6        1.0  0.10443  0.39263  0.28493  1.0000
  C   C7        1.0  0.10219  0.36680  0.25549  1.0000
  C   C8        1.0  0.13293  0.35012  0.24277  1.0000
  C   C9        1.0  0.16596  0.35977  0.25938  1.0000
  C   C10       1.0  0.16827  0.38613  0.28842  1.0000
  H   H13       1.0  0.08042  0.40482  0.29517  1.0000
  H   H14       1.0  0.07660  0.35927  0.24323  1.0000
  H   H15       1.0  0.18982  0.34694  0.24960  1.0000
  H   H16       1.0  0.19377  0.39336  0.30118  1.0000
  C   C11       1.0  0.04123  0.11931  0.13460  1.0000
  C   C12       1.0  0.06823  0.40897  0.45565  1.0000
  H   H17       1.0  0.13525  0.51160  0.30628  1.0000
  H   H18       1.0  0.22805  0.02858  0.40609  1.0000
  H   H19       1.0  0.17784  0.14423  0.06569  1.0000
  H   H20       1.0  0.08608  0.06704  0.04094  1.0000
  C   C13       1.0  0.17851  0.46103  0.20822  1.0000
  S   S8        1.0  0.32219  0.45757  0.38482  1.0000
  H   H21       1.0  0.04836  0.10983  0.16314  1.0000
  C   C14       1.0  0.17331  0.02897  0.42379  1.0000
  C   C15       1.0  0.08640  0.39067  0.02790  1.0000
  C   C16       1.0  0.11247  0.36452  0.03190  1.0000
  H   H22       1.0  0.08913  0.37003  0.41363  1.0000
  H   H23       1.0  0.09525  0.50605  0.22246  1.0000
  H   H24       1.0  0.05228  0.48970  0.20443  1.0000
  H   H25       1.0  0.10902  0.34276  0.05173  1.0000
  H   H26       1.0  0.07499  0.48372  0.32688  1.0000
  H   H27       1.0  0.13588  0.38529  0.44952  1.0000
  H   H28       1.0  0.07008  0.47944  0.12675  1.0000
  H   H29       1.0  0.15549  0.47770  0.21597  1.0000
  H   H30       1.0  0.11926  0.39785  0.10694  1.0000
  N   N2        1.0  0.14922  0.43243  0.14695  1.0000
  H   H31       1.0  0.13764  0.46984  0.45669  1.0000
  H   H32       1.0  0.17461  0.05619  0.43435  1.0000
  H   H33       1.0  0.15275  0.47795  0.07115  1.0000
  C   C17       1.0  0.16708  0.42694  0.18590  1.0000
  C   C18       1.0  0.17994  0.12283  0.04356  1.0000
  N   N3        1.0  0.13907  0.07141  0.01780  1.0000
  C   C19       1.0  0.07021  0.39256  0.41481  1.0000
  C   C20       1.0  0.02605  0.10725  0.06781  1.0000
  H   H34       1.0  0.10476  0.45066  0.18015  1.0000
  H   H35       1.0  0.14915  0.41201  0.20520  1.0000
  H   H36       1.0  0.09002  0.47695  0.28043  1.0000
  H   H37       1.0  0.13008  0.43959  0.41897  1.0000
  H   H38       1.0  0.13230  0.12834  0.01034  1.0000
  H   H39       1.0  0.32030  0.49785  0.45719  1.0000
  C   C21       1.0  0.13641  0.39619  0.13316  1.0000
  C   C22       1.0  0.11813  0.45713  0.15265  1.0000
  H   H40       1.0  0.14378  0.07270  0.10029  1.0000
  H   H41       1.0  0.12465  0.11431  0.05724  1.0000
  C   C23       1.0  0.15488  0.04457  0.04553  1.0000
  S   S9        1.0  0.03949  0.04802  0.11417  1.0000
  H   H42       1.0  0.03151  0.29407  0.41790  1.0000
  C   C24       1.0  0.10001  0.06268  0.01341  1.0000
  H   H43       1.0  0.02122  0.08860  0.04444  1.0000
  C   C25       1.0  0.08814  0.45662  0.12164  1.0000
  H   H44       1.0  0.15660  0.02718  0.10517  1.0000
  Fe  Fe4       1.0  0.26535  0.47811  0.38698  1.0000
  H   H45       1.0  0.19156  0.45306  0.23591  1.0000
  H   H46       1.0  0.04507  0.25539  0.47501  1.0000
  S   S10       1.0  0.03251  0.27624  0.18382  1.0000
  Fe  Fe5       1.0  0.34131  0.03386  0.32138  1.0000
  H   H47       1.0  0.11915  0.38382  0.15511  1.0000
  H   H48       1.0  0.09774  0.45926  0.09197  1.0000
  H   H49       1.0  0.09613  0.03386  0.00632  1.0000
  C   C26       1.0  0.09008  0.48047  0.42378  1.0000
  Fe  Fe6       1.0  0.03217  0.26537  0.11946  1.0000
  C   C27       1.0  0.16543  0.45182  0.07743  1.0000
  C   C28       1.0  0.04177  0.30145  0.99049  1.0000
  H   H50       1.0  0.14791  0.43007  0.06679  1.0000
  C   C29       1.0  0.16560  0.36890  0.12394  1.0000
  H   H51       1.0  0.07181  0.43197  0.12376  1.0000
  H   H52       1.0  0.18325  0.37843  0.10095  1.0000
  H   H53       1.0  0.03495  0.27572  0.00454  1.0000
  Fe  Fe7       1.0  0.20619  0.50108  0.43895  1.0000
  H   H54       1.0  0.19136  0.41038  0.18353  1.0000
  H   H55       1.0  0.06190  0.47567  0.42980  1.0000
  H   H56       1.0  0.09272  0.47960  0.39204  1.0000
  S   S11       1.0  0.16975  0.51319  0.38938  1.0000
  C   C30       1.0  0.17597  0.44890  0.12054  1.0000
  H   H57       1.0  0.18262  0.47662  0.13003  1.0000
  H   H58       1.0  0.07112  0.43912  0.99865  1.0000
  C   C31       1.0  0.07927  0.49814  0.29950  1.0000
  C   C32       1.0  0.11635  0.45369  0.44261  1.0000
  H   H59       1.0  0.20194  0.43485  0.12263  1.0000
  H   H60       1.0  0.12735  0.48541  0.15552  1.0000
  C   C33       1.0  0.14085  0.04586  0.08695  1.0000
  H   H61       1.0  0.11285  0.03687  0.08815  1.0000
  H   H62       1.0  0.04221  0.17512  0.15172  1.0000
  H   H63       1.0  0.07713  0.41263  0.39277  1.0000
  S   S12       1.0  0.30570  0.04291  0.37179  1.0000
  S   S13       1.0  0.02250  0.21543  0.08175  1.0000
  N   N4        1.0  0.10156  0.42723  0.47068  1.0000
  S   S14       1.0  0.10401  0.02981  0.44675  1.0000
  C   C34       1.0  0.34700  0.48819  0.45345  1.0000
  H   H64       1.0  0.04496  0.42676  0.45523  1.0000
  H   H65       1.0  0.06076  0.38698  0.47539  1.0000
  H   H66       1.0  0.19337  0.13408  0.01809  1.0000
  C   C35       1.0  0.14237  0.10929  0.03249  1.0000
  H   H67       1.0  0.04368  0.38158  0.40636  1.0000
  C   C36       1.0  0.02844  0.16914  0.09154  1.0000
  C   C37       1.0  0.03782  0.15641  0.12821  1.0000
  C   C38       1.0  0.12859  0.39798  0.47728  1.0000
  H   H68       1.0  0.16316  0.34572  0.01302  1.0000
  C   C39       1.0  0.09119  0.41873  0.00174  1.0000
  H   H69       1.0  0.09684  0.50819  0.43311  1.0000
  S   S15       1.0  0.34616  0.06545  0.26648  1.0000
  C   C40       1.0  0.02284  0.14431  0.06138  1.0000
  H   H70       1.0  0.01577  0.15388  0.03287  1.0000
  H   H71       1.0  0.01953  0.31877  0.47638  1.0000
  H   H72       1.0  0.04647  0.12907  0.48916  1.0000
  H   H73       1.0  0.21195  0.07936  0.99416  1.0000
  Fe  Fe8       1.0  0.19376  0.43523  0.90944  1.0000
  S   S16       1.0  0.23999  0.42675  0.87039  1.0000
  H   H74       1.0  0.13571  0.19662  0.54439  1.0000
  C   C41       1.0  0.18248  0.50314  0.69080  1.0000
  S   S17       1.0  0.21474  0.49963  0.82672  1.0000
  Fe  Fe9       1.0  0.02867  0.33444  0.60898  1.0000
  Fe  Fe10      1.0  0.20146  0.44142  0.82274  1.0000
  S   S18       1.0  0.19407  0.41945  0.76250  1.0000
  Fe  Fe11      1.0  0.24905  0.48571  0.87853  1.0000
  H   H75       1.0  0.31511  0.44739  0.92867  1.0000
  S   S19       1.0  0.15470  0.44441  0.86103  1.0000
  H   H76       1.0  0.02496  0.29736  0.83126  1.0000
  H   H77       1.0  0.14268  0.04541  0.96198  1.0000
  S   S20       1.0  0.06665  0.30847  0.74669  1.0000
  H   H78       1.0  0.04600  0.27749  0.93486  1.0000
  H   H79       1.0  0.12596  0.44218  0.95972  1.0000
  H   H80       1.0  0.03421  0.11215  0.65952  1.0000
  H   H81       1.0  0.01652  0.40511  0.89997  1.0000
  C   C42       1.0  0.15805  0.38929  0.75818  1.0000
  C   C43       1.0  0.14186  0.38282  0.72198  1.0000
  C   C44       1.0  0.11327  0.35860  0.71821  1.0000
  C   C45       1.0  0.10120  0.34029  0.75055  1.0000
  C   C46       1.0  0.11726  0.34697  0.78671  1.0000
  C   C47       1.0  0.14543  0.37153  0.79057  1.0000
  H   H82       1.0  0.15155  0.39638  0.69681  1.0000
  H   H83       1.0  0.10115  0.35345  0.69017  1.0000
  H   H84       1.0  0.10832  0.33261  0.81170  1.0000
  H   H85       1.0  0.15815  0.37578  0.81845  1.0000
  H   H86       1.0  0.09141  0.06903  0.55773  1.0000
  H   H87       1.0  0.08403  0.34909  0.95351  1.0000
  C   C48       1.0  0.31082  0.46938  0.78324  1.0000
  C   C49       1.0  0.10847  0.08825  0.57403  1.0000
  H   H88       1.0  0.16074  0.41614  0.52786  1.0000
  C   C50       1.0  0.08462  0.37400  0.89847  1.0000
  C   C51       1.0  0.06669  0.47432  0.51043  1.0000
  H   H89       1.0  0.08141  0.42213  0.76899  1.0000
  C   C52       1.0  0.15552  0.06767  0.97859  1.0000
  S   S21       1.0  0.18642  0.39429  0.95602  1.0000
  H   H90       1.0  0.08812  0.46735  0.91037  1.0000
  C   C53       1.0  0.09499  0.44473  0.50913  1.0000
  C   C54       1.0  0.03029  0.29959  0.94741  1.0000
  S   S22       1.0  0.20458  0.49359  0.92020  1.0000
  H   H91       1.0  0.04120  0.46581  0.91651  1.0000
  C   C55       1.0  0.15469  0.51178  0.72158  1.0000
  N   N5        1.0  0.12288  0.11674  0.54791  1.0000
  H   H92       1.0  0.06038  0.49194  0.87819  1.0000
  H   H93       1.0  0.10927  0.45973  0.77913  1.0000
  H   H94       1.0  0.05131  0.07434  0.98124  1.0000
  H   H95       1.0  0.19319  0.06873  0.51225  1.0000
  H   H96       1.0  0.12102  0.04651  0.61496  1.0000
  H   H97       1.0  0.05617  0.08896  0.51418  1.0000
  H   H98       1.0  0.05450  0.47640  0.80543  1.0000
  H   H99       1.0  0.19134  0.09016  0.55792  1.0000
  H   H100      1.0  0.13341  0.07499  0.50648  1.0000
  H   H101      1.0  0.12466  0.15480  0.59510  1.0000
  H   H102      1.0  0.05905  0.50183  0.76388  1.0000
  H   H103      1.0  0.06566  0.30157  0.85778  1.0000
  H   H104      1.0  0.11400  0.37695  0.90020  1.0000
  H   H105      1.0  0.05870  0.28244  0.51521  1.0000
  C   C56       1.0  0.06354  0.48348  0.90859  1.0000
  H   H106      1.0  0.19514  0.51418  0.58805  1.0000
  H   H107      1.0  0.33439  0.40178  0.76159  1.0000
  C   C57       1.0  0.07373  0.34252  0.92407  1.0000
  H   H108      1.0  0.30412  0.40347  0.81894  1.0000
  Fe  Fe12      1.0  0.16975  0.50209  0.86738  1.0000
  H   H109      1.0  0.06334  0.48237  0.54100  1.0000
  H   H110      1.0  0.15394  0.08068  0.61479  1.0000
  H   H111      1.0  0.08928  0.31887  0.91489  1.0000
  Fe  Fe13      1.0  0.03624  0.30610  0.68989  1.0000
  H   H112      1.0  0.07540  0.49875  0.49535  1.0000
  H   H113      1.0  0.08967  0.08017  0.95316  1.0000
  H   H114      1.0  0.15076  0.09202  0.96092  1.0000
  H   H115      1.0  0.02472  0.42322  0.60249  1.0000
  C   C58       1.0  0.02255  0.12128  0.63255  1.0000
  H   H116      1.0  0.20436  0.06109  0.94708  1.0000
  N   N6        1.0  0.03464  0.33367  0.92474  1.0000
  H   H117      1.0  0.02593  0.49345  0.70700  1.0000
  C   C59       1.0  0.08535  0.45077  0.76236  1.0000
  N   N7        1.0  0.01768  0.46154  0.75832  1.0000
  C   C60       1.0  0.33546  0.38031  0.86487  1.0000
  C   C61       1.0  0.32722  0.41177  0.83755  1.0000
  C   C62       1.0  0.01937  0.40966  0.80857  1.0000
  S   S23       1.0  0.05291  0.28425  0.63225  1.0000
  H   H118      1.0  0.28926  0.46328  0.80350  1.0000
  C   C63       1.0  0.13569  0.06495  0.59583  1.0000
  H   H119      1.0  0.03866  0.44786  0.70238  1.0000
  H   H120      1.0  0.15711  0.49225  0.74551  1.0000
  S   S24       1.0  0.04777  0.36346  0.55701  1.0000
  H   H121      1.0  0.23517  0.48970  0.59141  1.0000
  C   C64       1.0  0.01831  0.46561  0.71499  1.0000
  H   H122      1.0  0.17716  0.19081  0.56907  1.0000
  H   H123      1.0  0.20370  0.48633  0.70422  1.0000
  H   H124      1.0  0.09119  0.10048  0.59610  1.0000
  H   H125      1.0  0.16501  0.13262  0.58868  1.0000
  H   H126      1.0  0.02317  0.40479  0.74697  1.0000
  C   C65       1.0  0.14535  0.10069  0.51680  1.0000
  H   H127      1.0  0.07100  0.50502  0.96605  1.0000
  H   H128      1.0  0.15057  0.04781  0.57576  1.0000
  H   H129      1.0  0.31722  0.43338  0.85655  1.0000
  H   H130      1.0  0.03029  0.43003  0.82862  1.0000
  C   C66       1.0  0.03549  0.26868  0.50136  1.0000
  H   H131      1.0  0.31036  0.37141  0.87817  1.0000
  H   H132      1.0  0.16986  0.16945  0.52328  1.0000
  S   S25       1.0  0.01751  0.35859  0.66651  1.0000
  H   H133      1.0  0.04016  0.46564  0.49984  1.0000
  C   C67       1.0  0.01651  0.39687  0.54768  1.0000
  C   C68       1.0  0.18492  0.09367  0.52699  1.0000
  H   H134      1.0  0.19785  0.47415  0.61728  1.0000
  H   H135      1.0  0.08770  0.42420  0.53073  1.0000
  H   H136      1.0  0.07353  0.39946  0.90887  1.0000
  H   H137      1.0  0.07753  0.36953  0.86766  1.0000
  H   H138      1.0  0.20202  0.11501  0.51503  1.0000
  C   C69       1.0  0.06742  0.51566  0.93632  1.0000
  H   H139      1.0  0.09983  0.15858  0.51214  1.0000
  C   C70       1.0  0.05347  0.47403  0.77368  1.0000
  H   H140      1.0  0.09164  0.45363  0.73146  1.0000
  C   C71       1.0  0.01930  0.32713  0.88472  1.0000
  H   H141      1.0  0.11963  0.45781  0.52058  1.0000
  C   C72       1.0  0.15698  0.17689  0.55053  1.0000
  C   C73       1.0  0.14237  0.14428  0.57234  1.0000
  C   C74       1.0  0.12202  0.42046  0.97964  1.0000
  H   H142      1.0  0.07330  0.14587  0.55160  1.0000
  C   C75       1.0  0.07916  0.08412  0.98247  1.0000
  H   H143      1.0  0.30679  0.45379  0.75627  1.0000
  C   C76       1.0  0.03676  0.29730  0.86095  1.0000
  C   C77       1.0  0.09131  0.13514  0.52923  1.0000
  H   H144      1.0  0.03110  0.37612  0.96765  1.0000
  H   H145      1.0  0.03155  0.27039  0.87289  1.0000
  H   H146      1.0  0.16888  0.48446  0.67027  1.0000
  S   S26       1.0  0.18753  0.50554  0.50027  1.0000
  H   H147      1.0  0.01733  0.48619  0.97993  1.0000
  C   C78       1.0  0.16404  0.40909  0.49706  1.0000
  S   S27       1.0  0.30318  0.51313  0.88474  1.0000
  C   C79       1.0  0.19567  0.05989  0.97747  1.0000
  C   C80       1.0  0.06859  0.11242  0.50061  1.0000
  H   H148      1.0  0.01782  0.17608  0.65207  1.0000
  C   C81       1.0  0.14793  0.39401  0.98358  1.0000
  H   H149      1.0  0.02075  0.35146  0.86674  1.0000
  H   H150      1.0  0.30794  0.49806  0.77569  1.0000
  H   H151      1.0  0.20160  0.03239  0.98754  1.0000
  H   H152      1.0  0.03875  0.38743  0.80683  1.0000
  C   C82       1.0  0.33993  0.46195  0.92728  1.0000
  H   H153      1.0  0.24551  0.50519  0.65840  1.0000
  S   S28       1.0  0.02869  0.05149  0.60882  1.0000
  H   H154      1.0  0.07811  0.11298  0.98963  1.0000
  H   H155      1.0  0.13808  0.51707  0.56069  1.0000
  C   C83       1.0  0.34094  0.49519  0.90907  1.0000
  H   H156      1.0  0.18255  0.38611  0.49647  1.0000
  H   H157      1.0  0.12737  0.51053  0.70898  1.0000
  C   C84       1.0  0.21202  0.49860  0.60822  1.0000
  H   H158      1.0  0.11734  0.37618  0.49527  1.0000
  H   H159      1.0  0.02646  0.24851  0.52238  1.0000
  H   H160      1.0  0.14536  0.11858  0.49117  1.0000
  C   C85       1.0  0.01668  0.09682  0.60220  1.0000
  C   C86       1.0  0.34804  0.46368  0.80180  1.0000
  H   H161      1.0  0.34655  0.35688  0.85006  1.0000
  S   S29       1.0  0.12076  0.58618  0.17285  1.0000
  H   H162      1.0  0.03951  0.78898  0.02692  1.0000
  Fe  Fe14      1.0  0.03809  0.92018  0.06141  1.0000
  S   S30       1.0  0.06166  0.86815  0.08476  1.0000
  H   H163      1.0  0.06924  0.53135  0.18904  1.0000
  S   S31       1.0  0.07614  0.96655  0.05558  1.0000
  H   H164      1.0  0.14825  0.85488  0.45752  1.0000
  H   H165      1.0  0.14164  0.94676  0.22722  1.0000
  H   H166      1.0  0.02361  0.54330  0.23608  1.0000
  H   H167      1.0  0.06543  0.55841  0.25187  1.0000
  S   S32       1.0  0.20538  0.59078  0.33285  1.0000
  C   C87       1.0  0.12576  0.59307  0.48629  1.0000
  H   H168      1.0  0.10136  0.88751  0.27045  1.0000
  C   C88       1.0  0.33051  0.86201  0.07628  1.0000
  C   C89       1.0  0.25097  0.95821  0.48423  1.0000
  H   H169      1.0  0.08865  0.79809  0.09806  1.0000
  C   C90       1.0  0.33329  0.55881  0.36621  1.0000
  C   C91       1.0  0.14151  0.00945  0.42640  1.0000
  H   H170      1.0  0.04614  0.83607  0.48576  1.0000
  H   H171      1.0  0.14656  0.90062  0.21818  1.0000
  H   H172      1.0  0.10699  0.53635  0.33804  1.0000
  S   S33       1.0  0.02914  0.58004  0.13354  1.0000
  H   H173      1.0  0.05833  0.88846  0.22334  1.0000
  Fe  Fe15      1.0  0.03103  0.00261  0.07087  1.0000
  H   H174      1.0  0.13645  0.94888  0.00612  1.0000
  H   H175      1.0  0.16584  0.56618  0.45374  1.0000
  S   S34       1.0  0.23963  0.95711  0.37416  1.0000
  C   C92       1.0  0.14215  0.58689  0.21855  1.0000
  C   C93       1.0  0.13520  0.61342  0.24584  1.0000
  C   C94       1.0  0.15458  0.61438  0.28101  1.0000
  C   C95       1.0  0.18003  0.58814  0.28957  1.0000
  C   C96       1.0  0.18601  0.56091  0.26277  1.0000
  C   C97       1.0  0.16755  0.56069  0.22714  1.0000
  H   H176      1.0  0.11588  0.63392  0.23931  1.0000
  H   H177      1.0  0.15001  0.63562  0.30153  1.0000
  H   H178      1.0  0.31582  0.53218  0.31208  1.0000
  C   C98       1.0  0.10923  0.52522  0.30849  1.0000
  Fe  Fe16      1.0  0.29356  0.98416  0.36782  1.0000
  C   C99       1.0  0.13072  0.96217  0.14772  1.0000
  Fe  Fe17      1.0  0.21643  0.53813  0.36174  1.0000
  C   C100      1.0  0.11344  0.92584  0.15692  1.0000
  C   C101      1.0  0.22867  0.92381  0.47975  1.0000
  H   H179      1.0  0.01922  0.94596  0.18348  1.0000
  N   N8        1.0  0.09701  0.92283  0.19607  1.0000
  H   H180      1.0  0.13961  0.91197  0.28649  1.0000
  S   S35       1.0  0.05726  0.66210  0.12403  1.0000
  H   H181      1.0  0.15160  0.96981  0.16921  1.0000
  C   C102      1.0  0.20359  0.01345  0.40763  1.0000
  C   C103      1.0  0.16386  0.88011  0.45944  1.0000
  H   H182      1.0  0.16740  0.95478  0.47949  1.0000
  C   C104      1.0  0.04111  0.70979  0.01904  1.0000
  H   H183      1.0  0.20130  0.93863  0.01131  1.0000
  C   C105      1.0  0.04365  0.83134  0.11009  1.0000
  C   C106      1.0  0.20206  0.97846  0.39333  1.0000
  H   H184      1.0  0.02710  0.59033  0.29041  1.0000
  C   C107      1.0  0.09374  0.85397  0.19228  1.0000
  C   C108      1.0  0.04317  0.96167  0.17593  1.0000
  H   H185      1.0  0.34677  0.92308  0.11133  1.0000
  H   H186      1.0  0.32310  0.85105  0.13800  1.0000
  H   H187      1.0  0.13431  0.90523  0.15325  1.0000
  C   C109      1.0  0.13993  0.97452  0.41198  1.0000
  H   H188      1.0  0.05339  0.73176  0.00257  1.0000
  H   H189      1.0  0.03659  0.99059  0.17621  1.0000
  C   C110      1.0  0.03733  0.57555  0.31601  1.0000
  H   H190      1.0  0.07408  0.83177  0.19324  1.0000
  C   C111      1.0  0.12660  0.92110  0.22601  1.0000
  H   H191      1.0  0.20586  0.54085  0.26889  1.0000
  H   H192      1.0  0.32235  0.84672  0.04990  1.0000
  H   H193      1.0  0.24751  0.90098  0.47854  1.0000
  H   H194      1.0  0.03078  0.52426  0.34300  1.0000
  H   H195      1.0  0.28269  0.55787  0.33493  1.0000
  Fe  Fe18      1.0  0.01684  0.67726  0.16782  1.0000
  H   H196      1.0  0.23453  0.98233  0.47941  1.0000
  C   C112      1.0  0.05151  0.77019  0.13373  1.0000
  S   S36       1.0  0.25207  0.53093  0.41411  1.0000
  C   C113      1.0  0.07412  0.95464  0.20477  1.0000
  H   H197      1.0  0.33270  0.94924  0.00699  1.0000
  C   C114      1.0  0.06354  0.79971  0.11249  1.0000
  H   H198      1.0  0.11063  0.54729  0.28764  1.0000
  H   H199      1.0  0.17342  0.54059  0.20583  1.0000
  H   H200      1.0  0.14358  0.96015  0.11927  1.0000
  H   H201      1.0  0.02784  0.74277  0.06742  1.0000
  H   H202      1.0  0.02392  0.60848  0.47428  1.0000
  H   H203      1.0  0.06730  0.74617  0.13549  1.0000
  H   H204      1.0  0.11327  0.84928  0.21601  1.0000
  C   C115      1.0  0.17005  0.95918  0.39539  1.0000
  H   H205      1.0  0.32702  0.53418  0.38265  1.0000
  Fe  Fe19      1.0  0.06900  0.61559  0.16349  1.0000
  H   H206      1.0  0.16861  0.93220  0.38415  1.0000
  S   S37       1.0  0.32490  0.97655  0.31384  1.0000
  H   H207      1.0  0.11070  0.98374  0.14522  1.0000
  S   S38       1.0  0.03191  0.63290  0.20977  1.0000
  S   S39       1.0  0.04451  0.94155  0.47754  1.0000
  Fe  Fe20      1.0  0.06580  0.99778  0.48265  1.0000
  C   C116      1.0  0.01948  0.77200  0.15318  1.0000
  C   C117      1.0  0.15022  0.56570  0.47951  1.0000
  H   H208      1.0  0.09895  0.93522  0.27960  1.0000
  H   H209      1.0  0.31635  0.58081  0.30959  1.0000
  H   H210      1.0  0.27111  0.95857  0.46128  1.0000
  C   C118      1.0  0.11536  0.91346  0.26773  1.0000
  H   H211      1.0  0.09006  0.97963  0.20848  1.0000
  H   H212      1.0  0.21639  0.92562  0.45049  1.0000
  H   H213      1.0  0.10695  0.85196  0.16410  1.0000
  C   C119      1.0  0.31137  0.55738  0.32816  1.0000
  H   H214      1.0  0.30540  0.92565  0.03946  1.0000
  H   H215      1.0  0.05377  0.89052  0.17271  1.0000
  H   H216      1.0  0.11542  0.95945  0.41332  1.0000
  S   S40       1.0  0.33924  0.96742  0.40642  1.0000
  H   H217      1.0  0.09380  0.91991  0.13341  1.0000
  H   H218      1.0  0.32189  0.58065  0.38357  1.0000
  H   H219      1.0  0.06140  0.95141  0.23317  1.0000
  C   C120      1.0  0.07403  0.88975  0.19658  1.0000
  H   H220      1.0  0.30786  0.88042  0.08061  1.0000
  H   H221      1.0  0.06625  0.57995  0.31928  1.0000
  C   C121      1.0  0.04964  0.53364  0.24722  1.0000
  H   H222      1.0  0.02385  0.55780  0.42751  1.0000
  H   H223      1.0  0.12245  0.61435  0.46549  1.0000
  C   C122      1.0  0.33285  0.93541  0.03526  1.0000
  C   C123      1.0  0.33041  0.83659  0.11130  1.0000
  H   H224      1.0  0.06293  0.69640  0.03539  1.0000
  H   H225      1.0  0.14482  0.90226  0.45496  1.0000
  H   H226      1.0  0.18295  0.87928  0.43556  1.0000
  H   H227      1.0  0.02969  0.68961  0.99885  1.0000
  H   H228      1.0  0.33999  0.95601  0.05713  1.0000
  H   H229      1.0  0.31110  0.81456  0.10569  1.0000
  H   H230      1.0  0.15046  0.01693  0.03424  1.0000
  H   H231      1.0  0.07425  0.60594  0.99899  1.0000
  C   C124      1.0  0.02673  0.53569  0.31367  1.0000
  Fe  Fe21      1.0  0.05471  0.97057  0.99514  1.0000
  H   H232      1.0  0.34273  0.63075  0.36587  1.0000
  H   H233      1.0  0.04982  0.95559  0.14578  1.0000
  H   H234      1.0  0.02472  0.58780  0.34148  1.0000
  S   S41       1.0  0.01877  0.92237  0.99964  1.0000
  H   H235      1.0  0.03915  0.55143  0.99591  1.0000
  H   H236      1.0  0.34802  0.56854  0.44295  1.0000
  H   H237      1.0  0.14786  0.93574  0.52061  1.0000
  H   H238      1.0  0.07807  0.60835  0.94795  1.0000
  N   N9        1.0  0.19758  0.53476  0.66975  1.0000
  Fe  Fe22      1.0  0.30495  0.96116  0.92044  1.0000
  S   S42       1.0  0.25882  0.95264  0.96141  1.0000
  H   H239      1.0  0.26095  0.52865  0.71637  1.0000
  H   H240      1.0  0.11710  0.83721  0.66841  1.0000
  S   S43       1.0  0.09224  0.98196  0.94600  1.0000
  C   C125      1.0  0.07531  0.58950  0.97227  1.0000
  S   S44       1.0  0.04316  0.66587  0.69680  1.0000
  H   H241      1.0  0.23950  0.89105  0.54694  1.0000
  Fe  Fe23      1.0  0.06694  0.64054  0.59209  1.0000
  S   S45       1.0  0.09574  0.68438  0.62440  1.0000
  S   S46       1.0  0.07816  0.62968  0.52959  1.0000
  Fe  Fe24      1.0  0.09499  0.64647  0.67445  1.0000
  S   S47       1.0  0.14375  0.63930  0.71214  1.0000
  Fe  Fe25      1.0  0.04185  0.70064  0.64374  1.0000
  S   S48       1.0  0.31060  0.96417  0.85572  1.0000
  S   S49       1.0  0.07148  0.60104  0.64027  1.0000
  H   H242      1.0  0.19444  0.74340  0.68545  1.0000
  Fe  Fe26      1.0  0.06150  0.93616  0.53976  1.0000
  S   S50       1.0  0.09377  0.88712  0.55616  1.0000
  C   C126      1.0  0.15325  0.95659  0.98272  1.0000
  H   H243      1.0  0.07362  0.56478  0.79893  1.0000
  S   S51       1.0  0.08604  0.99086  0.54323  1.0000
  C   C127      1.0  0.07420  0.85156  0.58162  1.0000
  H   H244      1.0  0.19645  0.57723  0.59982  1.0000
  H   H245      1.0  0.03478  0.88384  0.60880  1.0000
  C   C128      1.0  0.04376  0.79366  0.62151  1.0000
  C   C129      1.0  0.07252  0.78796  0.59747  1.0000
  C   C130      1.0  0.08802  0.81692  0.57808  1.0000
  H   H246      1.0  0.09341  0.52844  0.93020  1.0000
  H   H247      1.0  0.23141  0.58088  0.68131  1.0000
  H   H248      1.0  0.22439  0.52901  0.74943  1.0000
  S   S52       1.0  0.02362  0.75838  0.64699  1.0000
  C   C131      1.0  0.10686  0.59387  0.52060  1.0000
  C   C132      1.0  0.11108  0.56615  0.54718  1.0000
  C   C133      1.0  0.01962  0.84506  0.49514  1.0000
  C   C134      1.0  0.04534  0.85720  0.60547  1.0000
  Fe  Fe27      1.0  0.01922  0.62287  0.65885  1.0000
  H   H249      1.0  0.09583  0.56592  0.57310  1.0000
  C   C135      1.0  0.04154  0.56361  0.89717  1.0000
  H   H250      1.0  0.23387  0.93644  0.55786  1.0000
  C   C136      1.0  0.12884  0.56695  0.81652  1.0000
  C   C137      1.0  0.09955  0.57561  0.79278  1.0000
  C   C138      1.0  0.10383  0.59788  0.76064  1.0000
  C   C139      1.0  0.13721  0.61239  0.75289  1.0000
  C   C140      1.0  0.16620  0.60456  0.77735  1.0000
  C   C141      1.0  0.16216  0.58142  0.80870  1.0000
  H   H251      1.0  0.08128  0.60384  0.74198  1.0000
  H   H252      1.0  0.19199  0.61605  0.77181  1.0000
  H   H253      1.0  0.15437  0.59657  0.60930  1.0000
  C   C142      1.0  0.21253  0.96001  0.95527  1.0000
  C   C143      1.0  0.19764  0.97540  0.92200  1.0000
  C   C144      1.0  0.16070  0.98144  0.91924  1.0000
  C   C145      1.0  0.13832  0.97214  0.94962  1.0000
  H   H254      1.0  0.03729  0.54596  0.87163  1.0000
  H   H255      1.0  0.18472  0.57540  0.82733  1.0000
  H   H256      1.0  0.21459  0.98274  0.89851  1.0000
  C   C146      1.0  0.21892  0.91229  0.54851  1.0000
  H   H257      1.0  0.06893  0.57430  0.89442  1.0000
  H   H258      1.0  0.24068  0.54428  0.63034  1.0000
  H   H259      1.0  0.18351  0.72665  0.74539  1.0000
  H   H260      1.0  0.19083  0.60694  0.64079  1.0000
  H   H261      1.0  0.08275  0.76126  0.59366  1.0000
  C   C147      1.0  0.21507  0.56118  0.69720  1.0000
  C   C148      1.0  0.18282  0.88204  0.49935  1.0000
  C   C149      1.0  0.16764  0.55316  0.64840  1.0000
  H   H262      1.0  0.15845  0.53826  0.73518  1.0000
  C   C150      1.0  0.17854  0.58514  0.62326  1.0000
  N   N10       1.0  0.12618  0.77041  0.71578  1.0000
  C   C151      1.0  0.10005  0.80093  0.71443  1.0000
  C   C152      1.0  0.10556  0.73689  0.72453  1.0000
  C   C153      1.0  0.14159  0.76681  0.67617  1.0000
  C   C154      1.0  0.15484  0.77872  0.74574  1.0000
  C   C155      1.0  0.11447  0.83714  0.70025  1.0000
  C   C156      1.0  0.08264  0.73855  0.76082  1.0000
  C   C157      1.0  0.16888  0.73689  0.67054  1.0000
  C   C158      1.0  0.17305  0.74658  0.76574  1.0000
  H   H263      1.0  0.07664  0.79398  0.69572  1.0000
  H   H264      1.0  0.08920  0.80617  0.74350  1.0000
  H   H265      1.0  0.12309  0.71334  0.72770  1.0000
  H   H266      1.0  0.08730  0.73009  0.69987  1.0000
  H   H267      1.0  0.11991  0.76260  0.65427  1.0000
  H   H268      1.0  0.15557  0.79168  0.66766  1.0000
  H   H269      1.0  0.17619  0.79535  0.73302  1.0000
  H   H270      1.0  0.14434  0.79543  0.76956  1.0000
  H   H271      1.0  0.14012  0.84447  0.71450  1.0000
  H   H272      1.0  0.15913  0.71030  0.67937  1.0000
  H   H273      1.0  0.15499  0.73276  0.78568  1.0000
  H   H274      1.0  0.25243  0.56716  0.74549  1.0000
  H   H275      1.0  0.05736  0.75275  0.75452  1.0000
  H   H276      1.0  0.07551  0.71094  0.76965  1.0000
  H   H277      1.0  0.15236  0.53395  0.62986  1.0000
  N   N11       1.0  0.03797  0.54277  0.93406  1.0000
  H   H278      1.0  0.17468  0.73474  0.63935  1.0000
  H   H279      1.0  0.19594  0.75650  0.78356  1.0000
  H   H280      1.0  0.34731  0.58906  0.94864  1.0000
  H   H281      1.0  0.14796  0.56369  0.66906  1.0000
  C   C159      1.0  0.04098  0.56700  0.96873  1.0000
  H   H282      1.0  0.02783  0.56003  0.56842  1.0000
  C   C160      1.0  0.13516  0.53855  0.54019  1.0000
  S   S53       1.0  0.12329  0.53847  0.85614  1.0000
  H   H283      1.0  0.09658  0.75176  0.78550  1.0000
  C   C161      1.0  0.15542  0.53875  0.50681  1.0000
  H   H284      1.0  0.11031  0.81232  0.55960  1.0000
  C   C162      1.0  0.03050  0.82844  0.62568  1.0000
  Fe  Fe28      1.0  0.03262  0.01104  0.56018  1.0000
  H   H285      1.0  0.16198  0.87548  0.52042  1.0000
  H   H286      1.0  0.19513  0.57791  0.71170  1.0000
  C   C163      1.0  0.19009  0.95070  0.98554  1.0000
  C   C164      1.0  0.18197  0.98040  0.53329  1.0000
  H   H287      1.0  0.16797  0.97984  0.56112  1.0000
  H   H288      1.0  0.02156  0.60818  0.86339  1.0000
  H   H289      1.0  0.02802  0.55440  0.50101  1.0000
  C   C165      1.0  0.19418  0.90234  0.58178  1.0000
  H   H290      1.0  0.26582  0.95984  0.51207  1.0000
  S   S54       1.0  0.34277  0.00682  0.93206  1.0000
  H   H291      1.0  0.14947  0.99351  0.89349  1.0000
  H   H292      1.0  0.21040  0.98607  0.53865  1.0000
  H   H293      1.0  0.20865  0.90613  0.60976  1.0000
  H   H294      1.0  0.18613  0.87378  0.58020  1.0000
  H   H295      1.0  0.20211  0.85957  0.50079  1.0000
  H   H296      1.0  0.17003  0.91908  0.58239  1.0000
  H   H297      1.0  0.01828  0.80870  0.54182  1.0000
  H   H298      1.0  0.17099  0.00380  0.51748  1.0000
  C   C166      1.0  0.23959  0.54510  0.72869  1.0000
  H   H299      1.0  0.09927  0.57256  0.97490  1.0000
  N   N12       1.0  0.20090  0.91708  0.50963  1.0000
  C   C167      1.0  0.17338  0.94625  0.50947  1.0000
  H   H300      1.0  0.09509  0.85844  0.70701  1.0000
  H   H301      1.0  0.02456  0.86800  0.51495  1.0000
  H   H302      1.0  0.02043  0.81524  0.98918  1.0000
  H   H303      1.0  0.01834  0.58570  0.96937  1.0000
  H   H304      1.0  0.02008  0.61637  0.91393  1.0000
  S   S55       1.0  0.34797  0.91992  0.92756  1.0000
  C   C168      1.0  0.01610  0.59545  0.89154  1.0000
  C   C169      1.0  0.22544  0.52158  0.64260  1.0000
  Fe  Fe29      1.0  0.53915  0.12234  0.13051  1.0000
  S   S56       1.0  0.58546  0.15911  0.12292  1.0000
  S   S57       1.0  0.52817  0.07853  0.08722  1.0000
  Fe  Fe30      1.0  0.51752  0.15933  0.20454  1.0000
  S   S58       1.0  0.56223  0.19927  0.20230  1.0000
  S   S59       1.0  0.48340  0.16272  0.25688  1.0000
  Fe  Fe31      1.0  0.54796  0.20303  0.13911  1.0000
  S   S60       1.0  0.53956  0.24941  0.09773  1.0000
  Fe  Fe32      1.0  0.59476  0.15137  0.18659  1.0000
  S   S61       1.0  0.64824  0.13704  0.21271  1.0000
  S   S62       1.0  0.50070  0.16624  0.14268  1.0000
  S   S63       1.0  0.55091  0.11133  0.19278  1.0000
  H   H305      1.0  0.37314  0.22117  0.21854  1.0000
  S   S64       1.0  0.57791  0.49006  0.04330  1.0000
  H   H306      1.0  0.47076  0.33307  0.16785  1.0000
  S   S65       1.0  0.49070  0.48958  0.04133  1.0000
  H   H307      1.0  0.59896  0.08164  0.11955  1.0000
  Fe  Fe33      1.0  0.53441  0.45121  0.05780  1.0000
  S   S66       1.0  0.53817  0.41877  0.11310  1.0000
  S   S67       1.0  0.38981  0.02201  0.35744  1.0000
  C   C170      1.0  0.62232  0.38934  0.06506  1.0000
  H   H308      1.0  0.43416  0.33290  0.13525  1.0000
  C   C171      1.0  0.49881  0.27467  0.22514  1.0000
  H   H309      1.0  0.41342  0.02263  0.25974  1.0000
  H   H310      1.0  0.49380  0.04966  0.16270  1.0000
  H   H311      1.0  0.63600  0.31569  0.45186  1.0000
  H   H312      1.0  0.60773  0.37313  0.99483  1.0000
  C   C172      1.0  0.64509  0.11156  0.25513  1.0000
  C   C173      1.0  0.37396  0.49716  0.48064  1.0000
  N   N13       1.0  0.62613  0.32792  0.02935  1.0000
  H   H313      1.0  0.57299  0.39385  0.45038  1.0000
  C   C174      1.0  0.66377  0.32543  0.01571  1.0000
  H   H314      1.0  0.40692  0.13198  0.47789  1.0000
  H   H315      1.0  0.52780  0.27415  0.22010  1.0000
  H   H316      1.0  0.65585  0.05782  0.09669  1.0000
  H   H317      1.0  0.57738  0.03334  0.43468  1.0000
  H   H318      1.0  0.64278  0.04778  0.21567  1.0000
  C   C175      1.0  0.58963  0.37000  0.45624  1.0000
  C   C176      1.0  0.67196  0.07025  0.30140  1.0000
  C   C177      1.0  0.44617  0.13444  0.25889  1.0000
  C   C178      1.0  0.42907  0.12190  0.22527  1.0000
  C   C179      1.0  0.39805  0.10109  0.22780  1.0000
  C   C180      1.0  0.38468  0.09197  0.26391  1.0000
  C   C181      1.0  0.40225  0.10392  0.29747  1.0000
  C   C182      1.0  0.43264  0.12552  0.29493  1.0000
  H   H319      1.0  0.43931  0.12882  0.19736  1.0000
  H   H320      1.0  0.38449  0.09186  0.20179  1.0000
  H   H321      1.0  0.39186  0.09731  0.32538  1.0000
  H   H322      1.0  0.44573  0.13533  0.32098  1.0000
  C   C183      1.0  0.53688  0.29611  0.10488  1.0000
  C   C184      1.0  0.52366  0.31694  0.07430  1.0000
  C   C185      1.0  0.52330  0.35438  0.07693  1.0000
  C   C186      1.0  0.53612  0.37154  0.11028  1.0000
  C   C187      1.0  0.54830  0.35070  0.14152  1.0000
  C   C188      1.0  0.54887  0.31305  0.13879  1.0000
  H   H323      1.0  0.51400  0.30405  0.04810  1.0000
  H   H324      1.0  0.51296  0.36993  0.05313  1.0000
  H   H325      1.0  0.55823  0.36379  0.16748  1.0000
  H   H326      1.0  0.55949  0.29730  0.16238  1.0000
  C   C189      1.0  0.56853  0.06171  0.07079  1.0000
  H   H327      1.0  0.57377  0.34493  0.01073  1.0000
  H   H328      1.0  0.43235  0.04981  0.42763  1.0000
  C   C190      1.0  0.59967  0.06701  0.09266  1.0000
  H   H329      1.0  0.64399  0.05106  0.16491  1.0000
  H   H330      1.0  0.49046  0.30299  0.22488  1.0000
  C   C191      1.0  0.60350  0.08686  0.48237  1.0000
  N   N14       1.0  0.43976  0.25647  0.19110  1.0000
  C   C192      1.0  0.42537  0.24643  0.22997  1.0000
  C   C193      1.0  0.47950  0.25205  0.19378  1.0000
  C   C194      1.0  0.42459  0.23022  0.16192  1.0000
  C   C195      1.0  0.42870  0.29426  0.18173  1.0000
  H   H331      1.0  0.45054  0.12929  0.42858  1.0000
  H   H332      1.0  0.62379  0.28285  0.09857  1.0000
  C   C196      1.0  0.43573  0.23500  0.11981  1.0000
  H   H333      1.0  0.62516  0.40055  0.09468  1.0000
  H   H334      1.0  0.43534  0.21970  0.23910  1.0000
  H   H335      1.0  0.43486  0.26548  0.25270  1.0000
  C   C197      1.0  0.60214  0.02917  0.02300  1.0000
  H   H336      1.0  0.48617  0.22363  0.19974  1.0000
  H   H337      1.0  0.43132  0.20232  0.17060  1.0000
  H   H338      1.0  0.39514  0.23148  0.16067  1.0000
  H   H339      1.0  0.47041  0.23537  0.44854  1.0000
  H   H340      1.0  0.37765  0.24304  0.26392  1.0000
  H   H341      1.0  0.43544  0.26647  0.45486  1.0000
  H   H342      1.0  0.42639  0.22699  0.42759  1.0000
  H   H343      1.0  0.66930  0.38274  0.44631  1.0000
  C   C198      1.0  0.40779  0.05623  0.48266  1.0000
  H   H344      1.0  0.46584  0.29834  0.13179  1.0000
  H   H345      1.0  0.58405  0.08086  0.31803  1.0000
  H   H346      1.0  0.42491  0.21229  0.10240  1.0000
  H   H347      1.0  0.46481  0.23459  0.11631  1.0000
  H   H348      1.0  0.42428  0.25964  0.10709  1.0000
  C   C199      1.0  0.41669  0.46368  0.44444  1.0000
  H   H349      1.0  0.39599  0.43850  0.39239  1.0000
  H   H350      1.0  0.58954  0.12174  0.26269  1.0000
  C   C200      1.0  0.67505  0.09381  0.27008  1.0000
  H   H351      1.0  0.42918  0.31083  0.20852  1.0000
  H   H352      1.0  0.49338  0.06183  0.45344  1.0000
  H   H353      1.0  0.43140  0.50051  0.32137  1.0000
  C   C201      1.0  0.43670  0.05495  0.45806  1.0000
  H   H354      1.0  0.61878  0.24273  0.07143  1.0000
  H   H355      1.0  0.63975  0.11775  0.44564  1.0000
  C   C202      1.0  0.38458  0.24525  0.23304  1.0000
  H   H356      1.0  0.58563  0.03442  0.18871  1.0000
  Fe  Fe34      1.0  0.35327  0.02576  0.40744  1.0000
  C   C203      1.0  0.61246  0.10713  0.27294  1.0000
  C   C204      1.0  0.60946  0.08413  0.30452  1.0000
  H   H357      1.0  0.40074  0.29468  0.17066  1.0000
  C   C205      1.0  0.41378  0.15857  0.46562  1.0000
  H   H358      1.0  0.44350  0.45432  0.44063  1.0000
  C   C206      1.0  0.60139  0.34464  0.99984  1.0000
  C   C207      1.0  0.38969  0.45478  0.41712  1.0000
  C   C208      1.0  0.47119  0.06182  0.47270  1.0000
  C   C209      1.0  0.35475  0.46713  0.42136  1.0000
  C   C210      1.0  0.40898  0.48513  0.47629  1.0000
  C   C211      1.0  0.62464  0.34819  0.06707  1.0000
  C   C212      1.0  0.44146  0.23747  0.45295  1.0000
  H   H359      1.0  0.57550  0.07778  0.47937  1.0000
  H   H360      1.0  0.58382  0.28999  0.04051  1.0000
  H   H361      1.0  0.54568  0.03887  0.01892  1.0000
  C   C213      1.0  0.63310  0.03371  0.04553  1.0000
  C   C214      1.0  0.45159  0.31498  0.15262  1.0000
  H   H362      1.0  0.50201  0.03627  0.30739  1.0000
  S   S68       1.0  0.53479  0.42423  0.00031  1.0000
  H   H363      1.0  0.48427  0.17848  0.45864  1.0000
  H   H364      1.0  0.49250  0.25790  0.16623  1.0000
  H   H365      1.0  0.60091  0.33986  0.08335  1.0000
  H   H366      1.0  0.38783  0.17205  0.46049  1.0000
  S   S69       1.0  0.61698  0.46948  0.44867  1.0000
  C   C215      1.0  0.63902  0.06528  0.31850  1.0000
  C   C216      1.0  0.67887  0.35487  0.44765  1.0000
  H   H367      1.0  0.49498  0.26315  0.25421  1.0000
  C   C217      1.0  0.47995  0.03495  0.28566  1.0000
  H   H368      1.0  0.59366  0.12468  0.43603  1.0000
  C   C218      1.0  0.63181  0.05308  0.08000  1.0000
  C   C219      1.0  0.61363  0.10404  0.44373  1.0000
  S   S70       1.0  0.63355  0.03607  0.35754  1.0000
  H   H369      1.0  0.60541  0.36590  0.43000  1.0000
  H   H370      1.0  0.40788  0.13711  0.40735  1.0000
  H   H371      1.0  0.51589  0.03369  0.20504  1.0000
  H   H372      1.0  0.65917  0.26741  0.06799  1.0000
  C   C220      1.0  0.42913  0.14946  0.42581  1.0000
  H   H373      1.0  0.64788  0.34163  0.08608  1.0000
  H   H374      1.0  0.66011  0.50609  0.06873  1.0000
  C   C221      1.0  0.45832  0.02206  0.20106  1.0000
  H   H375      1.0  0.61346  0.08453  0.41965  1.0000
  C   C222      1.0  0.62852  0.02742  0.46661  1.0000
  H   H376      1.0  0.37174  0.26971  0.22164  1.0000
  H   H377      1.0  0.37452  0.50512  0.35308  1.0000
  H   H378      1.0  0.48349  0.05806  0.26619  1.0000
  H   H379      1.0  0.67612  0.07928  0.47564  1.0000
  H   H380      1.0  0.45047  0.04841  0.21297  1.0000
  C   C223      1.0  0.61296  0.29026  0.03606  1.0000
  H   H381      1.0  0.59585  0.39789  0.05402  1.0000
  C   C224      1.0  0.66365  0.46334  0.45481  1.0000
  C   C225      1.0  0.56977  0.04285  0.03587  1.0000
  C   C226      1.0  0.63009  0.27021  0.07056  1.0000
  H   H382      1.0  0.43935  0.17295  0.41033  1.0000
  C   C227      1.0  0.65515  0.32981  0.47160  1.0000
  H   H383      1.0  0.45509  0.03799  0.30184  1.0000
  H   H384      1.0  0.64404  0.03595  0.44133  1.0000
  H   H385      1.0  0.57148  0.34705  0.46051  1.0000
  H   H386      1.0  0.67377  0.47034  0.39439  1.0000
  H   H387      1.0  0.64310  0.40165  0.04743  1.0000
  C   C228      1.0  0.64295  0.03152  0.18879  1.0000
  C   C229      1.0  0.49502  0.02691  0.18321  1.0000
  S   S71       1.0  0.36387  0.05217  0.46516  1.0000
  H   H388      1.0  0.64460  0.51252  0.00441  1.0000
  H   H389      1.0  0.61704  0.27305  0.01032  1.0000
  H   H390      1.0  0.67903  0.34548  0.41723  1.0000
  H   H391      1.0  0.47977  0.14188  0.49015  1.0000
  H   H392      1.0  0.68142  0.31483  0.03902  1.0000
  C   C230      1.0  0.47565  0.17125  0.48798  1.0000
  H   H393      1.0  0.66632  0.30530  0.99220  1.0000
  H   H394      1.0  0.62917  0.40173  0.48632  1.0000
  H   H395      1.0  0.67299  0.30809  0.48182  1.0000
  H   H396      1.0  0.50351  0.10248  0.93432  1.0000
  H   H397      1.0  0.42989  0.51268  0.92086  1.0000
  H   H398      1.0  0.38805  0.35756  0.75475  1.0000
  Fe  Fe35      1.0  0.50940  0.17659  0.63200  1.0000
  S   S72       1.0  0.55707  0.15316  0.60356  1.0000
  S   S73       1.0  0.48766  0.23065  0.61166  1.0000
  Fe  Fe36      1.0  0.48893  0.10356  0.66829  1.0000
  S   S74       1.0  0.53511  0.07672  0.64105  1.0000
  S   S75       1.0  0.45862  0.05748  0.69410  1.0000
  Fe  Fe37      1.0  0.56615  0.12463  0.66006  1.0000
  S   S76       1.0  0.61993  0.11188  0.68635  1.0000
  Fe  Fe38      1.0  0.52091  0.10723  0.58814  1.0000
  S   S77       1.0  0.51956  0.08090  0.52944  1.0000
  S   S78       1.0  0.52086  0.15093  0.69038  1.0000
  S   S79       1.0  0.47281  0.13136  0.61360  1.0000
  H   H399      1.0  0.36771  0.51378  0.50514  1.0000
  S   S80       1.0  0.59648  0.46997  0.55885  1.0000
  H   H400      1.0  0.50021  0.21857  0.51694  1.0000
  S   S81       1.0  0.51533  0.48068  0.58528  1.0000
  H   H401      1.0  0.39350  0.36151  0.80493  1.0000
  Fe  Fe39      1.0  0.54920  0.43403  0.56764  1.0000
  S   S82       1.0  0.56383  0.38359  0.60153  1.0000
  C   C231      1.0  0.51028  0.27232  0.60723  1.0000
  C   C232      1.0  0.49308  0.30066  0.58798  1.0000
  C   C233      1.0  0.50929  0.33465  0.58518  1.0000
  C   C234      1.0  0.54277  0.34085  0.60216  1.0000
  C   C235      1.0  0.56024  0.31236  0.62083  1.0000
  C   C236      1.0  0.54425  0.27824  0.62314  1.0000
  H   H402      1.0  0.46677  0.29647  0.57565  1.0000
  H   H403      1.0  0.49549  0.35624  0.57074  1.0000
  H   H404      1.0  0.58612  0.31680  0.63412  1.0000
  H   H405      1.0  0.55777  0.25682  0.63817  1.0000
  C   C237      1.0  0.56593  0.45836  0.68304  1.0000
  C   C238      1.0  0.61344  0.37737  0.49217  1.0000
  H   H406      1.0  0.58370  0.03366  0.52799  1.0000
  C   C239      1.0  0.41363  0.06309  0.52199  1.0000
  C   C240      1.0  0.44805  0.06917  0.53668  1.0000
  C   C241      1.0  0.47679  0.06959  0.51196  1.0000
  H   H407      1.0  0.45217  0.07365  0.56718  1.0000
  H   H408      1.0  0.43000  0.42506  0.79027  1.0000
  H   H409      1.0  0.38527  0.16071  0.57425  1.0000
  C   C242      1.0  0.40479  0.49892  0.92361  1.0000
  C   C243      1.0  0.40401  0.46502  0.94042  1.0000
  H   H410      1.0  0.59483  0.09022  0.56356  1.0000
  H   H411      1.0  0.55840  0.44491  0.65544  1.0000
  H   H412      1.0  0.66295  0.45475  0.51605  1.0000
  H   H413      1.0  0.58247  0.34253  0.94039  1.0000
  H   H414      1.0  0.67220  0.05725  0.80316  1.0000
  H   H415      1.0  0.44246  0.18520  0.55602  1.0000
  C   C244      1.0  0.61547  0.06208  0.80686  1.0000
  H   H416      1.0  0.62672  0.32656  0.94642  1.0000
  C   C245      1.0  0.64924  0.08039  0.75128  1.0000
  C   C246      1.0  0.61800  0.09172  0.73224  1.0000
  C   C247      1.0  0.58548  0.08725  0.75027  1.0000
  C   C248      1.0  0.58429  0.07278  0.78748  1.0000
  C   C249      1.0  0.60025  0.32675  0.95974  1.0000
  C   C250      1.0  0.61192  0.04166  0.53273  1.0000
  H   H417      1.0  0.56122  0.09558  0.73584  1.0000
  S   S83       1.0  0.36054  0.06030  0.84023  1.0000
  Fe  Fe40      1.0  0.49347  0.46460  0.98243  1.0000
  C   C251      1.0  0.38834  0.17116  0.54455  1.0000
  C   C252      1.0  0.38825  0.05985  0.80000  1.0000
  C   C253      1.0  0.40211  0.09199  0.78573  1.0000
  C   C254      1.0  0.42435  0.09184  0.75359  1.0000
  C   C255      1.0  0.43244  0.05951  0.73551  1.0000
  H   H418      1.0  0.36733  0.47425  0.78081  1.0000
  C   C256      1.0  0.42788  0.16868  0.53404  1.0000
  H   H419      1.0  0.43472  0.11667  0.74250  1.0000
  H   H420      1.0  0.48559  0.06110  0.80778  1.0000
  H   H421      1.0  0.62905  0.49794  0.90435  1.0000
  H   H422      1.0  0.43276  0.08851  0.88128  1.0000
  S   S84       1.0  0.53486  0.50270  0.96054  1.0000
  C   C257      1.0  0.41884  0.02746  0.75011  1.0000
  C   C258      1.0  0.61231  0.06685  0.56814  1.0000
  C   C259      1.0  0.45770  0.04641  0.91741  1.0000
  H   H423      1.0  0.52979  0.18261  0.50737  1.0000
  H   H424      1.0  0.67449  0.08370  0.73745  1.0000
  H   H425      1.0  0.43615  0.14061  0.53915  1.0000
  H   H426      1.0  0.50751  0.06693  0.96721  1.0000
  C   C260      1.0  0.51398  0.07487  0.93729  1.0000
  H   H427      1.0  0.67462  0.38730  0.58795  1.0000
  C   C261      1.0  0.65603  0.48943  0.90997  1.0000
  C   C262      1.0  0.37386  0.36532  0.78125  1.0000
  C   C263      1.0  0.37138  0.44683  0.94251  1.0000
  H   H428      1.0  0.61643  0.47290  0.66046  1.0000
  N   N15       1.0  0.62698  0.05687  0.49631  1.0000
  H   H429      1.0  0.39138  0.06384  0.54119  1.0000
  S   S85       1.0  0.44357  0.44196  0.95277  1.0000
  H   H430      1.0  0.60317  0.10898  0.50385  1.0000
  C   C264      1.0  0.37340  0.51387  0.90793  1.0000
  H   H431      1.0  0.63929  0.07612  0.57675  1.0000
  H   H432      1.0  0.57596  0.43729  0.70276  1.0000
  H   H433      1.0  0.35129  0.34649  0.78486  1.0000
  H   H434      1.0  0.66326  0.09637  0.52096  1.0000
  H   H435      1.0  0.67534  0.49765  0.68267  1.0000
  C   C265      1.0  0.67916  0.45539  0.49078  1.0000
  H   H436      1.0  0.49998  0.17835  0.54592  1.0000
  H   H437      1.0  0.37749  0.41781  0.75567  1.0000
  S   S86       1.0  0.61237  0.04530  0.85417  1.0000
  H   H438      1.0  0.49183  0.09441  0.86761  1.0000
  H   H439      1.0  0.60177  0.05216  0.59321  1.0000
  S   S87       1.0  0.62871  0.44266  0.96419  1.0000
  H   H440      1.0  0.56443  0.09590  0.95916  1.0000
  S   S88       1.0  0.53146  0.43507  0.50532  1.0000
  H   H441      1.0  0.66113  0.47773  0.78808  1.0000
  H   H442      1.0  0.44419  0.10266  0.93016  1.0000
  C   C266      1.0  0.66291  0.46299  0.93749  1.0000
  C   C267      1.0  0.50088  0.06614  0.86843  1.0000
  H   H443      1.0  0.55905  0.07034  0.80136  1.0000
  H   H444      1.0  0.56849  0.05241  0.93899  1.0000
  H   H445      1.0  0.37057  0.42048  0.95522  1.0000
  C   C268      1.0  0.66394  0.07146  0.50333  1.0000
  H   H446      1.0  0.63767  0.35728  0.58821  1.0000
  C   C269      1.0  0.43472  0.08009  0.91186  1.0000
  H   H447      1.0  0.59654  0.33213  0.54590  1.0000
  Fe  Fe41      1.0  0.50000  0.48388  0.52178  1.0000
  H   H448      1.0  0.37897  0.19919  0.54494  1.0000
  N   N16       1.0  0.49642  0.05029  0.90794  1.0000
  H   H449      1.0  0.61283  0.27043  0.55720  1.0000
  H   H450      1.0  0.45450  0.03819  0.94790  1.0000
  C   C270      1.0  0.55476  0.07829  0.93526  1.0000
  H   H451      1.0  0.38760  0.44480  0.86271  1.0000
  H   H452      1.0  0.58905  0.29933  0.96062  1.0000
  C   C271      1.0  0.64799  0.06540  0.78845  1.0000
  H   H453      1.0  0.52942  0.06733  0.86108  1.0000
  Fe  Fe42      1.0  0.57604  0.46489  0.98447  1.0000
  Fe  Fe43      1.0  0.56082  0.51676  0.57003  1.0000
  H   H454      1.0  0.37084  0.15468  0.52541  1.0000
  H   H455      1.0  0.42130  0.47000  0.80792  1.0000
  H   H456      1.0  0.45319  0.04312  0.83898  1.0000
  H   H457      1.0  0.56317  0.09090  0.90804  1.0000
  H   H458      1.0  0.39552  0.11703  0.79945  1.0000
  N   N17       1.0  0.63689  0.34694  0.50512  1.0000
  H   H459      1.0  0.63404  0.40038  0.56496  1.0000
  H   H460      1.0  0.44738  0.43987  0.83596  1.0000
  C   C272      1.0  0.39114  0.42748  0.83699  1.0000
  H   H461      1.0  0.40719  0.07377  0.92059  1.0000
  S   S89       1.0  0.44202  0.49955  0.51034  1.0000
  H   H462      1.0  0.39867  0.40119  0.84914  1.0000
  C   C273      1.0  0.42398  0.44148  0.81595  1.0000
  H   H463      1.0  0.44292  0.23421  0.51483  1.0000
  H   H464      1.0  0.65076  0.29733  0.56817  1.0000
  C   C274      1.0  0.65162  0.37726  0.57046  1.0000
  N   N18       1.0  0.35707  0.42581  0.81336  1.0000
  H   H465      1.0  0.64408  0.46282  0.72043  1.0000
  C   C275      1.0  0.48210  0.04585  0.83488  1.0000
  C   C276      1.0  0.50246  0.18906  0.51638  1.0000
  C   C277      1.0  0.65086  0.49902  0.76860  1.0000
  Fe  Fe44      1.0  0.57757  0.47327  0.49766  1.0000
  C   C278      1.0  0.36052  0.40403  0.77698  1.0000
  C   C279      1.0  0.66510  0.36112  0.53263  1.0000
  C   C280      1.0  0.63301  0.28819  0.54417  1.0000
  H   H466      1.0  0.59549  0.38568  0.51564  1.0000
  H   H467      1.0  0.35345  0.38860  0.88907  1.0000
  C   C281      1.0  0.39690  0.02760  0.78224  1.0000
  N   N19       1.0  0.43703  0.17987  0.49369  1.0000
  C   C282      1.0  0.61368  0.31946  0.52406  1.0000
  H   H468      1.0  0.58343  0.50521  0.65274  1.0000
  H   H469      1.0  0.54131  0.47015  0.69433  1.0000
  H   H470      1.0  0.44493  0.02457  0.90027  1.0000
  H   H471      1.0  0.64800  0.27164  0.52365  1.0000
  Fe  Fe45      1.0  0.65924  0.02089  0.88637  1.0000
  N   N20       1.0  0.60822  0.50743  0.70980  1.0000
  C   C283      1.0  0.62724  0.48181  0.73659  1.0000
  H   H472      1.0  0.60787  0.46434  0.75146  1.0000
  H   H473      1.0  0.59479  0.30732  0.50262  1.0000
  C   C284      1.0  0.59443  0.48693  0.67505  1.0000
  H   H474      1.0  0.68087  0.38248  0.51867  1.0000
  H   H475      1.0  0.35002  0.48194  0.82722  1.0000
  H   H476      1.0  0.67441  0.51259  0.75662  1.0000
  H   H477      1.0  0.56165  0.50382  0.74545  1.0000
  H   H478      1.0  0.49370  0.01908  0.83029  1.0000
  H   H479      1.0  0.63602  0.51802  0.78667  1.0000
  C   C285      1.0  0.42992  0.21937  0.49038  1.0000
  H   H480      1.0  0.66367  0.37816  0.98648  1.0000
  H   H481      1.0  0.40109  0.22490  0.49279  1.0000
  Fe  Fe46      1.0  0.50287  0.81511  0.08921  1.0000
  S   S90       1.0  0.46518  0.77666  0.11622  1.0000
  S   S91       1.0  0.49922  0.82456  0.02530  1.0000
  Fe  Fe47      1.0  0.54000  0.83432  0.16570  1.0000
  S   S92       1.0  0.50588  0.79646  0.19909  1.0000
  S   S93       1.0  0.57256  0.88127  0.18881  1.0000
  Fe  Fe48      1.0  0.51346  0.75792  0.14922  1.0000
  S   S94       1.0  0.52091  0.69820  0.15887  1.0000
  Fe  Fe49      1.0  0.46069  0.81785  0.16308  1.0000
  S   S95       1.0  0.40833  0.83961  0.18254  1.0000
  S   S96       1.0  0.55187  0.79413  0.11899  1.0000
  S   S97       1.0  0.49393  0.85774  0.13282  1.0000
  S   S98       1.0  0.53636  0.58661  0.02076  1.0000
  S   S99       1.0  0.41490  0.92472  0.34099  1.0000
  H   H482      1.0  0.60174  0.00341  0.15457  1.0000
  H   H483      1.0  0.61121  0.62427  0.05711  1.0000
  H   H484      1.0  0.65110  0.96591  0.22409  1.0000
  H   H485      1.0  0.39057  0.58260  0.46037  1.0000
  H   H486      1.0  0.54496  0.92092  0.00791  1.0000
  H   H487      1.0  0.44912  0.95610  0.18316  1.0000
  C   C286      1.0  0.49673  0.94002  0.21382  1.0000
  H   H488      1.0  0.41862  0.57337  0.39998  1.0000
  C   C287      1.0  0.41003  0.86276  0.22679  1.0000
  C   C288      1.0  0.38180  0.88493  0.23679  1.0000
  C   C289      1.0  0.38283  0.90389  0.27186  1.0000
  C   C290      1.0  0.41185  0.90039  0.29737  1.0000
  C   C291      1.0  0.43966  0.87764  0.28762  1.0000
  C   C292      1.0  0.43909  0.85931  0.25222  1.0000
  H   H489      1.0  0.40372  0.94917  0.12936  1.0000
  C   C293      1.0  0.53806  0.86148  0.30052  1.0000
  H   H490      1.0  0.46072  0.84189  0.24504  1.0000
  C   C294      1.0  0.60170  0.87730  0.22888  1.0000
  C   C295      1.0  0.61575  0.84439  0.24014  1.0000
  C   C296      1.0  0.60620  0.01372  0.18433  1.0000
  H   H491      1.0  0.41906  0.87422  0.05697  1.0000
  H   H492      1.0  0.60305  0.84895  0.03307  1.0000
  C   C297      1.0  0.61166  0.90831  0.24931  1.0000
  C   C298      1.0  0.65099  0.87390  0.29103  1.0000
  C   C299      1.0  0.64008  0.57834  0.03599  1.0000
  H   H493      1.0  0.38903  0.55108  0.06891  1.0000
  C   C300      1.0  0.35996  0.90464  0.03419  1.0000
  C   C301      1.0  0.53190  0.61686  0.05981  1.0000
  C   C302      1.0  0.53110  0.65369  0.05205  1.0000
  C   C303      1.0  0.52736  0.67885  0.08200  1.0000
  C   C304      1.0  0.52475  0.66739  0.12017  1.0000
  C   C305      1.0  0.52549  0.63051  0.12791  1.0000
  C   C306      1.0  0.52889  0.60530  0.09788  1.0000
  H   H494      1.0  0.53339  0.66293  0.02269  1.0000
  H   H495      1.0  0.52685  0.70713  0.07564  1.0000
  H   H496      1.0  0.52355  0.62142  0.15737  1.0000
  H   H497      1.0  0.52949  0.57703  0.10429  1.0000
  C   C307      1.0  0.48077  0.86582  0.01228  1.0000
  C   C308      1.0  0.48459  0.89552  0.03661  1.0000
  C   C309      1.0  0.46912  0.92818  0.02631  1.0000
  H   H498      1.0  0.51725  0.95760  0.20164  1.0000
  H   H499      1.0  0.49985  0.89350  0.06310  1.0000
  H   H500      1.0  0.47202  0.95109  0.04529  1.0000
  N   N21       1.0  0.36418  0.88298  0.07059  1.0000
  H   H501      1.0  0.56585  0.83362  0.36579  1.0000
  H   H502      1.0  0.59477  0.85249  0.47921  1.0000
  H   H503      1.0  0.51417  0.85486  0.37449  1.0000
  H   H504      1.0  0.41591  0.97687  0.27247  1.0000
  H   H505      1.0  0.59738  0.99064  0.43096  1.0000
  H   H506      1.0  0.50941  0.74368  0.47809  1.0000
  C   C310      1.0  0.38728  0.98794  0.21932  1.0000
  Fe  Fe50      1.0  0.37160  0.96498  0.35275  1.0000
  N   N22       1.0  0.59976  0.90491  0.01640  1.0000
  H   H507      1.0  0.47812  0.97732  0.28608  1.0000
  H   H508      1.0  0.38385  0.62239  0.05657  1.0000
  C   C311      1.0  0.43480  0.64996  0.06276  1.0000
  C   C312      1.0  0.58689  0.85160  0.37713  1.0000
  C   C313      1.0  0.64044  0.84275  0.27110  1.0000
  H   H509      1.0  0.37548  0.59256  0.30865  1.0000
  H   H510      1.0  0.63633  0.93399  0.05475  1.0000
  H   H511      1.0  0.46142  0.87377  0.30775  1.0000
  H   H512      1.0  0.43059  0.53800  0.09005  1.0000
  N   N23       1.0  0.41918  0.59921  0.01428  1.0000
  H   H513      1.0  0.65537  0.63505  0.04358  1.0000
  C   C314      1.0  0.37054  0.90662  0.10533  1.0000
  H   H514      1.0  0.42823  0.91643  0.10372  1.0000
  H   H515      1.0  0.61158  0.84417  0.36210  1.0000
  H   H516      1.0  0.57641  0.95401  0.99582  1.0000
  H   H517      1.0  0.39429  0.53466  0.41225  1.0000
  Fe  Fe51      1.0  0.67755  0.99824  0.37409  1.0000
  H   H518      1.0  0.53107  0.86276  0.26924  1.0000
  H   H519      1.0  0.44275  0.93655  0.22880  1.0000
  H   H520      1.0  0.37536  0.53033  0.30998  1.0000
  C   C315      1.0  0.52516  0.71949  0.47145  1.0000
  H   H521      1.0  0.60816  0.82032  0.22458  1.0000
  C   C316      1.0  0.53697  0.89958  0.31740  1.0000
  H   H522      1.0  0.65171  0.81729  0.27936  1.0000
  C   C317      1.0  0.39570  0.85871  0.06638  1.0000
  H   H523      1.0  0.64297  0.00397  0.47843  1.0000
  H   H524      1.0  0.61455  0.56347  0.03235  1.0000
  H   H525      1.0  0.43842  0.52068  0.36741  1.0000
  N   N24       1.0  0.45520  0.99339  0.23125  1.0000
  H   H526      1.0  0.35172  0.88724  0.00947  1.0000
  H   H527      1.0  0.59564  0.85673  0.10344  1.0000
  C   C318      1.0  0.41638  0.56046  0.07575  1.0000
  C   C319      1.0  0.51662  0.88684  0.42578  1.0000
  H   H528      1.0  0.36721  0.57412  0.01409  1.0000
  H   H529      1.0  0.63775  0.94724  0.00639  1.0000
  C   C320      1.0  0.66810  0.90020  0.01897  1.0000
  H   H530      1.0  0.36670  0.61065  0.42743  1.0000
  C   C321      1.0  0.38541  0.53003  0.34037  1.0000
  H   H531      1.0  0.37452  0.89020  0.13172  1.0000
  H   H532      1.0  0.50911  0.69530  0.47667  1.0000
  H   H533      1.0  0.40443  0.84717  0.09452  1.0000
  H   H534      1.0  0.41654  0.81312  0.03550  1.0000
  H   H535      1.0  0.41253  0.59793  0.33909  1.0000
  H   H536      1.0  0.50930  0.99629  0.25439  1.0000
  H   H537      1.0  0.63577  0.87613  0.08760  1.0000
  C   C322      1.0  0.53909  0.94279  0.37009  1.0000
  C   C323      1.0  0.60652  0.87866  0.08576  1.0000
  H   H538      1.0  0.59043  0.96162  0.34712  1.0000
  H   H539      1.0  0.54573  0.94786  0.40106  1.0000
  H   H540      1.0  0.51092  0.91140  0.30889  1.0000
  H   H541      1.0  0.59977  0.90203  0.35085  1.0000
  H   H542      1.0  0.62079  0.62756  0.00720  1.0000
  H   H543      1.0  0.49749  0.86764  0.43829  1.0000
  C   C324      1.0  0.58026  0.89215  0.37197  1.0000
  H   H544      1.0  0.54412  0.97225  0.05142  1.0000
  H   H545      1.0  0.55200  0.93196  0.07659  1.0000
  C   C325      1.0  0.36979  0.63157  0.35435  1.0000
  H   H546      1.0  0.41577  0.58265  0.09703  1.0000
  S   S100      1.0  0.65571  0.94695  0.39675  1.0000
  C   C326      1.0  0.45925  0.95656  0.21354  1.0000
  H   H547      1.0  0.59881  0.90384  0.09988  1.0000
  H   H548      1.0  0.62820  0.95045  0.15990  1.0000
  H   H549      1.0  0.58804  0.96372  0.06886  1.0000
  H   H550      1.0  0.50513  0.93212  0.24337  1.0000
  H   H551      1.0  0.46385  0.57912  0.04864  1.0000
  H   H552      1.0  0.43956  0.01693  0.17645  1.0000
  C   C327      1.0  0.40626  0.63020  0.03791  1.0000
  H   H553      1.0  0.51868  0.84300  0.31341  1.0000
  C   C328      1.0  0.59212  0.87466  0.04384  1.0000
  N   N25       1.0  0.66673  0.56595  0.00714  1.0000
  H   H554      1.0  0.55727  0.91463  0.30128  1.0000
  C   C329      1.0  0.63480  0.92325  0.02494  1.0000
  H   H555      1.0  0.64035  0.89694  0.46031  1.0000
  H   H556      1.0  0.54326  0.88031  0.43782  1.0000
  C   C330      1.0  0.56209  0.96930  0.34729  1.0000
  C   C331      1.0  0.56403  0.95082  0.05602  1.0000
  H   H557      1.0  0.53008  0.71894  0.43998  1.0000
  H   H558      1.0  0.57593  0.00206  0.47453  1.0000
  C   C332      1.0  0.63616  0.90668  0.28038  1.0000
  H   H559      1.0  0.64381  0.93075  0.29590  1.0000
  C   C333      1.0  0.51466  0.88372  0.38139  1.0000
  H   H560      1.0  0.50869  0.91381  0.43568  1.0000
  H   H561      1.0  0.55198  0.97252  0.31723  1.0000
  C   C334      1.0  0.57085  0.93260  0.01704  1.0000
  H   H562      1.0  0.36784  0.65036  0.32966  1.0000
  C   C335      1.0  0.37269  0.58254  0.43445  1.0000
  H   H563      1.0  0.60010  0.93362  0.24120  1.0000
  H   H564      1.0  0.38461  0.83756  0.00775  1.0000
  N   N26       1.0  0.54321  0.90360  0.36028  1.0000
  H   H565      1.0  0.49603  0.91509  0.19632  1.0000
  C   C336      1.0  0.43654  0.57110  0.03930  1.0000
  H   H566      1.0  0.51092  0.95129  0.36586  1.0000
  H   H567      1.0  0.36095  0.92078  0.27922  1.0000
  H   H568      1.0  0.43932  0.54747  0.32388  1.0000
  C   C337      1.0  0.63177  0.61866  0.03543  1.0000
  C   C338      1.0  0.40307  0.93172  0.10341  1.0000
  C   C339      1.0  0.67398  0.98444  0.22484  1.0000
  N   N27       1.0  0.67474  0.00712  0.18903  1.0000
  C   C340      1.0  0.39113  0.56249  0.40157  1.0000
  H   H569      1.0  0.59199  0.84530  0.40800  1.0000
  H   H570      1.0  0.48786  0.89324  0.37187  1.0000
  H   H571      1.0  0.56300  0.86981  0.04533  1.0000
  H   H572      1.0  0.56519  0.85027  0.30241  1.0000
  H   H573      1.0  0.38922  0.96156  0.20493  1.0000
  H   H574      1.0  0.66519  0.87284  0.03061  1.0000
  H   H575      1.0  0.58833  0.90489  0.39991  1.0000
  H   H576      1.0  0.42234  0.66202  0.08844  1.0000
  C   C341      1.0  0.48158  0.99875  0.26418  1.0000
  H   H577      1.0  0.44783  0.67144  0.04603  1.0000
  H   H578      1.0  0.39451  0.65105  0.01886  1.0000
  H   H579      1.0  0.45565  0.63216  0.07448  1.0000
  C   C342      1.0  0.39103  0.82779  0.03720  1.0000
  H   H580      1.0  0.37074  0.80823  0.04636  1.0000
  C   C343      1.0  0.41852  0.99562  0.24779  1.0000
  H   H581      1.0  0.50267  0.00321  0.16619  1.0000
  H   H582      1.0  0.40205  0.94951  0.07794  1.0000
  H   H583      1.0  0.65704  0.93743  0.12242  1.0000
  Fe  Fe52      1.0  0.53442  0.52575  0.02094  1.0000
  H   H584      1.0  0.66997  0.00141  0.25092  1.0000
  H   H585      1.0  0.60163  0.99260  0.20591  1.0000
  N   N28       1.0  0.37294  0.56248  0.36227  1.0000
  H   H586      1.0  0.60300  0.01463  0.99617  1.0000
  H   H587      1.0  0.44028  0.54602  0.02259  1.0000
  H   H588      1.0  0.35908  0.88747  0.21742  1.0000
  C   C344      1.0  0.38788  0.58213  0.99336  1.0000
  S   S101      1.0  0.67321  0.01345  0.03294  1.0000
  H   H589      1.0  0.64936  0.57219  0.06591  1.0000
  H   H590      1.0  0.66534  0.00073  0.12748  1.0000
  C   C345      1.0  0.65638  0.94871  0.15201  1.0000
  H   H591      1.0  0.56884  0.64795  0.47966  1.0000
  H   H592      1.0  0.38568  0.91643  0.02564  1.0000
  H   H593      1.0  0.38436  0.00940  0.19753  1.0000
  H   H594      1.0  0.66959  0.92896  0.17116  1.0000
  H   H595      1.0  0.35612  0.82320  0.11665  1.0000
  H   H596      1.0  0.46988  0.62365  0.00235  1.0000
  H   H597      1.0  0.56079  0.99613  0.36102  1.0000
  C   C346      1.0  0.67040  0.52601  0.01045  1.0000
  H   H598      1.0  0.38845  0.64309  0.37635  1.0000
  C   C347      1.0  0.38315  0.59518  0.33973  1.0000
  H   H599      1.0  0.58137  0.70756  0.47512  1.0000
  H   H600      1.0  0.36225  0.98769  0.23565  1.0000
  C   C348      1.0  0.44913  0.93101  0.99202  1.0000
  C   C349      1.0  0.67598  0.98517  0.15238  1.0000
  C   C350      1.0  0.59243  0.01296  0.45127  1.0000
  C   C351      1.0  0.42602  0.52498  0.33849  1.0000
  Fe  Fe53      1.0  0.38564  0.96586  0.93464  1.0000
  C   C352      1.0  0.55331  0.54890  0.70775  1.0000
  H   H601      1.0  0.35615  0.62901  0.97535  1.0000
  H   H602      1.0  0.49359  0.01420  0.57288  1.0000
  H   H603      1.0  0.60443  0.98465  0.77135  1.0000
  S   S102      1.0  0.39821  0.96894  0.87212  1.0000
  C   C353      1.0  0.55265  0.97732  0.62147  1.0000
  Fe  Fe54      1.0  0.52089  0.83977  0.68763  1.0000
  S   S103      1.0  0.54612  0.79676  0.72401  1.0000
  S   S104      1.0  0.48769  0.88717  0.70492  1.0000
  Fe  Fe55      1.0  0.56377  0.82030  0.61640  1.0000
  S   S105      1.0  0.59297  0.77618  0.64694  1.0000
  S   S106      1.0  0.56873  0.83112  0.55261  1.0000
  Fe  Fe56      1.0  0.53993  0.76156  0.67066  1.0000
  S   S107      1.0  0.51535  0.70569  0.66656  1.0000
  Fe  Fe57      1.0  0.59694  0.81463  0.69706  1.0000
  S   S108      1.0  0.64908  0.82976  0.72600  1.0000
  S   S109      1.0  0.51027  0.80371  0.63684  1.0000
  S   S110      1.0  0.57220  0.85970  0.66424  1.0000
  S   S111      1.0  0.58680  0.56347  0.60283  1.0000
  C   C354      1.0  0.53576  0.66655  0.64851  1.0000
  C   C355      1.0  0.51428  0.63751  0.63651  1.0000
  C   C356      1.0  0.52937  0.60598  0.62180  1.0000
  C   C357      1.0  0.56624  0.60292  0.61968  1.0000
  C   C358      1.0  0.58776  0.63173  0.63220  1.0000
  C   C359      1.0  0.57262  0.66353  0.64616  1.0000
  H   H604      1.0  0.48574  0.63952  0.63840  1.0000
  H   H605      1.0  0.51250  0.58396  0.61252  1.0000
  H   H606      1.0  0.61632  0.62953  0.63093  1.0000
  H   H607      1.0  0.58948  0.68549  0.65567  1.0000
  C   C360      1.0  0.60057  0.86337  0.53998  1.0000
  C   C361      1.0  0.46178  0.86901  0.97733  1.0000
  C   C362      1.0  0.51665  0.99586  0.94848  1.0000
  C   C363      1.0  0.62989  0.83059  0.80222  1.0000
  H   H608      1.0  0.61955  0.82935  0.86317  1.0000
  H   H609      1.0  0.61425  0.80690  0.79570  1.0000
  C   C364      1.0  0.40141  0.87936  0.79555  1.0000
  C   C365      1.0  0.41734  0.84812  0.78170  1.0000
  C   C366      1.0  0.44408  0.85004  0.75405  1.0000
  C   C367      1.0  0.45443  0.88322  0.73960  1.0000
  C   C368      1.0  0.43839  0.91439  0.75333  1.0000
  C   C369      1.0  0.41220  0.91252  0.78141  1.0000
  H   H610      1.0  0.40907  0.82239  0.79254  1.0000
  H   H611      1.0  0.45637  0.82587  0.74371  1.0000
  H   H612      1.0  0.44624  0.94014  0.74237  1.0000
  H   H613      1.0  0.39976  0.93666  0.79151  1.0000
  C   C370      1.0  0.64841  0.84758  0.77292  1.0000
  C   C371      1.0  0.63303  0.84326  0.84040  1.0000
  H   H614      1.0  0.54437  0.75749  0.55340  1.0000
  H   H615      1.0  0.43020  0.90356  0.94078  1.0000
  H   H616      1.0  0.52009  0.66505  0.52743  1.0000
  H   H617      1.0  0.49745  0.99493  0.88965  1.0000
  H   H618      1.0  0.56192  0.00683  0.73104  1.0000
  H   H619      1.0  0.61081  0.53531  0.95986  1.0000
  C   C372      1.0  0.56109  0.72027  0.49352  1.0000
  H   H620      1.0  0.52609  0.92171  0.55711  1.0000
  C   C373      1.0  0.46634  0.97721  0.53414  1.0000
  C   C374      1.0  0.64377  0.90930  0.55746  1.0000
  H   H621      1.0  0.55641  0.00129  0.60322  1.0000
  H   H622      1.0  0.56696  0.57350  0.69810  1.0000
  H   H623      1.0  0.52942  0.95576  0.82910  1.0000
  H   H624      1.0  0.50494  0.90066  0.79629  1.0000
  C   C375      1.0  0.66523  0.52404  0.67354  1.0000
  C   C376      1.0  0.44555  0.90147  0.96741  1.0000
  C   C377      1.0  0.53621  0.95770  0.75299  1.0000
  H   H625      1.0  0.55331  0.61397  0.51126  1.0000
  H   H626      1.0  0.43482  0.93662  0.65977  1.0000
  H   H627      1.0  0.56028  0.98952  0.81955  1.0000
  C   C378      1.0  0.67114  0.89126  0.81953  1.0000
  H   H628      1.0  0.53373  0.89829  0.60187  1.0000
  H   H629      1.0  0.41457  0.97894  0.66737  1.0000
  S   S112      1.0  0.42754  0.97119  0.98146  1.0000
  H   H630      1.0  0.58651  0.89187  0.79359  1.0000
  H   H631      1.0  0.63905  0.95226  0.72353  1.0000
  H   H632      1.0  0.48897  0.74276  0.58131  1.0000
  C   C379      1.0  0.54122  0.72878  0.56083  1.0000
  H   H633      1.0  0.51942  0.97854  0.55650  1.0000
  H   H634      1.0  0.65766  0.92485  0.57946  1.0000
  H   H635      1.0  0.51386  0.95443  0.65877  1.0000
  C   C380      1.0  0.61835  0.88386  0.56816  1.0000
  N   N29       1.0  0.56201  0.70535  0.53382  1.0000
  H   H636      1.0  0.60702  0.96441  0.85406  1.0000
  H   H637      1.0  0.53203  0.01445  0.77048  1.0000
  C   C381      1.0  0.61896  0.74205  0.55000  1.0000
  H   H638      1.0  0.47594  0.99064  0.50783  1.0000
  H   H639      1.0  0.43829  0.57684  0.93649  1.0000
  C   C382      1.0  0.65386  0.87350  0.84918  1.0000
  S   S113      1.0  0.65908  0.88768  0.89750  1.0000
  H   H640      1.0  0.60234  0.69319  0.57729  1.0000
  H   H641      1.0  0.43559  0.63656  0.97022  1.0000
  N   N30       1.0  0.56407  0.94416  0.78110  1.0000
  C   C383      1.0  0.61161  0.94280  0.72884  1.0000
  H   H642      1.0  0.55954  0.89290  0.75172  1.0000
  H   H643      1.0  0.38611  0.00277  0.79282  1.0000
  C   C384      1.0  0.56659  0.87261  0.95971  1.0000
  C   C385      1.0  0.58270  0.94756  0.85308  1.0000
  C   C386      1.0  0.61643  0.56396  0.95498  1.0000
  H   H644      1.0  0.57252  0.85884  0.93215  1.0000
  H   H645      1.0  0.47179  0.56216  0.97114  1.0000
  H   H646      1.0  0.55619  0.85209  0.97946  1.0000
  H   H647      1.0  0.60843  0.91167  0.95522  1.0000
  S   S114      1.0  0.63712  0.98286  0.92968  1.0000
  C   C387      1.0  0.36889  0.60525  0.96257  1.0000
  H   H648      1.0  0.54570  0.89250  0.95277  1.0000
  H   H649      1.0  0.50898  0.96720  0.94599  1.0000
  C   C388      1.0  0.53691  0.99815  0.74449  1.0000
  C   C389      1.0  0.51304  0.01373  0.90844  1.0000
  C   C390      1.0  0.66902  0.87793  0.78170  1.0000
  H   H650      1.0  0.67429  0.89828  0.98787  1.0000
  C   C391      1.0  0.50098  0.72158  0.56334  1.0000
  H   H651      1.0  0.54475  0.99637  0.95855  1.0000
  H   H652      1.0  0.48709  0.72191  0.53501  1.0000
  C   C392      1.0  0.49288  0.98477  0.56774  1.0000
  H   H653      1.0  0.54075  0.53515  0.68256  1.0000
  H   H654      1.0  0.49561  0.69593  0.57816  1.0000
  H   H655      1.0  0.62415  0.75273  0.52086  1.0000
  H   H656      1.0  0.53510  0.88988  0.83555  1.0000
  C   C393      1.0  0.51333  0.90631  0.58011  1.0000
  H   H657      1.0  0.59429  0.95417  0.70589  1.0000
  C   C394      1.0  0.57838  0.52445  0.73148  1.0000
  H   H658      1.0  0.45725  0.91821  0.58368  1.0000
  H   H659      1.0  0.65750  0.60381  0.96061  1.0000
  H   H660      1.0  0.45106  0.00912  0.62091  1.0000
  H   H661      1.0  0.61289  0.87990  0.59825  1.0000
  C   C395      1.0  0.55736  0.95993  0.82025  1.0000
  H   H662      1.0  0.51505  0.00440  0.72363  1.0000
  H   H663      1.0  0.56920  0.74894  0.49404  1.0000
  H   H664      1.0  0.42491  0.00238  0.73632  1.0000
  Fe  Fe58      1.0  0.35223  0.00662  0.86838  1.0000
  H   H665      1.0  0.53142  0.55785  0.72636  1.0000
  S   S115      1.0  0.36759  0.87633  0.82975  1.0000
  C   C396      1.0  0.65185  0.91413  0.51858  1.0000
  H   H666      1.0  0.42843  0.97199  0.59940  1.0000
  H   H667      1.0  0.62110  0.94413  0.78978  1.0000
  C   C397      1.0  0.43981  0.96584  0.65950  1.0000
  Fe  Fe59      1.0  0.67710  0.94450  0.90765  1.0000
  H   H668      1.0  0.59094  0.91938  0.85035  1.0000
  H   H669      1.0  0.55165  0.72631  0.59102  1.0000
  C   C398      1.0  0.53050  0.88786  0.80393  1.0000
  C   C399      1.0  0.48230  0.92564  0.59941  1.0000
  C   C400      1.0  0.60097  0.89026  0.97578  1.0000
  H   H670      1.0  0.37449  0.53951  0.89370  1.0000
  C   C401      1.0  0.56795  0.63982  0.51030  1.0000
  H   H671      1.0  0.50311  0.88171  0.56555  1.0000
  C   C402      1.0  0.45955  0.58570  0.95696  1.0000
  H   H672      1.0  0.53780  0.94360  0.72482  1.0000
  C   C403      1.0  0.54861  0.66732  0.53543  1.0000
  H   H673      1.0  0.59667  0.58029  0.97019  1.0000
  H   H674      1.0  0.38672  0.61359  0.93925  1.0000
  N   N31       1.0  0.48568  0.96552  0.60493  1.0000
  C   C404      1.0  0.56175  0.90385  0.78161  1.0000
  Fe  Fe60      1.0  0.35663  0.92637  0.86413  1.0000
  H   H675      1.0  0.67849  0.52390  0.86689  1.0000
  C   C405      1.0  0.60079  0.95512  0.76936  1.0000
  H   H676      1.0  0.67233  0.56148  0.94528  1.0000
  H   H677      1.0  0.64516  0.73906  0.56489  1.0000
  H   H678      1.0  0.61695  0.68852  0.52919  1.0000
  C   C406      1.0  0.45075  0.97929  0.61942  1.0000
  H   H679      1.0  0.52782  0.85899  0.79673  1.0000
  H   H680      1.0  0.61213  0.56888  0.92368  1.0000
  H   H681      1.0  0.61188  0.91322  0.72631  1.0000
  C   C407      1.0  0.60020  0.70526  0.54800  1.0000
  C   C408      1.0  0.63273  0.53651  0.69632  1.0000
  H   H682      1.0  0.64179  0.55433  0.72041  1.0000
  H   H683      1.0  0.55020  0.65759  0.56558  1.0000
  H   H684      1.0  0.50916  0.95152  0.76335  1.0000
  H   H685      1.0  0.47930  0.91221  0.62766  1.0000
  H   H686      1.0  0.45886  0.84612  0.95832  1.0000
  H   H687      1.0  0.56909  0.94938  0.88108  1.0000
  H   H688      1.0  0.58908  0.54120  0.75565  1.0000
  H   H689      1.0  0.49984  0.00754  0.97099  1.0000
  C   C409      1.0  0.51403  0.97440  0.63505  1.0000
  H   H690      1.0  0.56158  0.95319  0.60607  1.0000
  H   H691      1.0  0.45953  0.97305  0.68242  1.0000
  H   H692      1.0  0.48060  0.59847  0.93971  1.0000
  C   C410      1.0  0.65485  0.57469  0.96644  1.0000
  H   H693      1.0  0.46418  0.94834  0.52720  1.0000
  H   H694      1.0  0.60400  0.76203  0.56651  1.0000
  C   C411      1.0  0.60822  0.86855  0.50101  1.0000
  H   H695      1.0  0.57051  0.98096  0.64706  1.0000
  H   H696      1.0  0.39569  0.55676  0.97905  1.0000
  H   H697      1.0  0.43971  0.98832  0.53968  1.0000
  H   H698      1.0  0.50844  0.00062  0.64905  1.0000
  Fe  Fe61      1.0  0.67995  0.00279  0.96960  1.0000
  H   H699      1.0  0.65866  0.52290  0.64213  1.0000
  S   S116      1.0  0.54433  0.52224  0.50786  1.0000
  H   H700      1.0  0.61835  0.55510  0.67671  1.0000
  H   H701      1.0  0.54001  0.01491  0.89589  1.0000
  H   H702      1.0  0.62171  0.86934  0.97347  1.0000
  H   H703      1.0  0.59505  0.63413  0.52171  1.0000
  H   H704      1.0  0.62584  0.01658  0.54121  1.0000
  C   C412      1.0  0.44604  0.61313  0.98645  1.0000
  C   C413      1.0  0.63394  0.89376  0.49029  1.0000
  Fe  Fe62      1.0  0.90032  0.42024  0.39732  1.0000
  S   S117      1.0  0.93097  0.47007  0.41126  1.0000
  S   S118      1.0  0.93535  0.37533  0.37616  1.0000
  Fe  Fe63      1.0  0.83178  0.44895  0.43427  1.0000
  C   C414      1.0  0.84671  0.05691  0.02105  1.0000
  S   S119      1.0  0.78181  0.43258  0.46648  1.0000
  C   C415      1.0  0.98052  0.47879  0.06913  1.0000
  S   S120      1.0  0.85817  0.50116  0.45008  1.0000
  Fe  Fe64      1.0  0.90479  0.46861  0.46812  1.0000
  H   H705      1.0  0.69810  0.48657  0.04584  1.0000
  S   S121      1.0  0.85225  0.44900  0.37293  1.0000
  S   S122      1.0  0.87796  0.41639  0.45668  1.0000
  C   C416      1.0  0.73723  0.44758  0.46141  1.0000
  H   H706      1.0  0.94565  0.42055  0.04611  1.0000
  C   C417      1.0  0.72207  0.45682  0.42567  1.0000
  C   C418      1.0  0.87668  0.43202  0.11265  1.0000
  C   C419      1.0  0.97021  0.47577  0.11165  1.0000
  H   H707      1.0  0.88499  0.05083  0.10063  1.0000
  H   H708      1.0  0.95864  0.06882  0.02407  1.0000
  H   H709      1.0  0.86717  0.43737  0.14217  1.0000
  C   C420      1.0  0.94935  0.35886  0.24619  1.0000
  C   C421      1.0  0.97367  0.34424  0.27267  1.0000
  C   C422      1.0  0.96953  0.34999  0.31246  1.0000
  C   C423      1.0  0.94149  0.37090  0.32597  1.0000
  C   C424      1.0  0.91815  0.38680  0.29937  1.0000
  C   C425      1.0  0.92186  0.38048  0.25966  1.0000
  C   C426      1.0  0.93891  0.03231  0.09737  1.0000
  H   H710      1.0  0.89321  0.02082  0.06196  1.0000
  H   H711      1.0  0.89645  0.40293  0.30941  1.0000
  H   H712      1.0  0.90293  0.39186  0.23937  1.0000
  H   H713      1.0  0.83624  0.03954  0.04411  1.0000
  H   H714      1.0  0.99666  0.49072  0.25778  1.0000
  C   C427      1.0  0.93843  0.44813  0.16435  1.0000
  H   H715      1.0  0.90409  0.15274  0.03980  1.0000
  H   H716      1.0  0.73828  0.45702  0.40031  1.0000
  Fe  Fe65      1.0  0.88234  0.49904  0.39148  1.0000
  S   S123      1.0  0.88287  0.50630  0.00434  1.0000
  H   H717      1.0  0.70958  0.04634  0.13080  1.0000
  C   C428      1.0  0.00446  0.28838  0.40620  1.0000
  H   H718      1.0  0.94021  0.16217  0.07221  1.0000
  H   H719      1.0  0.90006  0.48439  0.11179  1.0000
  C   C429      1.0  0.90792  0.45696  0.10285  1.0000
  H   H720      1.0  0.96457  0.43791  0.21965  1.0000
  H   H721      1.0  0.96089  0.50256  0.12132  1.0000
  C   C430      1.0  0.98240  0.26569  0.43405  1.0000
  C   C431      1.0  0.92484  0.10629  0.07278  1.0000
  H   H722      1.0  0.85615  0.09850  0.06305  1.0000
  H   H723      1.0  0.98969  0.47613  0.32797  1.0000
  H   H724      1.0  0.98824  0.46857  0.19047  1.0000
  H   H725      1.0  0.69504  0.05627  0.31250  1.0000
  N   N32       1.0  0.90746  0.07603  0.05031  1.0000
  C   C432      1.0  0.95017  0.31532  0.46322  1.0000
  C   C433      1.0  0.92004  0.24109  0.48056  1.0000
  C   C434      1.0  0.68170  0.36025  0.00259  1.0000
  H   H726      1.0  0.98499  0.40809  0.11528  1.0000
  H   H727      1.0  0.86098  0.04010  0.00026  1.0000
  C   C435      1.0  0.00674  0.45993  0.30902  1.0000
  H   H728      1.0  0.92723  0.03565  0.01082  1.0000
  H   H729      1.0  0.90300  0.49579  0.30815  1.0000
  H   H730      1.0  0.94737  0.05070  0.12107  1.0000
  H   H731      1.0  0.94315  0.38997  0.12765  1.0000
  H   H732      1.0  0.99656  0.24004  0.43904  1.0000
  H   H733      1.0  0.92434  0.38129  0.06553  1.0000
  H   H734      1.0  0.95738  0.48265  0.04945  1.0000
  C   C436      1.0  0.94820  0.39879  0.06734  1.0000
  H   H735      1.0  0.95762  0.25802  0.41790  1.0000
  H   H736      1.0  0.73947  0.06990  0.16258  1.0000
  C   C437      1.0  0.68309  0.51172  0.05010  1.0000
  H   H737      1.0  0.90897  0.45835  0.07103  1.0000
  H   H738      1.0  0.90978  0.11201  0.09942  1.0000
  H   H739      1.0  0.99791  0.50262  0.06590  1.0000
  H   H740      1.0  0.92988  0.30930  0.44026  1.0000
  C   C438      1.0  0.70762  0.03033  0.19209  1.0000
  H   H741      1.0  0.91619  0.09211  0.47314  1.0000
  H   H742      1.0  0.95758  0.42298  0.47786  1.0000
  H   H743      1.0  0.70870  0.04484  0.22018  1.0000
  H   H744      1.0  0.94932  0.13967  0.02859  1.0000
  H   H745      1.0  0.92721  0.49640  0.24229  1.0000
  H   H746      1.0  0.82343  0.06865  0.00560  1.0000
  C   C439      1.0  0.95591  0.41067  0.10957  1.0000
  C   C440      1.0  0.92940  0.14193  0.05144  1.0000
  H   H747      1.0  0.99580  0.47112  0.12725  1.0000
  H   H748      1.0  0.69408  0.37486  0.02739  1.0000
  H   H749      1.0  0.99496  0.32759  0.26256  1.0000
  S   S124      1.0  0.95148  0.34978  0.19627  1.0000
  H   H750      1.0  0.96580  0.33774  0.45098  1.0000
  N   N33       1.0  0.94326  0.44735  0.12119  1.0000
  H   H751      1.0  0.99102  0.31377  0.39859  1.0000
  C   C441      1.0  0.71233  0.05830  0.16000  1.0000
  C   C442      1.0  0.90412  0.04476  0.07745  1.0000
  H   H752      1.0  0.96074  0.02944  0.07675  1.0000
  Fe  Fe66      1.0  0.99986  0.32506  0.16935  1.0000
  H   H753      1.0  0.98876  0.42088  0.17998  1.0000
  H   H754      1.0  0.87083  0.10878  0.01646  1.0000
  H   H755      1.0  0.98382  0.51773  0.99309  1.0000
  H   H756      1.0  0.98787  0.33781  0.33276  1.0000
  C   C443      1.0  0.92998  0.06484  0.01679  1.0000
  H   H757      1.0  0.70054  0.09797  0.25707  1.0000
  H   H758      1.0  0.85407  0.43739  0.09243  1.0000
  H   H759      1.0  0.92594  0.47373  0.17341  1.0000
  C   C444      1.0  0.97233  0.44356  0.18956  1.0000
  H   H760      1.0  0.97030  0.38169  0.05769  1.0000
  H   H761      1.0  0.92003  0.42648  0.17336  1.0000
  H   H762      1.0  0.99611  0.45527  0.05997  1.0000
  H   H763      1.0  0.69382  0.08108  0.16310  1.0000
  H   H764      1.0  0.00762  0.27328  0.37884  1.0000
  H   H765      1.0  0.88343  0.40336  0.11004  1.0000
  H   H766      1.0  0.95206  0.09897  0.08284  1.0000
  C   C445      1.0  0.87045  0.08704  0.03809  1.0000
  H   H767      1.0  0.01374  0.51492  0.44873  1.0000
  S   S125      1.0  0.99575  0.31169  0.10615  1.0000
  H   H768      1.0  0.98980  0.43758  0.29788  1.0000
  H   H769      1.0  0.92471  0.21599  0.46425  1.0000
  N   N34       1.0  0.97362  0.28354  0.47162  1.0000
  H   H770      1.0  0.70656  0.35540  0.45935  1.0000
  H   H771      1.0  0.90529  0.25968  0.46148  1.0000
  C   C446      1.0  0.68542  0.46427  0.42237  1.0000
  H   H772      1.0  0.89209  0.03248  0.48911  1.0000
  H   H773      1.0  0.91719  0.35585  0.48912  1.0000
  C   C447      1.0  0.00668  0.29680  0.49253  1.0000
  Fe  Fe67      1.0  0.87871  0.45488  0.86911  1.0000
  S   S126      1.0  0.90963  0.40560  0.85233  1.0000
  C   C448      1.0  0.01336  0.15755  0.62839  1.0000
  H   H774      1.0  0.97235  0.43030  0.69990  1.0000
  H   H775      1.0  0.97221  0.45991  0.82663  1.0000
  H   H776      1.0  0.68269  0.03804  0.55237  1.0000
  C   C449      1.0  0.89817  0.09690  0.59093  1.0000
  H   H777      1.0  0.90492  0.41036  0.60926  1.0000
  N   N35       1.0  0.85648  0.43926  0.59528  1.0000
  C   C450      1.0  0.92282  0.08326  0.97762  1.0000
  H   H778      1.0  0.88526  0.48781  0.58119  1.0000
  Fe  Fe68      1.0  0.96491  0.33094  0.66123  1.0000
  C   C451      1.0  0.97234  0.42335  0.50494  1.0000
  S   S127      1.0  0.91719  0.36438  0.67526  1.0000
  H   H779      1.0  0.90132  0.42496  0.56074  1.0000
  H   H780      1.0  0.78851  0.46964  0.59126  1.0000
  C   C452      1.0  0.98341  0.45688  0.69264  1.0000
  C   C453      1.0  0.80402  0.47408  0.56497  1.0000
  H   H781      1.0  0.98082  0.41746  0.76258  1.0000
  C   C454      1.0  0.87664  0.06292  0.58026  1.0000
  H   H782      1.0  0.94738  0.06416  0.49735  1.0000
  S   S128      1.0  0.97430  0.31154  0.60135  1.0000
  H   H783      1.0  0.85298  0.49373  0.61683  1.0000
  H   H784      1.0  0.90853  0.50145  0.64813  1.0000
  C   C455      1.0  0.99760  0.39701  0.51258  1.0000
  S   S129      1.0  0.69985  0.04411  0.92851  1.0000
  C   C456      1.0  0.87332  0.47468  0.60655  1.0000
  N   N36       1.0  0.89233  0.03766  0.55131  1.0000
  S   S130      1.0  0.93409  0.48229  0.52296  1.0000
  H   H785      1.0  0.92316  0.11273  0.97940  1.0000
  H   H786      1.0  0.89368  0.45863  0.66427  1.0000
  C   C457      1.0  0.80526  0.39888  0.62034  1.0000
  C   C458      1.0  0.98532  0.45020  0.56731  1.0000
  H   H787      1.0  0.81525  0.50156  0.56537  1.0000
  H   H788      1.0  0.81586  0.02824  0.54733  1.0000
  H   H789      1.0  0.98070  0.47098  0.58836  1.0000
  H   H790      1.0  0.84996  0.45510  0.53554  1.0000
  Fe  Fe69      1.0  0.81263  0.50106  0.87818  1.0000
  H   H791      1.0  0.75297  0.45722  0.92772  1.0000
  C   C459      1.0  0.01425  0.36287  0.94496  1.0000
  C   C460      1.0  0.99182  0.14506  0.56358  1.0000
  H   H792      1.0  0.94894  0.33774  0.52229  1.0000
  H   H793      1.0  0.94875  0.04864  0.56165  1.0000
  C   C461      1.0  0.91116  0.39432  0.80306  1.0000
  C   C462      1.0  0.93252  0.36581  0.79143  1.0000
  C   C463      1.0  0.93491  0.35683  0.75221  1.0000
  C   C464      1.0  0.91512  0.37566  0.72450  1.0000
  C   C465      1.0  0.89347  0.40389  0.73619  1.0000
  C   C466      1.0  0.89179  0.41345  0.77530  1.0000
  H   H794      1.0  0.94732  0.35066  0.81278  1.0000
  H   H795      1.0  0.95160  0.33493  0.74351  1.0000
  H   H796      1.0  0.87785  0.41841  0.71513  1.0000
  H   H797      1.0  0.87500  0.43519  0.78399  1.0000
  H   H798      1.0  0.95132  0.26720  0.52637  1.0000
  H   H799      1.0  0.94387  0.07532  0.95740  1.0000
  S   S131      1.0  0.85246  0.49549  0.83033  1.0000
  H   H800      1.0  0.97966  0.15411  0.53685  1.0000
  C   C467      1.0  0.96623  0.44995  0.53227  1.0000
  C   C468      1.0  0.72610  0.46640  0.92275  1.0000
  H   H801      1.0  0.90972  0.31234  0.50817  1.0000
  H   H802      1.0  0.99133  0.35148  0.96072  1.0000
  H   H803      1.0  0.71683  0.05926  0.52581  1.0000
  H   H804      1.0  0.80466  0.37854  0.64359  1.0000
  H   H805      1.0  0.97381  0.48087  0.96083  1.0000
  H   H806      1.0  0.82413  0.44797  0.64523  1.0000
  H   H807      1.0  0.89880  0.36079  0.56545  1.0000
  H   H808      1.0  0.70271  0.35372  0.98175  1.0000
  S   S132      1.0  0.01325  0.02119  0.49988  1.0000
  C   C469      1.0  0.93061  0.33081  0.49802  1.0000
  H   H809      1.0  0.72685  0.43964  0.52162  1.0000
  C   C470      1.0  0.92246  0.07924  0.50127  1.0000
  H   H810      1.0  0.99044  0.32060  0.88624  1.0000
  H   H811      1.0  0.92730  0.46239  0.62785  1.0000
  H   H812      1.0  0.96319  0.47789  0.69682  1.0000
  H   H813      1.0  0.85645  0.37502  0.54768  1.0000
  C   C471      1.0  0.98922  0.48593  0.77315  1.0000
  C   C472      1.0  0.01018  0.42332  0.57525  1.0000
  H   H814      1.0  0.92698  0.10082  0.52260  1.0000
  C   C473      1.0  0.83340  0.44597  0.55994  1.0000
  H   H815      1.0  0.85033  0.07259  0.56971  1.0000
  H   H816      1.0  0.78532  0.47276  0.53982  1.0000
  S   S133      1.0  0.75346  0.51060  0.86645  1.0000
  H   H817      1.0  0.70370  0.43101  0.96471  1.0000
  C   C474      1.0  0.99408  0.50131  0.96911  1.0000
  H   H818      1.0  0.89193  0.10512  0.62084  1.0000
  H   H819      1.0  0.89121  0.11931  0.57134  1.0000
  C   C475      1.0  0.87462  0.37574  0.57322  1.0000
  H   H820      1.0  0.82041  0.42135  0.54871  1.0000
  H   H821      1.0  0.99697  0.09051  0.54394  1.0000
  C   C476      1.0  0.99762  0.16952  0.59398  1.0000
  H   H822      1.0  0.77931  0.41273  0.62143  1.0000
  H   H823      1.0  0.80696  0.38392  0.59297  1.0000
  C   C477      1.0  0.83614  0.42534  0.62919  1.0000
  H   H824      1.0  0.85458  0.41217  0.65019  1.0000
  C   C478      1.0  0.71923  0.49246  0.89484  1.0000
  C   C479      1.0  0.88578  0.41392  0.58481  1.0000
  S   S134      1.0  0.98395  0.21437  0.58770  1.0000
  S   S135      1.0  0.83659  0.45707  0.91436  1.0000
  H   H825      1.0  0.87018  0.04899  0.60757  1.0000
  H   H826      1.0  0.86327  0.36115  0.59788  1.0000
  C   C480      1.0  0.99760  0.39261  0.91972  1.0000
  C   C481      1.0  0.90225  0.47368  0.63866  1.0000
  H   H827      1.0  0.99664  0.50945  0.90696  1.0000
  Fe  Fe70      1.0  0.99750  0.26167  0.62739  1.0000
  C   C482      1.0  0.00154  0.10896  0.56754  1.0000
  H   H828      1.0  0.96283  0.47890  0.76021  1.0000
  S   S136      1.0  0.98251  0.27902  0.68749  1.0000
  S   S137      1.0  0.91378  0.49484  0.89942  1.0000
  H   H829      1.0  0.98884  0.45633  0.66131  1.0000
  C   C483      1.0  0.69803  0.45149  0.94361  1.0000
  H   H830      1.0  0.90220  0.23523  0.50485  1.0000
  C   C484      1.0  0.69058  0.04577  0.52297  1.0000
  H   H831      1.0  0.99993  0.30878  0.52075  1.0000
  H   H832      1.0  0.97276  0.23305  0.50185  1.0000
  H   H833      1.0  0.92722  0.09316  0.59160  1.0000
  C   C485      1.0  0.00960  0.42298  0.76746  1.0000
  Fe  Fe71      1.0  0.86989  0.50105  0.94092  1.0000
  C   C486      1.0  0.71553  0.44696  0.49389  1.0000
  C   C487      1.0  0.68406  0.50392  0.88861  1.0000
  H   H834      1.0  0.99536  0.39852  0.82218  1.0000
  H   H835      1.0  0.00712  0.49335  0.83407  1.0000
  H   H836      1.0  0.86656  0.06872  0.50603  1.0000
  H   H837      1.0  0.89729  0.07439  0.96416  1.0000
  H   H838      1.0  0.92501  0.02776  0.62597  1.0000
  C   C488      1.0  0.95544  0.25661  0.49673  1.0000
  C   C489      1.0  0.89172  0.05388  0.51146  1.0000
  H   H839      1.0  0.69449  0.02134  0.50560  1.0000
  H   H840      1.0  0.98734  0.41401  0.93871  1.0000
  C   C490      1.0  0.92949  0.02627  0.56251  1.0000
  H   H841      1.0  0.97445  0.38222  0.90263  1.0000
  H   H842      1.0  0.68481  0.34009  0.54015  1.0000
  C   C491      1.0  0.98319  0.48582  0.81693  1.0000
  H   H843      1.0  0.96276  0.50613  0.82354  1.0000
  H   H844      1.0  0.99473  0.51409  0.76459  1.0000
  H   H845      1.0  0.00205  0.29047  0.94615  1.0000
  H   H846      1.0  0.68783  0.51501  0.98791  1.0000
  H   H847      1.0  0.00200  0.37654  0.49138  1.0000
  C   C492      1.0  0.73405  0.56886  0.99449  1.0000
  S   S138      1.0  0.97221  0.64485  0.14063  1.0000
  C   C493      1.0  0.95850  0.71053  0.01241  1.0000
  C   C494      1.0  0.70174  0.58458  0.01520  1.0000
  H   H848      1.0  0.70151  0.53003  0.06574  1.0000
  C   C495      1.0  0.94536  0.73365  0.09357  1.0000
  S   S139      1.0  0.95967  0.55142  0.19770  1.0000
  C   C496      1.0  0.90380  0.95676  0.46008  1.0000
  H   H849      1.0  0.97509  0.80563  0.16655  1.0000
  C   C497      1.0  0.00288  0.53729  0.43131  1.0000
  H   H850      1.0  0.95397  0.56638  0.42717  1.0000
  C   C498      1.0  0.91132  0.54284  0.01358  1.0000
  H   H851      1.0  0.93446  0.00573  0.11063  1.0000
  S   S140      1.0  0.99509  0.95586  0.08292  1.0000
  H   H852      1.0  0.91062  0.83608  0.44606  1.0000
  S   S141      1.0  0.01143  0.00973  0.01001  1.0000
  Fe  Fe72      1.0  0.75434  0.97501  0.38852  1.0000
  H   H853      1.0  0.70130  0.94008  0.25333  1.0000
  H   H854      1.0  0.00080  0.81596  0.03533  1.0000
  H   H855      1.0  0.00706  0.70053  0.06661  1.0000
  H   H856      1.0  0.93357  0.75032  0.11652  1.0000
  H   H857      1.0  0.96622  0.71737  0.10776  1.0000
  H   H858      1.0  0.72882  0.97844  0.24668  1.0000
  S   S142      1.0  0.73824  0.92135  0.41156  1.0000
  S   S143      1.0  0.71729  0.97200  0.33624  1.0000
  H   H859      1.0  0.88399  0.01776  0.39027  1.0000
  C   C499      1.0  0.84611  0.98091  0.41381  1.0000
  C   C500      1.0  0.84122  0.95328  0.44020  1.0000
  C   C501      1.0  0.93754  0.83609  0.45980  1.0000
  H   H860      1.0  0.81530  0.94109  0.44280  1.0000
  H   H861      1.0  0.94266  0.86437  0.46729  1.0000
  H   H862      1.0  0.91426  0.53356  0.07469  1.0000
  H   H863      1.0  0.94337  0.78373  0.48279  1.0000
  H   H864      1.0  0.99744  0.53587  0.30831  1.0000
  Fe  Fe73      1.0  0.69696  0.95195  0.44353  1.0000
  S   S144      1.0  0.89581  0.55219  0.36496  1.0000
  H   H865      1.0  0.90469  0.73340  0.01818  1.0000
  C   C502      1.0  0.94306  0.55185  0.24469  1.0000
  C   C503      1.0  0.94441  0.58281  0.26736  1.0000
  C   C504      1.0  0.93006  0.58258  0.30442  1.0000
  C   C505      1.0  0.91489  0.55129  0.31915  1.0000
  H   H866      1.0  0.95419  0.68833  0.03311  1.0000
  S   S145      1.0  0.00396  0.73562  0.18107  1.0000
  H   H867      1.0  0.95562  0.60715  0.25597  1.0000
  H   H868      1.0  0.90531  0.58485  0.45345  1.0000
  H   H869      1.0  0.71799  0.94939  0.20643  1.0000
  H   H870      1.0  0.70025  0.61320  0.00667  1.0000
  S   S146      1.0  0.99876  0.62553  0.03611  1.0000
  H   H871      1.0  0.95683  0.82727  0.43801  1.0000
  C   C506      1.0  0.96958  0.55272  0.45020  1.0000
  H   H872      1.0  0.70828  0.58544  0.04662  1.0000
  H   H873      1.0  0.93475  0.99654  0.43110  1.0000
  H   H874      1.0  0.99610  0.61161  0.41059  1.0000
  C   C507      1.0  0.96070  0.75832  0.06250  1.0000
  S   S147      1.0  0.91721  0.95563  0.01545  1.0000
  C   C508      1.0  0.01149  0.83322  0.12940  1.0000
  C   C509      1.0  0.98934  0.76733  0.00067  1.0000
  C   C510      1.0  0.96318  0.59571  0.02804  1.0000
  C   C511      1.0  0.95025  0.57529  0.05835  1.0000
  C   C512      1.0  0.92405  0.54924  0.05116  1.0000
  Fe  Fe74      1.0  0.97754  0.96110  0.02054  1.0000
  H   H875      1.0  0.96064  0.57915  0.08734  1.0000
  C   C513      1.0  0.90880  0.98444  0.43377  1.0000
  C   C514      1.0  0.70754  0.96187  0.23284  1.0000
  C   C515      1.0  0.91168  0.59990  0.48033  1.0000
  S   S148      1.0  0.71564  0.00582  0.42399  1.0000
  H   H876      1.0  0.70389  0.97907  0.14475  1.0000
  H   H877      1.0  0.99692  0.65464  0.43261  1.0000
  C   C516      1.0  0.01376  0.72361  0.04797  1.0000
  C   C517      1.0  0.88000  0.99645  0.41074  1.0000
  S   S149      1.0  0.81062  0.99685  0.38444  1.0000
  H   H878      1.0  0.74135  0.54218  0.00598  1.0000
  H   H879      1.0  0.86587  0.91972  0.48330  1.0000
  H   H880      1.0  0.95267  0.52967  0.45854  1.0000
  H   H881      1.0  0.75744  0.58658  0.99965  1.0000
  H   H882      1.0  0.93019  0.60685  0.32147  1.0000
  H   H883      1.0  0.92404  0.71589  0.08195  1.0000
  C   C518      1.0  0.99453  0.61138  0.47419  1.0000
  N   N37       1.0  0.98055  0.73998  0.03083  1.0000
  H   H884      1.0  0.84184  0.95024  0.01647  1.0000
  H   H885      1.0  0.91699  0.62843  0.47423  1.0000
  H   H886      1.0  0.97833  0.77760  0.07819  1.0000
  H   H887      1.0  0.93857  0.77474  0.05052  1.0000
  C   C519      1.0  0.86997  0.94119  0.46307  1.0000
  C   C520      1.0  0.92180  0.72152  0.99600  1.0000
  H   H888      1.0  0.73203  0.01374  0.19164  1.0000
  H   H889      1.0  0.99604  0.85749  0.12815  1.0000
  H   H890      1.0  0.95609  0.63043  0.42908  1.0000
  Fe  Fe75      1.0  0.99120  0.59933  0.17758  1.0000
  Fe  Fe76      1.0  0.69789  0.92091  0.36245  1.0000
  H   H891      1.0  0.69132  0.91320  0.03362  1.0000
  N   N38       1.0  0.97659  0.57659  0.48464  1.0000
  C   C521      1.0  0.98491  0.62754  0.43440  1.0000
  C   C522      1.0  0.99974  0.80383  0.15126  1.0000
  H   H892      1.0  0.00493  0.85425  0.46919  1.0000
  C   C523      1.0  0.92837  0.52043  0.25966  1.0000
  H   H893      1.0  0.99533  0.52624  0.40251  1.0000
  S   S150      1.0  0.68254  0.87097  0.32915  1.0000
  C   C524      1.0  0.01395  0.79828  0.01430  1.0000
  C   C525      1.0  0.91469  0.52001  0.29699  1.0000
  C   C526      1.0  0.94869  0.59107  0.99080  1.0000
  Fe  Fe77      1.0  0.01338  0.62776  0.09925  1.0000
  H   H894      1.0  0.00350  0.78987  0.49731  1.0000
  H   H895      1.0  0.82448  0.93555  0.86543  1.0000
  S   S151      1.0  0.92156  0.57962  0.84390  1.0000
  C   C527      1.0  0.84850  0.96352  0.98991  1.0000
  H   H896      1.0  0.80525  0.95852  0.80864  1.0000
  H   H897      1.0  0.93154  0.55790  0.51660  1.0000
  C   C528      1.0  0.82506  0.90593  0.86249  1.0000
  S   S152      1.0  0.84357  0.54519  0.90803  1.0000
  H   H898      1.0  0.93948  0.00663  0.54113  1.0000
  C   C529      1.0  0.76231  0.90164  0.88288  1.0000
  H   H899      1.0  0.75494  0.83700  0.79820  1.0000
  H   H900      1.0  0.79378  0.89677  0.79055  1.0000
  H   H901      1.0  0.75814  0.80395  0.83509  1.0000
  C   C530      1.0  0.00201  0.52500  0.93390  1.0000
  C   C531      1.0  0.93387  0.00953  0.60288  1.0000
  C   C532      1.0  0.82110  0.97482  0.96462  1.0000
  Fe  Fe78      1.0  0.73611  0.00002  0.90868  1.0000
  S   S153      1.0  0.01272  0.65941  0.60783  1.0000
  H   H902      1.0  0.99748  0.62224  0.74150  1.0000
  C   C533      1.0  0.79095  0.85131  0.84685  1.0000
  H   H903      1.0  0.78250  0.86834  0.93177  1.0000
  S   S154      1.0  0.71818  0.96032  0.95233  1.0000
  H   H904      1.0  0.68697  0.91466  0.82573  1.0000
  C   C534      1.0  0.94202  0.58332  0.50461  1.0000
  H   H905      1.0  0.86595  0.99316  0.57925  1.0000
  H   H906      1.0  0.91999  0.99183  0.94016  1.0000
  H   H907      1.0  0.98065  0.54535  0.93330  1.0000
  H   H908      1.0  0.74017  0.88791  0.93850  1.0000
  H   H909      1.0  0.84429  0.86350  0.90224  1.0000
  H   H910      1.0  0.79788  0.83740  0.87414  1.0000
  H   H911      1.0  0.88282  0.98272  0.53331  1.0000
  C   C535      1.0  0.93739  0.57868  0.79656  1.0000
  C   C536      1.0  0.92383  0.55470  0.76886  1.0000
  C   C537      1.0  0.93653  0.55550  0.73102  1.0000
  C   C538      1.0  0.96298  0.58007  0.72088  1.0000
  C   C539      1.0  0.97703  0.60340  0.74887  1.0000
  C   C540      1.0  0.96415  0.60282  0.78651  1.0000
  H   H912      1.0  0.90313  0.53604  0.77638  1.0000
  H   H913      1.0  0.92551  0.53740  0.70951  1.0000
  H   H914      1.0  0.96248  0.00446  0.60877  1.0000
  H   H915      1.0  0.97469  0.62145  0.80781  1.0000
  H   H916      1.0  0.99143  0.52854  0.51606  1.0000
  H   H917      1.0  0.82889  0.90417  0.92571  1.0000
  H   H918      1.0  0.98789  0.58702  0.89025  1.0000
  H   H919      1.0  0.87012  0.90353  0.90230  1.0000
  H   H920      1.0  0.81298  0.84467  0.82715  1.0000
  C   C541      1.0  0.75739  0.87543  0.91678  1.0000
  H   H921      1.0  0.91064  0.84975  0.57892  1.0000
  H   H922      1.0  0.84373  0.90015  0.83880  1.0000
  C   C542      1.0  0.89254  0.98697  0.94709  1.0000
  H   H923      1.0  0.76583  0.96081  0.83718  1.0000
  S   S155      1.0  0.00997  0.95537  0.56294  1.0000
  H   H924      1.0  0.76231  0.95689  0.78589  1.0000
  N   N39       1.0  0.78859  0.89121  0.85253  1.0000
  H   H925      1.0  0.74936  0.89891  0.80651  1.0000
  S   S156      1.0  0.69715  0.98107  0.86216  1.0000
  Fe  Fe79      1.0  0.99378  0.96420  0.50082  1.0000
  H   H926      1.0  0.01004  0.60174  0.55214  1.0000
  H   H927      1.0  0.74346  0.85062  0.90741  1.0000
  H   H928      1.0  0.92406  0.73996  0.97125  1.0000
  H   H929      1.0  0.91282  0.56018  0.95446  1.0000
  H   H930      1.0  0.95784  0.60744  0.96735  1.0000
  C   C543      1.0  0.75701  0.83320  0.82992  1.0000
  C   C544      1.0  0.77780  0.94819  0.81178  1.0000
  H   H931      1.0  0.76938  0.92821  0.89555  1.0000
  H   H932      1.0  0.72967  0.56695  0.96283  1.0000
  S   S157      1.0  0.97801  0.58105  0.67314  1.0000
  S   S158      1.0  0.93844  0.94116  0.49075  1.0000
  C   C545      1.0  0.84251  0.89296  0.90039  1.0000
  C   C546      1.0  0.83190  0.00826  0.53191  1.0000
  H   H933      1.0  0.95190  0.74254  0.52791  1.0000
  H   H934      1.0  0.79375  0.97021  0.97190  1.0000
  H   H935      1.0  0.73242  0.84342  0.84293  1.0000
  C   C547      1.0  0.77707  0.90706  0.81426  1.0000
  H   H936      1.0  0.73530  0.90528  0.87002  1.0000
  C   C548      1.0  0.00494  0.57266  0.55320  1.0000
  C   C549      1.0  0.92303  0.56441  0.98349  1.0000
  C   C550      1.0  0.82917  0.99211  0.93024  1.0000
  H   H937      1.0  0.00135  0.75441  0.97513  1.0000
  C   C551      1.0  0.00115  0.81398  0.51599  1.0000
  H   H938      1.0  0.98119  0.56727  0.57074  1.0000
  H   H939      1.0  0.97600  0.86136  0.56878  1.0000
  H   H940      1.0  0.96970  0.80232  0.58728  1.0000
  S   S159      1.0  0.79534  0.00612  0.89723  1.0000
  C   C552      1.0  0.86957  0.00424  0.54988  1.0000
  H   H941      1.0  0.94602  0.60157  0.52976  1.0000
  H   H942      1.0  0.92686  0.79369  0.56716  1.0000
  N   N40       1.0  0.96313  0.81934  0.52770  1.0000
  H   H943      1.0  0.00844  0.83314  0.64447  1.0000
  C   C553      1.0  0.86504  0.99803  0.92157  1.0000
  H   H944      1.0  0.92014  0.98335  0.60476  1.0000
  H   H945      1.0  0.91996  0.89454  0.56488  1.0000
  Fe  Fe80      1.0  0.88524  0.53562  0.86388  1.0000
  H   H946      1.0  0.90121  0.86468  0.52988  1.0000
  H   H947      1.0  0.90994  0.80810  0.50467  1.0000
  C   C554      1.0  0.96567  0.75429  0.55352  1.0000
  H   H948      1.0  0.99478  0.75075  0.55133  1.0000
  C   C555      1.0  0.92012  0.86631  0.55480  1.0000
  C   C556      1.0  0.95555  0.79378  0.56023  1.0000
  H   H949      1.0  0.81773  0.98222  0.53389  1.0000
  C   C557      1.0  0.95817  0.85667  0.54321  1.0000
  C   C558      1.0  0.88432  0.96961  0.98144  1.0000
  C   C559      1.0  0.00070  0.55654  0.51242  1.0000
  H   H950      1.0  0.95760  0.73841  0.57893  1.0000
  H   H951      1.0  0.96479  0.78033  0.98938  1.0000
  H   H952      1.0  0.96620  0.87732  0.52241  1.0000
  H   H953      1.0  0.68344  0.89107  0.75910  1.0000
  H   H954      1.0  0.87160  0.01136  0.89502  1.0000
  H   H955      1.0  0.97270  0.69806  0.98808  1.0000
  S   S160      1.0  0.68446  0.94575  0.50645  1.0000
  H   H956      1.0  0.83251  0.01482  0.50074  1.0000
  C   C560      1.0  0.93774  0.81068  0.49472  1.0000
  H   H957      1.0  0.90786  0.69717  0.98499  1.0000
  H   H958      1.0  0.68753  0.54315  0.67851  1.0000
  H   H959      1.0  0.88714  0.59932  0.49750  1.0000
  H   H960      1.0  0.98965  0.63223  0.49642  1.0000
