data_image0
_chemical_formula_structural       CHSFeS2FeS2FeSFeS3H4SHC6H4C6H4C2H3C6H4NHC7SCHCH4CHCH12NHC2H2SC3H2CSH5FeC2H6CH3C3HCH6CH4NH4CH4CH3CHCHSHCH2CH2C2FeH3NC2HFeS2FeS2FeSFeS3HSHFeSCH2SC6H4C6H4C6H4CHCH4CH3CFeHCHCH3C2HC3NH3C3H10CHCH2CH4CHCH3CH3SC2HCHC2H4C2NHCH3CHCH2CH2NH5C2H3CH2C3H4SH10NHCHC2H2CH5CH2CHC3H2SFeS2H2C2HSC2HC4H2C2H2FeCH2C2H4SHCSFe2H2CHCHSHC2SHNC2HC2HC2HCH2C3H6CH2CH3CH6NC2H5C2H2CH9CH2CH4C2H2CHC3HCH5CHC3HSHFeS2FeCFeHS2HSHCSHFeSH4FeH4CH4CH2C6H16NC10HCH21C3HCHFeCSHCH2CH2CHC3HCH3CH2CHCHNH2C2H2SHCHCH2CH3CH3CH3FeC2HC2HCH3CHCFeSH8C5H3S2HC2H6CHCH2CHNH4CHFe2H2SH2SH3CHC3H7CH2SCHCSHC3HFeHSH2C3NSC2HCH7CHC2H4CHCH2C2HCNHSH2SCSCHSFe2S2C6H2SH7FeC5H6NHSH2NC11H26CH4CHCFeH2CSHC3H2C2HCH3C2H2CH3C3H5C2H2FeS2FeNFeSH2S2CSH2SCHFeS2FeH4CH3C6H4CH3CH2C2H2CH2CHFeH3C2HC3HSH2C3HC3H6CSH2CHCH6C2H5CHNH3CH2CH4CH7C2HC3H3SFeCHCHCFeS2FeS2H4C3H3CHC3H2CH2CH7C2S2H3C2H5CHNHC2HCH6CHCHC3HC2H3CH8CHCH2FeCHS2FeS2FeS2FeSFeS3FeS2HSHC6H4C6H9C6H4C2H2CHC2SCH2SCHCFeHNH4CH8C2H2CH4CH5CH2C3H4C2H4NCH3CH4C4H3CHCH2C2HC2HCH2CH2CH5CH5NHCNCH5C2H2CHCH6FeH5CH3FeCH4CH3CH2C3HSHCHCH8FeS2FeS2FeSFeS3HS2CSH2SC7HCH2C6H4C6H4C3H4C2H4CH6NC5H9CH2NCH3C2H3FeH5C2HC2HCH5CHCHCH4FeCFeCH3CHCH3CH3NHCHCH2C2H2CH4NH2CH4CHC2H3CSHCH4SHCHCH5CH4CH4CHCHC2SH4
_chemical_formula_sum              "C504 H896 S112 Fe56 N28"
_cell_length_a       35.5038
_cell_length_b       35.5432
_cell_length_c       49.8634
_cell_angle_alpha    89.9063
_cell_angle_beta     89.982
_cell_angle_gamma    89.96

_space_group_name_H-M_alt    "P 1"
_space_group_IT_number       1

loop_
  _space_group_symop_operation_xyz
  'x, y, z'

loop_
  _atom_site_type_symbol
  _atom_site_label
  _atom_site_symmetry_multiplicity
  _atom_site_fract_x
  _atom_site_fract_y
  _atom_site_fract_z
  _atom_site_occupancy
  C   C1        1.0  0.48819  0.12020  0.19446  1.0000
  H   H1        1.0  0.09843  0.47141  0.19496  1.0000
  S   S1        1.0  0.42063  0.04284  0.16220  1.0000
  Fe  Fe1       1.0  0.25630  0.19731  0.13697  1.0000
  S   S2        1.0  0.23327  0.16388  0.10243  1.0000
  S   S3        1.0  0.31167  0.18668  0.15994  1.0000
  Fe  Fe2       1.0  0.18068  0.24235  0.14430  1.0000
  S   S4        1.0  0.15235  0.20995  0.11104  1.0000
  S   S5        1.0  0.15278  0.28132  0.17573  1.0000
  Fe  Fe3       1.0  0.18109  0.15858  0.12774  1.0000
  S   S6        1.0  0.16053  0.09956  0.13612  1.0000
  Fe  Fe4       1.0  0.20681  0.21792  0.08788  1.0000
  S   S7        1.0  0.20254  0.24060  0.04462  1.0000
  S   S8        1.0  0.20503  0.18966  0.16262  1.0000
  S   S9        1.0  0.23411  0.25282  0.12079  1.0000
  H   H2        1.0  0.05868  0.27145  0.13625  1.0000
  H   H3        1.0  0.31311  0.05070  0.09745  1.0000
  H   H4        1.0  0.39503  0.22421  0.17434  1.0000
  H   H5        1.0  0.31206  0.25766  0.04103  1.0000
  S   S10       1.0  0.04263  0.42467  0.17266  1.0000
  H   H6        1.0  0.13786  0.43140  0.17388  1.0000
  C   C2        1.0  0.12099  0.32029  0.17422  1.0000
  C   C3        1.0  0.10910  0.33620  0.14999  1.0000
  C   C4        1.0  0.08474  0.36768  0.14997  1.0000
  C   C5        1.0  0.07142  0.38347  0.17409  1.0000
  C   C6        1.0  0.08283  0.36720  0.19834  1.0000
  C   C7        1.0  0.10766  0.33605  0.19837  1.0000
  H   H7        1.0  0.11912  0.32463  0.13123  1.0000
  H   H8        1.0  0.07631  0.38007  0.13106  1.0000
  H   H9        1.0  0.07315  0.37913  0.21706  1.0000
  H   H10       1.0  0.11696  0.32432  0.21726  1.0000
  C   C8        1.0  0.11671  0.09495  0.15219  1.0000
  C   C9        1.0  0.08937  0.12303  0.14989  1.0000
  C   C10       1.0  0.05417  0.11842  0.16232  1.0000
  C   C11       1.0  0.04652  0.08627  0.17772  1.0000
  C   C12       1.0  0.07383  0.05805  0.17993  1.0000
  C   C13       1.0  0.10877  0.06229  0.16699  1.0000
  H   H11       1.0  0.09504  0.14776  0.13788  1.0000
  H   H12       1.0  0.03268  0.13960  0.15971  1.0000
  H   H13       1.0  0.06799  0.03301  0.19157  1.0000
  H   H14       1.0  0.12973  0.04031  0.16858  1.0000
  C   C14       1.0  0.09998  0.45649  0.28278  1.0000
  C   C15       1.0  0.20892  0.22034  0.01210  1.0000
  H   H15       1.0  0.03386  0.29326  0.19999  1.0000
  H   H16       1.0  0.23956  0.17147  0.02518  1.0000
  H   H17       1.0  0.19203  0.47891  0.18423  1.0000
  C   C16       1.0  0.38919  0.08198  0.16254  1.0000
  C   C17       1.0  0.37393  0.09468  0.13809  1.0000
  C   C18       1.0  0.34920  0.12576  0.13714  1.0000
  C   C19       1.0  0.33976  0.14507  0.16062  1.0000
  C   C20       1.0  0.35544  0.13268  0.18508  1.0000
  C   C21       1.0  0.37927  0.10081  0.18613  1.0000
  H   H18       1.0  0.38147  0.08048  0.11967  1.0000
  H   H19       1.0  0.33822  0.13544  0.11809  1.0000
  H   H20       1.0  0.34881  0.14767  0.20335  1.0000
  H   H21       1.0  0.39018  0.09095  0.20511  1.0000
  N   N1        1.0  0.05290  0.21284  0.20905  1.0000
  H   H22       1.0  0.40433  0.26464  0.19502  1.0000
  C   C22       1.0  0.06139  0.22138  0.17987  1.0000
  C   C23       1.0  0.08271  0.18574  0.21904  1.0000
  C   C24       1.0  0.43691  0.21511  0.20574  1.0000
  C   C25       1.0  0.45711  0.14565  0.23478  1.0000
  C   C26       1.0  0.12431  0.19814  0.21514  1.0000
  C   C27       1.0  0.02792  0.23134  0.16115  1.0000
  C   C28       1.0  0.04200  0.24522  0.13390  1.0000
  S   S11       1.0  0.01909  0.00118  0.24897  1.0000
  C   C29       1.0  0.15138  0.16715  0.22412  1.0000
  H   H23       1.0  0.46395  0.08916  0.29203  1.0000
  C   C30       1.0  0.05497  0.24812  0.22571  1.0000
  H   H24       1.0  0.08226  0.24461  0.17840  1.0000
  H   H25       1.0  0.07529  0.19692  0.17008  1.0000
  H   H26       1.0  0.07949  0.15790  0.20898  1.0000
  H   H27       1.0  0.07946  0.18013  0.24081  1.0000
  C   C31       1.0  0.19532  0.23986  0.98944  1.0000
  H   H28       1.0  0.08292  0.26180  0.22329  1.0000
  C   C32       1.0  0.41754  0.24013  0.18491  1.0000
  H   H29       1.0  0.05301  0.24113  0.24744  1.0000
  H   H30       1.0  0.13074  0.22356  0.22718  1.0000
  H   H31       1.0  0.13070  0.20432  0.19383  1.0000
  H   H32       1.0  0.32778  0.03127  0.14190  1.0000
  H   H33       1.0  0.41484  0.20673  0.22037  1.0000
  H   H34       1.0  0.48117  0.13485  0.15198  1.0000
  H   H35       1.0  0.01050  0.20587  0.15752  1.0000
  H   H36       1.0  0.42991  0.13247  0.22889  1.0000
  H   H37       1.0  0.02306  0.17728  0.25500  1.0000
  H   H38       1.0  0.14591  0.15895  0.24526  1.0000
  H   H39       1.0  0.14848  0.14206  0.21097  1.0000
  H   H40       1.0  0.18075  0.17765  0.22264  1.0000
  N   N2        1.0  0.26788  0.03887  0.14688  1.0000
  H   H41       1.0  0.31519  0.30338  0.02538  1.0000
  C   C33       1.0  0.26575  0.06634  0.12359  1.0000
  C   C34       1.0  0.27264  0.06114  0.17245  1.0000
  H   H42       1.0  0.08495  0.43124  0.27521  1.0000
  H   H43       1.0  0.43091  0.16288  0.18410  1.0000
  S   S12       1.0  0.00929  0.45026  0.24833  1.0000
  C   C35       1.0  0.24264  0.09201  0.17795  1.0000
  C   C36       1.0  0.28194  0.05315  0.09618  1.0000
  C   C37       1.0  0.27323  0.08129  0.07383  1.0000
  H   H44       1.0  0.24232  0.08538  0.07175  1.0000
  H   H45       1.0  0.15984  0.44771  0.24982  1.0000
  C   C38       1.0  0.25166  0.11346  0.20369  1.0000
  S   S13       1.0  0.00306  0.08271  0.19455  1.0000
  H   H46       1.0  0.05321  0.32014  0.24507  1.0000
  H   H47       1.0  0.23615  0.07574  0.12035  1.0000
  H   H48       1.0  0.28144  0.09260  0.12826  1.0000
  H   H49       1.0  0.30080  0.07493  0.17266  1.0000
  H   H50       1.0  0.27188  0.04229  0.19025  1.0000
  Fe  Fe5       1.0  0.00823  0.45805  0.20376  1.0000
  C   C39       1.0  0.17831  0.46152  0.20005  1.0000
  C   C40       1.0  0.30238  0.27498  0.02379  1.0000
  H   H51       1.0  0.30321  0.22677  0.99800  1.0000
  H   H52       1.0  0.08083  0.47176  0.29665  1.0000
  H   H53       1.0  0.11864  0.43754  0.23142  1.0000
  H   H54       1.0  0.21431  0.07946  0.18068  1.0000
  H   H55       1.0  0.24124  0.11274  0.16135  1.0000
  H   H56       1.0  0.27127  0.27766  0.02504  1.0000
  C   C41       1.0  0.01536  0.19323  0.21204  1.0000
  H   H57       1.0  0.28686  0.10876  0.07808  1.0000
  H   H58       1.0  0.01636  0.16531  0.20197  1.0000
  H   H59       1.0  0.43820  0.25074  0.16998  1.0000
  C   C42       1.0  0.02577  0.27907  0.21901  1.0000
  C   C43       1.0  0.02454  0.30910  0.24092  1.0000
  C   C44       1.0  0.16246  0.42532  0.18686  1.0000
  H   H60       1.0  0.27058  0.02551  0.09005  1.0000
  C   C45       1.0  0.13607  0.46134  0.23896  1.0000
  H   H61       1.0  0.22920  0.13442  0.20760  1.0000
  H   H62       1.0  0.25326  0.09400  0.22109  1.0000
  H   H63       1.0  0.27869  0.12881  0.20164  1.0000
  H   H64       1.0  0.21707  0.00650  0.10724  1.0000
  H   H65       1.0  0.11641  0.00334  0.27662  1.0000
  H   H66       1.0  0.01767  0.25129  0.12059  1.0000
  C   C46       1.0  0.19220  0.40604  0.16948  1.0000
  H   H67       1.0  0.21719  0.39820  0.18167  1.0000
  H   H68       1.0  0.18000  0.26588  0.99225  1.0000
  H   H69       1.0  0.15380  0.40486  0.20249  1.0000
  H   H70       1.0  0.20730  0.03598  0.15058  1.0000
  N   N3        1.0  0.15036  0.48465  0.21577  1.0000
  H   H71       1.0  0.42469  0.09278  0.26931  1.0000
  H   H72       1.0  0.48685  0.09366  0.24593  1.0000
  H   H73       1.0  0.00666  0.33304  0.23432  1.0000
  H   H74       1.0  0.18025  0.37991  0.16073  1.0000
  C   C47       1.0  0.22873  0.18676  0.00807  1.0000
  H   H75       1.0  0.28438  0.07061  0.05447  1.0000
  H   H76       1.0  0.44979  0.17133  0.24635  1.0000
  H   H77       1.0  0.12531  0.44746  0.29416  1.0000
  H   H78       1.0  0.46224  0.10290  0.19214  1.0000
  C   C48       1.0  0.44922  0.10815  0.27772  1.0000
  H   H79       1.0  0.20101  0.42476  0.15276  1.0000
  H   H80       1.0  0.08479  0.49251  0.24995  1.0000
  H   H81       1.0  0.05988  0.22348  0.12416  1.0000
  C   C49       1.0  0.45457  0.17987  0.19240  1.0000
  H   H82       1.0  0.20171  0.45208  0.21328  1.0000
  C   C50       1.0  0.47648  0.11967  0.25545  1.0000
  H   H83       1.0  0.14154  0.49408  0.15800  1.0000
  S   S14       1.0  0.45284  0.02048  0.23918  1.0000
  H   H84       1.0  0.23121  0.00028  0.16820  1.0000
  C   C51       1.0  0.31390  0.25617  0.99749  1.0000
  H   H85       1.0  0.00957  0.25343  0.16969  1.0000
  H   H86       1.0  0.47059  0.19025  0.17469  1.0000
  C   C52       1.0  0.30198  0.01368  0.14407  1.0000
  H   H87       1.0  0.45869  0.23200  0.21620  1.0000
  H   H88       1.0  0.01256  0.29730  0.25972  1.0000
  C   C53       1.0  0.23183  0.01665  0.14918  1.0000
  C   C54       1.0  0.11106  0.48240  0.25960  1.0000
  Fe  Fe6       1.0  0.45451  0.01170  0.19472  1.0000
  H   H89       1.0  0.31735  0.00115  0.18595  1.0000
  H   H90       1.0  0.34499  0.25488  0.99694  1.0000
  H   H91       1.0  0.43913  0.13325  0.28886  1.0000
  N   N4        1.0  0.47950  0.15563  0.21001  1.0000
  C   C55       1.0  0.00095  0.18756  0.24119  1.0000
  C   C56       1.0  0.11709  0.49593  0.19871  1.0000
  H   H92       1.0  0.19174  0.49836  0.26407  1.0000
  Fe  Fe7       1.0  0.21890  0.19490  0.88345  1.0000
  S   S15       1.0  0.25610  0.23177  0.85746  1.0000
  S   S16       1.0  0.23367  0.17594  0.92639  1.0000
  Fe  Fe8       1.0  0.16476  0.18107  0.83697  1.0000
  S   S17       1.0  0.19821  0.21601  0.80821  1.0000
  S   S18       1.0  0.10897  0.16235  0.82036  1.0000
  Fe  Fe9       1.0  0.24928  0.18680  0.82562  1.0000
  S   S19       1.0  0.29391  0.16784  0.79469  1.0000
  Fe  Fe10      1.0  0.20170  0.25733  0.84178  1.0000
  S   S20       1.0  0.18678  0.31992  0.83704  1.0000
  S   S21       1.0  0.21480  0.14882  0.85213  1.0000
  S   S22       1.0  0.16570  0.22356  0.87014  1.0000
  H   H93       1.0  0.20869  0.38591  0.69786  1.0000
  S   S23       1.0  0.40892  0.02981  0.77666  1.0000
  H   H94       1.0  0.35397  0.15835  0.89867  1.0000
  Fe  Fe11      1.0  0.03345  0.43653  0.73922  1.0000
  S   S24       1.0  0.06869  0.38470  0.75129  1.0000
  C   C57       1.0  0.14172  0.47011  0.75654  1.0000
  H   H95       1.0  0.37469  0.30019  0.97559  1.0000
  H   H96       1.0  0.14152  0.40405  0.72454  1.0000
  S   S25       1.0  0.06201  0.02587  0.71710  1.0000
  C   C58       1.0  0.15523  0.33874  0.81254  1.0000
  C   C59       1.0  0.13695  0.37331  0.81737  1.0000
  C   C60       1.0  0.11094  0.38844  0.79873  1.0000
  C   C61       1.0  0.10330  0.36935  0.77482  1.0000
  C   C62       1.0  0.12272  0.33566  0.76953  1.0000
  C   C63       1.0  0.14839  0.32036  0.78825  1.0000
  H   H97       1.0  0.14241  0.38812  0.83590  1.0000
  H   H98       1.0  0.09638  0.41445  0.80311  1.0000
  H   H99       1.0  0.11736  0.32087  0.75099  1.0000
  H   H100      1.0  0.16269  0.29416  0.78397  1.0000
  C   C64       1.0  0.32683  0.12997  0.79068  1.0000
  C   C65       1.0  0.34891  0.12830  0.76719  1.0000
  C   C66       1.0  0.37435  0.09827  0.76258  1.0000
  C   C67       1.0  0.37799  0.06918  0.78139  1.0000
  C   C68       1.0  0.35581  0.07084  0.80484  1.0000
  C   C69       1.0  0.33065  0.10102  0.80954  1.0000
  H   H101      1.0  0.34635  0.15044  0.75240  1.0000
  H   H102      1.0  0.39107  0.09762  0.74445  1.0000
  H   H103      1.0  0.35842  0.04872  0.81965  1.0000
  H   H104      1.0  0.31436  0.10199  0.82781  1.0000
  C   C70       1.0  0.09305  0.03891  0.79818  1.0000
  C   C71       1.0  0.11840  0.04869  0.81857  1.0000
  C   C72       1.0  0.12360  0.08664  0.82558  1.0000
  C   C73       1.0  0.10328  0.11472  0.81228  1.0000
  C   C74       1.0  0.07740  0.10485  0.79232  1.0000
  C   C75       1.0  0.07239  0.06706  0.78522  1.0000
  H   H105      1.0  0.19866  0.07192  0.81648  1.0000
  H   H106      1.0  0.14288  0.09415  0.84149  1.0000
  H   H107      1.0  0.06134  0.12645  0.78216  1.0000
  H   H108      1.0  0.05217  0.05973  0.76992  1.0000
  C   C76       1.0  0.22178  0.19291  0.95912  1.0000
  H   H109      1.0  0.39053  0.25960  0.95671  1.0000
  C   C77       1.0  0.20139  0.22616  0.96317  1.0000
  H   H110      1.0  0.26618  0.27066  0.97423  1.0000
  H   H111      1.0  0.19071  0.24160  0.94608  1.0000
  H   H112      1.0  0.09765  0.20491  0.76348  1.0000
  H   H113      1.0  0.32089  0.04427  0.73220  1.0000
  C   C78       1.0  0.05659  0.24927  0.77085  1.0000
  H   H114      1.0  0.16513  0.08171  0.77610  1.0000
  H   H115      1.0  0.20009  0.42493  0.73683  1.0000
  H   H116      1.0  0.07836  0.25399  0.87106  1.0000
  C   C79       1.0  0.20500  0.01770  0.77622  1.0000
  Fe  Fe12      1.0  0.45480  0.00750  0.74767  1.0000
  H   H117      1.0  0.17630  0.45419  0.66528  1.0000
  C   C80       1.0  0.16795  0.47427  0.68117  1.0000
  H   H118      1.0  0.15222  0.02221  0.75346  1.0000
  C   C81       1.0  0.26361  0.40452  0.70890  1.0000
  H   H119      1.0  0.04722  0.27509  0.76021  1.0000
  H   H120      1.0  0.32145  0.15197  0.92603  1.0000
  H   H121      1.0  0.23861  0.06784  0.72228  1.0000
  C   C82       1.0  0.02723  0.22696  0.83395  1.0000
  C   C83       1.0  0.32236  0.22597  0.94446  1.0000
  H   H122      1.0  0.29904  0.05319  0.70013  1.0000
  C   C84       1.0  0.13231  0.40148  0.68128  1.0000
  C   C85       1.0  0.34575  0.16893  0.91880  1.0000
  C   C86       1.0  0.20323  0.44053  0.71762  1.0000
  N   N5        1.0  0.16556  0.45535  0.70827  1.0000
  H   H123      1.0  0.21512  0.34216  0.90591  1.0000
  H   H124      1.0  0.18679  0.07848  0.74437  1.0000
  H   H125      1.0  0.10553  0.33562  0.86512  1.0000
  C   C87       1.0  0.00201  0.16022  0.83243  1.0000
  C   C88       1.0  0.24977  0.05103  0.85338  1.0000
  C   C89       1.0  0.04942  0.29092  0.84189  1.0000
  H   H126      1.0  0.34515  0.21913  0.95881  1.0000
  H   H127      1.0  0.11521  0.25184  0.75745  1.0000
  H   H128      1.0  0.25114  0.14765  0.97898  1.0000
  H   H129      1.0  0.05708  0.31853  0.83281  1.0000
  H   H130      1.0  0.24591  0.31638  0.94587  1.0000
  H   H131      1.0  0.22077  0.05313  0.86165  1.0000
  H   H132      1.0  0.42013  0.30183  0.92310  1.0000
  H   H133      1.0  0.10702  0.35003  0.66629  1.0000
  H   H134      1.0  0.20622  0.13664  0.78783  1.0000
  H   H135      1.0  0.11522  0.45367  0.75561  1.0000
  C   C90       1.0  0.24872  0.03877  0.82402  1.0000
  H   H136      1.0  0.18651  0.01224  0.79392  1.0000
  C   C91       1.0  0.29839  0.06044  0.72177  1.0000
  H   H137      1.0  0.07554  0.31741  0.89153  1.0000
  H   H138      1.0  0.24176  0.09471  0.80838  1.0000
  C   C92       1.0  0.22639  0.06752  0.80660  1.0000
  H   H139      1.0  0.27127  0.08790  0.76714  1.0000
  H   H140      1.0  0.03370  0.17434  0.73639  1.0000
  H   H141      1.0  0.16374  0.45184  0.76536  1.0000
  H   H142      1.0  0.27825  0.03626  0.81702  1.0000
  C   C93       1.0  0.02018  0.19051  0.69508  1.0000
  H   H143      1.0  0.08805  0.23742  0.80747  1.0000
  C   C94       1.0  0.13651  0.42418  0.70775  1.0000
  H   H144      1.0  0.35250  0.28749  0.91649  1.0000
  H   H145      1.0  0.03022  0.32497  0.78580  1.0000
  H   H146      1.0  0.16965  0.14300  0.73207  1.0000
  C   C95       1.0  0.20362  0.12695  0.76680  1.0000
  H   H147      1.0  0.23058  0.13227  0.75622  1.0000
  H   H148      1.0  0.00416  0.34116  0.81434  1.0000
  H   H149      1.0  0.13397  0.02692  0.82895  1.0000
  S   S26       1.0  0.02949  0.43857  0.69424  1.0000
  C   C96       1.0  0.38034  0.28899  0.95522  1.0000
  C   C97       1.0  0.25863  0.05970  0.76388  1.0000
  H   H150      1.0  0.13942  0.48440  0.67505  1.0000
  C   C98       1.0  0.17980  0.00754  0.75181  1.0000
  H   H151      1.0  0.29911  0.30803  0.97644  1.0000
  C   C99       1.0  0.25971  0.05116  0.73354  1.0000
  C   C100      1.0  0.19275  0.08477  0.76569  1.0000
  H   H152      1.0  0.28088  0.43057  0.70949  1.0000
  H   H153      1.0  0.15969  0.39342  0.67248  1.0000
  H   H154      1.0  0.18191  0.18123  0.75401  1.0000
  H   H155      1.0  0.27889  0.03978  0.77326  1.0000
  C   C101      1.0  0.17338  0.15120  0.75338  1.0000
  C   C102      1.0  0.03901  0.16453  0.71560  1.0000
  N   N6        1.0  0.03630  0.26390  0.82039  1.0000
  H   H156      1.0  0.14609  0.14820  0.76408  1.0000
  C   C103      1.0  0.15267  0.48476  0.72817  1.0000
  H   H157      1.0  0.03384  0.21852  0.69640  1.0000
  H   H158      1.0  0.08448  0.28503  0.79875  1.0000
  H   H159      1.0  0.08089  0.37201  0.69290  1.0000
  C   C104      1.0  0.08461  0.27870  0.85819  1.0000
  H   H160      1.0  0.12388  0.34680  0.70035  1.0000
  C   C105      1.0  0.18890  0.01523  0.66740  1.0000
  H   H161      1.0  0.19264  0.01585  0.73253  1.0000
  H   H162      1.0  0.35949  0.22607  0.90892  1.0000
  C   C106      1.0  0.06763  0.25893  0.80021  1.0000
  H   H163      1.0  0.02623  0.29668  0.85641  1.0000
  H   H164      1.0  0.02813  0.13537  0.71356  1.0000
  N   N7        1.0  0.22073  0.05727  0.77745  1.0000
  H   H165      1.0  0.05289  0.21477  0.84333  1.0000
  H   H166      1.0  0.22263  0.46415  0.72245  1.0000
  H   H167      1.0  0.31153  0.21219  0.90204  1.0000
  H   H168      1.0  0.29805  0.20871  0.95126  1.0000
  H   H169      1.0  0.27759  0.38410  0.69529  1.0000
  C   C107      1.0  0.28083  0.27361  0.92516  1.0000
  C   C108      1.0  0.23005  0.31477  0.90454  1.0000
  H   H170      1.0  0.03342  0.22866  0.76947  1.0000
  H   H171      1.0  0.28013  0.33581  0.92311  1.0000
  H   H172      1.0  0.40415  0.34248  0.94184  1.0000
  C   C109      1.0  0.09028  0.23322  0.75552  1.0000
  H   H173      1.0  0.20898  0.29188  0.90689  1.0000
  H   H174      1.0  0.08327  0.23064  0.73393  1.0000
  C   C110      1.0  0.33483  0.21044  0.91679  1.0000
  C   C111      1.0  0.26025  0.31221  0.92632  1.0000
  C   C112      1.0  0.09786  0.31014  0.87682  1.0000
  H   H175      1.0  0.24299  0.31273  0.88430  1.0000
  H   H176      1.0  0.29193  0.27097  0.90439  1.0000
  H   H177      1.0  0.02304  0.31203  0.69534  1.0000
  H   H178      1.0  0.10831  0.27166  0.84459  1.0000
  S   S27       1.0  0.46636  0.01919  0.70381  1.0000
  H   H179      1.0  0.25885  0.25153  0.92720  1.0000
  H   H180      1.0  0.25474  0.02073  0.73027  1.0000
  H   H181      1.0  0.30441  0.09099  0.72379  1.0000
  H   H182      1.0  0.23577  0.01041  0.82358  1.0000
  H   H183      1.0  0.11714  0.41887  0.66617  1.0000
  H   H184      1.0  0.22691  0.42476  0.67810  1.0000
  H   H185      1.0  0.12329  0.30073  0.88796  1.0000
  H   H186      1.0  0.36992  0.16508  0.93268  1.0000
  H   H187      1.0  0.26571  0.03004  0.86539  1.0000
  H   H188      1.0  0.43762  0.31028  0.95647  1.0000
  N   N8        1.0  0.31186  0.26715  0.94545  1.0000
  H   H189      1.0  0.26397  0.07868  0.85546  1.0000
  C   C113      1.0  0.34445  0.29216  0.93780  1.0000
  H   H190      1.0  0.33591  0.32221  0.93876  1.0000
  C   C114      1.0  0.41242  0.31238  0.94335  1.0000
  C   C115      1.0  0.22395  0.41310  0.69861  1.0000
  H   H191      1.0  0.00680  0.23162  0.85061  1.0000
  H   H192      1.0  0.02745  0.14959  0.84303  1.0000
  C   C116      1.0  0.10966  0.36540  0.68557  1.0000
  H   H193      1.0  0.20876  0.03878  0.67112  1.0000
  H   H194      1.0  0.26243  0.39194  0.72931  1.0000
  H   H195      1.0  0.10787  0.43589  0.71144  1.0000
  H   H196      1.0  0.06990  0.16387  0.71214  1.0000
  H   H197      1.0  0.02597  0.17830  0.67507  1.0000
  C   C117      1.0  0.00394  0.32082  0.79743  1.0000
  H   H198      1.0  0.17124  0.01048  0.68549  1.0000
  H   H199      1.0  0.12528  0.49148  0.79555  1.0000
  C   C118      1.0  0.23527  0.17334  0.98178  1.0000
  H   H200      1.0  0.03320  0.18646  0.80112  1.0000
  C   C119      1.0  0.29682  0.27716  0.97297  1.0000
  C   C120      1.0  0.01160  0.19519  0.81589  1.0000
  C   C121      1.0  0.00079  0.27995  0.80828  1.0000
  H   H201      1.0  0.16983  0.02332  0.65068  1.0000
  H   H202      1.0  0.09088  0.57099  0.24254  1.0000
  S   S28       1.0  0.19455  0.77130  0.29580  1.0000
  Fe  Fe13      1.0  0.44909  0.95731  0.24310  1.0000
  S   S29       1.0  0.40760  0.93565  0.27514  1.0000
  S   S30       1.0  0.44726  0.94890  0.19848  1.0000
  H   H203      1.0  0.29469  0.93480  0.27741  1.0000
  H   H204      1.0  0.23844  0.62332  0.30812  1.0000
  C   C122      1.0  0.02461  0.71315  0.24609  1.0000
  C   C123      1.0  0.11499  0.83994  0.27688  1.0000
  H   H205      1.0  0.18283  0.53507  0.20813  1.0000
  S   S31       1.0  0.03848  0.54705  0.28469  1.0000
  C   C124      1.0  0.32682  0.83482  0.28826  1.0000
  C   C125      1.0  0.22592  0.91813  0.30220  1.0000
  H   H206      1.0  0.09783  0.53804  0.13664  1.0000
  C   C126      1.0  0.37688  0.89630  0.27947  1.0000
  C   C127      1.0  0.37405  0.86741  0.26056  1.0000
  C   C128      1.0  0.12540  0.61452  0.26052  1.0000
  C   C129      1.0  0.34938  0.83683  0.26503  1.0000
  H   H207      1.0  0.07180  0.50138  0.15333  1.0000
  H   H208      1.0  0.21814  0.81215  0.21047  1.0000
  C   C130      1.0  0.07348  0.88316  0.25312  1.0000
  C   C131      1.0  0.10208  0.85596  0.25280  1.0000
  H   H209      1.0  0.16239  0.98681  0.13461  1.0000
  H   H210      1.0  0.11436  0.84747  0.23390  1.0000
  Fe  Fe14      1.0  0.00811  0.51354  0.25176  1.0000
  C   C132      1.0  0.13198  0.63695  0.28328  1.0000
  H   H211      1.0  0.39096  0.86856  0.24257  1.0000
  H   H212      1.0  0.13380  0.72020  0.19889  1.0000
  C   C133      1.0  0.07315  0.58296  0.28278  1.0000
  C   C134      1.0  0.09588  0.58794  0.26015  1.0000
  H   H213      1.0  0.03554  0.91511  0.27792  1.0000
  H   H214      1.0  0.17290  0.72035  0.22198  1.0000
  H   H215      1.0  0.25413  0.90546  0.30602  1.0000
  H   H216      1.0  0.34833  0.94085  0.17814  1.0000
  S   S32       1.0  0.29676  0.79503  0.29278  1.0000
  H   H217      1.0  0.14335  0.61763  0.24312  1.0000
  C   C135      1.0  0.44901  0.84151  0.19649  1.0000
  S   S33       1.0  0.05803  0.90299  0.22279  1.0000
  Fe  Fe15      1.0  0.01179  0.94642  0.22692  1.0000
  Fe  Fe16      1.0  0.18720  0.71392  0.31377  1.0000
  H   H218      1.0  0.13302  0.74229  0.25850  1.0000
  H   H219      1.0  0.14410  0.53961  0.17370  1.0000
  C   C136      1.0  0.24073  0.93642  0.25598  1.0000
  H   H220      1.0  0.02839  0.61572  0.23628  1.0000
  C   C137      1.0  0.05769  0.89417  0.27754  1.0000
  H   H221      1.0  0.34777  0.81450  0.25036  1.0000
  S   S34       1.0  0.17089  0.66835  0.28338  1.0000
  H   H222      1.0  0.19034  0.94968  0.14966  1.0000
  C   C138      1.0  0.22252  0.98993  0.12570  1.0000
  C   C139      1.0  0.01361  0.79727  0.22790  1.0000
  S   S35       1.0  0.01196  0.52137  0.20725  1.0000
  H   H223      1.0  0.15116  0.76423  0.21234  1.0000
  N   N9        1.0  0.21505  0.91279  0.27320  1.0000
  C   C140      1.0  0.18668  0.96750  0.13153  1.0000
  C   C141      1.0  0.17485  0.92479  0.26822  1.0000
  H   H224      1.0  0.14899  0.54014  0.23364  1.0000
  C   C142      1.0  0.21858  0.87150  0.26649  1.0000
  C   C143      1.0  0.21677  0.86130  0.23625  1.0000
  H   H225      1.0  0.09901  0.51633  0.20969  1.0000
  C   C144      1.0  0.03472  0.73368  0.30542  1.0000
  C   C145      1.0  0.32923  0.86397  0.30701  1.0000
  H   H226      1.0  0.16740  0.92150  0.24670  1.0000
  C   C146      1.0  0.21772  0.81871  0.23223  1.0000
  H   H227      1.0  0.13683  0.81892  0.27644  1.0000
  H   H228      1.0  0.11429  0.70005  0.24438  1.0000
  C   C147      1.0  0.02515  0.78053  0.25557  1.0000
  C   C148      1.0  0.28323  0.92645  0.25758  1.0000
  C   C149      1.0  0.30957  0.98580  0.16740  1.0000
  H   H229      1.0  0.12570  0.50698  0.26842  1.0000
  H   H230      1.0  0.05723  0.66655  0.26399  1.0000
  H   H231      1.0  0.24517  0.85948  0.27473  1.0000
  H   H232      1.0  0.19590  0.85526  0.27659  1.0000
  H   H233      1.0  0.24119  0.87320  0.22527  1.0000
  H   H234      1.0  0.19055  0.87196  0.22687  1.0000
  C   C150      1.0  0.47542  0.84356  0.22065  1.0000
  H   H235      1.0  0.46426  0.84926  0.17781  1.0000
  H   H236      1.0  0.36844  0.97625  0.15669  1.0000
  C   C151      1.0  0.21603  0.55234  0.25651  1.0000
  H   H237      1.0  0.06402  0.67295  0.22825  1.0000
  H   H238      1.0  0.01807  0.70777  0.30176  1.0000
  H   H239      1.0  0.11269  0.96605  0.25233  1.0000
  C   C152      1.0  0.07112  0.87871  0.30163  1.0000
  H   H240      1.0  0.18016  0.94894  0.11424  1.0000
  H   H241      1.0  0.24334  0.80637  0.24160  1.0000
  H   H242      1.0  0.19231  0.80556  0.24118  1.0000
  H   H243      1.0  0.15501  0.90600  0.27905  1.0000
  H   H244      1.0  0.23957  0.54777  0.27082  1.0000
  H   H245      1.0  0.03836  0.80960  0.21748  1.0000
  N   N10       1.0  0.04928  0.74539  0.25500  1.0000
  C   C153      1.0  0.06450  0.73942  0.28300  1.0000
  C   C154      1.0  0.08129  0.75181  0.23544  1.0000
  H   H246      1.0  0.30055  0.99667  0.12549  1.0000
  H   H247      1.0  0.42537  0.86162  0.19919  1.0000
  H   H248      1.0  0.23146  0.93564  0.23466  1.0000
  H   H249      1.0  0.10679  0.95613  0.28770  1.0000
  H   H250      1.0  0.29663  0.93817  0.21588  1.0000
  C   C155      1.0  0.11870  0.73035  0.24062  1.0000
  C   C156      1.0  0.14570  0.73414  0.21692  1.0000
  H   H251      1.0  0.01347  0.71838  0.22562  1.0000
  H   H252      1.0  0.22938  0.94851  0.30698  1.0000
  C   C157      1.0  0.20157  0.51441  0.24634  1.0000
  H   H253      1.0  0.08242  0.76388  0.28881  1.0000
  H   H254      1.0  0.08349  0.71465  0.28401  1.0000
  H   H255      1.0  0.07185  0.74588  0.21456  1.0000
  H   H256      1.0  0.08982  0.78192  0.23555  1.0000
  H   H257      1.0  0.03979  0.80347  0.26672  1.0000
  H   H258      1.0  0.48317  0.76516  0.30864  1.0000
  H   H259      1.0  0.28846  0.89599  0.25478  1.0000
  H   H260      1.0  0.49802  0.78795  0.21246  1.0000
  H   H261      1.0  0.24551  0.96948  0.12204  1.0000
  C   C158      1.0  0.04324  0.67385  0.24485  1.0000
  H   H262      1.0  0.07508  0.54771  0.16819  1.0000
  H   H263      1.0  0.45862  0.83667  0.23877  1.0000
  C   C159      1.0  0.34254  0.95967  0.16082  1.0000
  H   H264      1.0  0.22651  0.56987  0.23961  1.0000
  H   H265      1.0  0.28458  0.96798  0.17138  1.0000
  H   H266      1.0  0.33612  0.94100  0.23836  1.0000
  H   H267      1.0  0.48956  0.78548  0.25965  1.0000
  C   C160      1.0  0.07915  0.60610  0.30524  1.0000
  C   C161      1.0  0.10003  0.85184  0.30141  1.0000
  H   H268      1.0  0.19330  0.56782  0.26714  1.0000
  H   H269      1.0  0.33595  0.94201  0.14307  1.0000
  C   C162      1.0  0.01409  0.64321  0.23911  1.0000
  H   H270      1.0  0.17952  0.98592  0.26193  1.0000
  C   C163      1.0  0.35428  0.89431  0.30270  1.0000
  C   C164      1.0  0.10805  0.63327  0.30535  1.0000
  C   C165      1.0  0.16494  0.96602  0.27560  1.0000
  H   H271      1.0  0.43715  0.81276  0.19439  1.0000
  C   C166      1.0  0.09054  0.52601  0.15654  1.0000
  H   H272      1.0  0.48514  0.87310  0.22231  1.0000
  H   H273      1.0  0.17291  0.97277  0.29653  1.0000
  H   H274      1.0  0.23880  0.96652  0.26187  1.0000
  H   H275      1.0  0.00096  0.77583  0.21459  1.0000
  H   H276      1.0  0.30179  0.97830  0.23809  1.0000
  C   C167      1.0  0.12265  0.97319  0.27284  1.0000
  H   H277      1.0  0.01534  0.75805  0.30689  1.0000
  C   C168      1.0  0.30565  0.94741  0.23611  1.0000
  C   C169      1.0  0.12645  0.51416  0.17121  1.0000
  C   C170      1.0  0.16978  0.51994  0.22532  1.0000
  H   H278      1.0  0.22575  0.49920  0.23732  1.0000
  S   S36       1.0  0.11723  0.80023  0.61700  1.0000
  H   H279      1.0  0.29694  0.95963  0.60159  1.0000
  Fe  Fe17      1.0  0.23723  0.74726  0.57727  1.0000
  S   S37       1.0  0.27027  0.72366  0.61267  1.0000
  S   S38       1.0  0.26018  0.75052  0.53404  1.0000
  Fe  Fe18      1.0  0.21376  0.70377  0.62877  1.0000
  C   C171      1.0  0.29444  0.92863  0.60375  1.0000
  Fe  Fe19      1.0  0.25893  0.77947  0.63271  1.0000
  H   H280      1.0  0.16803  0.85802  0.41276  1.0000
  S   S39       1.0  0.18235  0.72249  0.59184  1.0000
  S   S40       1.0  0.22863  0.80406  0.59699  1.0000
  H   H281      1.0  0.10682  0.63163  0.42008  1.0000
  S   S41       1.0  0.15401  0.73555  0.34863  1.0000
  H   H282      1.0  0.35624  0.91643  0.31751  1.0000
  C   C172      1.0  0.06483  0.70610  0.62419  1.0000
  S   S42       1.0  0.21835  0.80251  0.35573  1.0000
  H   H283      1.0  0.10630  0.94252  0.53130  1.0000
  Fe  Fe20      1.0  0.20922  0.74301  0.37057  1.0000
  S   S43       1.0  0.20153  0.72150  0.41394  1.0000
  H   H284      1.0  0.15526  0.61564  0.61635  1.0000
  H   H285      1.0  0.32289  0.91647  0.60703  1.0000
  H   H286      1.0  0.22501  0.98486  0.64081  1.0000
  H   H287      1.0  0.24028  0.93100  0.62262  1.0000
  Fe  Fe21      1.0  0.16522  0.79297  0.33213  1.0000
  H   H288      1.0  0.16230  0.86653  0.60720  1.0000
  H   H289      1.0  0.11403  0.70056  0.41390  1.0000
  H   H290      1.0  0.06955  0.75546  0.33785  1.0000
  H   H291      1.0  0.07824  0.64598  0.61961  1.0000
  C   C173      1.0  0.14018  0.57337  0.36969  1.0000
  H   H292      1.0  0.39393  0.89072  0.62164  1.0000
  H   H293      1.0  0.34086  0.84495  0.62028  1.0000
  H   H294      1.0  0.21686  0.93584  0.35652  1.0000
  H   H295      1.0  0.24956  0.58423  0.32980  1.0000
  C   C174      1.0  0.09323  0.68433  0.40192  1.0000
  H   H296      1.0  0.13122  0.82469  0.42124  1.0000
  H   H297      1.0  0.18543  0.56160  0.41335  1.0000
  C   C175      1.0  0.21761  0.73142  0.44716  1.0000
  C   C176      1.0  0.19784  0.71601  0.46912  1.0000
  C   C177      1.0  0.20996  0.72197  0.49579  1.0000
  C   C178      1.0  0.24234  0.74322  0.50093  1.0000
  C   C179      1.0  0.26202  0.75871  0.47897  1.0000
  C   C180      1.0  0.24959  0.75323  0.45232  1.0000
  H   H298      1.0  0.17305  0.69912  0.46550  1.0000
  H   H299      1.0  0.19476  0.70941  0.51233  1.0000
  H   H300      1.0  0.28731  0.77488  0.48260  1.0000
  H   H301      1.0  0.26532  0.76510  0.43576  1.0000
  H   H302      1.0  0.17548  0.80822  0.40833  1.0000
  H   H303      1.0  0.10228  0.76016  0.52886  1.0000
  H   H304      1.0  0.19381  0.89262  0.36608  1.0000
  H   H305      1.0  0.06944  0.54626  0.35243  1.0000
  H   H306      1.0  0.07295  0.70505  0.33286  1.0000
  H   H307      1.0  0.09162  0.90060  0.54917  1.0000
  H   H308      1.0  0.05686  0.66804  0.57504  1.0000
  H   H309      1.0  0.15443  0.93254  0.62238  1.0000
  H   H310      1.0  0.21716  0.57959  0.37420  1.0000
  H   H311      1.0  0.07688  0.73284  0.61638  1.0000
  H   H312      1.0  0.09056  0.69742  0.38180  1.0000
  H   H313      1.0  0.13814  0.64886  0.36374  1.0000
  N   N11       1.0  0.16783  0.85030  0.49846  1.0000
  C   C181      1.0  0.15093  0.88313  0.51340  1.0000
  C   C182      1.0  0.21009  0.85102  0.50197  1.0000
  C   C183      1.0  0.15996  0.85587  0.46889  1.0000
  C   C184      1.0  0.15164  0.81279  0.50708  1.0000
  C   C185      1.0  0.13815  0.80882  0.53661  1.0000
  C   C186      1.0  0.10865  0.89092  0.50766  1.0000
  C   C187      1.0  0.17797  0.82645  0.44972  1.0000
  C   C188      1.0  0.22514  0.84822  0.53101  1.0000
  C   C189      1.0  0.26792  0.85316  0.53176  1.0000
  C   C190      1.0  0.12570  0.76848  0.54236  1.0000
  H   H314      1.0  0.16288  0.66200  0.39245  1.0000
  C   C191      1.0  0.16209  0.82977  0.42133  1.0000
  H   H315      1.0  0.16654  0.90950  0.50853  1.0000
  H   H316      1.0  0.15431  0.87966  0.53538  1.0000
  H   H317      1.0  0.22339  0.82707  0.49122  1.0000
  H   H318      1.0  0.22194  0.87708  0.49278  1.0000
  H   H319      1.0  0.16952  0.88428  0.46224  1.0000
  H   H320      1.0  0.12911  0.85493  0.46500  1.0000
  H   H321      1.0  0.12679  0.80528  0.49453  1.0000
  H   H322      1.0  0.17244  0.78996  0.50332  1.0000
  H   H323      1.0  0.11355  0.82719  0.54062  1.0000
  H   H324      1.0  0.16032  0.81632  0.55121  1.0000
  H   H325      1.0  0.10573  0.90615  0.48828  1.0000
  H   H326      1.0  0.09228  0.86442  0.50619  1.0000
  H   H327      1.0  0.17261  0.79736  0.45680  1.0000
  H   H328      1.0  0.20888  0.83075  0.44828  1.0000
  H   H329      1.0  0.21292  0.86989  0.54436  1.0000
  H   H330      1.0  0.21894  0.81995  0.53915  1.0000
  H   H331      1.0  0.27598  0.88171  0.52476  1.0000
  H   H332      1.0  0.27819  0.84938  0.55263  1.0000
  H   H333      1.0  0.28196  0.83173  0.51898  1.0000
  H   H334      1.0  0.14964  0.74874  0.53960  1.0000
  H   H335      1.0  0.11569  0.76629  0.56337  1.0000
  C   C192      1.0  0.16970  0.58876  0.41371  1.0000
  C   C193      1.0  0.21381  0.90553  0.35160  1.0000
  C   C194      1.0  0.19143  0.61636  0.43225  1.0000
  H   H336      1.0  0.00795  0.65563  0.63350  1.0000
  C   C195      1.0  0.11379  0.84645  0.62882  1.0000
  H   H337      1.0  0.08338  0.62830  0.38793  1.0000
  Fe  Fe22      1.0  0.17617  0.77751  0.61341  1.0000
  C   C196      1.0  0.08628  0.67301  0.58174  1.0000
  S   S44       1.0  0.24230  0.71695  0.33624  1.0000
  H   H338      1.0  0.06547  0.68593  0.41213  1.0000
  C   C197      1.0  0.20070  0.60615  0.37192  1.0000
  H   H339      1.0  0.06532  0.50999  0.37747  1.0000
  H   H340      1.0  0.28293  0.91693  0.58481  1.0000
  C   C198      1.0  0.10549  0.64324  0.39948  1.0000
  H   H341      1.0  0.21122  0.62069  0.47326  1.0000
  H   H342      1.0  0.15925  0.55191  0.36061  1.0000
  C   C199      1.0  0.14364  0.64003  0.38468  1.0000
  H   H343      1.0  0.26513  0.88757  0.62741  1.0000
  C   C200      1.0  0.19559  0.60032  0.46055  1.0000
  C   C201      1.0  0.14518  0.60743  0.63598  1.0000
  C   C202      1.0  0.35262  0.85348  0.63934  1.0000
  H   H344      1.0  0.14296  0.58238  0.42425  1.0000
  C   C203      1.0  0.13961  0.87386  0.62070  1.0000
  H   H345      1.0  0.17621  0.64348  0.43409  1.0000
  H   H346      1.0  0.10325  0.50821  0.35347  1.0000
  H   H347      1.0  0.03661  0.70382  0.61486  1.0000
  C   C204      1.0  0.11614  0.58055  0.63839  1.0000
  H   H348      1.0  0.16752  0.59549  0.46978  1.0000
  H   H349      1.0  0.18133  0.59799  0.32981  1.0000
  C   C205      1.0  0.23940  0.61378  0.32935  1.0000
  H   H350      1.0  0.12442  0.52984  0.39884  1.0000
  C   C206      1.0  0.26824  0.91874  0.62704  1.0000
  H   H351      1.0  0.11212  0.65106  0.32257  1.0000
  N   N12       1.0  0.16270  0.60214  0.38535  1.0000
  H   H352      1.0  0.21770  0.62859  0.38166  1.0000
  H   H353      1.0  0.06114  0.92145  0.52438  1.0000
  C   C207      1.0  0.09098  0.91539  0.52951  1.0000
  C   C208      1.0  0.20005  0.61660  0.34164  1.0000
  H   H354      1.0  0.24155  0.89132  0.35379  1.0000
  H   H355      1.0  0.10386  0.56863  0.62045  1.0000
  S   S45       1.0  0.11743  0.83468  0.33212  1.0000
  H   H356      1.0  0.31239  0.86280  0.32506  1.0000
  C   C209      1.0  0.11022  0.55010  0.38516  1.0000
  H   H357      1.0  0.01962  0.76739  0.62541  1.0000
  C   C210      1.0  0.13529  0.91111  0.62947  1.0000
  H   H358      1.0  0.25960  0.63192  0.34037  1.0000
  H   H359      1.0  0.09139  0.56803  0.39735  1.0000
  C   C211      1.0  0.05355  0.72953  0.33279  1.0000
  H   H360      1.0  0.12577  0.58710  0.35241  1.0000
  H   H361      1.0  0.22023  0.62202  0.42467  1.0000
  H   H362      1.0  0.06125  0.60298  0.32266  1.0000
  C   C212      1.0  0.08568  0.52731  0.36589  1.0000
  H   H363      1.0  0.19025  0.64601  0.33906  1.0000
  H   H364      1.0  0.11865  0.67694  0.61761  1.0000
  H   H365      1.0  0.10429  0.64995  0.57389  1.0000
  C   C213      1.0  0.08854  0.67358  0.61234  1.0000
  H   H366      1.0  0.09655  0.70002  0.57327  1.0000
  H   H367      1.0  0.21158  0.57345  0.46015  1.0000
  H   H368      1.0  0.03179  0.72502  0.34846  1.0000
  Fe  Fe23      1.0  0.24772  0.77642  0.31993  1.0000
  C   C214      1.0  0.00695  0.75484  0.64377  1.0000
  C   C215      1.0  0.38272  0.87953  0.64019  1.0000
  H   H369      1.0  0.17213  0.52584  0.64050  1.0000
  C   C216      1.0  0.19995  0.52100  0.65003  1.0000
  C   C217      1.0  0.10614  0.92062  0.64723  1.0000
  H   H370      1.0  0.21612  0.54776  0.64935  1.0000
  C   C218      1.0  0.19870  0.90065  0.32313  1.0000
  H   H371      1.0  0.05930  0.88793  0.32052  1.0000
  H   H372      1.0  0.19504  0.87010  0.31959  1.0000
  H   H373      1.0  0.17057  0.91424  0.32237  1.0000
  C   C219      1.0  0.08397  0.85618  0.64584  1.0000
  H   H374      1.0  0.21547  0.49939  0.63836  1.0000
  C   C220      1.0  0.23168  0.89861  0.67636  1.0000
  Fe  Fe24      1.0  0.46569  0.95560  0.69929  1.0000
  S   S46       1.0  0.45238  0.94443  0.74243  1.0000
  H   H375      1.0  0.17493  0.50642  0.73109  1.0000
  H   H376      1.0  0.40311  0.86600  0.75469  1.0000
  H   H377      1.0  0.24785  0.87186  0.67446  1.0000
  H   H378      1.0  0.05693  0.76677  0.66562  1.0000
  H   H379      1.0  0.46238  0.66484  0.73887  1.0000
  H   H380      1.0  0.44932  0.72942  0.75371  1.0000
  H   H381      1.0  0.03237  0.65618  0.76186  1.0000
  H   H382      1.0  0.16211  0.51816  0.77946  1.0000
  C   C221      1.0  0.00405  0.64337  0.75946  1.0000
  C   C222      1.0  0.39806  0.89166  0.66476  1.0000
  C   C223      1.0  0.38352  0.87655  0.68852  1.0000
  C   C224      1.0  0.35342  0.85056  0.68769  1.0000
  C   C225      1.0  0.31760  0.95123  0.70639  1.0000
  H   H383      1.0  0.39517  0.88535  0.70751  1.0000
  H   H384      1.0  0.34209  0.83958  0.70626  1.0000
  H   H385      1.0  0.14608  0.72996  0.72690  1.0000
  S   S47       1.0  0.10227  0.96690  0.65911  1.0000
  S   S48       1.0  0.29694  0.80924  0.66373  1.0000
  H   H386      1.0  0.44502  0.78846  0.76505  1.0000
  C   C226      1.0  0.47098  0.68891  0.72601  1.0000
  C   C227      1.0  0.00809  0.80315  0.73035  1.0000
  H   H387      1.0  0.08441  0.73790  0.70443  1.0000
  H   H388      1.0  0.06377  0.83511  0.65189  1.0000
  H   H389      1.0  0.19628  0.83319  0.69464  1.0000
  H   H390      1.0  0.15852  0.95577  0.76982  1.0000
  H   H391      1.0  0.11391  0.52252  0.76810  1.0000
  H   H392      1.0  0.46815  0.81580  0.69057  1.0000
  C   C228      1.0  0.33655  0.94558  0.73363  1.0000
  H   H393      1.0  0.29331  0.89552  0.70369  1.0000
  C   C229      1.0  0.33733  0.83923  0.66315  1.0000
  H   H394      1.0  0.06719  0.64833  0.66348  1.0000
  H   H395      1.0  0.18420  0.91852  0.70080  1.0000
  C   C230      1.0  0.45916  0.84677  0.76638  1.0000
  H   H396      1.0  0.02583  0.73630  0.68306  1.0000
  N   N13       1.0  0.06213  0.70780  0.65442  1.0000
  H   H397      1.0  0.30937  0.91382  0.65760  1.0000
  H   H398      1.0  0.34512  0.91576  0.73637  1.0000
  H   H399      1.0  0.22357  0.96897  0.70154  1.0000
  H   H400      1.0  0.16559  0.70939  0.69696  1.0000
  C   C231      1.0  0.14407  0.72936  0.70469  1.0000
  H   H401      1.0  0.31724  0.95384  0.75014  1.0000
  Fe  Fe25      1.0  0.05252  0.98616  0.75134  1.0000
  Fe  Fe26      1.0  0.05875  0.97399  0.69166  1.0000
  H   H402      1.0  0.15016  0.75806  0.69696  1.0000
  H   H403      1.0  0.16258  0.62137  0.70211  1.0000
  S   S49       1.0  0.05362  0.93372  0.72616  1.0000
  H   H404      1.0  0.01099  0.74405  0.73831  1.0000
  H   H405      1.0  0.01762  0.59878  0.66150  1.0000
  S   S50       1.0  0.08798  0.99166  0.78856  1.0000
  H   H406      1.0  0.05761  0.90039  0.66875  1.0000
  H   H407      1.0  0.11093  0.57419  0.70626  1.0000
  H   H408      1.0  0.43717  0.81186  0.73421  1.0000
  C   C232      1.0  0.14935  0.61033  0.68423  1.0000
  H   H409      1.0  0.40446  0.83945  0.78573  1.0000
  C   C233      1.0  0.10365  0.56807  0.66367  1.0000
  C   C234      1.0  0.41951  0.86054  0.77325  1.0000
  C   C235      1.0  0.20325  0.89382  0.69971  1.0000
  H   H410      1.0  0.02345  0.80014  0.71109  1.0000
  H   H411      1.0  0.16228  0.86153  0.67665  1.0000
  H   H412      1.0  0.46906  0.86070  0.70674  1.0000
  H   H413      1.0  0.11476  0.73848  0.65591  1.0000
  H   H414      1.0  0.42138  0.88721  0.78478  1.0000
  H   H415      1.0  0.02866  0.81150  0.74605  1.0000
  H   H416      1.0  0.21778  0.89018  0.71920  1.0000
  C   C236      1.0  0.10462  0.71704  0.69629  1.0000
  H   H417      1.0  0.18388  0.53257  0.69059  1.0000
  H   H418      1.0  0.15196  0.95929  0.73415  1.0000
  S   S51       1.0  0.43466  0.92615  0.66464  1.0000
  C   C237      1.0  0.00790  0.65885  0.65561  1.0000
  H   H419      1.0  0.09914  0.68942  0.70600  1.0000
  C   C238      1.0  0.17865  0.85902  0.69552  1.0000
  S   S52       1.0  0.20478  0.75807  0.65068  1.0000
  H   H420      1.0  0.46563  0.76189  0.71068  1.0000
  C   C239      1.0  0.08047  0.89310  0.65538  1.0000
  C   C240      1.0  0.12009  0.58353  0.68666  1.0000
  C   C241      1.0  0.17180  0.96534  0.75082  1.0000
  H   H421      1.0  0.19824  0.94930  0.74763  1.0000
  Fe  Fe27      1.0  0.03371  0.50143  0.69699  1.0000
  H   H422      1.0  0.21434  0.90030  0.65791  1.0000
  S   S53       1.0  0.06882  0.53202  0.66493  1.0000
  H   H423      1.0  0.04342  0.67449  0.68826  1.0000
  H   H424      1.0  0.36217  0.96347  0.73488  1.0000
  C   C242      1.0  0.10150  0.71325  0.66530  1.0000
  C   C243      1.0  0.28271  0.92504  0.70320  1.0000
  C   C244      1.0  0.16208  0.62250  0.65888  1.0000
  N   N14       1.0  0.25875  0.93131  0.67848  1.0000
  S   S54       1.0  0.20142  0.65357  0.65674  1.0000
  C   C245      1.0  0.45779  0.80902  0.75094  1.0000
  C   C246      1.0  0.23855  0.96833  0.68197  1.0000
  H   H425      1.0  0.11999  0.68921  0.65998  1.0000
  C   C247      1.0  0.03868  0.74145  0.66303  1.0000
  H   H426      1.0  0.33903  0.94540  0.69072  1.0000
  H   H427      1.0  0.44862  0.69369  0.71078  1.0000
  H   H428      1.0  0.49117  0.86588  0.66032  1.0000
  H   H429      1.0  0.15845  0.85621  0.71241  1.0000
  H   H430      1.0  0.26561  0.92851  0.72172  1.0000
  H   H431      1.0  0.00510  0.62301  0.74258  1.0000
  H   H432      1.0  0.22828  0.99672  0.77750  1.0000
  C   C248      1.0  0.21011  0.97927  0.65994  1.0000
  H   H433      1.0  0.25902  0.99188  0.68277  1.0000
  C   C249      1.0  0.28456  0.93237  0.65427  1.0000
  C   C250      1.0  0.04671  0.67181  0.66617  1.0000
  H   H434      1.0  0.29648  0.96112  0.65152  1.0000
  H   H435      1.0  0.30986  0.98127  0.70490  1.0000
  H   H436      1.0  0.18891  0.95693  0.65713  1.0000
  H   H437      1.0  0.99966  0.80957  0.66304  1.0000
  C   C251      1.0  0.19516  0.50831  0.67914  1.0000
  H   H438      1.0  0.47333  0.86882  0.75444  1.0000
  C   C252      1.0  0.47638  0.72397  0.74332  1.0000
  H   H439      1.0  0.47464  0.84348  0.78559  1.0000
  H   H440      1.0  0.22354  0.50136  0.68693  1.0000
  C   C253      1.0  0.48705  0.83762  0.69885  1.0000
  C   C254      1.0  0.13539  0.50267  0.77602  1.0000
  H   H441      1.0  0.49796  0.71711  0.75863  1.0000
  C   C255      1.0  0.48827  0.75821  0.72587  1.0000
  N   N15       1.0  0.49508  0.79462  0.74068  1.0000
  H   H442      1.0  0.49768  0.68136  0.71570  1.0000
  S   S55       1.0  0.04198  0.49949  0.74162  1.0000
  H   H443      1.0  0.12766  0.50020  0.72016  1.0000
  H   H444      1.0  0.54643  0.08208  0.16731  1.0000
  S   S56       1.0  0.79267  0.19844  0.29328  1.0000
  C   C256      1.0  0.63940  0.11397  0.29367  1.0000
  S   S57       1.0  0.54969  0.05308  0.26597  1.0000
  C   C257      1.0  0.74884  0.03392  0.29352  1.0000
  H   H445      1.0  0.87420  0.08002  0.26772  1.0000
  S   S58       1.0  0.93181  0.01962  0.23098  1.0000
  Fe  Fe28      1.0  0.74184  0.16699  0.30873  1.0000
  Fe  Fe29      1.0  0.94577  0.45280  0.24600  1.0000
  S   S59       1.0  0.94480  0.45875  0.20074  1.0000
  S   S60       1.0  0.92259  0.40539  0.27302  1.0000
  C   C258      1.0  0.88081  0.37967  0.28083  1.0000
  C   C259      1.0  0.83216  0.01311  0.26187  1.0000
  C   C260      1.0  0.78512  0.05466  0.28417  1.0000
  C   C261      1.0  0.81579  0.36084  0.27248  1.0000
  C   C262      1.0  0.84727  0.38369  0.26635  1.0000
  C   C263      1.0  0.81750  0.33336  0.29285  1.0000
  H   H446      1.0  0.90773  0.34980  0.31324  1.0000
  H   H447      1.0  0.84562  0.40425  0.25038  1.0000
  S   S61       1.0  0.51819  0.00818  0.19326  1.0000
  H   H448      1.0  0.84125  0.15259  0.24356  1.0000
  H   H449      1.0  0.58843  0.20313  0.22370  1.0000
  H   H450      1.0  0.83663  0.06884  0.22669  1.0000
  H   H451      1.0  0.50149  0.06837  0.15293  1.0000
  H   H452      1.0  0.95438  0.16071  0.26185  1.0000
  H   H453      1.0  0.57163  0.18807  0.25638  1.0000
  H   H454      1.0  0.97145  0.06779  0.29415  1.0000
  Fe  Fe30      1.0  0.51622  0.01324  0.23837  1.0000
  C   C264      1.0  0.88211  0.35294  0.30172  1.0000
  C   C265      1.0  0.66710  0.10943  0.27398  1.0000
  C   C266      1.0  0.65860  0.08712  0.25139  1.0000
  C   C267      1.0  0.62307  0.06953  0.24856  1.0000
  C   C268      1.0  0.59538  0.07408  0.26830  1.0000
  H   H455      1.0  0.75082  0.05274  0.23573  1.0000
  H   H456      1.0  0.50027  0.13454  0.26522  1.0000
  H   H457      1.0  0.61710  0.05252  0.23111  1.0000
  H   H458      1.0  0.95151  0.13317  0.30404  1.0000
  H   H459      1.0  0.83668  0.10774  0.28198  1.0000
  H   H460      1.0  0.50785  0.10153  0.20551  1.0000
  N   N16       1.0  0.80231  0.04279  0.25763  1.0000
  H   H461      1.0  0.94786  0.16440  0.22613  1.0000
  S   S62       1.0  0.77725  0.30459  0.29927  1.0000
  H   H462      1.0  0.56287  0.14361  0.20386  1.0000
  H   H463      1.0  0.79899  0.09760  0.23883  1.0000
  N   N17       1.0  0.88290  0.26826  0.23318  1.0000
  C   C269      1.0  0.88257  0.30523  0.21816  1.0000
  C   C270      1.0  0.84341  0.25816  0.24215  1.0000
  C   C271      1.0  0.90720  0.27355  0.25778  1.0000
  C   C272      1.0  0.90008  0.23690  0.21693  1.0000
  C   C273      1.0  0.88101  0.22753  0.18991  1.0000
  C   C274      1.0  0.92156  0.32143  0.21014  1.0000
  C   C275      1.0  0.90509  0.24250  0.27970  1.0000
  C   C276      1.0  0.81040  0.26951  0.22329  1.0000
  C   C277      1.0  0.77376  0.24983  0.23115  1.0000
  C   C278      1.0  0.90408  0.19864  0.17419  1.0000
  C   C279      1.0  0.91727  0.35793  0.19422  1.0000
  H   H464      1.0  0.75591  0.00581  0.24685  1.0000
  H   H465      1.0  0.86830  0.32701  0.23062  1.0000
  H   H466      1.0  0.86561  0.30356  0.19956  1.0000
  H   H467      1.0  0.84145  0.22747  0.24648  1.0000
  H   H468      1.0  0.83661  0.27232  0.26146  1.0000
  H   H469      1.0  0.90005  0.30053  0.26767  1.0000
  H   H470      1.0  0.93740  0.27598  0.25207  1.0000
  H   H471      1.0  0.93036  0.24259  0.21304  1.0000
  H   H472      1.0  0.89959  0.21031  0.22864  1.0000
  H   H473      1.0  0.87802  0.25277  0.17702  1.0000
  H   H474      1.0  0.85292  0.21483  0.19356  1.0000
  H   H475      1.0  0.93834  0.32846  0.22822  1.0000
  H   H476      1.0  0.93751  0.30125  0.19757  1.0000
  H   H477      1.0  0.91182  0.21439  0.27148  1.0000
  H   H478      1.0  0.87665  0.24118  0.28893  1.0000
  H   H479      1.0  0.80548  0.30037  0.22473  1.0000
  H   H480      1.0  0.81605  0.26290  0.20203  1.0000
  H   H481      1.0  0.76565  0.25729  0.25197  1.0000
  H   H482      1.0  0.75071  0.25899  0.21758  1.0000
  H   H483      1.0  0.77678  0.21880  0.22960  1.0000
  H   H484      1.0  0.93253  0.20985  0.16947  1.0000
  H   H485      1.0  0.90694  0.17203  0.18575  1.0000
  H   H486      1.0  0.88964  0.19215  0.15498  1.0000
  H   H487      1.0  0.94557  0.36915  0.18901  1.0000
  H   H488      1.0  0.99247  0.20866  0.20174  1.0000
  H   H489      1.0  0.90231  0.37944  0.20641  1.0000
  C   C280      1.0  0.60384  0.09654  0.29077  1.0000
  H   H490      1.0  0.99030  0.21474  0.24919  1.0000
  H   H491      1.0  0.53359  0.09720  0.13403  1.0000
  H   H492      1.0  0.77680  0.08486  0.28352  1.0000
  H   H493      1.0  0.88012  0.12515  0.23017  1.0000
  C   C281      1.0  0.86470  0.13316  0.24870  1.0000
  H   H494      1.0  0.99699  0.26756  0.21688  1.0000
  C   C282      1.0  0.96877  0.15906  0.24218  1.0000
  Fe  Fe31      1.0  0.98952  0.02624  0.21321  1.0000
  H   H495      1.0  0.96245  0.25120  0.29434  1.0000
  H   H496      1.0  0.88440  0.14815  0.26226  1.0000
  C   C283      1.0  0.84967  0.09816  0.26296  1.0000
  S   S63       1.0  0.71255  0.13093  0.27633  1.0000
  H   H497      1.0  0.90144  0.35301  0.17534  1.0000
  C   C284      1.0  0.94484  0.07302  0.30407  1.0000
  C   C285      1.0  0.85095  0.32953  0.30743  1.0000
  C   C286      1.0  0.58130  0.17839  0.23635  1.0000
  H   H498      1.0  0.85368  0.02304  0.27640  1.0000
  H   H499      1.0  0.67965  0.08346  0.23595  1.0000
  C   C287      1.0  0.93318  0.25074  0.30220  1.0000
  C   C288      1.0  0.82090  0.07685  0.24512  1.0000
  H   H500      1.0  0.60721  0.16127  0.23926  1.0000
  C   C289      1.0  0.55098  0.15441  0.22295  1.0000
  H   H501      1.0  0.80642  0.05273  0.30053  1.0000
  H   H502      1.0  0.78998  0.36431  0.26121  1.0000
  H   H503      1.0  0.52214  0.19784  0.20121  1.0000
  C   C290      1.0  0.51453  0.17758  0.21739  1.0000
  C   C291      1.0  0.52259  0.09131  0.15446  1.0000
  H   H504      1.0  0.54597  0.12978  0.23600  1.0000
  H   H505      1.0  0.58273  0.10038  0.30618  1.0000
  C   C292      1.0  0.77200  0.02983  0.23849  1.0000
  H   H506      1.0  0.50887  0.19552  0.23526  1.0000
  H   H507      1.0  0.97995  0.13007  0.23976  1.0000
  H   H508      1.0  0.64531  0.13101  0.31113  1.0000
  C   C293      1.0  0.78541  0.01727  0.21025  1.0000
  C   C294      1.0  0.92237  0.04285  0.31221  1.0000
  C   C295      1.0  0.93343  0.10996  0.30949  1.0000
  H   H509      1.0  0.84821  0.00810  0.24303  1.0000
  H   H510      1.0  0.72484  0.04162  0.28027  1.0000
  H   H511      1.0  0.92671  0.27822  0.31174  1.0000
  H   H512      1.0  0.52558  0.14958  0.16574  1.0000
  H   H513      1.0  0.79801  0.04109  0.19901  1.0000
  C   C296      1.0  0.50432  0.12673  0.16585  1.0000
  C   C297      1.0  0.75245  0.00264  0.19355  1.0000
  H   H514      1.0  0.75202  0.00299  0.29302  1.0000
  H   H515      1.0  0.73042  0.02465  0.19137  1.0000
  Fe  Fe32      1.0  0.78539  0.20456  0.57068  1.0000
  S   S64       1.0  0.74970  0.22841  0.60436  1.0000
  S   S65       1.0  0.78972  0.23055  0.52839  1.0000
  Fe  Fe33      1.0  0.82025  0.14659  0.60845  1.0000
  N   N18       1.0  0.86708  0.15000  0.43156  1.0000
  Fe  Fe34      1.0  0.73778  0.16776  0.61602  1.0000
  S   S66       1.0  0.86175  0.09851  0.60830  1.0000
  H   H516      1.0  0.66904  0.12384  0.56025  1.0000
  H   H517      1.0  0.83686  0.11622  0.48215  1.0000
  S   S67       1.0  0.77046  0.14488  0.58073  1.0000
  S   S68       1.0  0.83810  0.20449  0.59599  1.0000
  C   C298      1.0  0.64156  0.19771  0.56897  1.0000
  S   S69       1.0  0.77494  0.14199  0.34294  1.0000
  H   H518      1.0  0.66849  0.20177  0.58005  1.0000
  H   H519      1.0  0.83089  0.19393  0.41591  1.0000
  S   S70       1.0  0.80876  0.22725  0.35511  1.0000
  C   C299      1.0  0.83343  0.10461  0.39842  1.0000
  H   H520      1.0  0.92143  0.21019  0.58908  1.0000
  Fe  Fe35      1.0  0.75809  0.19316  0.36711  1.0000
  S   S71       1.0  0.74150  0.17709  0.41035  1.0000
  S   S72       1.0  0.72179  0.21650  0.33327  1.0000
  Fe  Fe36      1.0  0.82322  0.17762  0.32950  1.0000
  H   H521      1.0  0.79741  0.06760  0.37527  1.0000
  H   H522      1.0  0.77237  0.09747  0.39836  1.0000
  H   H523      1.0  0.86365  0.17734  0.39248  1.0000
  H   H524      1.0  0.90456  0.10204  0.43330  1.0000
  C   C300      1.0  0.79820  0.08021  0.39561  1.0000
  H   H525      1.0  0.71659  0.23664  0.54967  1.0000
  H   H526      1.0  0.92657  0.05286  0.61849  1.0000
  H   H527      1.0  0.79834  0.05710  0.41063  1.0000
  C   C301      1.0  0.77690  0.21474  0.49568  1.0000
  C   C302      1.0  0.78274  0.23872  0.47353  1.0000
  C   C303      1.0  0.77271  0.22760  0.44727  1.0000
  C   C304      1.0  0.75610  0.19245  0.44284  1.0000
  C   C305      1.0  0.75044  0.16841  0.46500  1.0000
  C   C306      1.0  0.76131  0.17921  0.49114  1.0000
  H   H528      1.0  0.79497  0.26623  0.47673  1.0000
  H   H529      1.0  0.77716  0.24653  0.43055  1.0000
  H   H530      1.0  0.73785  0.14106  0.46186  1.0000
  H   H531      1.0  0.75759  0.16013  0.50780  1.0000
  C   C307      1.0  0.90529  0.13217  0.42711  1.0000
  H   H532      1.0  0.96667  0.11063  0.37404  1.0000
  H   H533      1.0  0.69288  0.07335  0.53117  1.0000
  H   H534      1.0  0.84619  0.16824  0.51473  1.0000
  C   C308      1.0  0.92122  0.06950  0.63624  1.0000
  H   H535      1.0  0.85734  0.26008  0.39584  1.0000
  H   H536      1.0  0.84896  0.09215  0.33904  1.0000
  C   C309      1.0  0.66988  0.12901  0.53829  1.0000
  C   C310      1.0  0.67901  0.17098  0.53245  1.0000
  H   H537      1.0  0.55794  0.20003  0.48470  1.0000
  H   H538      1.0  0.63691  0.25752  0.52956  1.0000
  C   C311      1.0  0.93344  0.21816  0.63140  1.0000
  H   H539      1.0  0.63145  0.16937  0.57515  1.0000
  H   H540      1.0  0.58340  0.21828  0.57264  1.0000
  C   C312      1.0  0.83594  0.12189  0.42676  1.0000
  H   H541      1.0  0.76082  0.03828  0.33635  1.0000
  Fe  Fe37      1.0  0.80213  0.22433  0.63019  1.0000
  H   H542      1.0  0.68212  0.26373  0.56727  1.0000
  H   H543      1.0  0.72971  0.30431  0.54637  1.0000
  H   H544      1.0  0.72796  0.10939  0.53521  1.0000
  C   C313      1.0  0.93686  0.19557  0.60542  1.0000
  C   C314      1.0  0.61195  0.22589  0.57989  1.0000
  H   H545      1.0  0.92689  0.14526  0.44033  1.0000
  C   C315      1.0  0.70726  0.29177  0.53369  1.0000
  C   C316      1.0  0.57683  0.17544  0.48177  1.0000
  C   C317      1.0  0.69254  0.25596  0.54704  1.0000
  H   H546      1.0  0.86792  0.12500  0.52546  1.0000
  S   S73       1.0  0.67760  0.14383  0.62072  1.0000
  H   H547      1.0  0.59124  0.21247  0.52771  1.0000
  H   H548      1.0  0.89669  0.16235  0.51211  1.0000
  C   C318      1.0  0.61656  0.10213  0.63836  1.0000
  C   C319      1.0  0.66098  0.23745  0.53011  1.0000
  C   C320      1.0  0.86911  0.14787  0.51026  1.0000
  H   H549      1.0  0.56369  0.15006  0.49084  1.0000
  C   C321      1.0  0.61543  0.18280  0.49425  1.0000
  C   C322      1.0  0.86411  0.16276  0.46045  1.0000
  C   C323      1.0  0.95525  0.10774  0.39470  1.0000
  H   H550      1.0  0.61801  0.25514  0.57354  1.0000
  H   H551      1.0  0.87605  0.23281  0.43882  1.0000
  H   H552      1.0  0.98719  0.20121  0.64639  1.0000
  H   H553      1.0  0.67152  0.23621  0.50908  1.0000
  H   H554      1.0  0.70130  0.10635  0.50432  1.0000
  H   H555      1.0  0.59853  0.16425  0.53411  1.0000
  C   C324      1.0  0.69992  0.10307  0.52647  1.0000
  S   S74       1.0  0.78714  0.16545  0.64431  1.0000
  H   H556      1.0  0.83231  0.12661  0.38274  1.0000
  H   H557      1.0  0.92448  0.16708  0.60806  1.0000
  C   C325      1.0  0.61210  0.18940  0.52493  1.0000
  H   H558      1.0  0.89439  0.23461  0.37846  1.0000
  C   C326      1.0  0.61102  0.22504  0.61054  1.0000
  H   H559      1.0  0.60383  0.19638  0.61791  1.0000
  H   H560      1.0  0.63887  0.23323  0.61889  1.0000
  H   H561      1.0  0.80820  0.13487  0.43156  1.0000
  H   H562      1.0  0.58007  0.17056  0.45988  1.0000
  H   H563      1.0  0.68743  0.17377  0.51105  1.0000
  H   H564      1.0  0.58947  0.24507  0.61805  1.0000
  C   C327      1.0  0.92178  0.13430  0.39818  1.0000
  C   C328      1.0  0.88586  0.24756  0.39782  1.0000
  H   H565      1.0  0.70506  0.17731  0.54396  1.0000
  H   H566      1.0  0.86908  0.30388  0.62211  1.0000
  H   H567      1.0  0.93173  0.16324  0.39373  1.0000
  H   H568      1.0  0.68427  0.31269  0.53123  1.0000
  H   H569      1.0  0.96680  0.19280  0.59927  1.0000
  C   C329      1.0  0.89135  0.09526  0.63641  1.0000
  H   H570      1.0  0.62775  0.20771  0.48409  1.0000
  N   N19       1.0  0.64835  0.19888  0.53916  1.0000
  H   H571      1.0  0.90093  0.12710  0.38259  1.0000
  H   H572      1.0  0.94302  0.24722  0.62698  1.0000
  H   H573      1.0  0.90317  0.21931  0.63688  1.0000
  C   C330      1.0  0.88623  0.21846  0.42038  1.0000
  H   H574      1.0  0.94629  0.07806  0.39756  1.0000
  H   H575      1.0  0.63337  0.15802  0.48979  1.0000
  C   C331      1.0  0.86060  0.18415  0.41406  1.0000
  H   H576      1.0  0.85269  0.30884  0.32331  1.0000
  H   H577      1.0  0.83886  0.09726  0.44034  1.0000
  H   H578      1.0  0.88729  0.11092  0.47861  1.0000
  H   H579      1.0  0.90592  0.27056  0.40255  1.0000
  C   C332      1.0  0.86421  0.13139  0.48215  1.0000
  H   H580      1.0  0.64250  0.12040  0.52964  1.0000
  H   H581      1.0  0.91234  0.35878  0.62524  1.0000
  H   H582      1.0  0.88777  0.18200  0.46552  1.0000
  H   H583      1.0  0.83790  0.17950  0.46345  1.0000
  H   H584      1.0  0.91578  0.20961  0.42385  1.0000
  H   H585      1.0  0.85799  0.08596  0.39477  1.0000
  H   H586      1.0  0.71973  0.28522  0.51378  1.0000
  C   C333      1.0  0.88810  0.04974  0.32535  1.0000
  C   C334      1.0  0.65276  0.11572  0.64483  1.0000
  H   H587      1.0  0.60474  0.10845  0.61888  1.0000
  C   C335      1.0  0.89872  0.34830  0.64317  1.0000
  C   C336      1.0  0.87581  0.08685  0.32957  1.0000
  C   C337      1.0  0.87407  0.31712  0.64130  1.0000
  H   H588      1.0  0.97792  0.11464  0.40923  1.0000
  H   H589      1.0  0.87076  0.02635  0.33171  1.0000
  H   H590      1.0  0.71210  0.02955  0.32816  1.0000
  S   S75       1.0  0.88487  0.16378  0.32674  1.0000
  Fe  Fe38      1.0  0.77505  0.24651  0.31947  1.0000
  C   C338      1.0  0.89862  0.11697  0.32167  1.0000
  H   H591      1.0  0.73146  0.07565  0.32296  1.0000
  C   C339      1.0  0.73784  0.04510  0.32204  1.0000
  H   H592      1.0  0.93138  0.22862  0.31786  1.0000
  C   C340      1.0  0.90547  0.36645  0.66784  1.0000
  Fe  Fe39      1.0  0.52881  0.01261  0.71343  1.0000
  S   S76       1.0  0.96469  0.08073  0.71097  1.0000
  S   S77       1.0  0.58415  0.04621  0.70711  1.0000
  Fe  Fe40      1.0  0.96698  0.44379  0.69937  1.0000
  S   S78       1.0  0.97032  0.43999  0.74452  1.0000
  S   S79       1.0  0.93551  0.40695  0.66850  1.0000
  H   H593      1.0  0.59182  0.02246  0.79377  1.0000
  H   H594      1.0  0.95027  0.16967  0.65508  1.0000
  H   H595      1.0  0.97968  0.16658  0.84735  1.0000
  H   H596      1.0  0.90166  0.12847  0.69995  1.0000
  C   C341      1.0  0.88749  0.35249  0.69078  1.0000
  C   C342      1.0  0.84405  0.02068  0.67785  1.0000
  C   C343      1.0  0.90752  0.11238  0.68206  1.0000
  H   H597      1.0  0.98767  0.26441  0.72168  1.0000
  H   H598      1.0  0.97470  0.20403  0.72146  1.0000
  H   H599      1.0  0.84773  0.31223  0.70660  1.0000
  C   C344      1.0  0.97248  0.28005  0.70578  1.0000
  H   H600      1.0  0.99024  0.26204  0.79177  1.0000
  C   C345      1.0  0.64595  0.08615  0.68884  1.0000
  C   C346      1.0  0.94437  0.06535  0.65887  1.0000
  C   C347      1.0  0.93720  0.08638  0.68196  1.0000
  H   H601      1.0  0.94381  0.33004  0.79128  1.0000
  H   H602      1.0  0.97770  0.27988  0.82345  1.0000
  C   C348      1.0  0.97010  0.25743  0.67937  1.0000
  H   H603      1.0  0.85185  0.24728  0.71877  1.0000
  H   H604      1.0  0.79823  0.49049  0.86958  1.0000
  C   C349      1.0  0.85518  0.30391  0.66408  1.0000
  H   H605      1.0  0.96553  0.16470  0.70083  1.0000
  H   H606      1.0  0.86710  0.04122  0.68145  1.0000
  H   H607      1.0  0.81036  0.03444  0.71388  1.0000
  H   H608      1.0  0.84569  0.19764  0.71253  1.0000
  H   H609      1.0  0.75532  0.04594  0.74297  1.0000
  H   H610      1.0  0.91224  0.18656  0.72715  1.0000
  H   H611      1.0  0.99352  0.33408  0.72006  1.0000
  C   C350      1.0  0.97044  0.33098  0.77960  1.0000
  C   C351      1.0  0.80041  0.07668  0.68414  1.0000
  S   S80       1.0  0.51680  0.00503  0.75768  1.0000
  S   S81       1.0  0.82292  0.26511  0.66305  1.0000
  H   H612      1.0  0.73728  0.07634  0.76882  1.0000
  H   H613      1.0  0.91857  0.23635  0.73168  1.0000
  H   H614      1.0  0.85529  0.21423  0.74602  1.0000
  C   C352      1.0  0.95777  0.20011  0.65392  1.0000
  C   C353      1.0  0.59531  0.08054  0.65686  1.0000
  H   H615      1.0  0.89208  0.36612  0.70987  1.0000
  H   H616      1.0  0.87687  0.03650  0.72583  1.0000
  H   H617      1.0  0.91648  0.00607  0.71986  1.0000
  H   H618      1.0  0.98562  0.20389  0.80526  1.0000
  H   H619      1.0  0.97422  0.35991  0.77158  1.0000
  C   C354      1.0  0.72922  0.05740  0.75208  1.0000
  H   H620      1.0  0.69494  0.11777  0.67572  1.0000
  N   N20       1.0  0.95479  0.21792  0.68137  1.0000
  H   H621      1.0  0.96835  0.31131  0.76242  1.0000
  C   C355      1.0  0.86161  0.21872  0.72445  1.0000
  C   C356      1.0  0.66741  0.10731  0.67022  1.0000
  H   H622      1.0  0.89814  0.19465  0.67962  1.0000
  C   C357      1.0  0.70448  0.02552  0.76278  1.0000
  H   H623      1.0  0.65723  0.08079  0.70857  1.0000
  H   H624      1.0  0.71380  0.07429  0.73686  1.0000
  H   H625      1.0  0.96780  0.04598  0.65841  1.0000
  H   H626      1.0  0.89957  0.24418  0.68152  1.0000
  H   H627      1.0  0.99177  0.13757  0.81894  1.0000
  H   H628      1.0  0.95218  0.27476  0.66579  1.0000
  C   C358      1.0  0.97728  0.19378  0.70056  1.0000
  H   H629      1.0  0.83878  0.02238  0.65588  1.0000
  C   C359      1.0  0.91353  0.21834  0.68928  1.0000
  H   H630      1.0  0.67970  0.03880  0.77251  1.0000
  C   C360      1.0  0.60975  0.07255  0.68237  1.0000
  C   C361      1.0  0.86234  0.32174  0.68883  1.0000
  C   C362      1.0  0.88781  0.00752  0.72864  1.0000
  H   H631      1.0  0.94368  0.28711  0.71283  1.0000
  C   C363      1.0  0.90393  0.21479  0.71957  1.0000
  C   C364      1.0  0.80792  0.03570  0.69176  1.0000
  H   H632      1.0  0.77293  0.08591  0.69253  1.0000
  H   H633      1.0  0.67268  0.01751  0.72705  1.0000
  H   H634      1.0  0.82276  0.09516  0.69241  1.0000
  C   C365      1.0  0.88493  0.11718  0.65920  1.0000
  H   H635      1.0  0.79940  0.08006  0.66197  1.0000
  H   H636      1.0  0.56757  0.07052  0.65149  1.0000
  H   H637      1.0  0.86207  0.13725  0.65941  1.0000
  H   H638      1.0  0.84683  0.49016  0.87995  1.0000
  H   H639      1.0  0.91009  0.02222  0.76773  1.0000
  H   H640      1.0  0.78289  0.01928  0.68548  1.0000
  H   H641      1.0  0.72122  0.01006  0.77796  1.0000
  H   H642      1.0  0.62129  0.99970  0.75251  1.0000
  C   C366      1.0  0.99336  0.31724  0.70133  1.0000
  H   H643      1.0  0.97927  0.33423  0.68552  1.0000
  C   C367      1.0  0.89125  0.00066  0.75881  1.0000
  H   H644      1.0  0.86327  0.00269  0.76866  1.0000
  H   H645      1.0  0.99845  0.25726  0.66983  1.0000
  Fe  Fe41      1.0  0.99896  0.02724  0.71392  1.0000
  C   C368      1.0  0.69121  0.99961  0.73978  1.0000
  H   H646      1.0  0.88968  0.66383  0.24919  1.0000
  S   S82       1.0  0.98622  0.97232  0.18985  1.0000
  S   S83       1.0  0.53674  0.89869  0.17431  1.0000
  Fe  Fe42      1.0  0.81487  0.78635  0.10644  1.0000
  S   S84       1.0  0.78397  0.76327  0.14171  1.0000
  S   S85       1.0  0.87169  0.81381  0.10932  1.0000
  Fe  Fe43      1.0  0.75457  0.76350  0.06640  1.0000
  S   S86       1.0  0.71816  0.73783  0.09938  1.0000
  S   S87       1.0  0.74225  0.78293  0.02310  1.0000
  Fe  Fe44      1.0  0.73162  0.78927  0.12424  1.0000
  S   S88       1.0  0.70060  0.82807  0.15399  1.0000
  Fe  Fe45      1.0  0.77330  0.71341  0.11547  1.0000
  S   S89       1.0  0.78017  0.65551  0.13554  1.0000
  S   S90       1.0  0.76426  0.81599  0.09076  1.0000
  S   S91       1.0  0.80774  0.73524  0.08079  1.0000
  Fe  Fe46      1.0  0.93089  0.96342  0.21078  1.0000
  S   S92       1.0  0.87442  0.94524  0.19460  1.0000
  S   S93       1.0  0.95601  0.93273  0.24571  1.0000
  H   H647      1.0  0.93750  0.68147  0.24834  1.0000
  S   S94       1.0  0.92767  0.57422  0.18379  1.0000
  H   H648      1.0  0.87611  0.86523  0.25727  1.0000
  C   C369      1.0  0.87445  0.90802  0.17147  1.0000
  C   C370      1.0  0.90799  0.89471  0.16023  1.0000
  C   C371      1.0  0.90701  0.86580  0.14105  1.0000
  C   C372      1.0  0.87259  0.84972  0.13347  1.0000
  C   C373      1.0  0.83917  0.86232  0.14527  1.0000
  C   C374      1.0  0.84010  0.89161  0.16410  1.0000
  H   H649      1.0  0.93459  0.90722  0.16590  1.0000
  H   H650      1.0  0.93292  0.85604  0.13201  1.0000
  H   H651      1.0  0.81252  0.84987  0.13967  1.0000
  H   H652      1.0  0.81414  0.90164  0.17294  1.0000
  C   C375      1.0  0.82152  0.63337  0.14891  1.0000
  C   C376      1.0  0.85781  0.64723  0.14405  1.0000
  C   C377      1.0  0.88967  0.62868  0.15486  1.0000
  C   C378      1.0  0.88596  0.59596  0.17068  1.0000
  C   C379      1.0  0.84967  0.58214  0.17560  1.0000
  C   C380      1.0  0.81779  0.60069  0.16476  1.0000
  H   H653      1.0  0.86135  0.67190  0.13158  1.0000
  H   H654      1.0  0.91752  0.63943  0.15068  1.0000
  H   H655      1.0  0.84615  0.55707  0.18766  1.0000
  H   H656      1.0  0.78997  0.58951  0.16863  1.0000
  H   H657      1.0  0.65612  0.93785  0.04253  1.0000
  H   H658      1.0  0.71684  0.90550  0.02903  1.0000
  H   H659      1.0  0.72983  0.88637  0.08261  1.0000
  H   H660      1.0  0.76502  0.70867  0.00206  1.0000
  H   H661      1.0  0.63741  0.76686  0.18753  1.0000
  C   C381      1.0  0.58282  0.88032  0.16846  1.0000
  C   C382      1.0  0.61503  0.89543  0.18045  1.0000
  C   C383      1.0  0.65071  0.87912  0.17566  1.0000
  C   C384      1.0  0.65483  0.84774  0.15866  1.0000
  C   C385      1.0  0.62262  0.83272  0.14660  1.0000
  C   C386      1.0  0.58693  0.84896  0.15145  1.0000
  H   H662      1.0  0.61245  0.91958  0.19350  1.0000
  H   H663      1.0  0.67537  0.89092  0.18521  1.0000
  H   H664      1.0  0.62508  0.80816  0.13394  1.0000
  H   H665      1.0  0.56223  0.83687  0.14214  1.0000
  C   C387      1.0  0.92019  0.75803  0.16367  1.0000
  C   C388      1.0  0.93125  0.73658  0.13832  1.0000
  H   H666      1.0  0.92204  0.78856  0.15906  1.0000
  H   H667      1.0  0.94125  0.75176  0.17945  1.0000
  C   C389      1.0  0.60120  0.92066  0.07981  1.0000
  H   H668      1.0  0.85779  0.87183  0.22394  1.0000
  C   C390      1.0  0.80387  0.87475  0.04172  1.0000
  C   C391      1.0  0.85023  0.94591  0.27331  1.0000
  S   S95       1.0  0.51232  0.95053  0.24542  1.0000
  C   C392      1.0  0.58978  0.79102  0.20867  1.0000
  H   H669      1.0  0.83943  0.91861  0.28093  1.0000
  H   H670      1.0  0.77683  0.86303  0.03425  1.0000
  S   S96       1.0  0.94476  0.51591  0.25268  1.0000
  C   C393      1.0  0.87949  0.74823  0.17277  1.0000
  H   H671      1.0  0.86159  0.81519  0.19138  1.0000
  C   C394      1.0  0.87889  0.73092  0.00899  1.0000
  Fe  Fe47      1.0  0.51098  0.94583  0.20020  1.0000
  H   H672      1.0  0.90583  0.87444  0.01785  1.0000
  N   N21       1.0  0.53655  0.81411  0.24046  1.0000
  H   H673      1.0  0.87423  0.71839  0.16782  1.0000
  H   H674      1.0  0.97167  0.88605  0.03062  1.0000
  H   H675      1.0  0.92944  0.69368  0.19863  1.0000
  H   H676      1.0  0.95914  0.74649  0.13113  1.0000
  C   C395      1.0  0.98469  0.82875  0.23138  1.0000
  H   H677      1.0  0.81147  0.90000  0.02974  1.0000
  H   H678      1.0  0.92460  0.64033  0.22915  1.0000
  H   H679      1.0  0.87734  0.67048  0.01532  1.0000
  H   H680      1.0  0.81852  0.70159  0.18016  1.0000
  H   H681      1.0  0.93311  0.70596  0.14255  1.0000
  H   H682      1.0  0.56485  0.90429  0.11308  1.0000
  H   H683      1.0  0.52415  0.82593  0.19863  1.0000
  H   H684      1.0  0.83182  0.69284  0.01664  1.0000
  C   C396      1.0  0.85642  0.76684  0.01665  1.0000
  C   C397      1.0  0.90764  0.81220  0.02178  1.0000
  H   H685      1.0  0.77935  0.91279  0.11177  1.0000
  H   H686      1.0  0.82588  0.82021  0.05188  1.0000
  C   C398      1.0  0.62060  0.76123  0.20592  1.0000
  H   H687      1.0  0.91024  0.74135  0.12216  1.0000
  H   H688      1.0  0.56467  0.86315  0.22419  1.0000
  H   H689      1.0  0.60808  0.73269  0.20425  1.0000
  H   H690      1.0  0.56204  0.79376  0.29300  1.0000
  C   C399      1.0  0.67969  0.93591  0.05718  1.0000
  H   H691      1.0  0.87316  0.95541  0.28678  1.0000
  H   H692      1.0  0.85471  0.76737  0.03891  1.0000
  H   H693      1.0  0.90261  0.80986  0.04382  1.0000
  H   H694      1.0  0.92959  0.79075  0.01745  1.0000
  H   H695      1.0  0.60392  0.81878  0.20960  1.0000
  C   C400      1.0  0.83492  0.84504  0.04007  1.0000
  H   H696      1.0  0.86187  0.94150  0.25289  1.0000
  H   H697      1.0  0.86029  0.85706  0.04977  1.0000
  C   C401      1.0  0.60636  0.89360  0.26259  1.0000
  C   C402      1.0  0.95844  0.85854  0.03543  1.0000
  C   C403      1.0  0.87831  0.85560  0.23617  1.0000
  H   H698      1.0  0.85008  0.85979  0.99916  1.0000
  H   H699      1.0  0.57606  0.85225  0.28493  1.0000
  H   H700      1.0  0.61885  0.89797  0.24239  1.0000
  H   H701      1.0  0.95839  0.81758  0.24036  1.0000
  C   C404      1.0  0.56512  0.78395  0.23391  1.0000
  C   C405      1.0  0.81833  0.97475  0.27271  1.0000
  H   H702      1.0  0.74632  0.96125  0.00857  1.0000
  H   H703      1.0  0.86017  0.76421  0.15937  1.0000
  H   H704      1.0  0.58591  0.91652  0.26677  1.0000
  H   H705      1.0  0.90865  0.73290  0.01554  1.0000
  N   N22       1.0  0.87048  0.75655  0.20174  1.0000
  C   C406      1.0  0.58718  0.85516  0.26426  1.0000
  H   H706      1.0  0.92124  0.74810  0.22526  1.0000
  H   H707      1.0  0.90807  0.80475  0.20215  1.0000
  H   H708      1.0  0.82568  0.68954  0.21512  1.0000
  C   C407      1.0  0.56951  0.92885  0.09973  1.0000
  H   H709      1.0  0.76718  0.94630  0.13737  1.0000
  H   H710      1.0  0.83940  0.81053  0.23988  1.0000
  H   H711      1.0  0.88681  0.79871  0.24981  1.0000
  H   H712      1.0  0.76020  0.68013  0.20057  1.0000
  C   C408      1.0  0.64283  0.80071  0.06067  1.0000
  C   C409      1.0  0.90470  0.69297  0.21224  1.0000
  C   C410      1.0  0.81323  0.71032  0.20110  1.0000
  C   C411      1.0  0.87799  0.79802  0.20608  1.0000
  H   H713      1.0  0.58487  0.77931  0.25080  1.0000
  H   H714      1.0  0.90713  0.86191  0.22881  1.0000
  H   H715      1.0  0.64390  0.87424  0.04504  1.0000
  C   C412      1.0  0.89404  0.73367  0.22105  1.0000
  H   H716      1.0  0.75587  0.72915  0.19224  1.0000
  C   C413      1.0  0.82895  0.75016  0.20680  1.0000
  H   H717      1.0  0.54289  0.93444  0.08872  1.0000
  H   H718      1.0  0.81198  0.77075  0.19503  1.0000
  C   C414      1.0  0.75088  0.76508  0.99012  1.0000
  C   C415      1.0  0.77062  0.70879  0.20549  1.0000
  H   H719      1.0  0.88201  0.67841  0.20126  1.0000
  C   C416      1.0  0.92614  0.85092  0.01592  1.0000
  C   C417      1.0  0.63945  0.91563  0.09446  1.0000
  H   H720      1.0  0.68013  0.96368  0.06749  1.0000
  C   C418      1.0  0.86954  0.81355  0.23454  1.0000
  H   H721      1.0  0.76352  0.71503  0.22671  1.0000
  H   H722      1.0  0.87967  0.73212  0.24090  1.0000
  C   C419      1.0  0.91482  0.66831  0.23630  1.0000
  H   H723      1.0  0.69975  0.94094  0.12593  1.0000
  H   H724      1.0  0.82193  0.75543  0.22815  1.0000
  C   C420      1.0  0.84270  0.83385  0.01053  1.0000
  H   H725      1.0  0.57620  0.95386  0.11219  1.0000
  H   H726      1.0  0.82684  0.76277  0.00993  1.0000
  H   H727      1.0  0.62228  0.84198  0.08809  1.0000
  H   H728      1.0  0.63221  0.77710  0.07317  1.0000
  H   H729      1.0  0.98029  0.83625  0.03388  1.0000
  C   C421      1.0  0.70610  0.89779  0.09460  1.0000
  H   H730      1.0  0.60256  0.94472  0.06564  1.0000
  H   H731      1.0  0.94778  0.85966  0.05639  1.0000
  H   H732      1.0  0.72736  0.95621  0.09757  1.0000
  H   H733      1.0  0.80008  0.88349  0.06292  1.0000
  H   H734      1.0  0.80829  0.97795  0.29364  1.0000
  N   N23       1.0  0.87205  0.80367  0.00641  1.0000
  H   H735      1.0  0.64513  0.94291  0.10457  1.0000
  C   C422      1.0  0.66432  0.86890  0.06156  1.0000
  N   N24       1.0  0.67232  0.90461  0.07697  1.0000
  C   C423      1.0  0.71637  0.93229  0.04041  1.0000
  H   H736      1.0  0.75136  0.89834  0.14032  1.0000
  H   H737      1.0  0.66953  0.79158  0.05108  1.0000
  H   H738      1.0  0.57247  0.78971  0.19018  1.0000
  H   H739      1.0  0.59320  0.89513  0.06843  1.0000
  H   H740      1.0  0.60923  0.83370  0.26068  1.0000
  C   C424      1.0  0.75685  0.92163  0.12592  1.0000
  C   C425      1.0  0.72082  0.93197  0.11078  1.0000
  H   H741      1.0  0.69033  0.85872  0.05138  1.0000
  H   H742      1.0  0.69972  0.87573  0.10964  1.0000
  C   C426      1.0  0.64948  0.83517  0.07832  1.0000
  H   H743      1.0  0.86449  0.69765  0.04432  1.0000
  C   C427      1.0  0.86198  0.69594  0.02216  1.0000
  H   H744      1.0  0.63575  0.89515  0.11116  1.0000
  H   H745      1.0  0.79561  0.96284  0.26011  1.0000
  H   H746      1.0  0.74167  0.93339  0.05342  1.0000
  H   H747      1.0  0.63996  0.76210  0.22341  1.0000
  H   H748      1.0  0.66998  0.82688  0.09402  1.0000
  H   H749      1.0  0.62169  0.80697  0.04487  1.0000
  Fe  Fe48      1.0  0.94820  0.52198  0.20756  1.0000
  H   H750      1.0  0.97798  0.84148  0.21157  1.0000
  H   H751      1.0  0.73994  0.97725  0.20306  1.0000
  H   H752      1.0  0.99602  0.85125  0.24454  1.0000
  H   H753      1.0  0.72038  0.99201  0.03057  1.0000
  H   H754      1.0  0.55056  0.75645  0.23111  1.0000
  C   C428      1.0  0.71976  0.96441  0.02015  1.0000
  H   H755      1.0  0.81516  0.82468  0.00204  1.0000
  H   H756      1.0  0.69580  0.96391  0.00582  1.0000
  H   H757      1.0  0.93795  0.85147  0.99531  1.0000
  Fe  Fe49      1.0  0.96073  0.98972  0.26458  1.0000
  C   C429      1.0  0.55453  0.85226  0.24382  1.0000
  H   H758      1.0  0.62930  0.89521  0.27768  1.0000
  H   H759      1.0  0.53321  0.87309  0.25046  1.0000
  H   H760      1.0  0.76268  0.99479  0.17328  1.0000
  H   H761      1.0  0.99429  0.64025  0.25624  1.0000
  C   C430      1.0  0.76178  0.72783  0.98535  1.0000
  H   H762      1.0  0.99851  0.77522  0.26670  1.0000
  H   H763      1.0  0.99919  0.71109  0.25904  1.0000
  H   H764      1.0  0.87841  0.72625  0.98701  1.0000
  C   C431      1.0  0.53469  0.78109  0.28754  1.0000
  H   H765      1.0  0.99809  0.64956  0.22050  1.0000
  H   H766      1.0  0.54008  0.75185  0.28063  1.0000
  C   C432      1.0  0.51073  0.77868  0.31297  1.0000
  C   C433      1.0  0.51405  0.80354  0.26520  1.0000
  C   C434      1.0  0.50945  0.81642  0.21712  1.0000
  H   H767      1.0  0.80641  0.99424  0.21165  1.0000
  S   S97       1.0  0.93713  0.99658  0.30618  1.0000
  H   H768      1.0  0.50142  0.82915  0.27449  1.0000
  C   C435      1.0  0.89198  0.96652  0.64141  1.0000
  H   H769      1.0  0.94895  0.98609  0.63270  1.0000
  C   C436      1.0  0.93138  0.96059  0.62980  1.0000
  H   H770      1.0  0.87550  0.94081  0.63689  1.0000
  H   H771      1.0  0.94542  0.93620  0.63957  1.0000
  H   H772      1.0  0.87901  0.99070  0.63078  1.0000
  H   H773      1.0  0.92935  0.95499  0.60795  1.0000
  H   H774      1.0  0.98833  0.73144  0.63761  1.0000
  H   H775      1.0  0.96117  0.79525  0.64195  1.0000
  H   H776      1.0  0.52562  0.76158  0.32834  1.0000
  H   H777      1.0  0.50572  0.80721  0.32135  1.0000
  Fe  Fe50      1.0  0.74183  0.78171  0.80926  1.0000
  S   S98       1.0  0.76739  0.80749  0.84660  1.0000
  S   S99       1.0  0.69650  0.80480  0.78025  1.0000
  Fe  Fe51      1.0  0.80400  0.71886  0.80659  1.0000
  S   S100      1.0  0.83295  0.74082  0.84323  1.0000
  S   S101      1.0  0.82393  0.67010  0.77965  1.0000
  Fe  Fe52      1.0  0.77523  0.74779  0.86151  1.0000
  S   S102      1.0  0.77029  0.72113  0.90358  1.0000
  Fe  Fe53      1.0  0.82300  0.79830  0.82577  1.0000
  S   S103      1.0  0.87071  0.84041  0.82727  1.0000
  S   S104      1.0  0.74608  0.72212  0.82529  1.0000
  S   S105      1.0  0.79766  0.77617  0.78797  1.0000
  H   H778      1.0  0.57697  0.78951  0.74469  1.0000
  S   S106      1.0  0.54429  0.90233  0.77877  1.0000
  S   S107      1.0  0.52872  0.95002  0.70541  1.0000
  C   C437      1.0  0.66261  0.94223  0.72252  1.0000
  S   S108      1.0  0.95623  0.54661  0.77482  1.0000
  H   H779      1.0  0.96615  0.90887  0.77554  1.0000
  H   H780      1.0  0.65683  0.99556  0.79955  1.0000
  S   S109      1.0  0.94560  0.89865  0.71949  1.0000
  C   C438      1.0  0.69902  0.64810  0.89098  1.0000
  C   C439      1.0  0.89039  0.85781  0.79722  1.0000
  C   C440      1.0  0.92355  0.87924  0.79826  1.0000
  C   C441      1.0  0.94048  0.89252  0.77456  1.0000
  C   C442      1.0  0.92447  0.88407  0.74969  1.0000
  C   C443      1.0  0.89122  0.86292  0.74865  1.0000
  C   C444      1.0  0.87395  0.85025  0.77234  1.0000
  H   H781      1.0  0.93629  0.88548  0.81745  1.0000
  C   C445      1.0  0.63354  0.97349  0.76125  1.0000
  H   H782      1.0  0.87888  0.85618  0.72945  1.0000
  H   H783      1.0  0.84798  0.83461  0.77131  1.0000
  C   C446      1.0  0.86215  0.63731  0.77813  1.0000
  C   C447      1.0  0.86455  0.61253  0.75617  1.0000
  C   C448      1.0  0.89335  0.58509  0.75451  1.0000
  C   C449      1.0  0.92007  0.58173  0.77502  1.0000
  C   C450      1.0  0.91791  0.60686  0.79684  1.0000
  C   C451      1.0  0.88951  0.63470  0.79824  1.0000
  H   H784      1.0  0.84370  0.61423  0.74039  1.0000
  H   H785      1.0  0.89446  0.56609  0.73759  1.0000
  H   H786      1.0  0.93843  0.60468  0.81280  1.0000
  H   H787      1.0  0.88849  0.65378  0.81502  1.0000
  C   C452      1.0  0.65570  0.83431  0.78054  1.0000
  C   C453      1.0  0.63858  0.84378  0.75592  1.0000
  C   C454      1.0  0.60540  0.86577  0.75494  1.0000
  C   C455      1.0  0.58849  0.87827  0.77865  1.0000
  C   C456      1.0  0.60572  0.86906  0.80326  1.0000
  C   C457      1.0  0.63932  0.84766  0.80423  1.0000
  H   H788      1.0  0.65087  0.83358  0.73745  1.0000
  H   H789      1.0  0.59239  0.87219  0.73587  1.0000
  H   H790      1.0  0.59278  0.87825  0.82178  1.0000
  H   H791      1.0  0.65192  0.84061  0.82334  1.0000
  C   C458      1.0  0.76303  0.73929  0.93663  1.0000
  C   C459      1.0  0.76759  0.71504  0.95881  1.0000
  C   C460      1.0  0.75258  0.77666  0.94143  1.0000
  H   H792      1.0  0.77550  0.68604  0.95545  1.0000
  H   H793      1.0  0.74881  0.79569  0.92469  1.0000
  H   H794      1.0  0.70659  0.62556  0.85174  1.0000
  H   H795      1.0  0.91875  0.72822  0.85522  1.0000
  C   C461      1.0  0.91453  0.72777  0.75388  1.0000
  C   C462      1.0  0.93389  0.75478  0.85076  1.0000
  H   H796      1.0  0.78085  0.89178  0.76632  1.0000
  H   H797      1.0  0.89143  0.82938  0.96957  1.0000
  H   H798      1.0  0.83401  0.97863  0.72610  1.0000
  H   H799      1.0  0.90353  0.97242  0.76281  1.0000
  C   C463      1.0  0.88794  0.76100  0.74718  1.0000
  H   H800      1.0  0.83845  0.61841  0.89659  1.0000
  H   H801      1.0  0.97578  0.72871  0.82623  1.0000
  H   H802      1.0  0.87284  0.77059  0.76528  1.0000
  H   H803      1.0  0.89684  0.70414  0.76137  1.0000
  H   H804      1.0  0.72676  0.90464  0.73741  1.0000
  H   H805      1.0  0.67743  0.91397  0.77175  1.0000
  N   N25       1.0  0.78811  0.60593  0.85549  1.0000
  C   C464      1.0  0.82628  0.62433  0.85317  1.0000
  C   C465      1.0  0.77237  0.60020  0.82763  1.0000
  C   C466      1.0  0.76253  0.63323  0.86995  1.0000
  C   C467      1.0  0.78907  0.56929  0.87097  1.0000
  C   C468      1.0  0.55989  0.77052  0.75751  1.0000
  H   H806      1.0  0.82634  0.81309  0.95827  1.0000
  H   H807      1.0  0.82887  0.89592  0.66289  1.0000
  H   H808      1.0  0.70063  0.67781  0.88407  1.0000
  H   H809      1.0  0.82464  0.64916  0.83951  1.0000
  H   H810      1.0  0.84695  0.60535  0.84348  1.0000
  H   H811      1.0  0.77010  0.62785  0.81709  1.0000
  H   H812      1.0  0.76415  0.66155  0.86050  1.0000
  H   H813      1.0  0.89150  0.66678  0.86190  1.0000
  H   H814      1.0  0.92580  0.71811  0.73436  1.0000
  C   C469      1.0  0.58232  0.76281  0.78309  1.0000
  H   H815      1.0  0.53015  0.87499  0.68253  1.0000
  H   H816      1.0  0.96710  0.77358  0.67429  1.0000
  N   N26       1.0  0.85638  0.98147  0.68566  1.0000
  C   C470      1.0  0.62566  0.93419  0.67926  1.0000
  H   H817      1.0  0.82410  0.58017  0.80730  1.0000
  H   H818      1.0  0.90719  0.72268  0.80612  1.0000
  H   H819      1.0  0.65129  0.91400  0.72772  1.0000
  C   C471      1.0  0.96988  0.70091  0.77778  1.0000
  C   C472      1.0  0.88576  0.64534  0.87755  1.0000
  H   H820      1.0  0.98583  0.67925  0.66157  1.0000
  H   H821      1.0  0.87420  0.81181  0.92154  1.0000
  H   H822      1.0  0.55667  0.74337  0.74689  1.0000
  Fe  Fe54      1.0  0.99116  0.94297  0.72202  1.0000
  H   H823      1.0  0.83552  0.54180  0.84810  1.0000
  H   H824      1.0  0.79371  0.55294  0.76798  1.0000
  H   H825      1.0  0.66891  0.63976  0.89185  1.0000
  H   H826      1.0  0.91327  0.99750  0.67526  1.0000
  H   H827      1.0  0.79941  0.96021  0.68752  1.0000
  C   C473      1.0  0.86130  0.78550  0.92933  1.0000
  C   C474      1.0  0.83547  0.91150  0.68163  1.0000
  H   H828      1.0  0.95804  0.68294  0.79410  1.0000
  C   C475      1.0  0.86162  0.97790  0.71556  1.0000
  C   C476      1.0  0.79398  0.57265  0.80916  1.0000
  H   H829      1.0  0.56813  0.74099  0.79544  1.0000
  C   C477      1.0  0.97452  0.67363  0.75364  1.0000
  H   H830      1.0  0.63702  0.94931  0.80175  1.0000
  H   H831      1.0  0.59793  0.99696  0.82477  1.0000
  H   H832      1.0  0.60791  0.96820  0.71222  1.0000
  H   H833      1.0  0.51358  0.74996  0.71406  1.0000
  H   H834      1.0  0.90066  0.61882  0.87238  1.0000
  C   C478      1.0  0.98884  0.76606  0.73772  1.0000
  H   H835      1.0  0.74751  0.56277  0.78135  1.0000
  C   C479      1.0  0.72027  0.62235  0.87164  1.0000
  H   H836      1.0  0.83914  0.77374  0.72266  1.0000
  C   C480      1.0  0.85806  0.74950  0.72673  1.0000
  H   H837      1.0  0.87140  0.74072  0.70758  1.0000
  H   H838      1.0  0.95418  0.76026  0.86724  1.0000
  H   H839      1.0  0.91059  0.77153  0.79884  1.0000
  H   H840      1.0  0.53801  0.80925  0.71184  1.0000
  Fe  Fe55      1.0  0.51538  0.94302  0.74908  1.0000
  C   C481      1.0  0.81200  0.89403  0.70421  1.0000
  Fe  Fe56      1.0  0.97810  0.50370  0.74359  1.0000
  C   C482      1.0  0.92748  0.74523  0.80031  1.0000
  H   H841      1.0  0.76490  0.55122  0.86489  1.0000
  H   H842      1.0  0.61227  0.95116  0.75713  1.0000
  H   H843      1.0  0.79152  0.54352  0.81700  1.0000
  C   C483      1.0  0.75465  0.90325  0.77532  1.0000
  H   H844      1.0  0.96882  0.61221  0.66019  1.0000
  C   C484      1.0  0.74634  0.78933  0.96795  1.0000
  H   H845      1.0  0.90391  0.78486  0.73847  1.0000
  H   H846      1.0  0.86556  0.90595  0.68588  1.0000
  H   H847      1.0  0.71102  0.64615  0.91152  1.0000
  C   C485      1.0  0.63483  0.96078  0.70241  1.0000
  H   H848      1.0  0.71677  0.59290  0.87861  1.0000
  H   H849      1.0  0.83464  0.76403  0.96469  1.0000
  H   H850      1.0  0.58526  0.78885  0.79515  1.0000
  N   N27       1.0  0.94570  0.73572  0.77372  1.0000
  H   H851      1.0  0.74336  0.58864  0.82856  1.0000
  C   C486      1.0  0.84342  0.63857  0.87996  1.0000
  H   H852      1.0  0.98685  0.82590  0.72804  1.0000
  C   C487      1.0  0.77726  0.57239  0.78090  1.0000
  H   H853      1.0  0.83014  0.66576  0.88561  1.0000
  H   H854      1.0  0.89689  0.65584  0.89695  1.0000
  C   C488      1.0  0.98234  0.78513  0.65669  1.0000
  C   C489      1.0  0.96941  0.76894  0.76538  1.0000
  H   H855      1.0  0.81840  0.86351  0.70579  1.0000
  H   H856      1.0  0.68890  0.93710  0.71097  1.0000
  C   C490      1.0  0.99705  0.62073  0.66759  1.0000
  H   H857      1.0  0.90518  0.78191  0.97336  1.0000
  H   H858      1.0  0.50732  0.77254  0.78030  1.0000
  H   H859      1.0  0.78474  0.57438  0.89281  1.0000
  H   H860      1.0  0.84888  0.55901  0.88025  1.0000
  N   N28       1.0  0.67074  0.96415  0.74782  1.0000
  H   H861      1.0  0.88202  0.76215  0.92795  1.0000
  H   H862      1.0  0.91339  0.77835  0.85017  1.0000
  C   C491      1.0  0.69421  0.93918  0.76584  1.0000
  H   H863      1.0  0.77217  0.63730  0.89100  1.0000
  H   H864      1.0  0.90833  0.94930  0.68146  1.0000
  H   H865      1.0  0.84068  0.72597  0.73466  1.0000
  H   H866      1.0  0.65165  0.92654  0.66812  1.0000
  C   C492      1.0  0.95498  0.75180  0.82415  1.0000
  H   H867      1.0  0.52445  0.84707  0.73243  1.0000
  C   C493      1.0  0.63368  0.97748  0.79231  1.0000
  C   C494      1.0  0.82569  0.54538  0.86898  1.0000
  H   H868      1.0  0.61183  0.90826  0.68688  1.0000
  H   H869      1.0  0.87374  0.94983  0.72060  1.0000
  H   H870      1.0  0.95250  0.79540  0.76601  1.0000
  C   C495      1.0  0.89361  0.97360  0.67208  1.0000
  S   S110      1.0  0.97050  0.50770  0.69874  1.0000
  H   H871      1.0  0.57283  0.97546  0.79753  1.0000
  C   C496      1.0  0.84810  0.79065  0.95827  1.0000
  H   H872      1.0  0.61101  0.75268  0.77784  1.0000
  H   H873      1.0  0.97051  0.77864  0.82134  1.0000
  H   H874      1.0  0.83680  0.77840  0.91642  1.0000
  H   H875      1.0  0.73780  0.81816  0.97127  1.0000
  S   S111      1.0  0.99644  0.97897  0.68514  1.0000
  H   H876      1.0  0.73804  0.87929  0.78343  1.0000
  C   C497      1.0  0.73198  0.92461  0.75409  1.0000
  H   H877      1.0  0.81871  0.90739  0.72374  1.0000
  C   C498      1.0  0.82638  0.95400  0.67712  1.0000
  H   H878      1.0  0.60598  0.94840  0.66517  1.0000
  H   H879      1.0  0.77849  0.60090  0.77180  1.0000
  H   H880      1.0  0.70108  0.95333  0.78500  1.0000
  H   H881      1.0  0.76258  0.92218  0.79210  1.0000
  H   H882      1.0  0.74970  0.94812  0.74671  1.0000
  C   C499      1.0  0.88131  0.80160  0.97693  1.0000
  H   H883      1.0  0.99673  0.62750  0.77796  1.0000
  H   H884      1.0  0.96840  0.75949  0.72165  1.0000
  H   H885      1.0  0.81131  0.50825  0.90236  1.0000
  H   H886      1.0  0.52633  0.83020  0.66564  1.0000
  C   C500      1.0  0.51022  0.85313  0.67548  1.0000
  H   H887      1.0  0.94741  0.65894  0.74971  1.0000
  H   H888      1.0  0.78143  0.89712  0.70001  1.0000
  H   H889      1.0  0.98301  0.68846  0.73508  1.0000
  H   H890      1.0  0.71582  0.99289  0.72683  1.0000
  C   C501      1.0  0.52136  0.78900  0.76413  1.0000
  H   H891      1.0  0.52831  0.81656  0.77350  1.0000
  C   C502      1.0  0.51294  0.82228  0.72152  1.0000
  H   H892      1.0  0.99253  0.77361  0.78002  1.0000
  C   C503      1.0  0.82000  0.50621  0.88100  1.0000
  C   C504      1.0  0.59678  0.99417  0.80261  1.0000
  S   S112      1.0  0.98961  0.99163  0.75054  1.0000
  H   H893      1.0  0.99604  0.62210  0.68984  1.0000
  H   H894      1.0  0.81926  0.95815  0.65556  1.0000
  H   H895      1.0  0.64707  0.98673  0.69359  1.0000
  H   H896      1.0  0.99857  0.70897  0.78476  1.0000
