data_image0
_chemical_formula_structural       HCHC3H3C3H2C2H6CHCH4CHCHNH7NCH3CH2CH11CH6CHCH4C2H2CHNC3H8C2HCNHC2H4CH3CH2CHCH3CHCH2CH4CH3CH7C3FeH4CH4CH2C2H2SHC5NH2SH3CSFeS2Fe2HFeS2H3SC4H3C6H4C6H6CFeSH2SH7SNC8H2C2H24C3SH3C2HC2NH6CH2C3H2CH2C4HCHCH2SH2CH8FeC2HCH7CH4C2NHCHCH4FeSHFeSHFeCFeS3HC4H3C8H4CH2SC4H2SNC8HCH14C3H11CHC2H2C2HC2H4CNH2NH9CHSH3CHC2SHCH9C4H5C4NHSH2CHCH2CSHCH2CHCHFeHCSH5CHC2HCH3SHFeSFeS2HS2FeS2FeS2FeHFeSFeS2C6H3C4HCH3SH3C3HSH2C4H2CHCNC4HCHC3H6CHCH2CH3CH3CH19CHNHCHCH2C2H4CHC2HFeHSH3C2HC7H6C4H5CH4NH2CH2CH4CH3CHCHCH2SH4C2H4CH3CHC2H6CH2CHFeS2FeS2FeSCSHFeHSHCHS2FeSHC7SH2C6H4CHC4H2FeCH2SHNC4H4CH4CHNHC3HC2HCHCH9CH7CH8CHCHCFeH2CH4CH3CH5CH2S2H2SH4SCHC2HNHC3HCH14CHC2H3CHCH3C5H17SHC2H3CHCHCSHCH3SHCH2CH4C2HNH2SHCH2SHCH2C3H2CHCH2SCH2CH2C3HC2H3CFeHCH4SFeC4H4CHC4H2FeCH6SH5CHC3HCSH3CHFeCFeHSHFeCS2FeS2FeCSFeCHSHSCH2Fe2SHC5NH2C4H2CH2CHC6H4CHCHC4HCH5CH5FeHFeH3CSH3SHC2HS2CH3CSCH2CHSH5NSHSH4CHC2FeH6CH5CHCHCHFeSNCSFeSFeHC2FeCS2Fe2S2H2C6H9C4HCH4C4HS2C3HCHCHC2HCH6FeH3CHC2H7CHNH2C2H2CHSNH2CSH3CHC3H2C2HC3H3CH2CH3C2H2SHCH5
_chemical_formula_sum              "H768 C432 N24 Fe48 S96"
_cell_length_a       43.9069
_cell_length_b       47.4738
_cell_length_c       38.4135
_cell_angle_alpha    89.6599
_cell_angle_beta     89.1721
_cell_angle_gamma    135.923

_space_group_name_H-M_alt    "P 1"
_space_group_IT_number       1

loop_
  _space_group_symop_operation_xyz
  'x, y, z'

loop_
  _atom_site_type_symbol
  _atom_site_label
  _atom_site_symmetry_multiplicity
  _atom_site_fract_x
  _atom_site_fract_y
  _atom_site_fract_z
  _atom_site_occupancy
  H   H1        1.0  0.01598  0.41621  0.03146  1.0000
  C   C1        1.0  0.36626  0.05564  0.18839  1.0000
  H   H2        1.0  0.05278  0.38600  0.06732  1.0000
  C   C2        1.0  0.40897  0.07908  0.16768  1.0000
  C   C3        1.0  0.34558  0.42040  0.01560  1.0000
  C   C4        1.0  0.08812  0.41480  0.06869  1.0000
  H   H3        1.0  0.44428  0.08339  0.07329  1.0000
  H   H4        1.0  0.99752  0.43647  0.07779  1.0000
  H   H5        1.0  0.42600  0.05063  0.19016  1.0000
  C   C5        1.0  0.02742  0.46609  0.13922  1.0000
  C   C6        1.0  0.39498  0.44945  0.01918  1.0000
  C   C7        1.0  0.47108  0.07646  0.11581  1.0000
  H   H6        1.0  0.10648  0.41411  0.04915  1.0000
  H   H7        1.0  0.44086  0.08949  0.21608  1.0000
  C   C8        1.0  0.46702  0.08055  0.07709  1.0000
  C   C9        1.0  0.49142  0.11501  0.13561  1.0000
  H   H8        1.0  0.34340  0.05294  0.17244  1.0000
  H   H9        1.0  0.42273  0.10901  0.16035  1.0000
  H   H10       1.0  0.13132  0.47853  0.06068  1.0000
  H   H11       1.0  0.02410  0.48313  0.05660  1.0000
  H   H12       1.0  0.03838  0.42296  0.09373  1.0000
  H   H13       1.0  0.44238  0.41924  0.03037  1.0000
  C   C10       1.0  0.44121  0.08207  0.18869  1.0000
  H   H14       1.0  0.08464  0.44789  0.03402  1.0000
  C   C11       1.0  0.02667  0.46169  0.06147  1.0000
  H   H15       1.0  0.32822  0.38859  0.02038  1.0000
  H   H16       1.0  0.35032  0.02466  0.19535  1.0000
  H   H17       1.0  0.43832  0.04893  0.12676  1.0000
  H   H18       1.0  0.40047  0.06278  0.14314  1.0000
  C   C12       1.0  0.46742  0.45289  0.02751  1.0000
  H   H19       1.0  0.33324  0.42781  0.03493  1.0000
  C   C13       1.0  0.03375  0.48404  0.17463  1.0000
  H   H20       1.0  0.45413  0.05334  0.06334  1.0000
  N   N1        1.0  0.06837  0.48287  0.08025  1.0000
  H   H21       1.0  0.47137  0.15921  0.19413  1.0000
  H   H22       1.0  0.47717  0.12535  0.12549  1.0000
  H   H23       1.0  0.37260  0.07175  0.21257  1.0000
  H   H24       1.0  0.47340  0.00337  0.05915  1.0000
  H   H25       1.0  0.40065  0.44557  0.04597  1.0000
  H   H26       1.0  0.02262  0.43996  0.14349  1.0000
  H   H27       1.0  0.09999  0.41724  0.09497  1.0000
  N   N2        1.0  0.48789  0.11119  0.17485  1.0000
  C   C14       1.0  0.01984  0.44172  0.02667  1.0000
  H   H28       1.0  0.47455  0.07009  0.23794  1.0000
  H   H29       1.0  0.00456  0.46055  0.19178  1.0000
  H   H30       1.0  0.46169  0.46267  0.05052  1.0000
  C   C15       1.0  0.09548  0.45095  0.06079  1.0000
  H   H31       1.0  0.99686  0.45474  0.12882  1.0000
  H   H32       1.0  0.48881  0.06608  0.17524  1.0000
  C   C16       1.0  0.07172  0.45398  0.08846  1.0000
  H   H33       1.0  0.41000  0.48058  0.01545  1.0000
  H   H34       1.0  0.49244  0.07180  0.11762  1.0000
  H   H35       1.0  0.08945  0.46228  0.11310  1.0000
  H   H36       1.0  0.04747  0.46368  0.00797  1.0000
  H   H37       1.0  0.47211  0.33019  0.33316  1.0000
  H   H38       1.0  0.21856  0.47576  0.63336  1.0000
  H   H39       1.0  0.10774  0.44414  0.48110  1.0000
  H   H40       1.0  0.48436  0.03523  0.42609  1.0000
  H   H41       1.0  0.48426  0.40902  0.36193  1.0000
  H   H42       1.0  0.03273  0.45997  0.40304  1.0000
  H   H43       1.0  0.10594  0.47152  0.51205  1.0000
  C   C17       1.0  0.46649  0.00955  0.40807  1.0000
  H   H44       1.0  0.06947  0.43626  0.37839  1.0000
  H   H45       1.0  0.47659  0.02204  0.38096  1.0000
  H   H46       1.0  0.10706  0.44447  0.40781  1.0000
  H   H47       1.0  0.07038  0.38551  0.37125  1.0000
  H   H48       1.0  0.05490  0.37008  0.41643  1.0000
  H   H49       1.0  0.01313  0.40292  0.42393  1.0000
  C   C18       1.0  0.04706  0.42212  0.43297  1.0000
  H   H50       1.0  0.22649  0.45808  0.59642  1.0000
  C   C19       1.0  0.07211  0.42478  0.40212  1.0000
  H   H51       1.0  0.01736  0.36195  0.38702  1.0000
  H   H52       1.0  0.26934  0.47026  0.64714  1.0000
  H   H53       1.0  0.47229  0.46357  0.59330  1.0000
  H   H54       1.0  0.05304  0.48115  0.48942  1.0000
  C   C20       1.0  0.05233  0.38294  0.39382  1.0000
  C   C21       1.0  0.03844  0.45239  0.47768  1.0000
  H   H55       1.0  0.03867  0.43601  0.49828  1.0000
  H   H56       1.0  0.04374  0.40426  0.45457  1.0000
  C   C22       1.0  0.24279  0.48433  0.61341  1.0000
  H   H57       1.0  0.49404  0.99898  0.46888  1.0000
  N   N3        1.0  0.06561  0.46170  0.44609  1.0000
  C   C23       1.0  0.12093  0.47403  0.48711  1.0000
  C   C24       1.0  0.06232  0.48271  0.41895  1.0000
  C   C25       1.0  0.11245  0.48965  0.45719  1.0000
  H   H58       1.0  0.47839  0.42763  0.90137  1.0000
  H   H59       1.0  0.09621  0.47234  0.76337  1.0000
  H   H60       1.0  0.10670  0.40489  0.84251  1.0000
  H   H61       1.0  0.46850  0.48296  0.92390  1.0000
  H   H62       1.0  0.24784  0.44297  0.75065  1.0000
  H   H63       1.0  0.24264  0.47168  0.69858  1.0000
  H   H64       1.0  0.21558  0.45269  0.75883  1.0000
  H   H65       1.0  0.10454  0.44060  0.79743  1.0000
  C   C26       1.0  0.24921  0.46718  0.75294  1.0000
  C   C27       1.0  0.05121  0.47199  0.85757  1.0000
  H   H66       1.0  0.15969  0.45636  0.83644  1.0000
  C   C28       1.0  0.12540  0.43713  0.84582  1.0000
  N   N4        1.0  0.46121  0.46485  0.99396  1.0000
  H   H67       1.0  0.12539  0.44229  0.87402  1.0000
  C   C29       1.0  0.46063  0.45515  0.92733  1.0000
  C   C30       1.0  0.10430  0.44690  0.82514  1.0000
  H   H68       1.0  0.34120  0.47864  0.98632  1.0000
  H   H69       1.0  0.47528  0.45589  0.87294  1.0000
  H   H70       1.0  0.42503  0.42869  0.92312  1.0000
  H   H71       1.0  0.04432  0.44783  0.80690  1.0000
  C   C31       1.0  0.48548  0.45523  0.89897  1.0000
  H   H72       1.0  0.06984  0.42592  0.83464  1.0000
  H   H73       1.0  0.30676  0.48440  0.70184  1.0000
  H   H74       1.0  0.27033  0.48695  0.77492  1.0000
  C   C32       1.0  0.47203  0.45217  0.96431  1.0000
  H   H75       1.0  0.06089  0.45948  0.87252  1.0000
  H   H76       1.0  0.45504  0.42028  0.96842  1.0000
  C   C33       1.0  0.00171  0.44256  0.86263  1.0000
  H   H77       1.0  0.27568  0.46466  0.97803  1.0000
  C   C34       1.0  0.06432  0.47815  0.81836  1.0000
  H   H78       1.0  0.40775  0.44837  0.96611  1.0000
  H   H79       1.0  0.09558  0.48938  0.70157  1.0000
  H   H80       1.0  0.39277  0.40821  0.99153  1.0000
  C   C35       1.0  0.41359  0.44135  0.99131  1.0000
  H   H81       1.0  0.05304  0.49041  0.80573  1.0000
  C   C36       1.0  0.30487  0.48771  0.96206  1.0000
  H   H82       1.0  0.33805  0.42332  0.98913  1.0000
  H   H83       1.0  0.06299  0.49472  0.18743  1.0000
  C   C37       1.0  0.46552  0.63798  0.02503  1.0000
  H   H84       1.0  0.09687  0.51373  0.12910  1.0000
  H   H85       1.0  0.47900  0.70192  0.03280  1.0000
  H   H86       1.0  0.35813  0.76876  0.01764  1.0000
  H   H87       1.0  0.47539  0.60498  0.05228  1.0000
  C   C38       1.0  0.06706  0.49834  0.11398  1.0000
  H   H88       1.0  0.18834  0.55593  0.03148  1.0000
  H   H89       1.0  0.32954  0.57508  0.03391  1.0000
  H   H90       1.0  0.46753  0.97034  0.08912  1.0000
  C   C39       1.0  0.49024  0.90439  0.02995  1.0000
  H   H91       1.0  0.44974  0.58439  0.01089  1.0000
  H   H92       1.0  0.44432  0.90840  0.06699  1.0000
  H   H93       1.0  0.40566  0.89492  0.03694  1.0000
  H   H94       1.0  0.48107  0.89012  0.05630  1.0000
  H   H95       1.0  0.43322  0.61956  0.03833  1.0000
  H   H96       1.0  0.06782  0.52194  0.10848  1.0000
  H   H97       1.0  0.40521  0.64388  0.02755  1.0000
  C   C40       1.0  0.15182  0.54807  0.07671  1.0000
  C   C41       1.0  0.44096  0.91297  0.03939  1.0000
  C   C42       1.0  0.48217  0.70913  0.00457  1.0000
  Fe  Fe1       1.0  0.01228  0.54732  0.05499  1.0000
  H   H98       1.0  0.49114  0.66517  0.04058  1.0000
  H   H99       1.0  0.22158  0.59388  0.06409  1.0000
  H   H100      1.0  0.44260  0.72106  0.01161  1.0000
  H   H101      1.0  0.39451  0.83747  0.06744  1.0000
  C   C43       1.0  0.19016  0.57473  0.05034  1.0000
  H   H102      1.0  0.15485  0.56845  0.09432  1.0000
  H   H103      1.0  0.32901  0.78011  0.03371  1.0000
  H   H104      1.0  0.45666  0.96234  0.00984  1.0000
  H   H105      1.0  0.42258  0.82486  0.05201  1.0000
  C   C44       1.0  0.46620  0.95802  0.03426  1.0000
  H   H106      1.0  0.10135  0.53817  0.05166  1.0000
  H   H107      1.0  0.47292  0.51760  0.04168  1.0000
  C   C45       1.0  0.35503  0.78184  0.03953  1.0000
  C   C46       1.0  0.32622  0.57769  0.00579  1.0000
  H   H108      1.0  0.10991  0.51049  0.03329  1.0000
  H   H109      1.0  0.01175  0.67131  0.17970  1.0000
  S   S1        1.0  0.99676  0.51565  0.10607  1.0000
  H   H110      1.0  0.15523  0.53102  0.09275  1.0000
  C   C47       1.0  0.45605  0.97158  0.06414  1.0000
  C   C48       1.0  0.41449  0.85214  0.01177  1.0000
  C   C49       1.0  0.39874  0.82569  0.04515  1.0000
  C   C50       1.0  0.47524  0.61292  0.02509  1.0000
  C   C51       1.0  0.10686  0.51936  0.05869  1.0000
  N   N5        1.0  0.45351  0.89737  0.01529  1.0000
  H   H111      1.0  0.19016  0.59506  0.03597  1.0000
  H   H112      1.0  0.34497  0.76325  0.06340  1.0000
  S   S2        1.0  0.08135  0.58903  0.03261  1.0000
  H   H113      1.0  0.03754  0.50975  0.17165  1.0000
  H   H114      1.0  0.42034  0.95215  0.06632  1.0000
  H   H115      1.0  0.16352  0.62323  0.00565  1.0000
  C   C52       1.0  0.44591  0.67470  0.50864  1.0000
  S   S3        1.0  0.40863  0.54528  0.57163  1.0000
  Fe  Fe2       1.0  0.26897  0.63016  0.61475  1.0000
  S   S4        1.0  0.24416  0.60865  0.56058  1.0000
  S   S5        1.0  0.31433  0.69307  0.63502  1.0000
  Fe  Fe3       1.0  0.21656  0.54654  0.64407  1.0000
  Fe  Fe4       1.0  0.25464  0.56948  0.57086  1.0000
  H   H116      1.0  0.46354  0.94856  0.57112  1.0000
  Fe  Fe5       1.0  0.17855  0.55812  0.58684  1.0000
  S   S6        1.0  0.28530  0.59546  0.62258  1.0000
  S   S7        1.0  0.20244  0.58322  0.64024  1.0000
  H   H117      1.0  0.38776  0.67420  0.44819  1.0000
  H   H118      1.0  0.30269  0.63538  0.48663  1.0000
  H   H119      1.0  0.42998  0.89539  0.56488  1.0000
  S   S8        1.0  0.09638  0.59277  0.43252  1.0000
  C   C53       1.0  0.10954  0.55063  0.53305  1.0000
  C   C54       1.0  0.14337  0.57323  0.50786  1.0000
  C   C55       1.0  0.13911  0.58608  0.47698  1.0000
  C   C56       1.0  0.10047  0.57537  0.47081  1.0000
  H   H120      1.0  0.42617  0.90114  0.41792  1.0000
  H   H121      1.0  0.17259  0.58041  0.51207  1.0000
  H   H122      1.0  0.16551  0.60391  0.45764  1.0000
  C   C57       1.0  0.31781  0.55686  0.54088  1.0000
  C   C58       1.0  0.35308  0.58589  0.56242  1.0000
  C   C59       1.0  0.38309  0.58428  0.57027  1.0000
  C   C60       1.0  0.37635  0.55237  0.55808  1.0000
  C   C61       1.0  0.34060  0.52312  0.53719  1.0000
  C   C62       1.0  0.31212  0.52593  0.52792  1.0000
  H   H123      1.0  0.35756  0.60986  0.57242  1.0000
  H   H124      1.0  0.41065  0.60698  0.58648  1.0000
  H   H125      1.0  0.36543  0.82431  0.41504  1.0000
  H   H126      1.0  0.24432  0.64070  0.48450  1.0000
  C   C63       1.0  0.40453  0.79453  0.55382  1.0000
  C   C64       1.0  0.40656  0.80349  0.58881  1.0000
  C   C65       1.0  0.37828  0.77210  0.61359  1.0000
  C   C66       1.0  0.34832  0.73176  0.60344  1.0000
  C   C67       1.0  0.34572  0.72284  0.56832  1.0000
  C   C68       1.0  0.37326  0.75431  0.54338  1.0000
  H   H127      1.0  0.42996  0.83464  0.59685  1.0000
  H   H128      1.0  0.38013  0.77912  0.64072  1.0000
  H   H129      1.0  0.32291  0.69180  0.56052  1.0000
  H   H130      1.0  0.37140  0.74764  0.51621  1.0000
  H   H131      1.0  0.12980  0.54156  0.40779  1.0000
  H   H132      1.0  0.43316  0.85990  0.44689  1.0000
  C   C69       1.0  0.42400  0.70699  0.57142  1.0000
  Fe  Fe6       1.0  0.02725  0.55394  0.41451  1.0000
  S   S9        1.0  0.28115  0.55908  0.52853  1.0000
  H   H133      1.0  0.37412  0.69943  0.51564  1.0000
  H   H134      1.0  0.37449  0.66293  0.51756  1.0000
  S   S10       1.0  0.01341  0.56505  0.36292  1.0000
  H   H135      1.0  0.38998  0.69270  0.57201  1.0000
  H   H136      1.0  0.03615  0.54330  0.49092  1.0000
  H   H137      1.0  0.33962  0.82094  0.45443  1.0000
  H   H138      1.0  0.38472  0.56264  0.63841  1.0000
  H   H139      1.0  0.04445  0.52213  0.54616  1.0000
  H   H140      1.0  0.30716  0.63198  0.44036  1.0000
  H   H141      1.0  0.31877  0.61177  0.47041  1.0000
  S   S11       1.0  0.44297  0.83326  0.52349  1.0000
  N   N6        1.0  0.21472  0.69204  0.54671  1.0000
  C   C70       1.0  0.23465  0.67824  0.53310  1.0000
  C   C71       1.0  0.19808  0.67708  0.58397  1.0000
  C   C72       1.0  0.17563  0.67273  0.52473  1.0000
  C   C73       1.0  0.24642  0.73741  0.54361  1.0000
  C   C74       1.0  0.29057  0.76306  0.56205  1.0000
  C   C75       1.0  0.25324  0.69134  0.49506  1.0000
  C   C76       1.0  0.14731  0.67958  0.53621  1.0000
  C   C77       1.0  0.22437  0.67464  0.60783  1.0000
  H   H142      1.0  0.42353  0.70313  0.62783  1.0000
  H   H143      1.0  0.12494  0.51868  0.46567  1.0000
  C   C78       1.0  0.27098  0.67432  0.48405  1.0000
  C   C79       1.0  0.10669  0.65513  0.51395  1.0000
  H   H144      1.0  0.21004  0.64474  0.53540  1.0000
  H   H145      1.0  0.26184  0.68902  0.54937  1.0000
  H   H146      1.0  0.19510  0.69588  0.59715  1.0000
  H   H147      1.0  0.16433  0.64555  0.58452  1.0000
  H   H148      1.0  0.15343  0.63938  0.52408  1.0000
  H   H149      1.0  0.18576  0.68389  0.49725  1.0000
  H   H150      1.0  0.25332  0.74717  0.51569  1.0000
  H   H151      1.0  0.23144  0.74687  0.55476  1.0000
  H   H152      1.0  0.30641  0.75321  0.55592  1.0000
  H   H153      1.0  0.11392  0.50173  0.38168  1.0000
  H   H154      1.0  0.22782  0.68010  0.47623  1.0000
  H   H155      1.0  0.28058  0.72484  0.49247  1.0000
  H   H156      1.0  0.16617  0.71197  0.53298  1.0000
  H   H157      1.0  0.13579  0.67008  0.56376  1.0000
  H   H158      1.0  0.22050  0.64991  0.59930  1.0000
  H   H159      1.0  0.21182  0.68952  0.65595  1.0000
  H   H160      1.0  0.18732  0.50698  0.46928  1.0000
  H   H161      1.0  0.35400  0.82515  0.56543  1.0000
  H   H162      1.0  0.08526  0.62215  0.51772  1.0000
  H   H163      1.0  0.11607  0.66325  0.48586  1.0000
  H   H164      1.0  0.39617  0.89545  0.45352  1.0000
  H   H165      1.0  0.40475  0.91198  0.57533  1.0000
  H   H166      1.0  0.28503  0.68498  0.45712  1.0000
  H   H167      1.0  0.29706  0.68458  0.50159  1.0000
  C   C80       1.0  0.38860  0.69029  0.50257  1.0000
  C   C81       1.0  0.32162  0.63670  0.46591  1.0000
  C   C82       1.0  0.06610  0.55174  0.49556  1.0000
  S   S12       1.0  0.18678  0.51685  0.59287  1.0000
  H   H168      1.0  0.18456  0.53354  0.50057  1.0000
  H   H169      1.0  0.32724  0.56111  0.63345  1.0000
  H   H170      1.0  0.48503  0.50780  0.60478  1.0000
  C   C83       1.0  0.44345  0.72661  0.60671  1.0000
  C   C84       1.0  0.30780  0.53508  0.65239  1.0000
  H   H171      1.0  0.43163  0.95012  0.51940  1.0000
  C   C85       1.0  0.32320  0.80774  0.55114  1.0000
  C   C86       1.0  0.36983  0.67725  0.46538  1.0000
  N   N7        1.0  0.43796  0.72418  0.50446  1.0000
  H   H172      1.0  0.37223  0.70022  0.45350  1.0000
  H   H173      1.0  0.44743  0.75061  0.45388  1.0000
  H   H174      1.0  0.39702  0.89687  0.51301  1.0000
  H   H175      1.0  0.48644  0.75608  0.54469  1.0000
  H   H176      1.0  0.43458  0.76574  0.48860  1.0000
  H   H177      1.0  0.28527  0.76117  0.59066  1.0000
  C   C87       1.0  0.42536  0.54135  0.66444  1.0000
  H   H178      1.0  0.33114  0.81177  0.52282  1.0000
  H   H179      1.0  0.17270  0.63569  0.64778  1.0000
  C   C88       1.0  0.43219  0.92001  0.56063  1.0000
  C   C89       1.0  0.20775  0.66519  0.64566  1.0000
  C   C90       1.0  0.45352  0.75893  0.48179  1.0000
  H   H180      1.0  0.30986  0.82007  0.55743  1.0000
  H   H181      1.0  0.41063  0.64978  0.51503  1.0000
  C   C91       1.0  0.42949  0.92543  0.52190  1.0000
  H   H182      1.0  0.45065  0.63276  0.50035  1.0000
  H   H183      1.0  0.40744  0.85631  0.48650  1.0000
  C   C92       1.0  0.45155  0.73906  0.54133  1.0000
  C   C93       1.0  0.40996  0.86021  0.45783  1.0000
  C   C94       1.0  0.07091  0.53992  0.52684  1.0000
  C   C95       1.0  0.36490  0.82300  0.44396  1.0000
  H   H184      1.0  0.28391  0.53407  0.66439  1.0000
  C   C96       1.0  0.17001  0.50341  0.49306  1.0000
  H   H185      1.0  0.25969  0.70308  0.60723  1.0000
  C   C97       1.0  0.45916  0.71167  0.49060  1.0000
  H   H186      1.0  0.13434  0.49816  0.43502  1.0000
  H   H187      1.0  0.12006  0.54891  0.34638  1.0000
  S   S13       1.0  0.11392  0.53434  0.57206  1.0000
  H   H188      1.0  0.46444  0.68447  0.53298  1.0000
  H   H189      1.0  0.35578  0.79521  0.45229  1.0000
  C   C98       1.0  0.42407  0.89972  0.44684  1.0000
  H   H190      1.0  0.47765  0.74146  0.60784  1.0000
  H   H191      1.0  0.45736  0.95980  0.39693  1.0000
  H   H192      1.0  0.08165  0.54140  0.37464  1.0000
  H   H193      1.0  0.45001  0.76114  0.54664  1.0000
  H   H194      1.0  0.08762  0.66146  0.52163  1.0000
  H   H195      1.0  0.44325  0.74960  0.61122  1.0000
  H   H196      1.0  0.48399  0.69667  0.63915  1.0000
  H   H197      1.0  0.05770  0.50049  0.43180  1.0000
  Fe  Fe7       1.0  0.48176  0.59953  0.56853  1.0000
  C   C99       1.0  0.47705  0.98556  0.41485  1.0000
  C   C100      1.0  0.10221  0.51381  0.39356  1.0000
  H   H198      1.0  0.45406  0.70631  0.46219  1.0000
  C   C101      1.0  0.45664  0.65657  0.48543  1.0000
  H   H199      1.0  0.44564  0.56334  0.64236  1.0000
  H   H200      1.0  0.28501  0.50349  0.51123  1.0000
  H   H201      1.0  0.25389  0.50984  0.59710  1.0000
  H   H202      1.0  0.43542  0.64246  0.46241  1.0000
  H   H203      1.0  0.49144  0.68008  0.47638  1.0000
  H   H204      1.0  0.33504  0.49827  0.52794  1.0000
  H   H205      1.0  0.22693  0.66322  0.66191  1.0000
  C   C102      1.0  0.09104  0.52671  0.36406  1.0000
  H   H206      1.0  0.06366  0.50021  0.34864  1.0000
  H   H207      1.0  0.46681  0.91326  0.50835  1.0000
  H   H208      1.0  0.42255  0.68290  0.56891  1.0000
  H   H209      1.0  0.40145  0.51010  0.65432  1.0000
  C   C103      1.0  0.46800  0.97137  0.45366  1.0000
  C   C104      1.0  0.46707  0.93601  0.50071  1.0000
  N   N8        1.0  0.46596  0.93877  0.46167  1.0000
  H   H210      1.0  0.43697  0.96130  0.46207  1.0000
  C   C105      1.0  0.28172  0.49625  0.63079  1.0000
  H   H211      1.0  0.34767  0.51054  0.64986  1.0000
  C   C106      1.0  0.36715  0.54090  0.66101  1.0000
  H   H212      1.0  0.30331  0.50171  0.60987  1.0000
  H   H213      1.0  0.43079  0.98971  0.41152  1.0000
  H   H214      1.0  0.17528  0.49156  0.51448  1.0000
  H   H215      1.0  0.04668  0.49284  0.94726  1.0000
  Fe  Fe8       1.0  0.20041  0.55797  0.92147  1.0000
  S   S14       1.0  0.25583  0.62412  0.90765  1.0000
  H   H216      1.0  0.48951  0.90110  0.81676  1.0000
  Fe  Fe9       1.0  0.26042  0.54616  0.92247  1.0000
  S   S15       1.0  0.32067  0.61126  0.90904  1.0000
  H   H217      1.0  0.41290  0.65780  0.87985  1.0000
  Fe  Fe10      1.0  0.29257  0.62371  0.94729  1.0000
  C   C107      1.0  0.36628  0.58438  0.69309  1.0000
  Fe  Fe11      1.0  0.27862  0.60557  0.87063  1.0000
  S   S16       1.0  0.30469  0.63545  0.81721  1.0000
  S   S17       1.0  0.23539  0.55888  0.96413  1.0000
  S   S18       1.0  0.42468  0.53208  0.95226  1.0000
  H   H218      1.0  0.45634  0.85503  0.76747  1.0000
  C   C108      1.0  0.34315  0.53908  0.91621  1.0000
  C   C109      1.0  0.38021  0.54631  0.92035  1.0000
  C   C110      1.0  0.37959  0.52453  0.94571  1.0000
  C   C111      1.0  0.10966  0.52389  0.74739  1.0000
  H   H219      1.0  0.19232  0.63015  0.80602  1.0000
  H   H220      1.0  0.34344  0.55561  0.89645  1.0000
  H   H221      1.0  0.40903  0.56846  0.90383  1.0000
  C   C112      1.0  0.39935  0.73907  0.70804  1.0000
  C   C113      1.0  0.49046  0.50995  0.99048  1.0000
  C   C114      1.0  0.36077  0.71849  0.96902  1.0000
  C   C115      1.0  0.33543  0.72117  0.95098  1.0000
  C   C116      1.0  0.35531  0.75811  0.93538  1.0000
  C   C117      1.0  0.40070  0.79180  0.93674  1.0000
  C   C118      1.0  0.42574  0.78924  0.95538  1.0000
  C   C119      1.0  0.40563  0.75293  0.97214  1.0000
  H   H222      1.0  0.30048  0.69495  0.94943  1.0000
  H   H223      1.0  0.33572  0.76022  0.92154  1.0000
  H   H224      1.0  0.39252  0.65831  0.69567  1.0000
  H   H225      1.0  0.13153  0.55638  0.75297  1.0000
  C   C120      1.0  0.13732  0.54774  0.82139  1.0000
  H   H226      1.0  0.24312  0.64577  0.81322  1.0000
  H   H227      1.0  0.20440  0.62475  0.84903  1.0000
  S   S19       1.0  0.42668  0.83681  0.91434  1.0000
  C   C121      1.0  0.22992  0.54671  0.72813  1.0000
  C   C122      1.0  0.22838  0.53299  0.76113  1.0000
  C   C123      1.0  0.25192  0.56023  0.78844  1.0000
  C   C124      1.0  0.27602  0.60102  0.78313  1.0000
  H   H228      1.0  0.38188  0.70926  0.69682  1.0000
  H   H229      1.0  0.25199  0.54974  0.81339  1.0000
  S   S20       1.0  0.22009  0.53914  0.88111  1.0000
  N   N9        1.0  0.40743  0.77453  0.80248  1.0000
  C   C125      1.0  0.43759  0.81775  0.81392  1.0000
  C   C126      1.0  0.41715  0.75453  0.82290  1.0000
  C   C127      1.0  0.41862  0.77617  0.76457  1.0000
  C   C128      1.0  0.35948  0.75042  0.80626  1.0000
  C   C129      1.0  0.34632  0.76160  0.83684  1.0000
  C   C130      1.0  0.43616  0.84429  0.79176  1.0000
  C   C131      1.0  0.39392  0.73493  0.74775  1.0000
  C   C132      1.0  0.40524  0.74691  0.86230  1.0000
  H   H230      1.0  0.46918  0.67972  0.70326  1.0000
  C   C133      1.0  0.29715  0.72790  0.84500  1.0000
  H   H231      1.0  0.40084  0.64742  0.73780  1.0000
  H   H232      1.0  0.13529  0.54862  0.85023  1.0000
  H   H233      1.0  0.49015  0.76517  0.78184  1.0000
  H   H234      1.0  0.43160  0.81918  0.84165  1.0000
  H   H235      1.0  0.39859  0.72402  0.81277  1.0000
  H   H236      1.0  0.46072  0.81507  0.95671  1.0000
  H   H237      1.0  0.31824  0.58752  0.69449  1.0000
  H   H238      1.0  0.41154  0.79036  0.74838  1.0000
  H   H239      1.0  0.34789  0.75326  0.78221  1.0000
  H   H240      1.0  0.33923  0.71747  0.80875  1.0000
  H   H241      1.0  0.35504  0.78949  0.83017  1.0000
  H   H242      1.0  0.36306  0.76745  0.86110  1.0000
  H   H243      1.0  0.42522  0.75128  0.98640  1.0000
  H   H244      1.0  0.40240  0.82709  0.78407  1.0000
  C   C134      1.0  0.12965  0.49173  0.82959  1.0000
  C   C135      1.0  0.45462  0.68278  0.94610  1.0000
  C   C136      1.0  0.09391  0.57195  0.00051  1.0000
  H   H245      1.0  0.36922  0.72466  0.86646  1.0000
  H   H246      1.0  0.40562  0.87365  0.94996  1.0000
  H   H247      1.0  0.45538  0.75000  0.87748  1.0000
  H   H248      1.0  0.47577  0.51586  0.97254  1.0000
  H   H249      1.0  0.27832  0.72006  0.82132  1.0000
  H   H250      1.0  0.28793  0.70064  0.85543  1.0000
  H   H251      1.0  0.28853  0.73803  0.86518  1.0000
  H   H252      1.0  0.45520  0.56936  0.75693  1.0000
  H   H253      1.0  0.44709  0.54444  0.68244  1.0000
  H   H254      1.0  0.48783  0.71344  0.93979  1.0000
  H   H255      1.0  0.29488  0.64577  0.74597  1.0000
  C   C137      1.0  0.25427  0.58753  0.72276  1.0000
  H   H256      1.0  0.38500  0.74910  0.69713  1.0000
  C   C138      1.0  0.14913  0.58031  0.96979  1.0000
  C   C139      1.0  0.20774  0.62293  0.82061  1.0000
  H   H257      1.0  0.12212  0.55718  0.81106  1.0000
  H   H258      1.0  0.47364  0.63253  0.80386  1.0000
  C   C140      1.0  0.27690  0.61451  0.75027  1.0000
  C   C141      1.0  0.44381  0.66623  0.88155  1.0000
  H   H259      1.0  0.43592  0.87287  0.83595  1.0000
  C   C142      1.0  0.31244  0.51069  0.70852  1.0000
  C   C143      1.0  0.41931  0.72887  0.87987  1.0000
  H   H260      1.0  0.42166  0.84071  0.99155  1.0000
  H   H261      1.0  0.47964  0.90668  0.96338  1.0000
  H   H262      1.0  0.42777  0.58215  0.69094  1.0000
  H   H263      1.0  0.48037  0.74789  0.97465  1.0000
  C   C144      1.0  0.45461  0.88167  0.81115  1.0000
  N   N10       1.0  0.33739  0.54219  0.67926  1.0000
  H   H264      1.0  0.42144  0.77527  0.87555  1.0000
  H   H265      1.0  0.41704  0.62331  0.92313  1.0000
  N   N11       1.0  0.11238  0.50545  0.81025  1.0000
  H   H266      1.0  0.47223  0.83337  0.81296  1.0000
  H   H267      1.0  0.46628  0.92754  0.90833  1.0000
  H   H268      1.0  0.02713  0.51795  0.98903  1.0000
  H   H269      1.0  0.16400  0.51020  0.82093  1.0000
  H   H270      1.0  0.25585  0.59851  0.69739  1.0000
  H   H271      1.0  0.44714  0.71074  0.78789  1.0000
  H   H272      1.0  0.19320  0.58153  0.78350  1.0000
  H   H273      1.0  0.33247  0.52337  0.73233  1.0000
  H   H274      1.0  0.41214  0.91013  0.97327  1.0000
  C   C145      1.0  0.30532  0.50954  0.93705  1.0000
  H   H275      1.0  0.40694  0.72309  0.75686  1.0000
  S   S21       1.0  0.20231  0.51298  0.69358  1.0000
  H   H276      1.0  0.45254  0.89952  0.79468  1.0000
  H   H277      1.0  0.20955  0.50142  0.76544  1.0000
  H   H278      1.0  0.41599  0.56969  0.77151  1.0000
  C   C146      1.0  0.40210  0.54982  0.68387  1.0000
  H   H279      1.0  0.20407  0.57576  0.82650  1.0000
  C   C147      1.0  0.11800  0.52143  0.70933  1.0000
  C   C148      1.0  0.44656  0.57871  0.77800  1.0000
  S   S22       1.0  0.25696  0.49701  0.93156  1.0000
  H   H280      1.0  0.32741  0.57693  0.73617  1.0000
  C   C149      1.0  0.36943  0.60102  0.98593  1.0000
  H   H281      1.0  0.38859  0.59059  0.71287  1.0000
  H   H282      1.0  0.45445  0.79593  0.76093  1.0000
  H   H283      1.0  0.35848  0.71231  0.75439  1.0000
  H   H284      1.0  0.15194  0.51849  0.76550  1.0000
  H   H285      1.0  0.26734  0.51554  0.72259  1.0000
  H   H286      1.0  0.45258  0.77274  0.81991  1.0000
  H   H287      1.0  0.35874  0.64540  0.73284  1.0000
  H   H288      1.0  0.47202  0.69908  0.87563  1.0000
  H   H289      1.0  0.18319  0.59770  0.96476  1.0000
  C   C150      1.0  0.44847  0.93161  0.92445  1.0000
  C   C151      1.0  0.44731  0.65541  0.91775  1.0000
  C   C152      1.0  0.06107  0.53531  0.98376  1.0000
  C   C153      1.0  0.11838  0.50420  0.77170  1.0000
  H   H290      1.0  0.43183  0.68554  0.94141  1.0000
  H   H291      1.0  0.46493  0.63258  0.73624  1.0000
  H   H292      1.0  0.40981  0.72307  0.90796  1.0000
  H   H293      1.0  0.38706  0.53084  0.70809  1.0000
  H   H294      1.0  0.43453  0.76122  0.70004  1.0000
  C   C154      1.0  0.42995  0.90572  0.95788  1.0000
  C   C155      1.0  0.13795  0.59474  0.99291  1.0000
  C   C156      1.0  0.18691  0.58092  0.81166  1.0000
  C   C157      1.0  0.46672  0.91609  0.97911  1.0000
  N   N12       1.0  0.45124  0.67085  0.98382  1.0000
  H   H295      1.0  0.44546  0.62240  0.97180  1.0000
  S   S23       1.0  0.33746  0.67208  0.98625  1.0000
  H   H296      1.0  0.42129  0.92221  0.90903  1.0000
  H   H297      1.0  0.40263  0.69962  0.86793  1.0000
  C   C158      1.0  0.11627  0.54334  0.95352  1.0000
  H   H298      1.0  0.36360  0.60101  0.95803  1.0000
  C   C159      1.0  0.07225  0.52126  0.96004  1.0000
  H   H299      1.0  0.46265  0.67082  0.76963  1.0000
  H   H300      1.0  0.30019  0.54669  0.99551  1.0000
  C   C160      1.0  0.37603  0.63914  0.71978  1.0000
  S   S24       1.0  0.12921  0.52366  0.92552  1.0000
  H   H301      1.0  0.44358  0.64914  0.86172  1.0000
  C   C161      1.0  0.34310  0.59422  0.71115  1.0000
  H   H302      1.0  0.37784  0.58414  0.98994  1.0000
  H   H303      1.0  0.47529  0.65901  0.91684  1.0000
  C   C162      1.0  0.48397  0.62445  0.78311  1.0000
  H   H304      1.0  0.44046  0.56240  0.80236  1.0000
  C   C163      1.0  0.47579  0.73721  0.00189  1.0000
  H   H305      1.0  0.48722  0.66046  0.68087  1.0000
  Fe  Fe12      1.0  0.48621  0.57863  0.91928  1.0000
  H   H306      1.0  0.15235  0.53706  0.70532  1.0000
  C   C164      1.0  0.34194  0.49552  0.96666  1.0000
  S   S25       1.0  0.49280  0.60484  0.86790  1.0000
  H   H307      1.0  0.39397  0.65902  0.99237  1.0000
  H   H308      1.0  0.38766  0.60715  0.67150  1.0000
  H   H309      1.0  0.06678  0.50104  0.86922  1.0000
  H   H310      1.0  0.11257  0.53638  0.69223  1.0000
  H   H311      1.0  0.47109  0.96410  0.93058  1.0000
  C   C165      1.0  0.46584  0.65027  0.98736  1.0000
  H   H312      1.0  0.13134  0.49730  0.85792  1.0000
  C   C166      1.0  0.48301  0.73817  0.78908  1.0000
  C   C167      1.0  0.26664  0.49210  0.71901  1.0000
  H   H313      1.0  0.07521  0.50818  0.75022  1.0000
  C   C168      1.0  0.40549  0.64502  0.99858  1.0000
  H   H314      1.0  0.49345  0.74157  0.81622  1.0000
  H   H315      1.0  0.38568  0.84500  0.00258  1.0000
  H   H316      1.0  0.31597  0.59318  0.00267  1.0000
  S   S26       1.0  0.59433  0.17819  0.29328  1.0000
  H   H317      1.0  0.84988  0.33443  0.24436  1.0000
  Fe  Fe13      1.0  0.93396  0.46191  0.08155  1.0000
  S   S27       1.0  0.91020  0.40209  0.09202  1.0000
  Fe  Fe14      1.0  0.61479  0.44841  0.12371  1.0000
  S   S28       1.0  0.57727  0.41536  0.07509  1.0000
  S   S29       1.0  0.58132  0.43780  0.17481  1.0000
  H   H318      1.0  0.73253  0.44673  0.10009  1.0000
  S   S30       1.0  0.67195  0.46531  0.03726  1.0000
  S   S31       1.0  0.96316  0.47081  0.30414  1.0000
  Fe  Fe15      1.0  0.62149  0.40712  0.06819  1.0000
  S   S32       1.0  0.60027  0.35204  0.04321  1.0000
  S   S33       1.0  0.65432  0.43499  0.11916  1.0000
  Fe  Fe16      1.0  0.66105  0.17881  0.11407  1.0000
  S   S34       1.0  0.59015  0.14027  0.10550  1.0000
  S   S35       1.0  0.68232  0.17380  0.16458  1.0000
  Fe  Fe17      1.0  0.68796  0.22136  0.04387  1.0000
  H   H319      1.0  0.60505  0.27766  0.25925  1.0000
  Fe  Fe18      1.0  0.61355  0.19834  0.08602  1.0000
  S   S36       1.0  0.58853  0.22200  0.11151  1.0000
  Fe  Fe19      1.0  0.60368  0.13327  0.05107  1.0000
  S   S37       1.0  0.68384  0.23680  0.09745  1.0000
  S   S38       1.0  0.67294  0.16731  0.06149  1.0000
  C   C169      1.0  0.59957  0.31776  0.06285  1.0000
  C   C170      1.0  0.59211  0.28923  0.04189  1.0000
  C   C171      1.0  0.50331  0.17524  0.18137  1.0000
  C   C172      1.0  0.59557  0.26030  0.09206  1.0000
  C   C173      1.0  0.60313  0.28887  0.11311  1.0000
  C   C174      1.0  0.60545  0.31771  0.09854  1.0000
  H   H320      1.0  0.64500  0.15992  0.28869  1.0000
  H   H321      1.0  0.60704  0.28866  0.14078  1.0000
  H   H322      1.0  0.61119  0.33951  0.11492  1.0000
  C   C175      1.0  0.86514  0.36417  0.06682  1.0000
  C   C176      1.0  0.83146  0.32497  0.08094  1.0000
  C   C177      1.0  0.79373  0.29506  0.06194  1.0000
  C   C178      1.0  0.79047  0.30400  0.02835  1.0000
  H   H323      1.0  0.52729  0.31684  0.23347  1.0000
  C   C179      1.0  0.86228  0.37286  0.03291  1.0000
  H   H324      1.0  0.83376  0.31811  0.10708  1.0000
  H   H325      1.0  0.76710  0.26521  0.07344  1.0000
  H   H326      1.0  0.52640  0.13928  0.12707  1.0000
  S   S39       1.0  0.61934  0.18726  0.03057  1.0000
  H   H327      1.0  0.52202  0.30341  0.16998  1.0000
  H   H328      1.0  0.51427  0.38041  0.31391  1.0000
  H   H329      1.0  0.54165  0.11707  0.17566  1.0000
  C   C180      1.0  0.61669  0.46627  0.20973  1.0000
  C   C181      1.0  0.59896  0.46019  0.24299  1.0000
  C   C182      1.0  0.54704  0.33681  0.16608  1.0000
  H   H330      1.0  0.81543  0.26875  0.26269  1.0000
  S   S40       1.0  0.89685  0.47513  0.10072  1.0000
  H   H331      1.0  0.56389  0.43913  0.24663  1.0000
  H   H332      1.0  0.63494  0.08857  0.03378  1.0000
  C   C183      1.0  0.62148  0.17918  0.25839  1.0000
  C   C184      1.0  0.61953  0.18973  0.22502  1.0000
  C   C185      1.0  0.63840  0.18842  0.19619  1.0000
  C   C186      1.0  0.65953  0.17660  0.20065  1.0000
  H   H333      1.0  0.60351  0.19915  0.22158  1.0000
  H   H334      1.0  0.63658  0.19656  0.17053  1.0000
  C   C187      1.0  0.66224  0.16674  0.23414  1.0000
  H   H335      1.0  0.61224  0.47472  0.29744  1.0000
  C   C188      1.0  0.76770  0.37027  0.06590  1.0000
  N   N13       1.0  0.78599  0.30711  0.26184  1.0000
  C   C189      1.0  0.75171  0.30433  0.24847  1.0000
  C   C190      1.0  0.81893  0.32176  0.23305  1.0000
  C   C191      1.0  0.76262  0.26477  0.27288  1.0000
  C   C192      1.0  0.80869  0.33360  0.29321  1.0000
  H   H336      1.0  0.83537  0.33692  0.30115  1.0000
  C   C193      1.0  0.71585  0.28978  0.27533  1.0000
  H   H337      1.0  0.78611  0.21242  0.30293  1.0000
  C   C194      1.0  0.83096  0.35330  0.20616  1.0000
  C   C195      1.0  0.50795  0.09091  0.22599  1.0000
  C   C196      1.0  0.68569  0.29198  0.25999  1.0000
  H   H338      1.0  0.73487  0.28341  0.22606  1.0000
  H   H339      1.0  0.76662  0.33387  0.23788  1.0000
  H   H340      1.0  0.86022  0.39548  0.27185  1.0000
  H   H341      1.0  0.74194  0.24343  0.25139  1.0000
  H   H342      1.0  0.73989  0.25356  0.29550  1.0000
  H   H343      1.0  0.81394  0.21982  0.08067  1.0000
  C   C197      1.0  0.50734  0.09630  0.18613  1.0000
  H   H344      1.0  0.80786  0.37818  0.27807  1.0000
  C   C198      1.0  0.83039  0.37728  0.28887  1.0000
  H   H345      1.0  0.69503  0.25784  0.28344  1.0000
  H   H346      1.0  0.73045  0.30876  0.29876  1.0000
  C   C199      1.0  0.63286  0.40211  0.25483  1.0000
  H   H347      1.0  0.80305  0.33824  0.18868  1.0000
  H   H348      1.0  0.83848  0.37859  0.21859  1.0000
  H   H349      1.0  0.88861  0.40294  0.02169  1.0000
  C   C200      1.0  0.76455  0.21526  0.29369  1.0000
  H   H350      1.0  0.65889  0.27884  0.27921  1.0000
  H   H351      1.0  0.70404  0.32392  0.25419  1.0000
  H   H352      1.0  0.67087  0.27434  0.23579  1.0000
  C   C201      1.0  0.61861  0.06991  0.01117  1.0000
  H   H353      1.0  0.68270  0.30146  0.04447  1.0000
  H   H354      1.0  0.53062  0.34678  0.16529  1.0000
  H   H355      1.0  0.56398  0.34474  0.14050  1.0000
  H   H356      1.0  0.76670  0.42358  0.08726  1.0000
  H   H357      1.0  0.59636  0.34781  0.19455  1.0000
  H   H358      1.0  0.77864  0.33234  0.11282  1.0000
  H   H359      1.0  0.84706  0.47250  0.31599  1.0000
  H   H360      1.0  0.58769  0.38397  0.31458  1.0000
  H   H361      1.0  0.80649  0.29583  0.21700  1.0000
  H   H362      1.0  0.72077  0.44227  0.25831  1.0000
  H   H363      1.0  0.81126  0.27770  0.30713  1.0000
  H   H364      1.0  0.87832  0.39399  0.16463  1.0000
  H   H365      1.0  0.78155  0.35927  0.05589  1.0000
  H   H366      1.0  0.89975  0.38723  0.19938  1.0000
  H   H367      1.0  0.54404  0.30253  0.28268  1.0000
  H   H368      1.0  0.55964  0.09361  0.22206  1.0000
  H   H369      1.0  0.79703  0.40269  0.07170  1.0000
  H   H370      1.0  0.69454  0.37000  0.03281  1.0000
  H   H371      1.0  0.79488  0.42830  0.02103  1.0000
  C   C202      1.0  0.71421  0.37287  0.05333  1.0000
  H   H372      1.0  0.61509  0.30232  0.29946  1.0000
  N   N14       1.0  0.74048  0.36615  0.03844  1.0000
  H   H373      1.0  0.94879  0.39884  0.02610  1.0000
  C   C203      1.0  0.59406  0.28794  0.27628  1.0000
  H   H374      1.0  0.86062  0.42935  0.31974  1.0000
  C   C204      1.0  0.59032  0.26076  0.05638  1.0000
  H   H375      1.0  0.55963  0.26096  0.28494  1.0000
  H   H376      1.0  0.63272  0.34441  0.24883  1.0000
  C   C205      1.0  0.95589  0.47779  0.23441  1.0000
  C   C206      1.0  0.56933  0.37403  0.29024  1.0000
  H   H377      1.0  0.64674  0.39699  0.23476  1.0000
  H   H378      1.0  0.52830  0.23423  0.18847  1.0000
  H   H379      1.0  0.55198  0.46643  0.32910  1.0000
  H   H380      1.0  0.58696  0.28873  0.01434  1.0000
  C   C207      1.0  0.51601  0.15286  0.18963  1.0000
  H   H381      1.0  0.67831  0.15733  0.23761  1.0000
  C   C208      1.0  0.59770  0.31817  0.25613  1.0000
  C   C209      1.0  0.52606  0.07358  0.23359  1.0000
  H   H382      1.0  0.50458  0.04279  0.22290  1.0000
  Fe  Fe20      1.0  0.63017  0.47597  0.04754  1.0000
  H   H383      1.0  0.68946  0.34872  0.07293  1.0000
  S   S41       1.0  0.74221  0.26772  0.00558  1.0000
  H   H384      1.0  0.86367  0.34756  0.16824  1.0000
  H   H385      1.0  0.72560  0.31427  0.02019  1.0000
  H   H386      1.0  0.55066  0.17292  0.18046  1.0000
  C   C210      1.0  0.78413  0.20437  0.06562  1.0000
  C   C211      1.0  0.82536  0.34241  0.01334  1.0000
  H   H387      1.0  0.77264  0.43561  0.15572  1.0000
  C   C212      1.0  0.64348  0.16826  0.26305  1.0000
  C   C213      1.0  0.58028  0.35799  0.19513  1.0000
  C   C214      1.0  0.74142  0.41481  0.06962  1.0000
  C   C215      1.0  0.87059  0.37148  0.18330  1.0000
  C   C216      1.0  0.77087  0.39752  0.01004  1.0000
  C   C217      1.0  0.70895  0.32372  0.02465  1.0000
  C   C218      1.0  0.84512  0.39816  0.32381  1.0000
  H   H388      1.0  0.76589  0.46883  0.15690  1.0000
  H   H389      1.0  0.57832  0.30294  0.23233  1.0000
  H   H390      1.0  0.74680  0.19585  0.27072  1.0000
  H   H391      1.0  0.95073  0.48400  0.17958  1.0000
  H   H392      1.0  0.54746  0.36517  0.22870  1.0000
  H   H393      1.0  0.57592  0.40017  0.28102  1.0000
  C   C219      1.0  0.55811  0.34981  0.23107  1.0000
  C   C220      1.0  0.79220  0.25950  0.28398  1.0000
  C   C221      1.0  0.66411  0.42245  0.28601  1.0000
  C   C222      1.0  0.52007  0.33958  0.30113  1.0000
  H   H394      1.0  0.75045  0.43731  0.19457  1.0000
  H   H395      1.0  0.78577  0.31886  0.31628  1.0000
  H   H396      1.0  0.63547  0.42524  0.24292  1.0000
  H   H397      1.0  0.95046  0.45187  0.23126  1.0000
  H   H398      1.0  0.58288  0.23800  0.04022  1.0000
  C   C223      1.0  0.62626  0.48020  0.27180  1.0000
  H   H399      1.0  0.74048  0.20437  0.31494  1.0000
  H   H400      1.0  0.68730  0.40841  0.07309  1.0000
  H   H401      1.0  0.71244  0.31539  0.09668  1.0000
  H   H402      1.0  0.82817  0.47507  0.20147  1.0000
  N   N15       1.0  0.58534  0.36386  0.26315  1.0000
  H   H403      1.0  0.59355  0.33873  0.30459  1.0000
  H   H404      1.0  0.65978  0.40037  0.30227  1.0000
  C   C224      1.0  0.77455  0.45574  0.17258  1.0000
  H   H405      1.0  0.51601  0.15171  0.21849  1.0000
  H   H406      1.0  0.50191  0.17826  0.15295  1.0000
  C   C225      1.0  0.57942  0.33070  0.27822  1.0000
  H   H407      1.0  0.73511  0.36174  0.11501  1.0000
  H   H408      1.0  0.80295  0.38012  0.12993  1.0000
  H   H409      1.0  0.75364  0.33286  0.14996  1.0000
  H   H410      1.0  0.81158  0.20387  0.01939  1.0000
  C   C226      1.0  0.71204  0.45547  0.27369  1.0000
  H   H411      1.0  0.60564  0.39100  0.18882  1.0000
  H   H412      1.0  0.51278  0.31461  0.31494  1.0000
  H   H413      1.0  0.65805  0.43720  0.30255  1.0000
  C   C227      1.0  0.71235  0.41586  0.09017  1.0000
  H   H414      1.0  0.69610  0.39419  0.11267  1.0000
  C   C228      1.0  0.74333  0.34747  0.10094  1.0000
  H   H415      1.0  0.75999  0.17125  0.07108  1.0000
  C   C229      1.0  0.77155  0.34840  0.12481  1.0000
  H   H416      1.0  0.51474  0.45082  0.01468  1.0000
  H   H417      1.0  0.75791  0.43801  0.04853  1.0000
  S   S42       1.0  0.55986  0.07517  0.02030  1.0000
  H   H418      1.0  0.77007  0.21536  0.07468  1.0000
  H   H419      1.0  0.55352  0.47604  0.06952  1.0000
  H   H420      1.0  0.57018  0.23540  0.18518  1.0000
  H   H421      1.0  0.52923  0.12012  0.23937  1.0000
  C   C230      1.0  0.51287  0.46882  0.03101  1.0000
  C   C231      1.0  0.50755  0.35507  0.32614  1.0000
  H   H422      1.0  0.49964  0.10760  0.06528  1.0000
  H   H423      1.0  0.73324  0.47039  0.29670  1.0000
  H   H424      1.0  0.71829  0.47879  0.25760  1.0000
  H   H425      1.0  0.52204  0.48455  0.08580  1.0000
  C   C232      1.0  0.79607  0.21376  0.02674  1.0000
  H   H426      1.0  0.52794  0.07169  0.26219  1.0000
  H   H427      1.0  0.74647  0.20976  0.01165  1.0000
  H   H428      1.0  0.81949  0.48241  0.26761  1.0000
  C   C233      1.0  0.53685  0.21798  0.19588  1.0000
  H   H429      1.0  0.82468  0.40288  0.00770  1.0000
  C   C234      1.0  0.82096  0.48948  0.18606  1.0000
  C   C235      1.0  0.52127  0.46541  0.06848  1.0000
  H   H430      1.0  0.53716  0.21661  0.22474  1.0000
  H   H431      1.0  0.87204  0.47739  0.27544  1.0000
  H   H432      1.0  0.82124  0.24718  0.02317  1.0000
  H   H433      1.0  0.86981  0.40024  0.33508  1.0000
  H   H434      1.0  0.49878  0.32715  0.27828  1.0000
  H   H435      1.0  0.72733  0.16197  0.01527  1.0000
  C   C236      1.0  0.97789  0.42372  0.00948  1.0000
  H   H436      1.0  0.66277  0.06412  0.00392  1.0000
  H   H437      1.0  0.97836  0.44716  0.00520  1.0000
  C   C237      1.0  0.75522  0.19349  0.00490  1.0000
  H   H438      1.0  0.49557  0.43342  0.07808  1.0000
  Fe  Fe21      1.0  0.64031  0.23258  0.41241  1.0000
  S   S43       1.0  0.67746  0.25045  0.36232  1.0000
  S   S44       1.0  0.64741  0.27864  0.44082  1.0000
  Fe  Fe22      1.0  0.61101  0.15095  0.41710  1.0000
  S   S45       1.0  0.64599  0.16268  0.36682  1.0000
  S   S46       1.0  0.57159  0.09544  0.45317  1.0000
  Fe  Fe23      1.0  0.70053  0.22577  0.38646  1.0000
  S   S47       1.0  0.77178  0.26279  0.37837  1.0000
  C   C238      1.0  0.73627  0.33458  0.50842  1.0000
  S   S48       1.0  0.66791  0.21246  0.43821  1.0000
  H   H439      1.0  0.75321  0.00528  0.64116  1.0000
  Fe  Fe24      1.0  0.62710  0.42020  0.39209  1.0000
  H   H440      1.0  0.79664  0.44159  0.37144  1.0000
  S   S49       1.0  0.58700  0.35553  0.37716  1.0000
  H   H441      1.0  0.51923  0.47528  0.33863  1.0000
  C   C239      1.0  0.86391  0.29768  0.48157  1.0000
  H   H442      1.0  0.76677  0.34723  0.52033  1.0000
  S   S50       1.0  0.61095  0.45261  0.37164  1.0000
  S   S51       1.0  0.64201  0.44613  0.44539  1.0000
  Fe  Fe25      1.0  0.93283  0.47623  0.42856  1.0000
  S   S52       1.0  0.88539  0.42253  0.46462  1.0000
  H   H443      1.0  0.65986  0.13968  0.52849  1.0000
  C   C240      1.0  0.81079  0.42701  0.50856  1.0000
  C   C241      1.0  0.59060  0.07472  0.46681  1.0000
  C   C242      1.0  0.57638  0.05463  0.49935  1.0000
  C   C243      1.0  0.59021  0.03719  0.51091  1.0000
  C   C244      1.0  0.61836  0.03961  0.48999  1.0000
  C   C245      1.0  0.63263  0.05972  0.45739  1.0000
  C   C246      1.0  0.61846  0.07690  0.44570  1.0000
  S   S53       1.0  0.58005  0.16980  0.39551  1.0000
  H   H444      1.0  0.65444  0.06175  0.44104  1.0000
  H   H445      1.0  0.62880  0.09161  0.42030  1.0000
  C   C247      1.0  0.80375  0.30722  0.40232  1.0000
  C   C248      1.0  0.78810  0.30711  0.43432  1.0000
  C   C249      1.0  0.81410  0.34227  0.45391  1.0000
  C   C250      1.0  0.85486  0.37825  0.44077  1.0000
  C   C251      1.0  0.87058  0.37856  0.40865  1.0000
  C   C252      1.0  0.84542  0.34279  0.38981  1.0000
  H   H446      1.0  0.75654  0.27971  0.44457  1.0000
  H   H447      1.0  0.80245  0.34176  0.47903  1.0000
  H   H448      1.0  0.90213  0.40624  0.39832  1.0000
  H   H449      1.0  0.85785  0.34300  0.36519  1.0000
  C   C253      1.0  0.60551  0.33523  0.39337  1.0000
  H   H450      1.0  0.70211  0.27403  0.52510  1.0000
  C   C254      1.0  0.73237  0.15216  0.54714  1.0000
  C   C255      1.0  0.63181  0.30036  0.42110  1.0000
  C   C256      1.0  0.60523  0.28355  0.39198  1.0000
  C   C257      1.0  0.59157  0.30063  0.37848  1.0000
  H   H451      1.0  0.59421  0.25678  0.38056  1.0000
  H   H452      1.0  0.52528  0.48578  0.47715  1.0000
  Fe  Fe26      1.0  0.61979  0.18642  0.34684  1.0000
  C   C258      1.0  0.72179  0.20070  0.50924  1.0000
  H   H453      1.0  0.73260  0.36908  0.53999  1.0000
  H   H454      1.0  0.81107  0.41760  0.39010  1.0000
  S   S54       1.0  0.58661  0.48565  0.45048  1.0000
  H   H455      1.0  0.61663  0.15393  0.53425  1.0000
  N   N16       1.0  0.76744  0.40478  0.49235  1.0000
  C   C259      1.0  0.75518  0.42736  0.49588  1.0000
  C   C260      1.0  0.75095  0.43595  0.53361  1.0000
  C   C261      1.0  0.78199  0.42821  0.42679  1.0000
  C   C262      1.0  0.78619  0.41812  0.39050  1.0000
  H   H456      1.0  0.72253  0.10000  0.54699  1.0000
  H   H457      1.0  0.77872  0.45681  0.48147  1.0000
  H   H458      1.0  0.71498  0.11133  0.58900  1.0000
  H   H459      1.0  0.72183  0.40739  0.54731  1.0000
  C   C263      1.0  0.81423  0.26540  0.47798  1.0000
  H   H460      1.0  0.75702  0.42862  0.42556  1.0000
  H   H461      1.0  0.64381  0.37913  0.43351  1.0000
  H   H462      1.0  0.57974  0.02257  0.53635  1.0000
  H   H463      1.0  0.53121  0.43260  0.38771  1.0000
  C   C264      1.0  0.69814  0.29451  0.52755  1.0000
  H   H464      1.0  0.80223  0.27699  0.49066  1.0000
  N   N17       1.0  0.74311  0.18998  0.49128  1.0000
  H   H465      1.0  0.66516  0.34751  0.45858  1.0000
  C   C265      1.0  0.79203  0.22441  0.49506  1.0000
  C   C266      1.0  0.73100  0.18253  0.45341  1.0000
  C   C267      1.0  0.72731  0.15202  0.50720  1.0000
  H   H466      1.0  0.73883  0.46720  0.56088  1.0000
  C   C268      1.0  0.67111  0.16582  0.51326  1.0000
  C   C269      1.0  0.75587  0.17801  0.42916  1.0000
  H   H467      1.0  0.78890  0.39135  0.45034  1.0000
  C   C270      1.0  0.98922  0.42580  0.47145  1.0000
  H   H468      1.0  0.80764  0.26231  0.44982  1.0000
  C   C271      1.0  0.73502  0.16251  0.39348  1.0000
  H   H469      1.0  0.72949  0.22560  0.49462  1.0000
  H   H470      1.0  0.55489  0.05291  0.51588  1.0000
  H   H471      1.0  0.80028  0.23047  0.52307  1.0000
  H   H472      1.0  0.80839  0.21605  0.48452  1.0000
  H   H473      1.0  0.73553  0.20699  0.44200  1.0000
  H   H474      1.0  0.69554  0.15469  0.45103  1.0000
  H   H475      1.0  0.69243  0.12511  0.50107  1.0000
  H   H476      1.0  0.74514  0.14574  0.49543  1.0000
  H   H477      1.0  0.98448  0.43696  0.44901  1.0000
  C   C272      1.0  0.64546  0.33481  0.43585  1.0000
  H   H478      1.0  0.65625  0.15518  0.48736  1.0000
  H   H479      1.0  0.66650  0.27957  0.51599  1.0000
  H   H480      1.0  0.75583  0.15636  0.44007  1.0000
  H   H481      1.0  0.79041  0.20770  0.42498  1.0000
  H   H482      1.0  0.84374  0.48951  0.49767  1.0000
  H   H483      1.0  0.67367  0.08780  0.55677  1.0000
  H   H484      1.0  0.97156  0.41461  0.52696  1.0000
  C   C273      1.0  0.65289  0.17967  0.53192  1.0000
  H   H485      1.0  0.87265  0.30316  0.50945  1.0000
  H   H486      1.0  0.73448  0.36753  0.44666  1.0000
  H   H487      1.0  0.71790  0.16050  0.56169  1.0000
  H   H488      1.0  0.75421  0.38816  0.38259  1.0000
  H   H489      1.0  0.73238  0.18197  0.38150  1.0000
  H   H490      1.0  0.75546  0.16271  0.37587  1.0000
  H   H491      1.0  0.70185  0.13101  0.39588  1.0000
  H   H492      1.0  0.72336  0.41024  0.48325  1.0000
  C   C274      1.0  0.73251  0.36457  0.51162  1.0000
  H   H493      1.0  0.73600  0.32762  0.48083  1.0000
  C   C275      1.0  0.85060  0.47129  0.49603  1.0000
  H   H494      1.0  0.87845  0.32653  0.46919  1.0000
  C   C276      1.0  0.70954  0.11028  0.56069  1.0000
  Fe  Fe27      1.0  0.63211  0.48342  0.42363  1.0000
  H   H495      1.0  0.82022  0.41104  0.50349  1.0000
  H   H496      1.0  0.80560  0.00363  0.62340  1.0000
  C   C277      1.0  0.76785  0.39633  0.45441  1.0000
  H   H497      1.0  0.87803  0.28829  0.46830  1.0000
  H   H498      1.0  0.56987  0.28680  0.35672  1.0000
  H   H499      1.0  0.66619  0.19014  0.55846  1.0000
  H   H500      1.0  0.66099  0.20445  0.51685  1.0000
  C   C278      1.0  0.74498  0.46393  0.53381  1.0000
  H   H501      1.0  0.69942  0.34868  0.50275  1.0000
  H   H502      1.0  0.80792  0.42655  0.53742  1.0000
  H   H503      1.0  0.76750  0.17390  0.55354  1.0000
  C   C279      1.0  0.54049  0.47315  0.35018  1.0000
  H   H504      1.0  0.81371  0.45906  0.43274  1.0000
  H   H505      1.0  0.51223  0.00564  0.40786  1.0000
  H   H506      1.0  0.71675  0.45146  0.51781  1.0000
  H   H507      1.0  0.49851  0.44173  0.39687  1.0000
  H   H508      1.0  0.69736  0.29948  0.55563  1.0000
  C   C280      1.0  0.63310  0.35263  0.42173  1.0000
  H   H509      1.0  0.73556  0.21307  0.53545  1.0000
  H   H510      1.0  0.52626  0.36560  0.35047  1.0000
  S   S55       1.0  0.98811  0.48932  0.40336  1.0000
  S   S56       1.0  0.63732  0.01903  0.50436  1.0000
  H   H511      1.0  0.78052  0.45075  0.54864  1.0000
  H   H512      1.0  0.98145  0.45560  0.50759  1.0000
  S   S57       1.0  0.69655  0.46759  0.37226  1.0000
  H   H513      1.0  0.81689  0.38165  0.34244  1.0000
  H   H514      1.0  0.93173  0.40388  0.49896  1.0000
  H   H515      1.0  0.89983  0.47595  0.51753  1.0000
  H   H516      1.0  0.86018  0.47204  0.46889  1.0000
  S   S58       1.0  0.91006  0.47973  0.37878  1.0000
  C   C281      1.0  0.96733  0.42498  0.50330  1.0000
  H   H517      1.0  0.97145  0.39407  0.46650  1.0000
  C   C282      1.0  0.51197  0.43700  0.37578  1.0000
  C   C283      1.0  0.74686  0.15530  0.95493  1.0000
  H   H518      1.0  0.88204  0.30674  0.92629  1.0000
  N   N18       1.0  0.75963  0.19311  0.96581  1.0000
  H   H519      1.0  0.99345  0.43907  0.89086  1.0000
  C   C284      1.0  0.57564  0.01986  0.95341  1.0000
  C   C285      1.0  0.61276  0.03061  0.96542  1.0000
  C   C286      1.0  0.82047  0.27092  0.95571  1.0000
  H   H520      1.0  0.80784  0.22644  0.92351  1.0000
  C   C287      1.0  0.87022  0.30682  0.95201  1.0000
  H   H521      1.0  0.68386  0.47831  0.91610  1.0000
  H   H522      1.0  0.66617  0.12831  0.94449  1.0000
  H   H523      1.0  0.98426  0.41234  0.85247  1.0000
  H   H524      1.0  0.88643  0.30573  0.97309  1.0000
  H   H525      1.0  0.71259  0.12777  0.96336  1.0000
  H   H526      1.0  0.99031  0.45431  0.84914  1.0000
  H   H527      1.0  0.73639  0.21999  0.95584  1.0000
  H   H528      1.0  0.64954  0.02157  0.71365  1.0000
  H   H529      1.0  0.87948  0.33553  0.95416  1.0000
  H   H530      1.0  0.80966  0.17518  0.96397  1.0000
  H   H531      1.0  0.68294  0.99961  0.73306  1.0000
  H   H532      1.0  0.65596  0.16856  0.91681  1.0000
  H   H533      1.0  0.84175  0.41796  0.94502  1.0000
  H   H534      1.0  0.53161  0.02587  0.96070  1.0000
  C   C288      1.0  0.82095  0.42052  0.95768  1.0000
  H   H535      1.0  0.82983  0.23237  0.96409  1.0000
  C   C289      1.0  0.76082  0.11191  0.95358  1.0000
  C   C290      1.0  0.65211  0.16307  0.94543  1.0000
  H   H536      1.0  0.61692  0.13593  0.95200  1.0000
  H   H537      1.0  0.82331  0.34901  0.98701  1.0000
  H   H538      1.0  0.50762  0.47085  0.96366  1.0000
  C   C291      1.0  0.56016  0.03412  0.97023  1.0000
  H   H539      1.0  0.74760  0.15430  0.92594  1.0000
  C   C292      1.0  0.77417  0.14880  0.96954  1.0000
  H   H540      1.0  0.84217  0.45270  0.96423  1.0000
  H   H541      1.0  0.55908  0.00081  0.93099  1.0000
  H   H542      1.0  0.81012  0.27270  0.98130  1.0000
  C   C293      1.0  0.67909  0.15585  0.95757  1.0000
  C   C294      1.0  0.80525  0.22978  0.95180  1.0000
  C   C295      1.0  0.72860  0.19280  0.94858  1.0000
  C   C296      1.0  0.68576  0.31656  0.99055  1.0000
  C   C297      1.0  0.65645  0.27328  0.97823  1.0000
  H   H543      1.0  0.67324  0.14972  0.98601  1.0000
  H   H544      1.0  0.66238  0.18943  0.95878  1.0000
  H   H545      1.0  0.78102  0.10803  0.96427  1.0000
  H   H546      1.0  0.65788  0.47902  0.95231  1.0000
  H   H547      1.0  0.97477  0.41121  0.98389  1.0000
  H   H548      1.0  0.73278  0.19467  0.91968  1.0000
  H   H549      1.0  0.80576  0.27452  0.93524  1.0000
  H   H550      1.0  0.69727  0.04536  0.68678  1.0000
  H   H551      1.0  0.75263  0.39840  0.99107  1.0000
  H   H552      1.0  0.76566  0.11560  0.92481  1.0000
  H   H553      1.0  0.77866  0.36206  0.98234  1.0000
  H   H554      1.0  0.70968  0.33677  0.96897  1.0000
  H   H555      1.0  0.79610  0.41111  0.93896  1.0000
  H   H556      1.0  0.76805  0.14277  0.99806  1.0000
  H   H557      1.0  0.67607  0.26701  0.97299  1.0000
  H   H558      1.0  0.52131  0.48254  0.90080  1.0000
  H   H559      1.0  0.64040  0.26905  0.95383  1.0000
  S   S59       1.0  0.63419  0.01442  0.94451  1.0000
  H   H560      1.0  0.72592  0.08404  0.96006  1.0000
  C   C298      1.0  0.66346  0.01601  0.69398  1.0000
  C   C299      1.0  0.79867  0.39349  0.99048  1.0000
  H   H561      1.0  0.69757  0.47782  0.95989  1.0000
  H   H562      1.0  0.71887  0.00811  0.68042  1.0000
  H   H563      1.0  0.66515  0.32186  0.99447  1.0000
  C   C300      1.0  0.58155  0.05925  0.99913  1.0000
  H   H564      1.0  0.63060  0.25125  0.99811  1.0000
  C   C301      1.0  0.63424  0.05586  0.99427  1.0000
  H   H565      1.0  0.76970  0.99589  0.67848  1.0000
  C   C302      1.0  0.68903  0.49007  0.94263  1.0000
  S   S60       1.0  0.61087  0.49065  0.00100  1.0000
  H   H566      1.0  0.64278  0.00333  0.67065  1.0000
  C   C303      1.0  0.85815  0.53005  0.07682  1.0000
  H   H567      1.0  0.85191  0.52495  0.29657  1.0000
  H   H568      1.0  0.52550  0.53612  0.03976  1.0000
  H   H569      1.0  0.89080  0.52470  0.22912  1.0000
  S   S61       1.0  0.77317  0.53636  0.10146  1.0000
  H   H570      1.0  0.81047  0.53156  0.27964  1.0000
  C   C304      1.0  0.76554  0.61120  0.01503  1.0000
  H   H571      1.0  0.56184  0.93401  0.06772  1.0000
  H   H572      1.0  0.49610  0.88940  0.01335  1.0000
  C   C305      1.0  0.63620  0.56342  0.01115  1.0000
  H   H573      1.0  0.63994  0.59761  0.28316  1.0000
  H   H574      1.0  0.64949  0.56547  0.03563  1.0000
  H   H575      1.0  0.54264  0.79124  0.01677  1.0000
  H   H576      1.0  0.97920  0.62598  0.15470  1.0000
  C   C306      1.0  0.57067  0.95183  0.04360  1.0000
  C   C307      1.0  0.80253  0.52993  0.07805  1.0000
  H   H577      1.0  0.84221  0.54518  0.12151  1.0000
  N   N19       1.0  0.86921  0.55363  0.22422  1.0000
  H   H578      1.0  0.53192  0.96209  0.05674  1.0000
  H   H579      1.0  0.67614  0.49899  0.17948  1.0000
  S   S62       1.0  0.70672  0.53331  0.30277  1.0000
  H   H580      1.0  0.69563  0.58178  0.26951  1.0000
  C   C308      1.0  0.79402  0.51897  0.04310  1.0000
  H   H581      1.0  0.78871  0.64466  0.01612  1.0000
  H   H582      1.0  0.53088  0.59152  0.04143  1.0000
  S   S63       1.0  0.96433  0.55374  0.17373  1.0000
  H   H583      1.0  0.96481  0.65337  0.15723  1.0000
  C   C309      1.0  0.86978  0.49362  0.29416  1.0000
  H   H584      1.0  0.76915  0.51439  0.03006  1.0000
  H   H585      1.0  0.80375  0.60671  0.04696  1.0000
  C   C310      1.0  0.68948  0.51473  0.23374  1.0000
  C   C311      1.0  0.96377  0.52995  0.20935  1.0000
  C   C312      1.0  0.67437  0.58526  0.26115  1.0000
  H   H586      1.0  0.50497  0.79525  0.02017  1.0000
  H   H587      1.0  0.94988  0.63818  0.22106  1.0000
  C   C313      1.0  0.83517  0.53617  0.09466  1.0000
  H   H588      1.0  0.89010  0.58789  0.17598  1.0000
  C   C314      1.0  0.85303  0.50911  0.27642  1.0000
  H   H589      1.0  0.72459  0.53615  0.22998  1.0000
  H   H590      1.0  0.73782  0.60286  0.08317  1.0000
  S   S64       1.0  0.87657  0.50957  0.01918  1.0000
  C   C315      1.0  0.82509  0.51916  0.20853  1.0000
  H   H591      1.0  0.68552  0.61552  0.30787  1.0000
  H   H592      1.0  0.64184  0.54135  0.32206  1.0000
  C   C316      1.0  0.88401  0.53881  0.24590  1.0000
  H   H593      1.0  0.60174  0.98401  0.04772  1.0000
  H   H594      1.0  0.81599  0.53154  0.19205  1.0000
  C   C317      1.0  0.76953  0.61253  0.08085  1.0000
  C   C318      1.0  0.82474  0.55888  0.26466  1.0000
  C   C319      1.0  0.53464  0.94889  0.03475  1.0000
  H   H595      1.0  0.74553  0.56290  0.04955  1.0000
  C   C320      1.0  0.96966  0.52663  0.27172  1.0000
  C   C321      1.0  0.94929  0.61879  0.20443  1.0000
  H   H596      1.0  0.87617  0.60371  0.22852  1.0000
  H   H597      1.0  0.90547  0.56207  0.17889  1.0000
  H   H598      1.0  0.85464  0.59698  0.31035  1.0000
  C   C322      1.0  0.77173  0.59644  0.04761  1.0000
  Fe  Fe28      1.0  0.96145  0.53167  0.12106  1.0000
  H   H599      1.0  0.79683  0.64612  0.08097  1.0000
  C   C323      1.0  0.81805  0.51421  0.02490  1.0000
  H   H600      1.0  0.57641  0.94069  0.02182  1.0000
  H   H601      1.0  0.88269  0.53414  0.09001  1.0000
  H   H602      1.0  0.96489  0.61153  0.21859  1.0000
  H   H603      1.0  0.80031  0.54961  0.24544  1.0000
  S   S65       1.0  0.66450  0.50955  0.09693  1.0000
  Fe  Fe29      1.0  0.70176  0.49375  0.08872  1.0000
  C   C324      1.0  0.90196  0.57934  0.19436  1.0000
  C   C325      1.0  0.62495  0.55019  0.31541  1.0000
  C   C326      1.0  0.67159  0.50728  0.26728  1.0000
  C   C327      1.0  0.65684  0.58978  0.29286  1.0000
  H   H604      1.0  0.91582  0.56475  0.25797  1.0000
  H   H605      1.0  0.53961  0.50091  0.02220  1.0000
  H   H606      1.0  0.69440  0.61281  0.24412  1.0000
  H   H607      1.0  0.77240  0.60037  0.10390  1.0000
  C   C328      1.0  0.86843  0.57996  0.24547  1.0000
  H   H608      1.0  0.50204  0.97897  0.03259  1.0000
  C   C329      1.0  0.83111  0.58735  0.29003  1.0000
  C   C330      1.0  0.52335  0.57571  0.01676  1.0000
  C   C331      1.0  0.84955  0.51896  0.04189  1.0000
  C   C332      1.0  0.96280  0.49320  0.26771  1.0000
  H   H609      1.0  0.50786  0.63050  0.01270  1.0000
  H   H610      1.0  0.59825  0.52594  0.29801  1.0000
  Fe  Fe30      1.0  0.92074  0.51138  0.05092  1.0000
  C   C333      1.0  0.66210  0.49384  0.20510  1.0000
  H   H611      1.0  0.97681  0.57152  0.24599  1.0000
  H   H612      1.0  0.73239  0.59873  0.01837  1.0000
  H   H613      1.0  0.89469  0.59685  0.26509  1.0000
  H   H614      1.0  0.84324  0.61451  0.27599  1.0000
  H   H615      1.0  0.85351  0.66502  0.01040  1.0000
  H   H616      1.0  0.65554  0.61980  0.01708  1.0000
  S   S66       1.0  0.98314  0.56929  0.07249  1.0000
  H   H617      1.0  0.79931  0.57139  0.30320  1.0000
  H   H618      1.0  0.90255  0.51922  0.30513  1.0000
  H   H619      1.0  0.64716  0.55862  0.24574  1.0000
  H   H620      1.0  0.97459  0.53850  0.29721  1.0000
  H   H621      1.0  0.79887  0.50018  0.22894  1.0000
  C   C334      1.0  0.97786  0.64382  0.17195  1.0000
  H   H622      1.0  0.50249  0.76567  0.05225  1.0000
  C   C335      1.0  0.50852  0.77454  0.02422  1.0000
  C   C336      1.0  0.50196  0.53306  0.02462  1.0000
  C   C337      1.0  0.97050  0.54512  0.24264  1.0000
  H   H623      1.0  0.55567  0.53588  0.31523  1.0000
  C   C338      1.0  0.95621  0.49605  0.20520  1.0000
  S   S67       1.0  0.95143  0.49214  0.02922  1.0000
  H   H624      1.0  0.54578  0.96760  0.01098  1.0000
  H   H625      1.0  0.84338  0.50500  0.16290  1.0000
  H   H626      1.0  0.59747  0.58746  0.32580  1.0000
  C   C339      1.0  0.57709  0.55642  0.33685  1.0000
  H   H627      1.0  0.50069  0.53766  0.33111  1.0000
  Fe  Fe31      1.0  0.59554  0.96637  0.54363  1.0000
  C   C340      1.0  0.55764  0.51611  0.47999  1.0000
  Fe  Fe32      1.0  0.58264  0.90062  0.58102  1.0000
  H   H628      1.0  0.59397  0.58659  0.66904  1.0000
  S   S68       1.0  0.60554  0.87326  0.60021  1.0000
  H   H629      1.0  0.49538  0.83839  0.46726  1.0000
  Fe  Fe33      1.0  0.55040  0.93308  0.61532  1.0000
  C   C341      1.0  0.63495  0.56459  0.61171  1.0000
  S   S69       1.0  0.56795  0.90627  0.52722  1.0000
  S   S70       1.0  0.61683  0.96353  0.59549  1.0000
  Fe  Fe34      1.0  0.56773  0.62965  0.54241  1.0000
  S   S71       1.0  0.52596  0.59603  0.59118  1.0000
  S   S72       1.0  0.61182  0.62455  0.51789  1.0000
  Fe  Fe35      1.0  0.55537  0.68650  0.54522  1.0000
  C   C342      1.0  0.58033  0.51270  0.36850  1.0000
  S   S73       1.0  0.56818  0.73633  0.51681  1.0000
  Fe  Fe36      1.0  0.56200  0.65692  0.61244  1.0000
  C   C343      1.0  0.65277  0.54088  0.56409  1.0000
  H   H630      1.0  0.53443  0.98508  0.44519  1.0000
  S   S74       1.0  0.60638  0.69100  0.56526  1.0000
  H   H631      1.0  0.54951  0.50139  0.59497  1.0000
  S   S75       1.0  0.70267  0.53546  0.40600  1.0000
  C   C344      1.0  0.54757  0.54983  0.36615  1.0000
  H   H632      1.0  0.54053  0.72512  0.64509  1.0000
  H   H633      1.0  0.69245  0.58839  0.35819  1.0000
  Fe  Fe37      1.0  0.96926  0.49884  0.35434  1.0000
  Fe  Fe38      1.0  0.95473  0.54516  0.39063  1.0000
  S   S76       1.0  0.92970  0.57104  0.37353  1.0000
  H   H634      1.0  0.62705  0.58529  0.39504  1.0000
  C   C345      1.0  0.81159  0.53107  0.43184  1.0000
  C   C346      1.0  0.81618  0.53691  0.39565  1.0000
  C   C347      1.0  0.85240  0.54891  0.37796  1.0000
  C   C348      1.0  0.88347  0.55393  0.39615  1.0000
  C   C349      1.0  0.87862  0.54763  0.43228  1.0000
  N   N20       1.0  0.61890  0.58279  0.62210  1.0000
  H   H635      1.0  0.70043  0.91930  0.66846  1.0000
  H   H636      1.0  0.61289  0.53332  0.62286  1.0000
  C   C350      1.0  0.51093  0.71466  0.65800  1.0000
  C   C351      1.0  0.60369  0.58546  0.49868  1.0000
  C   C352      1.0  0.64059  0.59428  0.48754  1.0000
  C   C353      1.0  0.63613  0.56427  0.47287  1.0000
  H   H637      1.0  0.49530  0.73677  0.49281  1.0000
  H   H638      1.0  0.56245  0.57181  0.61672  1.0000
  C   C354      1.0  0.56210  0.54610  0.49474  1.0000
  H   H639      1.0  0.67297  0.62454  0.49058  1.0000
  H   H640      1.0  0.66488  0.57146  0.46504  1.0000
  C   C355      1.0  0.59456  0.52493  0.46892  1.0000
  H   H641      1.0  0.53337  0.53878  0.50299  1.0000
  C   C356      1.0  0.59244  0.83381  0.57709  1.0000
  C   C357      1.0  0.58935  0.80588  0.59492  1.0000
  C   C358      1.0  0.58132  0.77547  0.57679  1.0000
  C   C359      1.0  0.57711  0.77329  0.54066  1.0000
  C   C360      1.0  0.58057  0.80142  0.52285  1.0000
  C   C361      1.0  0.58760  0.83125  0.54102  1.0000
  H   H642      1.0  0.59364  0.80799  0.62274  1.0000
  H   H643      1.0  0.57971  0.75446  0.59049  1.0000
  H   H644      1.0  0.57873  0.80058  0.49479  1.0000
  H   H645      1.0  0.59108  0.85328  0.52698  1.0000
  C   C362      1.0  0.64522  0.65223  0.62351  1.0000
  H   H646      1.0  0.65723  0.54107  0.53549  1.0000
  C   C363      1.0  0.57632  0.56155  0.60510  1.0000
  H   H647      1.0  0.65452  0.62928  0.58147  1.0000
  C   C364      1.0  0.68177  0.69607  0.61014  1.0000
  C   C365      1.0  0.51402  0.83168  0.45925  1.0000
  C   C366      1.0  0.64144  0.58666  0.37016  1.0000
  C   C367      1.0  0.52212  0.55826  0.35262  1.0000
  H   H648      1.0  0.49854  0.96529  0.51039  1.0000
  C   C368      1.0  0.64085  0.56358  0.57189  1.0000
  H   H649      1.0  0.68381  0.55562  0.57667  1.0000
  H   H650      1.0  0.62795  0.86104  0.66868  1.0000
  H   H651      1.0  0.61059  0.54833  0.55775  1.0000
  H   H652      1.0  0.66326  0.56418  0.39916  1.0000
  H   H653      1.0  0.53906  0.95096  0.48638  1.0000
  C   C369      1.0  0.84327  0.53711  0.45010  1.0000
  H   H654      1.0  0.61390  0.63985  0.61401  1.0000
  H   H655      1.0  0.49697  0.90257  0.46758  1.0000
  H   H656      1.0  0.58169  0.57016  0.57697  1.0000
  H   H657      1.0  0.79257  0.53331  0.38142  1.0000
  H   H658      1.0  0.51784  0.74139  0.66520  1.0000
  Fe  Fe39      1.0  0.68177  0.50204  0.35575  1.0000
  H   H659      1.0  0.84064  0.53407  0.47816  1.0000
  Fe  Fe40      1.0  0.50561  0.88104  0.55162  1.0000
  H   H660      1.0  0.52318  0.51812  0.37636  1.0000
  H   H661      1.0  0.52370  0.79549  0.47515  1.0000
  H   H662      1.0  0.68281  0.69737  0.58119  1.0000
  C   C370      1.0  0.71441  0.62902  0.39939  1.0000
  S   S77       1.0  0.76718  0.51690  0.45513  1.0000
  H   H663      1.0  0.70143  0.63225  0.42227  1.0000
  H   H664      1.0  0.58497  0.97670  0.43182  1.0000
  H   H665      1.0  0.54954  0.86007  0.46047  1.0000
  S   S78       1.0  0.53179  0.94094  0.56476  1.0000
  H   H666      1.0  0.66761  0.59479  0.56084  1.0000
  C   C371      1.0  0.70161  0.94307  0.66270  1.0000
  C   C372      1.0  0.55728  0.94375  0.43791  1.0000
  H   H667      1.0  0.54242  0.92699  0.41331  1.0000
  S   S79       1.0  0.51389  0.65732  0.59423  1.0000
  S   S80       1.0  0.54254  0.95116  0.66619  1.0000
  C   C373      1.0  0.77116  0.97473  0.62976  1.0000
  H   H668      1.0  0.50022  0.94374  0.41667  1.0000
  H   H669      1.0  0.73834  0.62910  0.40862  1.0000
  H   H670      1.0  0.67556  0.71364  0.61979  1.0000
  C   C374      1.0  0.67745  0.58949  0.38086  1.0000
  S   S81       1.0  0.97270  0.54032  0.44341  1.0000
  C   C375      1.0  0.52308  0.93536  0.46155  1.0000
  H   H671      1.0  0.51159  0.81152  0.51024  1.0000
  H   H672      1.0  0.66742  0.58190  0.62309  1.0000
  C   C376      1.0  0.65281  0.62675  0.61044  1.0000
  H   H673      1.0  0.68617  0.64216  0.61793  1.0000
  S   S82       1.0  0.59362  0.68073  0.66492  1.0000
  H   H674      1.0  0.90299  0.55236  0.44656  1.0000
  H   H675      1.0  0.65756  0.61592  0.35742  1.0000
  H   H676      1.0  0.68355  0.93405  0.63810  1.0000
  H   H677      1.0  0.71399  0.71037  0.61963  1.0000
  H   H678      1.0  0.54495  0.59021  0.34320  1.0000
  N   N21       1.0  0.60596  0.55145  0.34769  1.0000
  S   S83       1.0  0.52016  0.62820  0.51788  1.0000
  H   H679      1.0  0.50652  0.82149  0.43190  1.0000
  S   S84       1.0  0.51768  0.87031  0.60410  1.0000
  H   H680      1.0  0.85648  0.55453  0.35017  1.0000
  H   H681      1.0  0.56727  0.57022  0.38819  1.0000
  H   H682      1.0  0.73178  0.65537  0.38128  1.0000
  H   H683      1.0  0.91839  0.52368  0.50870  1.0000
  C   C377      1.0  0.50583  0.95148  0.44473  1.0000
  H   H684      1.0  0.57053  0.93375  0.45136  1.0000
  C   C378      1.0  0.50277  0.79945  0.48352  1.0000
  C   C379      1.0  0.53965  0.51460  0.60826  1.0000
  Fe  Fe41      1.0  0.71108  0.49614  0.42382  1.0000
  H   H685      1.0  0.75294  0.96169  0.60512  1.0000
  H   H686      1.0  0.60178  0.50897  0.37534  1.0000
  H   H687      1.0  0.56916  0.51408  0.39404  1.0000
  H   H688      1.0  0.77112  0.95346  0.64209  1.0000
  H   H689      1.0  0.53145  0.50421  0.63591  1.0000
  H   H690      1.0  0.64442  0.65286  0.65233  1.0000
  C   C380      1.0  0.89026  0.49214  0.51855  1.0000
  H   H691      1.0  0.62614  0.50884  0.57337  1.0000
  H   H692      1.0  0.88298  0.49327  0.54601  1.0000
  H   H693      1.0  0.58848  0.54594  0.66944  1.0000
  H   H694      1.0  0.50412  0.50635  0.56341  1.0000
  H   H695      1.0  0.50118  0.55312  0.37404  1.0000
  C   C381      1.0  0.49779  0.49716  0.59139  1.0000
  H   H696      1.0  0.77505  0.49446  0.52336  1.0000
  C   C382      1.0  0.61115  0.57823  0.66108  1.0000
  H   H697      1.0  0.66951  0.97309  0.65690  1.0000
  C   C383      1.0  0.75040  0.98262  0.65443  1.0000
  H   H698      1.0  0.61531  0.90280  0.66949  1.0000
  Fe  Fe42      1.0  0.53455  0.59607  0.85097  1.0000
  S   S85       1.0  0.59755  0.65691  0.86849  1.0000
  N   N22       1.0  0.76965  0.59927  0.98036  1.0000
  C   C384      1.0  0.54048  0.88278  0.73201  1.0000
  S   S86       1.0  0.54511  0.63854  0.94144  1.0000
  Fe  Fe43      1.0  0.55493  0.66442  0.88814  1.0000
  S   S87       1.0  0.56239  0.71453  0.86836  1.0000
  Fe  Fe44      1.0  0.58176  0.62491  0.92027  1.0000
  H   H699      1.0  0.89813  0.65671  0.95538  1.0000
  C   C385      1.0  0.63171  0.90517  0.69291  1.0000
  C   C386      1.0  0.49852  0.69757  0.77258  1.0000
  Fe  Fe45      1.0  0.56556  0.90359  0.85320  1.0000
  C   C387      1.0  0.70199  0.95286  0.72568  1.0000
  S   S88       1.0  0.54383  0.89760  0.95254  1.0000
  S   S89       1.0  0.61839  0.93206  0.89230  1.0000
  Fe  Fe46      1.0  0.59123  0.95334  0.91829  1.0000
  Fe  Fe47      1.0  0.56682  0.87429  0.92348  1.0000
  S   S90       1.0  0.57790  0.84000  0.95132  1.0000
  S   S91       1.0  0.54332  0.93020  0.87596  1.0000
  H   H700      1.0  0.51252  0.63125  0.79228  1.0000
  H   H701      1.0  0.75396  0.66265  0.91932  1.0000
  C   C388      1.0  0.56743  0.74937  0.89237  1.0000
  C   C389      1.0  0.56255  0.77193  0.87482  1.0000
  C   C390      1.0  0.56548  0.79958  0.89260  1.0000
  C   C391      1.0  0.57444  0.80572  0.92808  1.0000
  C   C392      1.0  0.58045  0.78393  0.94553  1.0000
  C   C393      1.0  0.57639  0.75541  0.92789  1.0000
  H   H702      1.0  0.55625  0.76789  0.84732  1.0000
  H   H703      1.0  0.56133  0.81651  0.87876  1.0000
  H   H704      1.0  0.58839  0.78924  0.97279  1.0000
  H   H705      1.0  0.58090  0.73868  0.94156  1.0000
  H   H706      1.0  0.81134  0.50566  0.99789  1.0000
  H   H707      1.0  0.56749  0.80179  0.70345  1.0000
  H   H708      1.0  0.61422  0.90359  0.71510  1.0000
  H   H709      1.0  0.50097  0.57432  0.00167  1.0000
  H   H710      1.0  0.58818  0.55649  0.92336  1.0000
  C   C394      1.0  0.57664  0.64814  0.70044  1.0000
  C   C395      1.0  0.59753  0.66514  0.73223  1.0000
  C   C396      1.0  0.58110  0.64074  0.76249  1.0000
  C   C397      1.0  0.54474  0.59884  0.76079  1.0000
  H   H711      1.0  0.71881  0.94235  0.79191  1.0000
  C   C398      1.0  0.54133  0.60611  0.69834  1.0000
  H   H712      1.0  0.62578  0.69757  0.73372  1.0000
  H   H713      1.0  0.59650  0.65436  0.78714  1.0000
  H   H714      1.0  0.64867  0.90280  0.76130  1.0000
  H   H715      1.0  0.56010  0.97620  0.73748  1.0000
  C   C399      1.0  0.54388  0.93091  0.70397  1.0000
  C   C400      1.0  0.55394  0.90344  0.76334  1.0000
  C   C401      1.0  0.55985  0.93650  0.76560  1.0000
  C   C402      1.0  0.55437  0.94995  0.73598  1.0000
  H   H716      1.0  0.52569  0.59276  0.67373  1.0000
  S   S92       1.0  0.51612  0.84484  0.88313  1.0000
  S   S93       1.0  0.56756  0.88965  0.79754  1.0000
  C   C403      1.0  0.85444  0.65626  0.98403  1.0000
  C   C404      1.0  0.53643  0.71062  0.71519  1.0000
  C   C405      1.0  0.56530  0.71194  0.77000  1.0000
  H   H717      1.0  0.77547  0.61540  0.92597  1.0000
  C   C406      1.0  0.72607  0.62916  0.91824  1.0000
  H   H718      1.0  0.55187  0.82541  0.68679  1.0000
  C   C407      1.0  0.89466  0.66384  0.98171  1.0000
  H   H719      1.0  0.72092  0.61945  0.97331  1.0000
  C   C408      1.0  0.59890  0.75796  0.77633  1.0000
  C   C409      1.0  0.64151  0.77417  0.79014  1.0000
  H   H720      1.0  0.81627  0.60556  0.95008  1.0000
  C   C410      1.0  0.72586  0.53635  0.94136  1.0000
  H   H721      1.0  0.55940  0.71045  0.70263  1.0000
  H   H722      1.0  0.55517  0.74303  0.71532  1.0000
  H   H723      1.0  0.55754  0.69767  0.79614  1.0000
  H   H724      1.0  0.58241  0.70643  0.75519  1.0000
  H   H725      1.0  0.81142  0.59190  0.99416  1.0000
  H   H726      1.0  0.67797  0.63502  0.67629  1.0000
  Fe  Fe48      1.0  0.49787  0.87325  0.90869  1.0000
  H   H727      1.0  0.69629  0.57590  0.94797  1.0000
  H   H728      1.0  0.52248  0.52580  0.97773  1.0000
  H   H729      1.0  0.54309  0.76374  0.76516  1.0000
  C   C411      1.0  0.73236  0.55385  0.97775  1.0000
  H   H730      1.0  0.85929  0.67666  0.96461  1.0000
  C   C412      1.0  0.68391  0.97859  0.68286  1.0000
  C   C413      1.0  0.61602  0.53037  0.98978  1.0000
  H   H731      1.0  0.60744  0.77552  0.75221  1.0000
  H   H732      1.0  0.58565  0.76385  0.79630  1.0000
  H   H733      1.0  0.65734  0.77057  0.77056  1.0000
  H   H734      1.0  0.66446  0.80683  0.79581  1.0000
  H   H735      1.0  0.63512  0.75784  0.81463  1.0000
  H   H736      1.0  0.61570  0.56663  0.73123  1.0000
  H   H737      1.0  0.67035  0.61585  0.73783  1.0000
  C   C414      1.0  0.72534  0.60902  0.94989  1.0000
  H   H738      1.0  0.69524  0.62110  0.91800  1.0000
  N   N23       1.0  0.52408  0.69281  0.75172  1.0000
  H   H739      1.0  0.56690  0.83136  0.73203  1.0000
  H   H740      1.0  0.79497  0.65378  0.95514  1.0000
  C   C415      1.0  0.53614  0.89681  0.70227  1.0000
  C   C416      1.0  0.66346  0.98615  0.70909  1.0000
  H   H741      1.0  0.73696  0.53908  0.99619  1.0000
  H   H742      1.0  0.72649  0.98534  0.79297  1.0000
  C   C417      1.0  0.65233  0.60234  0.68352  1.0000
  H   H743      1.0  0.51300  0.64363  0.73116  1.0000
  S   S94       1.0  0.52204  0.56381  0.90094  1.0000
  N   N24       1.0  0.67963  0.94485  0.69196  1.0000
  H   H744      1.0  0.70087  0.54277  0.98626  1.0000
  H   H745      1.0  0.62760  0.61175  0.72664  1.0000
  C   C418      1.0  0.59886  0.52829  0.95809  1.0000
  S   S95       1.0  0.62812  0.63184  0.95605  1.0000
  H   H746      1.0  0.57022  0.95259  0.78972  1.0000
  H   H747      1.0  0.72861  0.61855  0.89376  1.0000
  H   H748      1.0  0.66648  0.59033  0.68052  1.0000
  C   C419      1.0  0.57395  0.82901  0.70492  1.0000
  H   H749      1.0  0.50379  0.69790  0.80100  1.0000
  C   C420      1.0  0.49635  0.64818  0.74861  1.0000
  C   C421      1.0  0.63938  0.59408  0.00063  1.0000
  C   C422      1.0  0.60127  0.55846  0.94794  1.0000
  H   H750      1.0  0.75601  0.54561  0.93181  1.0000
  H   H751      1.0  0.49701  0.73336  0.73734  1.0000
  C   C423      1.0  0.62172  0.59170  0.96907  1.0000
  C   C424      1.0  0.81209  0.61130  0.97687  1.0000
  H   H752      1.0  0.53488  0.85667  0.73035  1.0000
  C   C425      1.0  0.64063  0.59882  0.72211  1.0000
  C   C426      1.0  0.76845  0.62043  0.95184  1.0000
  C   C427      1.0  0.50783  0.73522  0.76391  1.0000
  H   H753      1.0  0.62920  0.95804  0.71608  1.0000
  H   H754      1.0  0.52738  0.88154  0.67796  1.0000
  H   H755      1.0  0.71687  0.54667  0.92202  1.0000
  C   C428      1.0  0.62178  0.86651  0.69467  1.0000
  H   H756      1.0  0.64287  0.86962  0.71357  1.0000
  H   H757      1.0  0.73134  0.98601  0.72843  1.0000
  C   C429      1.0  0.52572  0.58146  0.72842  1.0000
  H   H758      1.0  0.51673  0.72730  0.99674  1.0000
  H   H759      1.0  0.58358  0.50308  0.94121  1.0000
  H   H760      1.0  0.92461  0.69619  0.98672  1.0000
  C   C430      1.0  0.67382  0.93638  0.75992  1.0000
  C   C431      1.0  0.49771  0.68847  0.69014  1.0000
  H   H761      1.0  0.65644  0.94518  0.76206  1.0000
  H   H762      1.0  0.71489  0.93947  0.72530  1.0000
  S   S96       1.0  0.52197  0.56767  0.79865  1.0000
  H   H763      1.0  0.68055  0.93885  0.81590  1.0000
  C   C432      1.0  0.70188  0.95180  0.79203  1.0000
  H   H764      1.0  0.49974  0.67040  0.97620  1.0000
  H   H765      1.0  0.49793  0.54897  0.72691  1.0000
  H   H766      1.0  0.55435  0.59345  0.00152  1.0000
  H   H767      1.0  0.49415  0.94941  0.97979  1.0000
  H   H768      1.0  0.89204  0.64495  0.00150  1.0000
