data_image0
_chemical_formula_structural       H3FeS2FeS2FeS2FeS2FeSFeS3FeS2FeSNFeSFeS3FeSCFeS2FeSFeS3FeS2HCHC2H2C4H3C6H3CHC6H4C6H4C6H4C6H8CH2NC12H28C2HCH2NH3CH4NC12H28CH2C2H2SCHC4H11CHCH3CHC3H5C2H3SHCHCH8CH3CH2NFeH3C2H3CH3C2HCH4CSH2CH3C3H7C2H2C2H4C2S2CHC2HC2H10SH7NHCH5C2H4CHNHCH2C2HCH2FeSCFeS2FeS2FeSFeS3FeSHFeS2FeSFeS3FeS2FeS2FeSFeHS2FeS2FeHFeS3C6H4C6H6C6H4C6H4C6H5CH5NC3H5SC2NC12H28C2HC2H2NC6H14NC12H30CH2C2H4CH4NC12H27NC4HC4SC2H6C4H6CH2C2H15C2H2CHCH2S2CH5C2H3CHC2HCHC5H2C2H7CH5CH2CH3CH4CH3CH2C3H2CH3CH3FeSH2SHFeS2FeS2FeS2FeSFeS3FeS2FeHSFeCSNS2CSFeS2FeSFeS2HFeS2CH2CH2CHC2H2CHCH3C4NH3C2H3C6H4C6H5C6H7FeC4H5C3HCH2FeCH4C3FeHFeH2CH2C2H2CH3NC6HC5H19C2H3NC10H22NC7NC4H14CH3CH9CH4CH6CHCH4SCNH3CHCHFeH2CH3CHCH3SH4SH2CHCHCH2SCHC2H4FeHCHCH7C3H6C2H3C3HCHCSH8CHSCHCHCFeS2C2FeS2FeS2FeSFeS3FeSFeS2FeSC2S2FeSFeSCFeSFeSCSFeS2H2C4HC6HC3H2C6H4C6H4FeHCH2C6H5NC12H28C2H5CNC10H16SH6C2HC4H7NH6C2H4CH6CHSH2C2H3C4H5NCH2CH3CH2C3H3C2H6C2H3CH6SCH2CH2CH2C2HNHC3H3CH4CHCH5NH5CHCS2H8C2H3CH4FeH2CHCH3C2H2CH2FeH9CHC2SHCH4CS2CHCHCNH2CH4CSHCHC2HC3H7CH2CH3CSFeS2HSH2C7H9CH4CSHCHC2H5CH2NC6H5CH2C3H2FeH4CH3FeH2NCHC2H4C2SNHCH4CH3C2H4CHCHCH8C2HCH3CSCFeS2HCSC6H6CH5CHCH5C2H2CHNH2C3SHC2H4C2H3FeH3FeCHC2H3CH3CH2C2H4CH2C2H4FeNH7SH3CH2C3HC2H5CH3CH4CHC3H2CNHCFeS2FeS2CHSFeS2FeS2FeSFeS3FeS2FeS2FeSFeS4C2H2C2SH3C6H3C6H4C6H5C3H2C6H4C5H4C4H2C3H5CHCH2NC11H28CNC12H22CNH5CHCHCHCH4NHCH13CH3CHSHC2H2CH2FeCH4CHC2H3C3H10CH2C3H2C5HCH2CH2CH2CHCH4CH4C2HCH5SCHNC3NH3CHNC2HC3HC4H13CH3C2H6C2H2C2H4CH9CH3CSH2CH3C4HCH6CH5FeSHFeS2HS2FeS2FeS2FeSFeS3FeS2FeS2FeSFeS3HC6FeCH3C7H5CH2C7H4C6H5C4H4C8H4C6H5SNHC2H8CH4C2H2CHCH4SC2HCHC2H2NH2NC12H25SNCHCHFeHC2HCH7C2H2CH7CHCHC3H3CH17C2H4CH3CHCSC3HCH12CHCHC2SH4CH2CHCH3CH3C2H2CHCHCH5NH2CH2FeH2CH9CH5NC3HC3HC2H6CHCH11CH2CNHCH2CH2CHC3H2C2H6NCHC2HC2H6CHC2H2CH4CH7C2H2CHCH2FeS2FeS2FeS2FeSHSCFeS2FeS2FeSFeS3FeS2FeS2FeSFeS3C6H4C6H4C6H4C6H3C3H3C3H3C6H3CSC4H7CHCH3CHFeH4CHCNH2CH4NC12H28NC3H8C2H4CH4CH11CHCHFeCHCHSHC2H6CHCNHC2H5CH3C4H4CNHCH6CH9CHC3NC12H21FeH6CH6C2H3CH4C2H2CH3CH2CHCHNHCHC2H2CHCH3CHSHCH6C2H2CHCH4C2HCHCHCH6CHC2HCH2CHCH4CHCH7C3H3FeSCFeS2HFeSHSH2SC2HFeS2FeS2FeS2FeSFeS3FeS2FeS2FeSFeS3CH5CHC6H4C6H5FeC2H2CHC6HCHSC6H4C6H4CHCHNC2H3NC4HC2HCNH10CHCHCHCH6CHSCHCNC12H35CHCH2CHCH2CH2CHCSH2C3HCHCH2NHFeH4C2HC2H2CH2CH2CH2C2H6C2SCHCH2CH2C3H3SH3CH2NCHC5H18CHCH5C2HCH2CNH9CH2CHCH3C2H4C2H2CHCH3CH4CHCH5SCHC3H3CH2CH12CHCHCFeS2C2FeSFeHS2FeS2HC2HC2H3CHCH4C6H5CHC2HC2H2NH4CHCHCSHCH2CHC2H3C2H2CH3NH2CH7CH14C3H3CH5SHC2SHC3FeH3C2FeS2FeSH2SHFeCSHCH2C3SC4HNHCHFeHC6H11CHSH3CH5CH2C2H13CHCH2CHCH2CNCSHCH4CH2CH3CHCHC2H5C2H4CH2FeS2FeS2FeSFeS3FeS2FeS2FeS2FeSFeS3FeS2FeS2FeSFeS4C3HCH5C4HC4H2C6H4C6H3C7H4C6H4C6H4CH7C2H8CHCH2C2H3CH5NC11H34NC12H30NH6NC3HCH17CH6CHCHCH2CHCH2CHC3HCH2CH3CH3CHCHC3H4SHC2H3NH5CHC2HC2HNH4CH2CHCH3CH4FeC2H2CHC2HCHCH2CH2CH2SH3C3H5C3H3CH2NHCH3CH2C3HC2FeS2FeS2FeSFeS3HFeS2FeS2FeSFeS3FeS2FeS2FeSFeS3H2SHC4H6CHC6H6CH2C6H4C6H4C6H4CH4NHSC2NCH9CHCH4CH4C2HNC11H24C2NC11H22C3H8CH2CHC2H2CH2C2H6C2H6CH3CHCH3NH2CHCH3CHCH3C2HCH5CHCH3C2SC2H5C2H4C2H3CHNH5NC11H19CH2C3H11CHCH2SC3HFeC2H2CH2CH3CHCH3C2HCH3FeH7SHFeS2FeS2FeSFeS3FeS2FeS2FeSFeS3FeS2FeS2FeSFeHS3C2HC2H2C4H2C2H3C6H5CHC6H4C6H4C6H8CHC3H6C3H6C3HC3H2CNC9H22NC7HFeC3H16CSCH9NC4HC3HCH6CHCH5C2H2NC11H23NH2C6HSC2NH12CH6C2HCH5C4H4C2H6CH3CH4CH3CHCH3NH12CH9CH2CH3CH2NC4HCH3SHCH2CH4C2H3CH9CH6CH2C2HCNH4FeS2FeS2FeS2FeSFeS3FeS2FeSHFeSFeS3FeSCFeS2FeSFeS4H2CH3C6HCH2C2H5C7H4C6H13C6HNC12H28C2H7NC4HC3HC3H25CH2CHCH6CHC2HC4H3NC2H2C2H2CH7NCH6C2H6C3H2CHCH2CHCH5C2H6FeCH3C3NSCHNH3C2H2CH2CH5CH2CHCHCHCHC3H3CH3CH2CHC4HC3HCH2C2H3CHSC2H5CH3CHCH2SH5SCH2NHCH2CHC2H3CH3CH2CH3SH2FeC
_chemical_formula_sum              "H3072 Fe192 S384 N96 C1728"
_cell_length_a       54.5027
_cell_length_b       54.4548
_cell_length_c       95.2472
_cell_angle_alpha    91.8594
_cell_angle_beta     91.7551
_cell_angle_gamma    113.903

_space_group_name_H-M_alt    "P 1"
_space_group_IT_number       1

loop_
  _space_group_symop_operation_xyz
  'x, y, z'

loop_
  _atom_site_type_symbol
  _atom_site_label
  _atom_site_symmetry_multiplicity
  _atom_site_fract_x
  _atom_site_fract_y
  _atom_site_fract_z
  _atom_site_occupancy
  H   H1        1.0  0.27046  0.34826  0.07893  1.0000
  H   H2        1.0  0.25408  0.36925  0.07310  1.0000
  H   H3        1.0  0.21029  0.33599  0.07925  1.0000
  Fe  Fe1       1.0  0.23769  0.01133  0.05471  1.0000
  S   S1        1.0  0.19615  0.99841  0.06277  1.0000
  S   S2        1.0  0.27772  0.02305  0.06769  1.0000
  Fe  Fe2       1.0  0.19204  0.02863  0.04825  1.0000
  S   S3        1.0  0.17762  0.06002  0.05619  1.0000
  S   S4        1.0  0.23395  0.04260  0.04109  1.0000
  Fe  Fe3       1.0  0.23436  0.26074  0.02668  1.0000
  S   S5        1.0  0.20322  0.21966  0.03042  1.0000
  S   S6        1.0  0.23394  0.27931  0.00544  1.0000
  Fe  Fe4       1.0  0.25697  0.26969  0.05796  1.0000
  S   S7        1.0  0.22705  0.22885  0.06348  1.0000
  S   S8        1.0  0.28717  0.30264  0.07331  1.0000
  Fe  Fe5       1.0  0.23622  0.21430  0.04279  1.0000
  S   S9        1.0  0.24601  0.17859  0.03798  1.0000
  Fe  Fe6       1.0  0.19630  0.23788  0.05063  1.0000
  S   S10       1.0  0.15431  0.22497  0.05904  1.0000
  S   S11       1.0  0.26815  0.25446  0.03787  1.0000
  S   S12       1.0  0.22543  0.27958  0.04632  1.0000
  Fe  Fe7       1.0  0.40992  0.14369  0.14371  1.0000
  S   S13       1.0  0.36922  0.12434  0.15241  1.0000
  S   S14       1.0  0.41958  0.18118  0.13159  1.0000
  Fe  Fe8       1.0  0.42682  0.10000  0.15362  1.0000
  S   S15       1.0  0.38619  0.07666  0.16249  1.0000
  N   N1        1.0  0.31948  0.33953  0.02629  1.0000
  Fe  Fe9       1.0  0.36830  0.08591  0.14238  1.0000
  S   S16       1.0  0.32726  0.05920  0.13111  1.0000
  Fe  Fe10      1.0  0.39013  0.11680  0.17154  1.0000
  S   S17       1.0  0.38552  0.13115  0.19381  1.0000
  S   S18       1.0  0.40882  0.10584  0.13291  1.0000
  S   S19       1.0  0.43094  0.13965  0.16341  1.0000
  Fe  Fe11      1.0  0.44800  0.38057  0.15943  1.0000
  S   S20       1.0  0.40279  0.36774  0.16044  1.0000
  C   C1        1.0  0.38319  0.07766  0.22361  1.0000
  Fe  Fe12      1.0  0.44147  0.32209  0.16122  1.0000
  S   S21       1.0  0.39694  0.30623  0.16276  1.0000
  S   S22       1.0  0.46285  0.29462  0.16480  1.0000
  Fe  Fe13      1.0  0.39780  0.33316  0.14499  1.0000
  S   S23       1.0  0.36526  0.30944  0.12732  1.0000
  Fe  Fe14      1.0  0.40518  0.34145  0.17789  1.0000
  S   S24       1.0  0.38229  0.33599  0.19821  1.0000
  S   S25       1.0  0.44298  0.34766  0.14285  1.0000
  S   S26       1.0  0.44971  0.35553  0.17753  1.0000
  Fe  Fe15      1.0  0.01716  0.24979  0.04412  1.0000
  S   S27       1.0  0.06339  0.26747  0.04410  1.0000
  S   S28       1.0  0.99664  0.27737  0.03845  1.0000
  H   H4        1.0  0.16752  0.30893  0.11132  1.0000
  C   C2        1.0  0.39500  0.34085  0.21602  1.0000
  H   H5        1.0  0.43777  0.10904  0.20967  1.0000
  C   C3        1.0  0.33681  0.17068  0.16406  1.0000
  C   C4        1.0  0.42197  0.34681  0.21960  1.0000
  H   H6        1.0  0.35363  0.27393  0.19371  1.0000
  H   H7        1.0  0.43566  0.34818  0.21138  1.0000
  C   C5        1.0  0.38756  0.11618  0.20994  1.0000
  C   C6        1.0  0.46490  0.41725  0.20274  1.0000
  C   C7        1.0  0.34852  0.21738  0.14700  1.0000
  C   C8        1.0  0.38236  0.08887  0.21053  1.0000
  H   H8        1.0  0.39779  0.15318  0.22229  1.0000
  H   H9        1.0  0.37720  0.07629  0.20094  1.0000
  H   H10       1.0  0.37309  0.25941  0.14306  1.0000
  C   C9        1.0  0.45055  0.26318  0.15548  1.0000
  C   C10       1.0  0.43561  0.25881  0.14275  1.0000
  C   C11       1.0  0.42674  0.23372  0.13536  1.0000
  C   C12       1.0  0.43148  0.21249  0.14100  1.0000
  C   C13       1.0  0.44614  0.21675  0.15381  1.0000
  C   C14       1.0  0.45625  0.24225  0.16084  1.0000
  H   H11       1.0  0.43144  0.27495  0.13845  1.0000
  H   H12       1.0  0.41595  0.23066  0.12528  1.0000
  H   H13       1.0  0.45009  0.20057  0.15816  1.0000
  C   C15       1.0  0.21946  0.00774  0.98490  1.0000
  H   H14       1.0  0.21127  0.21489  0.09322  1.0000
  C   C16       1.0  0.12879  0.23575  0.05369  1.0000
  C   C17       1.0  0.13456  0.25911  0.04633  1.0000
  C   C18       1.0  0.11415  0.26813  0.04328  1.0000
  C   C19       1.0  0.08763  0.25375  0.04730  1.0000
  C   C20       1.0  0.08171  0.22993  0.05431  1.0000
  C   C21       1.0  0.10224  0.22115  0.05758  1.0000
  H   H15       1.0  0.15485  0.27063  0.04328  1.0000
  H   H16       1.0  0.11899  0.28659  0.03789  1.0000
  H   H17       1.0  0.06149  0.21874  0.05755  1.0000
  H   H18       1.0  0.09752  0.20314  0.06335  1.0000
  C   C22       1.0  0.30846  0.30375  0.08840  1.0000
  C   C23       1.0  0.30968  0.28067  0.09389  1.0000
  C   C24       1.0  0.32702  0.28283  0.10574  1.0000
  C   C25       1.0  0.34354  0.30802  0.11235  1.0000
  C   C26       1.0  0.34220  0.33106  0.10686  1.0000
  C   C27       1.0  0.32483  0.32890  0.09505  1.0000
  H   H19       1.0  0.29739  0.26114  0.08899  1.0000
  H   H20       1.0  0.32777  0.26481  0.10978  1.0000
  H   H21       1.0  0.35462  0.35060  0.11172  1.0000
  H   H22       1.0  0.32421  0.34698  0.09100  1.0000
  C   C28       1.0  0.19629  0.09307  0.05109  1.0000
  C   C29       1.0  0.19429  0.11498  0.05839  1.0000
  C   C30       1.0  0.20921  0.14147  0.05444  1.0000
  C   C31       1.0  0.22630  0.14603  0.04323  1.0000
  C   C32       1.0  0.22839  0.12415  0.03606  1.0000
  C   C33       1.0  0.21323  0.09779  0.03986  1.0000
  H   H23       1.0  0.18125  0.11140  0.06712  1.0000
  H   H24       1.0  0.20776  0.15831  0.06012  1.0000
  H   H25       1.0  0.24152  0.12754  0.02736  1.0000
  H   H26       1.0  0.21431  0.08113  0.03387  1.0000
  C   C34       1.0  0.29082  0.03465  0.08532  1.0000
  C   C35       1.0  0.31883  0.04824  0.08789  1.0000
  C   C36       1.0  0.33031  0.05664  0.10170  1.0000
  C   C37       1.0  0.31396  0.05112  0.11326  1.0000
  C   C38       1.0  0.28590  0.03777  0.11066  1.0000
  C   C39       1.0  0.27440  0.02978  0.09684  1.0000
  H   H27       1.0  0.33187  0.05205  0.07914  1.0000
  H   H28       1.0  0.35189  0.06673  0.10342  1.0000
  H   H29       1.0  0.27297  0.03325  0.11947  1.0000
  H   H30       1.0  0.25289  0.01914  0.09516  1.0000
  H   H31       1.0  0.46407  0.13007  0.09352  1.0000
  H   H32       1.0  0.27764  0.31189  0.02497  1.0000
  H   H33       1.0  0.34586  0.24265  0.13035  1.0000
  H   H34       1.0  0.26332  0.24767  0.99543  1.0000
  C   C40       1.0  0.36947  0.21416  0.15741  1.0000
  H   H35       1.0  0.29290  0.10886  0.17619  1.0000
  H   H36       1.0  0.31488  0.26070  0.00123  1.0000
  N   N2        1.0  0.27150  0.10979  0.08134  1.0000
  C   C41       1.0  0.27321  0.13611  0.07580  1.0000
  C   C42       1.0  0.27862  0.09387  0.07007  1.0000
  C   C43       1.0  0.24262  0.09375  0.08486  1.0000
  C   C44       1.0  0.28896  0.11368  0.09457  1.0000
  C   C45       1.0  0.31924  0.13158  0.09372  1.0000
  C   C46       1.0  0.26439  0.15381  0.08577  1.0000
  C   C47       1.0  0.23569  0.06457  0.08933  1.0000
  C   C48       1.0  0.30014  0.10988  0.05967  1.0000
  C   C49       1.0  0.31008  0.09147  0.05138  1.0000
  C   C50       1.0  0.33385  0.13556  0.10815  1.0000
  C   C51       1.0  0.27087  0.18146  0.07989  1.0000
  C   C52       1.0  0.20612  0.05036  0.09265  1.0000
  H   H37       1.0  0.26055  0.13212  0.06584  1.0000
  H   H38       1.0  0.29388  0.14883  0.07284  1.0000
  H   H39       1.0  0.28502  0.07899  0.07493  1.0000
  H   H40       1.0  0.26057  0.08172  0.06321  1.0000
  H   H41       1.0  0.22886  0.09249  0.07569  1.0000
  H   H42       1.0  0.23686  0.10392  0.09367  1.0000
  H   H43       1.0  0.28109  0.12155  0.10349  1.0000
  H   H44       1.0  0.28816  0.09400  0.09791  1.0000
  H   H45       1.0  0.32275  0.15177  0.09003  1.0000
  H   H46       1.0  0.32858  0.12162  0.08664  1.0000
  H   H47       1.0  0.24233  0.14428  0.08695  1.0000
  H   H48       1.0  0.27476  0.15706  0.09630  1.0000
  H   H49       1.0  0.24747  0.06456  0.09901  1.0000
  H   H50       1.0  0.23970  0.05235  0.08088  1.0000
  H   H51       1.0  0.29121  0.11929  0.05199  1.0000
  H   H52       1.0  0.31787  0.12610  0.06499  1.0000
  H   H53       1.0  0.32486  0.10327  0.04378  1.0000
  H   H54       1.0  0.32000  0.08226  0.05860  1.0000
  H   H55       1.0  0.29312  0.07519  0.04543  1.0000
  H   H56       1.0  0.35565  0.14799  0.10726  1.0000
  H   H57       1.0  0.32591  0.14602  0.11579  1.0000
  H   H58       1.0  0.33155  0.11587  0.11224  1.0000
  H   H59       1.0  0.29291  0.19264  0.07912  1.0000
  H   H60       1.0  0.26093  0.17939  0.06930  1.0000
  H   H61       1.0  0.26353  0.19340  0.08695  1.0000
  H   H62       1.0  0.20195  0.02973  0.09595  1.0000
  H   H63       1.0  0.20112  0.06144  0.10132  1.0000
  H   H64       1.0  0.19299  0.04871  0.08323  1.0000
  C   C53       1.0  0.20461  0.18952  0.98662  1.0000
  C   C54       1.0  0.23993  0.26900  0.98836  1.0000
  H   H65       1.0  0.43242  0.19857  0.18257  1.0000
  C   C55       1.0  0.37778  0.39880  0.19382  1.0000
  H   H66       1.0  0.37213  0.41578  0.19644  1.0000
  H   H67       1.0  0.11319  0.28096  0.98575  1.0000
  N   N3        1.0  0.19981  0.28767  0.09384  1.0000
  H   H68       1.0  0.41669  0.39966  0.21419  1.0000
  H   H69       1.0  0.34456  0.20262  0.19048  1.0000
  H   H70       1.0  0.37522  0.23540  0.13014  1.0000
  C   C56       1.0  0.35221  0.33096  0.04381  1.0000
  H   H71       1.0  0.22302  0.29511  0.07530  1.0000
  H   H72       1.0  0.47565  0.09133  0.13080  1.0000
  H   H73       1.0  0.39947  0.28891  0.22063  1.0000
  H   H74       1.0  0.36970  0.38329  0.20172  1.0000
  N   N4        1.0  0.13097  0.14702  0.03449  1.0000
  C   C57       1.0  0.12647  0.17240  0.03282  1.0000
  C   C58       1.0  0.14706  0.14981  0.04811  1.0000
  C   C59       1.0  0.14803  0.14494  0.02264  1.0000
  C   C60       1.0  0.10511  0.12194  0.03393  1.0000
  C   C61       1.0  0.08007  0.12460  0.03999  1.0000
  C   C62       1.0  0.11448  0.17526  0.01829  1.0000
  C   C63       1.0  0.15653  0.12093  0.02275  1.0000
  C   C64       1.0  0.13372  0.15223  0.06190  1.0000
  C   C65       1.0  0.15405  0.16022  0.07445  1.0000
  C   C66       1.0  0.05693  0.09703  0.04100  1.0000
  C   C67       1.0  0.10384  0.19729  0.01896  1.0000
  C   C68       1.0  0.17159  0.11980  0.00963  1.0000
  H   H75       1.0  0.14579  0.19034  0.03459  1.0000
  H   H76       1.0  0.11350  0.17488  0.04100  1.0000
  H   H77       1.0  0.15176  0.13199  0.04942  1.0000
  H   H78       1.0  0.16679  0.16748  0.04788  1.0000
  H   H79       1.0  0.16673  0.16371  0.02247  1.0000
  H   H80       1.0  0.13718  0.14295  0.01230  1.0000
  H   H81       1.0  0.09902  0.11397  0.02286  1.0000
  H   H82       1.0  0.10834  0.10561  0.03939  1.0000
  H   H83       1.0  0.07281  0.13651  0.03307  1.0000
  H   H84       1.0  0.08429  0.13473  0.05057  1.0000
  H   H85       1.0  0.13035  0.18105  0.01047  1.0000
  H   H86       1.0  0.09792  0.15615  0.01438  1.0000
  H   H87       1.0  0.13882  0.10149  0.02318  1.0000
  H   H88       1.0  0.17045  0.12295  0.03182  1.0000
  H   H89       1.0  0.12517  0.16748  0.06158  1.0000
  H   H90       1.0  0.11751  0.13246  0.06400  1.0000
  H   H91       1.0  0.17048  0.18027  0.07306  1.0000
  H   H92       1.0  0.14391  0.16143  0.08422  1.0000
  H   H93       1.0  0.16275  0.14512  0.07565  1.0000
  H   H94       1.0  0.41180  0.42998  0.21372  1.0000
  H   H95       1.0  0.06266  0.08463  0.04837  1.0000
  H   H96       1.0  0.03912  0.09956  0.04500  1.0000
  H   H97       1.0  0.09587  0.19929  0.00839  1.0000
  H   H98       1.0  0.22528  0.19466  0.99108  1.0000
  H   H99       1.0  0.12022  0.21693  0.02243  1.0000
  H   H100      1.0  0.17761  0.10261  0.01010  1.0000
  H   H101      1.0  0.15865  0.11697  0.99996  1.0000
  H   H102      1.0  0.19013  0.13855  0.00915  1.0000
  C   C69       1.0  0.25093  0.34578  0.02959  1.0000
  H   H103      1.0  0.19037  0.18176  0.99513  1.0000
  H   H104      1.0  0.23702  0.32440  0.02741  1.0000
  C   C70       1.0  0.33677  0.36930  0.02625  1.0000
  C   C71       1.0  0.33110  0.38426  0.01380  1.0000
  H   H105      1.0  0.31943  0.17346  0.15908  1.0000
  H   H106      1.0  0.24237  0.35459  0.03777  1.0000
  S   S29       1.0  0.99259  0.21737  0.02792  1.0000
  C   C72       1.0  0.36158  0.24009  0.13708  1.0000
  H   H107      1.0  0.47841  0.07508  0.22783  1.0000
  C   C73       1.0  0.17458  0.28585  0.08599  1.0000
  C   C74       1.0  0.19911  0.25961  0.09380  1.0000
  C   C75       1.0  0.14782  0.26514  0.09140  1.0000
  C   C76       1.0  0.12392  0.27138  0.08680  1.0000
  H   H108      1.0  0.17500  0.28030  0.07464  1.0000
  H   H109      1.0  0.17332  0.30565  0.08596  1.0000
  H   H110      1.0  0.19496  0.25030  0.08290  1.0000
  H   H111      1.0  0.18221  0.24632  0.09998  1.0000
  H   H112      1.0  0.14406  0.24467  0.08705  1.0000
  H   H113      1.0  0.14849  0.26458  0.10302  1.0000
  H   H114      1.0  0.10489  0.25481  0.08958  1.0000
  H   H115      1.0  0.12531  0.29037  0.09214  1.0000
  H   H116      1.0  0.12321  0.27339  0.07525  1.0000
  H   H117      1.0  0.23897  0.22717  0.10612  1.0000
  H   H118      1.0  0.07917  0.27888  0.98425  1.0000
  C   C77       1.0  0.21976  0.22830  0.10278  1.0000
  H   H119      1.0  0.24690  0.33752  0.06384  1.0000
  C   C78       1.0  0.22394  0.30475  0.08590  1.0000
  H   H120      1.0  0.34976  0.33255  0.06662  1.0000
  H   H121      1.0  0.33292  0.22137  0.15265  1.0000
  H   H122      1.0  0.34837  0.42402  0.02453  1.0000
  C   C79       1.0  0.22495  0.25736  0.09977  1.0000
  H   H123      1.0  0.46676  0.40721  0.23066  1.0000
  C   C80       1.0  0.99821  0.25078  0.98535  1.0000
  C   C81       1.0  0.22832  0.33435  0.08401  1.0000
  C   C82       1.0  0.25138  0.34812  0.07437  1.0000
  H   H124      1.0  0.24090  0.26424  0.09200  1.0000
  H   H125      1.0  0.38082  0.20498  0.15116  1.0000
  H   H126      1.0  0.41528  0.42473  0.18579  1.0000
  H   H127      1.0  0.33824  0.19857  0.14035  1.0000
  H   H128      1.0  0.25234  0.35675  0.01981  1.0000
  C   C83       1.0  0.20220  0.29840  0.10890  1.0000
  C   C84       1.0  0.18978  0.31902  0.11207  1.0000
  H   H129      1.0  0.19250  0.28168  0.11604  1.0000
  H   H130      1.0  0.19584  0.33541  0.10465  1.0000
  H   H131      1.0  0.20556  0.22109  0.11135  1.0000
  S   S30       1.0  0.98950  0.23204  0.06183  1.0000
  H   H132      1.0  0.28554  0.33789  0.01315  1.0000
  C   C85       1.0  0.25553  0.25423  0.98639  1.0000
  H   H133      1.0  0.31042  0.38343  0.01389  1.0000
  C   C86       1.0  0.32748  0.32570  0.01439  1.0000
  H   H134      1.0  0.24287  0.30596  0.09124  1.0000
  H   H135      1.0  0.30895  0.30847  0.04146  1.0000
  H   H136      1.0  0.42766  0.28025  0.21740  1.0000
  H   H137      1.0  0.34703  0.24385  0.20308  1.0000
  H   H138      1.0  0.23279  0.26976  0.10968  1.0000
  H   H139      1.0  0.23397  0.34576  0.09432  1.0000
  H   H140      1.0  0.32318  0.20417  0.17655  1.0000
  H   H141      1.0  0.44180  0.22611  0.19551  1.0000
  C   C87       1.0  0.40831  0.40874  0.19346  1.0000
  H   H142      1.0  0.44365  0.04599  0.21263  1.0000
  H   H143      1.0  0.38465  0.23447  0.16083  1.0000
  H   H144      1.0  0.22373  0.30772  0.11268  1.0000
  C   C88       1.0  0.30034  0.12472  0.16842  1.0000
  H   H145      1.0  0.38822  0.18134  0.17009  1.0000
  H   H146      1.0  0.45216  0.10920  0.19331  1.0000
  N   N5        1.0  0.35782  0.19740  0.16984  1.0000
  Fe  Fe16      1.0  0.21636  0.01086  0.02353  1.0000
  H   H147      1.0  0.38761  0.03099  0.19711  1.0000
  H   H148      1.0  0.45845  0.41196  0.19145  1.0000
  H   H149      1.0  0.33349  0.37537  0.00356  1.0000
  C   C89       1.0  0.35049  0.41393  0.01460  1.0000
  C   C90       1.0  0.19801  0.33179  0.12694  1.0000
  H   H150      1.0  0.35341  0.25008  0.17127  1.0000
  H   H151      1.0  0.22015  0.34328  0.12812  1.0000
  H   H152      1.0  0.18831  0.34589  0.12905  1.0000
  C   C91       1.0  0.37740  0.33861  0.22691  1.0000
  H   H153      1.0  0.39435  0.25825  0.21091  1.0000
  H   H154      1.0  0.29169  0.36988  0.03630  1.0000
  H   H155      1.0  0.19153  0.31611  0.13485  1.0000
  C   C92       1.0  0.37967  0.19187  0.17744  1.0000
  C   C93       1.0  0.32364  0.32951  0.04037  1.0000
  H   H156      1.0  0.29241  0.28674  0.01249  1.0000
  C   C94       1.0  0.34476  0.21028  0.17975  1.0000
  H   H157      1.0  0.45988  0.45426  0.18896  1.0000
  H   H158      1.0  0.34507  0.16226  0.15552  1.0000
  H   H159      1.0  0.31901  0.15643  0.18438  1.0000
  H   H160      1.0  0.41264  0.23236  0.17725  1.0000
  C   C95       1.0  0.35701  0.24157  0.18115  1.0000
  S   S31       1.0  0.22927  0.02554  0.00154  1.0000
  H   H161      1.0  0.27680  0.33885  0.04502  1.0000
  H   H162      1.0  0.37897  0.25037  0.18343  1.0000
  C   C96       1.0  0.40312  0.21633  0.18466  1.0000
  H   H163      1.0  0.41649  0.19356  0.19920  1.0000
  H   H164      1.0  0.42320  0.06397  0.21309  1.0000
  H   H165      1.0  0.37142  0.17812  0.18610  1.0000
  C   C97       1.0  0.40605  0.27212  0.21979  1.0000
  C   C98       1.0  0.40359  0.02720  0.19168  1.0000
  C   C99       1.0  0.34414  0.25159  0.19280  1.0000
  H   H166      1.0  0.39574  0.22456  0.19358  1.0000
  H   H167      1.0  0.32231  0.24510  0.19031  1.0000
  H   H168      1.0  0.31927  0.34119  0.04902  1.0000
  H   H169      1.0  0.33991  0.14035  0.17792  1.0000
  H   H170      1.0  0.28396  0.13111  0.16560  1.0000
  H   H171      1.0  0.37158  0.41606  0.01401  1.0000
  H   H172      1.0  0.41291  0.39180  0.18944  1.0000
  C   C100      1.0  0.39386  0.13209  0.22258  1.0000
  C   C101      1.0  0.46636  0.16044  0.20408  1.0000
  H   H173      1.0  0.30567  0.11595  0.15889  1.0000
  H   H174      1.0  0.35648  0.33392  0.22428  1.0000
  C   C102      1.0  0.42474  0.20808  0.19084  1.0000
  C   C103      1.0  0.32497  0.14849  0.17480  1.0000
  H   H175      1.0  0.40705  0.01071  0.19675  1.0000
  H   H176      1.0  0.33531  0.37974  0.03623  1.0000
  H   H177      1.0  0.31984  0.28655  0.02347  1.0000
  H   H178      1.0  0.08736  0.19234  0.02639  1.0000
  C   C104      1.0  0.32424  0.28303  0.00133  1.0000
  C   C105      1.0  0.29008  0.33368  0.02407  1.0000
  S   S32       1.0  0.46255  0.09065  0.16050  1.0000
  S   S33       1.0  0.17379  0.99867  0.02997  1.0000
  C   C106      1.0  0.27872  0.34817  0.03468  1.0000
  H   H179      1.0  0.47868  0.17455  0.10577  1.0000
  C   C107      1.0  0.44014  0.06243  0.20750  1.0000
  C   C108      1.0  0.42192  0.41835  0.20837  1.0000
  H   H180      1.0  0.44911  0.15836  0.21059  1.0000
  C   C109      1.0  0.35383  0.32016  0.05827  1.0000
  C   C110      1.0  0.45675  0.11094  0.20487  1.0000
  H   H181      1.0  0.47112  0.11599  0.10920  1.0000
  H   H182      1.0  0.34969  0.33239  0.01454  1.0000
  H   H183      1.0  0.45938  0.15732  0.19283  1.0000
  H   H184      1.0  0.00732  0.24769  0.99501  1.0000
  H   H185      1.0  0.45027  0.45525  0.22837  1.0000
  H   H186      1.0  0.34592  0.42419  0.00563  1.0000
  H   H187      1.0  0.43977  0.46455  0.19994  1.0000
  H   H188      1.0  0.05128  0.08632  0.03048  1.0000
  H   H189      1.0  0.36844  0.38967  0.18334  1.0000
  H   H190      1.0  0.44439  0.04816  0.18609  1.0000
  S   S34       1.0  0.47685  0.42554  0.16341  1.0000
  H   H191      1.0  0.98998  0.38235  0.08013  1.0000
  H   H192      1.0  0.36740  0.35203  0.04398  1.0000
  H   H193      1.0  0.37868  0.05643  0.22397  1.0000
  H   H194      1.0  0.47773  0.20463  0.12949  1.0000
  H   H195      1.0  0.35782  0.31883  0.03599  1.0000
  H   H196      1.0  0.42500  0.06815  0.18659  1.0000
  H   H197      1.0  0.35836  0.37288  0.02600  1.0000
  N   N6        1.0  0.45195  0.43467  0.20890  1.0000
  H   H198      1.0  0.37426  0.32091  0.06044  1.0000
  C   C111      1.0  0.31458  0.29452  0.01380  1.0000
  H   H199      1.0  0.32200  0.33165  0.00408  1.0000
  H   H200      1.0  0.33904  0.29896  0.05872  1.0000
  H   H201      1.0  0.34642  0.28981  0.00214  1.0000
  H   H202      1.0  0.08573  0.25222  0.99191  1.0000
  H   H203      1.0  0.31830  0.28935  0.99126  1.0000
  C   C112      1.0  0.42952  0.05275  0.19211  1.0000
  C   C113      1.0  0.47782  0.14009  0.20814  1.0000
  H   H204      1.0  0.39654  0.02071  0.18056  1.0000
  H   H205      1.0  0.45764  0.39753  0.20773  1.0000
  H   H206      1.0  0.29704  0.98804  0.09699  1.0000
  H   H207      1.0  0.46801  0.24563  0.17062  1.0000
  C   C114      1.0  0.09176  0.26717  0.98362  1.0000
  H   H208      1.0  0.40576  0.23921  0.23161  1.0000
  N   N7        1.0  0.46464  0.08867  0.20931  1.0000
  H   H209      1.0  0.44490  0.12844  0.10878  1.0000
  C   C115      1.0  0.45739  0.45905  0.20018  1.0000
  H   H210      1.0  0.27268  0.99701  0.98973  1.0000
  H   H211      1.0  0.46775  0.15890  0.13038  1.0000
  C   C116      1.0  0.46516  0.13182  0.10519  1.0000
  C   C117      1.0  0.47465  0.09270  0.22451  1.0000
  H   H212      1.0  0.99257  0.42933  0.14669  1.0000
  C   C118      1.0  0.46091  0.44311  0.22413  1.0000
  H   H213      1.0  0.47910  0.04541  0.20192  1.0000
  H   H214      1.0  0.20316  0.20804  0.98290  1.0000
  Fe  Fe17      1.0  0.00399  0.23845  0.40708  1.0000
  S   S35       1.0  0.04821  0.24714  0.41254  1.0000
  C   C119      1.0  0.38968  0.09359  0.23625  1.0000
  Fe  Fe18      1.0  0.22489  0.25653  0.42289  1.0000
  S   S36       1.0  0.19437  0.21709  0.41346  1.0000
  S   S37       1.0  0.22058  0.26872  0.44577  1.0000
  Fe  Fe19      1.0  0.25175  0.27373  0.39376  1.0000
  S   S38       1.0  0.22168  0.23580  0.38291  1.0000
  S   S39       1.0  0.29191  0.30151  0.38431  1.0000
  Fe  Fe20      1.0  0.18999  0.24182  0.39580  1.0000
  S   S40       1.0  0.14888  0.23433  0.38541  1.0000
  Fe  Fe21      1.0  0.22846  0.21475  0.40152  1.0000
  S   S41       1.0  0.24536  0.18332  0.39840  1.0000
  S   S42       1.0  0.21958  0.28161  0.40543  1.0000
  S   S43       1.0  0.25928  0.25237  0.41225  1.0000
  Fe  Fe22      1.0  0.44796  0.12833  0.29584  1.0000
  S   S44       1.0  0.42062  0.08480  0.29170  1.0000
  H   H215      1.0  0.43281  0.02295  0.32771  1.0000
  Fe  Fe23      1.0  0.40065  0.14505  0.29315  1.0000
  S   S45       1.0  0.37035  0.10244  0.28879  1.0000
  S   S46       1.0  0.38253  0.17582  0.29363  1.0000
  Fe  Fe24      1.0  0.39209  0.09191  0.30652  1.0000
  S   S47       1.0  0.37657  0.06556  0.32562  1.0000
  Fe  Fe25      1.0  0.40127  0.09952  0.27438  1.0000
  S   S48       1.0  0.39118  0.07848  0.25241  1.0000
  S   S49       1.0  0.42067  0.13491  0.31160  1.0000
  S   S50       1.0  0.43025  0.14272  0.27779  1.0000
  Fe  Fe26      1.0  0.38323  0.34501  0.31352  1.0000
  S   S51       1.0  0.42089  0.35311  0.32671  1.0000
  S   S52       1.0  0.34124  0.33143  0.32304  1.0000
  Fe  Fe27      1.0  0.41315  0.35249  0.28527  1.0000
  S   S53       1.0  0.45172  0.36033  0.29745  1.0000
  S   S54       1.0  0.42690  0.35470  0.26246  1.0000
  Fe  Fe28      1.0  0.42816  0.32622  0.31053  1.0000
  S   S55       1.0  0.44689  0.29709  0.31558  1.0000
  Fe  Fe29      1.0  0.44172  0.38693  0.31229  1.0000
  H   H216      1.0  0.45407  0.10420  0.25767  1.0000
  S   S56       1.0  0.38994  0.31630  0.29777  1.0000
  S   S57       1.0  0.40362  0.38096  0.29988  1.0000
  Fe  Fe30      1.0  0.20585  0.03284  0.39764  1.0000
  S   S58       1.0  0.25049  0.05210  0.40121  1.0000
  S   S59       1.0  0.18064  0.05712  0.39682  1.0000
  Fe  Fe31      1.0  0.24402  0.02028  0.41700  1.0000
  H   H217      1.0  0.26991  0.08697  0.48034  1.0000
  Fe  Fe32      1.0  0.25154  0.02248  0.38438  1.0000
  S   S60       1.0  0.27409  0.03758  0.36398  1.0000
  S   S61       1.0  0.19920  0.00280  0.41429  1.0000
  S   S62       1.0  0.20646  0.00442  0.38021  1.0000
  C   C120      1.0  0.34707  0.05641  0.33565  1.0000
  C   C121      1.0  0.32473  0.06129  0.33133  1.0000
  C   C122      1.0  0.30266  0.05524  0.34007  1.0000
  C   C123      1.0  0.30244  0.04420  0.35328  1.0000
  C   C124      1.0  0.32458  0.03888  0.35750  1.0000
  C   C125      1.0  0.34654  0.04471  0.34870  1.0000
  H   H218      1.0  0.32438  0.06962  0.32121  1.0000
  H   H219      1.0  0.28559  0.05918  0.33656  1.0000
  H   H220      1.0  0.32480  0.03024  0.36754  1.0000
  H   H221      1.0  0.36349  0.04052  0.35214  1.0000
  C   C126      1.0  0.42894  0.26324  0.30968  1.0000
  C   C127      1.0  0.40175  0.25354  0.30544  1.0000
  C   C128      1.0  0.38783  0.22664  0.30060  1.0000
  C   C129      1.0  0.40097  0.20925  0.29990  1.0000
  C   C130      1.0  0.42818  0.21884  0.30411  1.0000
  C   C131      1.0  0.44210  0.24579  0.30905  1.0000
  H   H222      1.0  0.39138  0.26670  0.30595  1.0000
  H   H223      1.0  0.36676  0.21928  0.29736  1.0000
  H   H224      1.0  0.43846  0.20551  0.30357  1.0000
  H   H225      1.0  0.23170  0.19282  0.46803  1.0000
  H   H226      1.0  0.43834  0.00560  0.35104  1.0000
  H   H227      1.0  0.45818  0.44385  0.25347  1.0000
  C   C132      1.0  0.22583  0.14855  0.39604  1.0000
  C   C133      1.0  0.19828  0.13718  0.39825  1.0000
  C   C134      1.0  0.18431  0.10900  0.39806  1.0000
  C   C135      1.0  0.19776  0.09221  0.39550  1.0000
  C   C136      1.0  0.22497  0.10371  0.39256  1.0000
  C   C137      1.0  0.23900  0.13175  0.39297  1.0000
  H   H228      1.0  0.18793  0.15001  0.40054  1.0000
  H   H229      1.0  0.16317  0.10023  0.40018  1.0000
  H   H230      1.0  0.23530  0.09104  0.39009  1.0000
  H   H231      1.0  0.26026  0.14045  0.39117  1.0000
  C   C138      1.0  0.30506  0.30991  0.36713  1.0000
  C   C139      1.0  0.33315  0.32077  0.36572  1.0000
  C   C140      1.0  0.34457  0.32734  0.35244  1.0000
  C   C141      1.0  0.32812  0.32368  0.34025  1.0000
  C   C142      1.0  0.30005  0.31306  0.34168  1.0000
  C   C143      1.0  0.28861  0.30613  0.35493  1.0000
  H   H232      1.0  0.34625  0.32402  0.37499  1.0000
  H   H233      1.0  0.36615  0.33552  0.35164  1.0000
  H   H234      1.0  0.28699  0.31014  0.33242  1.0000
  H   H235      1.0  0.26704  0.29810  0.35570  1.0000
  C   C144      1.0  0.07520  0.24139  0.40507  1.0000
  C   C145      1.0  0.07282  0.22838  0.39186  1.0000
  C   C146      1.0  0.09544  0.22606  0.38610  1.0000
  C   C147      1.0  0.12058  0.23624  0.39354  1.0000
  C   C148      1.0  0.12273  0.24854  0.40691  1.0000
  C   C149      1.0  0.10023  0.25121  0.41258  1.0000
  H   H236      1.0  0.05367  0.22026  0.38602  1.0000
  H   H237      1.0  0.09348  0.21635  0.37578  1.0000
  H   H238      1.0  0.14187  0.25648  0.41278  1.0000
  H   H239      1.0  0.10235  0.26121  0.42283  1.0000
  H   H240      1.0  0.44885  0.01728  0.28672  1.0000
  C   C150      1.0  0.41363  0.34877  0.24474  1.0000
  H   H241      1.0  0.37285  0.34097  0.24939  1.0000
  H   H242      1.0  0.32006  0.37597  0.44438  1.0000
  H   H243      1.0  0.42682  0.02809  0.29643  1.0000
  H   H244      1.0  0.33295  0.25708  0.26026  1.0000
  H   H245      1.0  0.40028  0.13346  0.24523  1.0000
  N   N8        1.0  0.41339  0.26424  0.26014  1.0000
  C   C151      1.0  0.21729  0.26997  0.47460  1.0000
  C   C152      1.0  0.22990  0.26353  0.46322  1.0000
  C   C153      1.0  0.25034  0.25480  0.46613  1.0000
  H   H246      1.0  0.15319  0.99034  0.34719  1.0000
  H   H247      1.0  0.20159  0.27691  0.47252  1.0000
  H   H248      1.0  0.26037  0.24990  0.45756  1.0000
  H   H249      1.0  0.38628  0.16897  0.25618  1.0000
  H   H250      1.0  0.99408  0.24484  0.45466  1.0000
  S   S63       1.0  0.26446  0.03341  0.43903  1.0000
  C   C154      1.0  0.38662  0.34255  0.24118  1.0000
  C   C155      1.0  0.40109  0.25707  0.23340  1.0000
  N   N9        1.0  0.36066  0.14258  0.34981  1.0000
  C   C156      1.0  0.34827  0.14543  0.36342  1.0000
  C   C157      1.0  0.38303  0.16922  0.34699  1.0000
  C   C158      1.0  0.33897  0.13372  0.33820  1.0000
  C   C159      1.0  0.37226  0.12178  0.35067  1.0000
  C   C160      1.0  0.39396  0.12678  0.36263  1.0000
  C   C161      1.0  0.32797  0.11883  0.36926  1.0000
  C   C162      1.0  0.34837  0.13269  0.32305  1.0000
  C   C163      1.0  0.37435  0.19229  0.34353  1.0000
  C   C164      1.0  0.39884  0.21819  0.34114  1.0000
  C   C165      1.0  0.40101  0.10246  0.36388  1.0000
  C   C166      1.0  0.31696  0.12407  0.38308  1.0000
  C   C167      1.0  0.32498  0.12588  0.31223  1.0000
  H   H251      1.0  0.33730  0.15860  0.36211  1.0000
  H   H252      1.0  0.36408  0.15598  0.37181  1.0000
  H   H253      1.0  0.39744  0.17663  0.35627  1.0000
  H   H254      1.0  0.39520  0.16684  0.33826  1.0000
  H   H255      1.0  0.32762  0.14672  0.33841  1.0000
  H   H256      1.0  0.32375  0.11316  0.33991  1.0000
  H   H257      1.0  0.35603  0.10152  0.35163  1.0000
  H   H258      1.0  0.38187  0.12025  0.34072  1.0000
  H   H259      1.0  0.38717  0.13060  0.37300  1.0000
  H   H260      1.0  0.41264  0.14434  0.36041  1.0000
  H   H261      1.0  0.31060  0.10850  0.36170  1.0000
  H   H262      1.0  0.33754  0.10476  0.37148  1.0000
  H   H263      1.0  0.35647  0.11711  0.32177  1.0000
  H   H264      1.0  0.36421  0.15218  0.32040  1.0000
  H   H265      1.0  0.36115  0.18729  0.33383  1.0000
  H   H266      1.0  0.36347  0.19652  0.35230  1.0000
  H   H267      1.0  0.41066  0.21483  0.33257  1.0000
  H   H268      1.0  0.39232  0.23414  0.33801  1.0000
  H   H269      1.0  0.41196  0.22538  0.35088  1.0000
  H   H270      1.0  0.40612  0.09632  0.35352  1.0000
  H   H271      1.0  0.41851  0.10749  0.37140  1.0000
  H   H272      1.0  0.38376  0.08528  0.36784  1.0000
  H   H273      1.0  0.33339  0.13279  0.39134  1.0000
  H   H274      1.0  0.30681  0.13791  0.38172  1.0000
  H   H275      1.0  0.30200  0.10474  0.38669  1.0000
  H   H276      1.0  0.30862  0.10610  0.31417  1.0000
  H   H277      1.0  0.31702  0.14170  0.31259  1.0000
  H   H278      1.0  0.33205  0.12484  0.30151  1.0000
  C   C168      1.0  0.37155  0.38737  0.43555  1.0000
  C   C169      1.0  0.08589  0.25363  0.47581  1.0000
  H   H279      1.0  0.28473  0.04662  0.46792  1.0000
  C   C170      1.0  0.46684  0.06766  0.31376  1.0000
  C   C171      1.0  0.25495  0.09497  0.46042  1.0000
  H   H280      1.0  0.43494  0.40741  0.23523  1.0000
  H   H281      1.0  0.38576  0.39388  0.42693  1.0000
  N   N10       1.0  0.29724  0.33397  0.43774  1.0000
  C   C172      1.0  0.28850  0.33162  0.42237  1.0000
  C   C173      1.0  0.29881  0.30799  0.44172  1.0000
  C   C174      1.0  0.28052  0.35431  0.41728  1.0000
  C   C175      1.0  0.31889  0.29962  0.43389  1.0000
  C   C176      1.0  0.31711  0.27228  0.43846  1.0000
  C   C177      1.0  0.27977  0.35511  0.40126  1.0000
  H   H282      1.0  0.27078  0.31230  0.42003  1.0000
  H   H283      1.0  0.30403  0.33036  0.41548  1.0000
  H   H284      1.0  0.30485  0.30891  0.45304  1.0000
  H   H285      1.0  0.27852  0.29112  0.44027  1.0000
  H   H286      1.0  0.33737  0.37623  0.42121  1.0000
  H   H287      1.0  0.29463  0.37433  0.42173  1.0000
  H   H288      1.0  0.31496  0.29801  0.42234  1.0000
  H   H289      1.0  0.33976  0.31424  0.43658  1.0000
  H   H290      1.0  0.33129  0.26644  0.43252  1.0000
  H   H291      1.0  0.32249  0.27325  0.44988  1.0000
  H   H292      1.0  0.29651  0.25650  0.43634  1.0000
  H   H293      1.0  0.29986  0.35908  0.39720  1.0000
  H   H294      1.0  0.26491  0.33571  0.39645  1.0000
  H   H295      1.0  0.27378  0.37136  0.39800  1.0000
  N   N11       1.0  0.29850  0.23153  0.35666  1.0000
  C   C178      1.0  0.27191  0.23397  0.35722  1.0000
  C   C179      1.0  0.31447  0.24293  0.37036  1.0000
  C   C180      1.0  0.31411  0.24892  0.34517  1.0000
  C   C181      1.0  0.29534  0.20293  0.35349  1.0000
  C   C182      1.0  0.26990  0.17990  0.35875  1.0000
  C   C183      1.0  0.25587  0.22944  0.34293  1.0000
  C   C184      1.0  0.34380  0.25262  0.34430  1.0000
  C   C185      1.0  0.30111  0.23060  0.38400  1.0000
  C   C186      1.0  0.31831  0.24597  0.39700  1.0000
  C   C187      1.0  0.27097  0.15250  0.35624  1.0000
  C   C188      1.0  0.22693  0.22582  0.34497  1.0000
  C   C189      1.0  0.35596  0.26611  0.33086  1.0000
  H   H296      1.0  0.27497  0.25423  0.36157  1.0000
  H   H297      1.0  0.25864  0.22008  0.36472  1.0000
  H   H298      1.0  0.33384  0.24065  0.37047  1.0000
  H   H299      1.0  0.31974  0.26497  0.37143  1.0000
  H   H300      1.0  0.31427  0.26936  0.34639  1.0000
  H   H301      1.0  0.30415  0.24070  0.33465  1.0000
  H   H302      1.0  0.29480  0.19874  0.34192  1.0000
  H   H303      1.0  0.31325  0.20015  0.35774  1.0000
  H   H304      1.0  0.25151  0.17904  0.35301  1.0000
  H   H305      1.0  0.26738  0.18257  0.37007  1.0000
  H   H306      1.0  0.26529  0.24725  0.33647  1.0000
  H   H307      1.0  0.25556  0.21151  0.33692  1.0000
  H   H308      1.0  0.34546  0.23300  0.34448  1.0000
  H   H309      1.0  0.35621  0.26585  0.35326  1.0000
  H   H310      1.0  0.28125  0.23145  0.38487  1.0000
  H   H311      1.0  0.29904  0.20955  0.38442  1.0000
  H   H312      1.0  0.32025  0.26710  0.39748  1.0000
  H   H313      1.0  0.30850  0.23626  0.40661  1.0000
  H   H314      1.0  0.33861  0.24581  0.39688  1.0000
  H   H315      1.0  0.25261  0.13655  0.36017  1.0000
  H   H316      1.0  0.27188  0.14816  0.34483  1.0000
  H   H317      1.0  0.28870  0.15188  0.36196  1.0000
  H   H318      1.0  0.21620  0.20787  0.35112  1.0000
  H   H319      1.0  0.22657  0.24392  0.35053  1.0000
  H   H320      1.0  0.21611  0.22298  0.33457  1.0000
  H   H321      1.0  0.37760  0.26999  0.33093  1.0000
  H   H322      1.0  0.34563  0.25308  0.32141  1.0000
  H   H323      1.0  0.47616  0.29314  0.29033  1.0000
  H   H324      1.0  0.19604  0.17262  0.46545  1.0000
  H   H325      1.0  0.02042  0.34594  0.38721  1.0000
  C   C190      1.0  0.24894  0.02257  0.45530  1.0000
  H   H326      1.0  0.46933  0.30764  0.25997  1.0000
  H   H327      1.0  0.01407  0.32710  0.40296  1.0000
  C   C191      1.0  0.44747  0.03456  0.29262  1.0000
  C   C192      1.0  0.43235  0.28520  0.27069  1.0000
  H   H328      1.0  0.36950  0.40536  0.44023  1.0000
  H   H329      1.0  0.47596  0.06144  0.34917  1.0000
  H   H330      1.0  0.34604  0.27000  0.27795  1.0000
  H   H331      1.0  0.47548  0.13960  0.35026  1.0000
  C   C193      1.0  0.25749  0.34321  0.46972  1.0000
  H   H332      1.0  0.35437  0.28573  0.33016  1.0000
  H   H333      1.0  0.06871  0.33279  0.33754  1.0000
  H   H334      1.0  0.38027  0.20736  0.26667  1.0000
  H   H335      1.0  0.20191  0.05569  0.45341  1.0000
  N   N12       1.0  0.06539  0.30379  0.37776  1.0000
  C   C194      1.0  0.04381  0.30785  0.38584  1.0000
  C   C195      1.0  0.05469  0.27490  0.37218  1.0000
  C   C196      1.0  0.08860  0.30821  0.38810  1.0000
  C   C197      1.0  0.07535  0.32296  0.36601  1.0000
  C   C198      1.0  0.05483  0.33236  0.35881  1.0000
  C   C199      1.0  0.05307  0.33524  0.39431  1.0000
  C   C200      1.0  0.11228  0.30262  0.38230  1.0000
  C   C201      1.0  0.03139  0.26592  0.36086  1.0000
  C   C202      1.0  0.07529  0.23618  0.46223  1.0000
  C   C203      1.0  0.06562  0.34674  0.34537  1.0000
  C   C204      1.0  0.02964  0.34297  0.39722  1.0000
  C   C205      1.0  0.13690  0.31368  0.39251  1.0000
  H   H336      1.0  0.03563  0.29186  0.39355  1.0000
  H   H337      1.0  0.02614  0.30517  0.37887  1.0000
  H   H338      1.0  0.07071  0.27047  0.36722  1.0000
  H   H339      1.0  0.04794  0.26123  0.38106  1.0000
  H   H340      1.0  0.08139  0.29552  0.39733  1.0000
  H   H341      1.0  0.09746  0.32935  0.39245  1.0000
  H   H342      1.0  0.09265  0.34174  0.36986  1.0000
  H   H343      1.0  0.08360  0.31397  0.35771  1.0000
  H   H344      1.0  0.05085  0.34673  0.36592  1.0000
  H   H345      1.0  0.03523  0.31557  0.35602  1.0000
  H   H346      1.0  0.06251  0.33388  0.40461  1.0000
  H   H347      1.0  0.06818  0.35179  0.38873  1.0000
  H   H348      1.0  0.11833  0.31181  0.37205  1.0000
  H   H349      1.0  0.10656  0.28067  0.38088  1.0000
  H   H350      1.0  0.27556  0.10284  0.45650  1.0000
  H   H351      1.0  0.03819  0.27709  0.35119  1.0000
  H   H352      1.0  0.29199  0.10203  0.41329  1.0000
  H   H353      1.0  0.47480  0.32444  0.28560  1.0000
  H   H354      1.0  0.15548  0.03962  0.44341  1.0000
  H   H355      1.0  0.05089  0.35385  0.34068  1.0000
  H   H356      1.0  0.08493  0.36442  0.34770  1.0000
  H   H357      1.0  0.03694  0.36203  0.40377  1.0000
  H   H358      1.0  0.38373  0.21083  0.24802  1.0000
  H   H359      1.0  0.41550  0.18859  0.26726  1.0000
  H   H360      1.0  0.13157  0.30563  0.40308  1.0000
  H   H361      1.0  0.15263  0.30742  0.38863  1.0000
  H   H362      1.0  0.14526  0.33599  0.39341  1.0000
  N   N13       1.0  0.23014  0.10568  0.43911  1.0000
  C   C206      1.0  0.24922  0.09887  0.43023  1.0000
  C   C207      1.0  0.20240  0.08332  0.43706  1.0000
  C   C208      1.0  0.22880  0.13084  0.43356  1.0000
  C   C209      1.0  0.23904  0.11080  0.45452  1.0000
  H   H363      1.0  0.00467  0.22978  0.34892  1.0000
  C   C210      1.0  0.27739  0.12206  0.42902  1.0000
  C   C211      1.0  0.20731  0.13945  0.43972  1.0000
  C   C212      1.0  0.19900  0.05526  0.44182  1.0000
  C   C213      1.0  0.17059  0.03428  0.43805  1.0000
  S   S64       1.0  0.47515  0.42618  0.32143  1.0000
  C   C214      1.0  0.29796  0.11169  0.42400  1.0000
  C   C215      1.0  0.21215  0.16810  0.43593  1.0000
  H   H364      1.0  0.24038  0.09261  0.41933  1.0000
  H   H365      1.0  0.25199  0.08108  0.43399  1.0000
  H   H366      1.0  0.18760  0.08820  0.44301  1.0000
  H   H367      1.0  0.19546  0.08117  0.42577  1.0000
  H   H368      1.0  0.22492  0.12840  0.42198  1.0000
  H   H369      1.0  0.24850  0.14832  0.43538  1.0000
  C   C216      1.0  0.99646  0.24907  0.47743  1.0000
  C   C217      1.0  0.39520  0.12096  0.23563  1.0000
  C   C218      1.0  0.46282  0.29346  0.26860  1.0000
  C   C219      1.0  0.98391  0.24668  0.46396  1.0000
  H   H370      1.0  0.27610  0.13639  0.42127  1.0000
  H   H371      1.0  0.28504  0.13340  0.43924  1.0000
  H   H372      1.0  0.20739  0.13858  0.45133  1.0000
  H   H373      1.0  0.18702  0.12602  0.43523  1.0000
  H   H374      1.0  0.21322  0.04830  0.43676  1.0000
  H   H375      1.0  0.23685  0.32943  0.46585  1.0000
  C   C220      1.0  0.02216  0.23608  0.35657  1.0000
  H   H376      1.0  0.01381  0.26904  0.36469  1.0000
  H   H377      1.0  0.29862  0.34993  0.46650  1.0000
  C   C221      1.0  0.34737  0.27472  0.26666  1.0000
  C   C222      1.0  0.25228  0.02454  0.48118  1.0000
  H   H378      1.0  0.42791  0.27817  0.28154  1.0000
  H   H379      1.0  0.29978  0.09690  0.43128  1.0000
  H   H380      1.0  0.01627  0.24909  0.47831  1.0000
  H   H381      1.0  0.31792  0.12873  0.42361  1.0000
  H   H382      1.0  0.21266  0.16992  0.42436  1.0000
  H   H383      1.0  0.19562  0.17323  0.43965  1.0000
  H   H384      1.0  0.23146  0.18286  0.44086  1.0000
  H   H385      1.0  0.38011  0.37850  0.44367  1.0000
  H   H386      1.0  0.24538  0.07334  0.45730  1.0000
  H   H387      1.0  0.37615  0.28714  0.25072  1.0000
  H   H388      1.0  0.47830  0.03707  0.33723  1.0000
  H   H389      1.0  0.16627  0.03273  0.42650  1.0000
  H   H390      1.0  0.98189  0.18817  0.47723  1.0000
  H   H391      1.0  0.26008  0.35075  0.42071  1.0000
  H   H392      1.0  0.38225  0.25328  0.27516  1.0000
  C   C223      1.0  0.43116  0.35066  0.23386  1.0000
  C   C224      1.0  0.32358  0.35776  0.44135  1.0000
  H   H393      1.0  0.34756  0.34971  0.42467  1.0000
  H   H394      1.0  0.44353  0.13474  0.34198  1.0000
  C   C225      1.0  0.27833  0.33594  0.46234  1.0000
  H   H395      1.0  0.25542  0.32171  0.44255  1.0000
  C   C226      1.0  0.38504  0.25901  0.26401  1.0000
  H   H396      1.0  0.07914  0.21767  0.46261  1.0000
  H   H397      1.0  0.45134  0.05106  0.28530  1.0000
  S   S65       1.0  0.99311  0.27264  0.41410  1.0000
  S   S66       1.0  0.24924  0.99195  0.40053  1.0000
  C   C227      1.0  0.27552  0.33722  0.44614  1.0000
  H   H398      1.0  0.42610  0.23769  0.27219  1.0000
  H   H399      1.0  0.36999  0.24167  0.25774  1.0000
  H   H400      1.0  0.22132  0.10675  0.46105  1.0000
  H   H401      1.0  0.27455  0.35687  0.44422  1.0000
  H   H402      1.0  0.46456  0.41435  0.25612  1.0000
  C   C228      1.0  0.46289  0.13309  0.34032  1.0000
  C   C229      1.0  0.34434  0.36669  0.42967  1.0000
  H   H403      1.0  0.44977  0.11309  0.23281  1.0000
  H   H404      1.0  0.25222  0.13244  0.45688  1.0000
  H   H405      1.0  0.33358  0.35390  0.45089  1.0000
  C   C230      1.0  0.21231  0.18459  0.47330  1.0000
  H   H406      1.0  0.34161  0.29191  0.26528  1.0000
  C   C231      1.0  0.26392  0.03263  0.46810  1.0000
  C   C232      1.0  0.41929  0.27517  0.24571  1.0000
  H   H407      1.0  0.05337  0.23052  0.46047  1.0000
  C   C233      1.0  0.46842  0.10210  0.25018  1.0000
  H   H408      1.0  0.44538  0.06350  0.31492  1.0000
  C   C234      1.0  0.43893  0.03693  0.33716  1.0000
  C   C235      1.0  0.41865  0.23902  0.26130  1.0000
  C   C236      1.0  0.39465  0.21146  0.25811  1.0000
  C   C237      1.0  0.25826  0.25305  0.48022  1.0000
  C   C238      1.0  0.37599  0.28231  0.26196  1.0000
  H   H409      1.0  0.42943  0.30419  0.27055  1.0000
  H   H410      1.0  0.43505  0.23981  0.25439  1.0000
  C   C239      1.0  0.40402  0.18854  0.25741  1.0000
  C   C240      1.0  0.45662  0.42010  0.23428  1.0000
  H   H411      1.0  0.38905  0.30073  0.26814  1.0000
  H   H412      1.0  0.08565  0.24760  0.45313  1.0000
  H   H413      1.0  0.03858  0.23240  0.35154  1.0000
  H   H414      1.0  0.23740  0.08806  0.48090  1.0000
  H   H415      1.0  0.46315  0.25318  0.31231  1.0000
  H   H416      1.0  0.47420  0.08549  0.30720  1.0000
  H   H417      1.0  0.46506  0.02643  0.31152  1.0000
  C   C241      1.0  0.45759  0.10403  0.33596  1.0000
  H   H418      1.0  0.46757  0.27598  0.26589  1.0000
  H   H419      1.0  0.43332  0.03327  0.35969  1.0000
  H   H420      1.0  0.44017  0.27869  0.24309  1.0000
  H   H421      1.0  0.40671  0.00859  0.34869  1.0000
  H   H422      1.0  0.27476  0.31527  0.46529  1.0000
  C   C242      1.0  0.42884  0.02009  0.34996  1.0000
  H   H423      1.0  0.45206  0.35524  0.23648  1.0000
  H   H424      1.0  0.44712  0.09147  0.34465  1.0000
  C   C243      1.0  0.22549  0.00604  0.48161  1.0000
  H   H425      1.0  0.44418  0.09837  0.32633  1.0000
  H   H426      1.0  0.08225  0.27205  0.47447  1.0000
  H   H427      1.0  0.26066  0.36430  0.46786  1.0000
  C   C244      1.0  0.45543  0.09627  0.23530  1.0000
  H   H428      1.0  0.37948  0.25030  0.23544  1.0000
  H   H429      1.0  0.20776  0.20155  0.47744  1.0000
  H   H430      1.0  0.01604  0.22349  0.36584  1.0000
  H   H431      1.0  0.41878  0.29541  0.24550  1.0000
  C   C245      1.0  0.46828  0.04382  0.30494  1.0000
  H   H432      1.0  0.42816  0.05023  0.33627  1.0000
  H   H433      1.0  0.47367  0.08536  0.25346  1.0000
  H   H434      1.0  0.43681  0.07758  0.23546  1.0000
  C   C246      1.0  0.22203  0.00454  0.45576  1.0000
  H   H435      1.0  0.47322  0.14680  0.33195  1.0000
  H   H436      1.0  0.21813  0.15029  0.48062  1.0000
  C   C247      1.0  0.46817  0.43129  0.24910  1.0000
  C   C248      1.0  0.25754  0.09753  0.47645  1.0000
  C   C249      1.0  0.21048  0.99625  0.46880  1.0000
  H   H437      1.0  0.10785  0.25923  0.47688  1.0000
  H   H438      1.0  0.41684  0.19040  0.24832  1.0000
  C   C250      1.0  0.47002  0.05267  0.33823  1.0000
  H   H439      1.0  0.16876  0.01434  0.44149  1.0000
  H   H440      1.0  0.21022  0.99681  0.44606  1.0000
  H   H441      1.0  0.26745  0.11900  0.48016  1.0000
  C   C251      1.0  0.47979  0.30759  0.28186  1.0000
  H   H442      1.0  0.25927  0.34108  0.48122  1.0000
  H   H443      1.0  0.27439  0.24674  0.48234  1.0000
  H   H444      1.0  0.47836  0.35023  0.34447  1.0000
  Fe  Fe33      1.0  0.21943  0.00411  0.52143  1.0000
  S   S67       1.0  0.19540  0.02438  0.53183  1.0000
  H   H445      1.0  0.31707  0.45463  0.61018  1.0000
  H   H446      1.0  0.25855  0.36889  0.60201  1.0000
  S   S68       1.0  0.21955  0.01501  0.56240  1.0000
  H   H447      1.0  0.15947  0.36641  0.70276  1.0000
  Fe  Fe34      1.0  0.23213  0.04613  0.54594  1.0000
  S   S69       1.0  0.25023  0.09150  0.55153  1.0000
  S   S70       1.0  0.25724  0.02755  0.53487  1.0000
  Fe  Fe35      1.0  0.21560  0.22313  0.55449  1.0000
  S   S71       1.0  0.25806  0.25028  0.54989  1.0000
  S   S72       1.0  0.19877  0.17788  0.55846  1.0000
  Fe  Fe36      1.0  0.19543  0.26673  0.54814  1.0000
  S   S73       1.0  0.23640  0.29587  0.54242  1.0000
  S   S74       1.0  0.16297  0.28263  0.54620  1.0000
  Fe  Fe37      1.0  0.23951  0.26078  0.53063  1.0000
  S   S75       1.0  0.25691  0.25745  0.50917  1.0000
  Fe  Fe38      1.0  0.25118  0.28332  0.56223  1.0000
  S   S76       1.0  0.28236  0.31919  0.57590  1.0000
  S   S77       1.0  0.19738  0.23278  0.53495  1.0000
  S   S78       1.0  0.20978  0.25518  0.56822  1.0000
  Fe  Fe39      1.0  0.32555  0.41609  0.65001  1.0000
  S   S79       1.0  0.33714  0.45484  0.63900  1.0000
  S   S80       1.0  0.30458  0.37362  0.63898  1.0000
  Fe  Fe40      1.0  0.33378  0.44594  0.67987  1.0000
  H   H448      1.0  0.18990  0.39787  0.72128  1.0000
  S   S81       1.0  0.33059  0.45172  0.70371  1.0000
  Fe  Fe41      1.0  0.31072  0.46388  0.65424  1.0000
  C   C252      1.0  0.27557  0.98731  0.59006  1.0000
  S   S82       1.0  0.01097  0.32400  0.57063  1.0000
  N   N14       1.0  0.23665  0.16873  0.50966  1.0000
  S   S83       1.0  0.29818  0.42492  0.66477  1.0000
  S   S84       1.0  0.36060  0.43377  0.66628  1.0000
  C   C253      1.0  0.07304  0.31889  0.51498  1.0000
  S   S85       1.0  0.06011  0.44689  0.65767  1.0000
  Fe  Fe42      1.0  0.12738  0.43948  0.66368  1.0000
  S   S86       1.0  0.08724  0.40707  0.66804  1.0000
  S   S87       1.0  0.16173  0.42758  0.66917  1.0000
  Fe  Fe43      1.0  0.07293  0.41611  0.64714  1.0000
  S   S88       1.0  0.04697  0.37772  0.63337  1.0000
  Fe  Fe44      1.0  0.07820  0.44010  0.67815  1.0000
  S   S89       1.0  0.05676  0.43793  0.69876  1.0000
  S   S90       1.0  0.11379  0.44712  0.64237  1.0000
  H   H449      1.0  0.00963  0.45262  0.60718  1.0000
  Fe  Fe45      1.0  0.01065  0.23482  0.55532  1.0000
  S   S91       1.0  0.02320  0.27452  0.54558  1.0000
  S   S92       1.0  0.04151  0.21849  0.56160  1.0000
  C   C254      1.0  0.07002  0.43665  0.71593  1.0000
  H   H450      1.0  0.03305  0.43073  0.72574  1.0000
  H   H451      1.0  0.22640  0.42783  0.63006  1.0000
  C   C255      1.0  0.09641  0.43919  0.71835  1.0000
  H   H452      1.0  0.19606  0.02375  0.60857  1.0000
  H   H453      1.0  0.10922  0.44171  0.70957  1.0000
  C   C256      1.0  0.03861  0.36292  0.61580  1.0000
  H   H454      1.0  0.26701  0.42782  0.62453  1.0000
  C   C257      1.0  0.04043  0.36505  0.59023  1.0000
  C   C258      1.0  0.04888  0.37737  0.60388  1.0000
  H   H455      1.0  0.04815  0.37667  0.58113  1.0000
  H   H456      1.0  0.06302  0.39817  0.60515  1.0000
  C   C259      1.0  0.33370  0.43856  0.72019  1.0000
  H   H457      1.0  0.08439  0.33195  0.50662  1.0000
  C   C260      1.0  0.33922  0.41575  0.72148  1.0000
  H   H458      1.0  0.04961  0.23301  0.48691  1.0000
  H   H459      1.0  0.34243  0.40573  0.71217  1.0000
  H   H460      1.0  0.29338  0.46933  0.61402  1.0000
  C   C261      1.0  0.23908  0.44336  0.66170  1.0000
  C   C262      1.0  0.21274  0.43182  0.66623  1.0000
  C   C263      1.0  0.19411  0.44250  0.66256  1.0000
  C   C264      1.0  0.20186  0.46460  0.65404  1.0000
  N   N15       1.0  0.98655  0.41295  0.61453  1.0000
  H   H461      1.0  0.25313  0.43508  0.66479  1.0000
  H   H462      1.0  0.20678  0.41453  0.67264  1.0000
  H   H463      1.0  0.99799  0.30256  0.59888  1.0000
  C   C265      1.0  0.02203  0.33793  0.58822  1.0000
  C   C266      1.0  0.16493  0.15461  0.52261  1.0000
  H   H464      1.0  0.05725  0.19635  0.53420  1.0000
  H   H465      1.0  0.21504  0.27295  0.49725  1.0000
  H   H466      1.0  0.21123  0.14513  0.52553  1.0000
  C   C267      1.0  0.12971  0.26439  0.55098  1.0000
  C   C268      1.0  0.11126  0.27606  0.54914  1.0000
  C   C269      1.0  0.08436  0.26215  0.55241  1.0000
  C   C270      1.0  0.07555  0.23651  0.55770  1.0000
  C   C271      1.0  0.09414  0.22496  0.55979  1.0000
  C   C272      1.0  0.12117  0.23879  0.55637  1.0000
  H   H467      1.0  0.11779  0.29591  0.54506  1.0000
  H   H468      1.0  0.07051  0.27129  0.55074  1.0000
  H   H469      1.0  0.08757  0.20513  0.56391  1.0000
  H   H470      1.0  0.13532  0.22966  0.55786  1.0000
  C   C273      1.0  0.28741  0.33418  0.59347  1.0000
  C   C274      1.0  0.30709  0.36060  0.59616  1.0000
  C   C275      1.0  0.31233  0.37317  0.60985  1.0000
  C   C276      1.0  0.29837  0.35930  0.62124  1.0000
  C   C277      1.0  0.27859  0.33293  0.61854  1.0000
  C   C278      1.0  0.27293  0.32059  0.60479  1.0000
  H   H471      1.0  0.31854  0.37141  0.58757  1.0000
  H   H472      1.0  0.32764  0.39337  0.61163  1.0000
  H   H473      1.0  0.26763  0.32185  0.62718  1.0000
  H   H474      1.0  0.25783  0.30029  0.60302  1.0000
  H   H475      1.0  0.13017  0.30800  0.61119  1.0000
  C   C279      1.0  0.23552  0.11531  0.55265  1.0000
  C   C280      1.0  0.20788  0.10790  0.55058  1.0000
  C   C281      1.0  0.19696  0.12720  0.55257  1.0000
  C   C282      1.0  0.21365  0.15446  0.55583  1.0000
  C   C283      1.0  0.24140  0.16202  0.55742  1.0000
  C   C284      1.0  0.25219  0.14252  0.55599  1.0000
  H   H476      1.0  0.19488  0.08723  0.54767  1.0000
  H   H477      1.0  0.17545  0.12099  0.55148  1.0000
  H   H478      1.0  0.25449  0.18281  0.56012  1.0000
  H   H479      1.0  0.27362  0.14854  0.55759  1.0000
  H   H480      1.0  0.19588  0.44914  0.62292  1.0000
  H   H481      1.0  0.25949  0.43381  0.59712  1.0000
  H   H482      1.0  0.02551  0.19754  0.52912  1.0000
  Fe  Fe46      1.0  0.99389  0.28132  0.55967  1.0000
  C   C285      1.0  0.02039  0.33577  0.61378  1.0000
  C   C286      1.0  0.27175  0.47291  0.69868  1.0000
  C   C287      1.0  0.23511  0.37326  0.62657  1.0000
  C   C288      1.0  0.22826  0.47594  0.64932  1.0000
  H   H483      1.0  0.06971  0.19868  0.50946  1.0000
  H   H484      1.0  0.39741  0.01285  0.61925  1.0000
  H   H485      1.0  0.05114  0.31136  0.51227  1.0000
  H   H486      1.0  0.27479  0.47998  0.68779  1.0000
  H   H487      1.0  0.15355  0.14130  0.51345  1.0000
  C   C289      1.0  0.98708  0.40703  0.64141  1.0000
  C   C290      1.0  0.25360  0.13330  0.51810  1.0000
  C   C291      1.0  0.26584  0.11398  0.51312  1.0000
  H   H488      1.0  0.26786  0.14749  0.52616  1.0000
  C   C292      1.0  0.30056  0.22402  0.52908  1.0000
  H   H489      1.0  0.25768  0.48029  0.70365  1.0000
  H   H490      1.0  0.29151  0.48156  0.70460  1.0000
  Fe  Fe47      1.0  0.98947  0.25360  0.52941  1.0000
  C   C293      1.0  0.08117  0.29533  0.51666  1.0000
  H   H491      1.0  0.18760  0.47298  0.65114  1.0000
  H   H492      1.0  0.29395  0.18876  0.51626  1.0000
  H   H493      1.0  0.05560  0.27409  0.49845  1.0000
  H   H494      1.0  0.23480  0.12108  0.52321  1.0000
  C   C294      1.0  0.21583  0.34575  0.59852  1.0000
  C   C295      1.0  0.28462  0.20338  0.51736  1.0000
  C   C296      1.0  0.00909  0.44062  0.61649  1.0000
  Fe  Fe48      1.0  0.37033  0.47347  0.65598  1.0000
  H   H495      1.0  0.21305  0.34658  0.57560  1.0000
  Fe  Fe49      1.0  0.10202  0.47736  0.65423  1.0000
  H   H496      1.0  0.28431  0.12468  0.50736  1.0000
  H   H497      1.0  0.00463  0.42642  0.64357  1.0000
  C   C297      1.0  0.04147  0.19127  0.52563  1.0000
  H   H498      1.0  0.00441  0.38985  0.62564  1.0000
  H   H499      1.0  0.23484  0.33145  0.58221  1.0000
  C   C298      1.0  0.25454  0.18914  0.52072  1.0000
  C   C299      1.0  0.23304  0.36860  0.65296  1.0000
  H   H500      1.0  0.29806  0.21454  0.53941  1.0000
  H   H501      1.0  0.32223  0.23270  0.52687  1.0000
  C   C300      1.0  0.11973  0.23732  0.50638  1.0000
  H   H502      1.0  0.26836  0.00273  0.58803  1.0000
  H   H503      1.0  0.21691  0.33113  0.60614  1.0000
  H   H504      1.0  0.24730  0.20533  0.52262  1.0000
  N   N16       1.0  0.24291  0.40127  0.71404  1.0000
  C   C301      1.0  0.21588  0.38941  0.70612  1.0000
  C   C302      1.0  0.26092  0.38807  0.70886  1.0000
  C   C303      1.0  0.03786  0.44162  0.61864  1.0000
  C   C304      1.0  0.25648  0.43141  0.71311  1.0000
  C   C305      1.0  0.26028  0.44220  0.69817  1.0000
  C   C306      1.0  0.19543  0.40138  0.71020  1.0000
  H   H505      1.0  0.32513  0.46881  0.73155  1.0000
  C   C307      1.0  0.25780  0.37861  0.69310  1.0000
  C   C308      1.0  0.28075  0.37095  0.68894  1.0000
  C   C309      1.0  0.24701  0.46539  0.65318  1.0000
  C   C310      1.0  0.16936  0.38831  0.70113  1.0000
  C   C311      1.0  0.24026  0.37319  0.60122  1.0000
  H   H506      1.0  0.20624  0.36728  0.70743  1.0000
  H   H507      1.0  0.21803  0.39164  0.69464  1.0000
  H   H508      1.0  0.28240  0.40162  0.71120  1.0000
  H   H509      1.0  0.25769  0.36963  0.71468  1.0000
  H   H510      1.0  0.11220  0.22544  0.51578  1.0000
  H   H511      1.0  0.20391  0.18540  0.52815  1.0000
  H   H512      1.0  0.24548  0.44131  0.71906  1.0000
  H   H513      1.0  0.27697  0.43932  0.71827  1.0000
  H   H514      1.0  0.24102  0.43481  0.69195  1.0000
  H   H515      1.0  0.27476  0.43626  0.69266  1.0000
  H   H516      1.0  0.20368  0.42331  0.70863  1.0000
  H   H517      1.0  0.19650  0.13676  0.50839  1.0000
  H   H518      1.0  0.21544  0.34899  0.65144  1.0000
  H   H519      1.0  0.23866  0.36055  0.69109  1.0000
  H   H520      1.0  0.25750  0.39421  0.68606  1.0000
  H   H521      1.0  0.27787  0.36391  0.67768  1.0000
  H   H522      1.0  0.30035  0.38865  0.69036  1.0000
  H   H523      1.0  0.28135  0.35456  0.69539  1.0000
  H   H524      1.0  0.21585  0.35517  0.62532  1.0000
  C   C312      1.0  0.24773  0.14829  0.50570  1.0000
  C   C313      1.0  0.22489  0.26777  0.48867  1.0000
  H   H525      1.0  0.17332  0.39138  0.68981  1.0000
  H   H526      1.0  0.23425  0.44312  0.61363  1.0000
  H   H527      1.0  0.28701  0.21425  0.50750  1.0000
  N   N17       1.0  0.08672  0.30971  0.59275  1.0000
  C   C314      1.0  0.06284  0.28898  0.59944  1.0000
  C   C315      1.0  0.09700  0.33620  0.60132  1.0000
  C   C316      1.0  0.07716  0.31437  0.57843  1.0000
  C   C317      1.0  0.10881  0.30015  0.59060  1.0000
  C   C318      1.0  0.04961  0.26102  0.59156  1.0000
  C   C319      1.0  0.09801  0.33700  0.57016  1.0000
  C   C320      1.0  0.09449  0.33509  0.61751  1.0000
  C   C321      1.0  0.10916  0.36299  0.62479  1.0000
  C   C322      1.0  0.02727  0.24124  0.59996  1.0000
  C   C323      1.0  0.08531  0.34074  0.55633  1.0000
  H   H528      1.0  0.04693  0.29672  0.60060  1.0000
  H   H529      1.0  0.06811  0.28536  0.61029  1.0000
  H   H530      1.0  0.11839  0.34855  0.59919  1.0000
  H   H531      1.0  0.08578  0.34844  0.59806  1.0000
  H   H532      1.0  0.05919  0.31899  0.57940  1.0000
  H   H533      1.0  0.07049  0.29589  0.57148  1.0000
  H   H534      1.0  0.12669  0.31640  0.58646  1.0000
  H   H535      1.0  0.04028  0.26247  0.58130  1.0000
  H   H536      1.0  0.06446  0.25225  0.58975  1.0000
  H   H537      1.0  0.11510  0.33188  0.56749  1.0000
  H   H538      1.0  0.10593  0.35659  0.57623  1.0000
  H   H539      1.0  0.07299  0.32786  0.62008  1.0000
  H   H540      1.0  0.10270  0.32147  0.62213  1.0000
  H   H541      1.0  0.13107  0.37080  0.62321  1.0000
  H   H542      1.0  0.10118  0.37730  0.62065  1.0000
  H   H543      1.0  0.10601  0.36180  0.63626  1.0000
  H   H544      1.0  0.01783  0.22163  0.59389  1.0000
  H   H545      1.0  0.03549  0.23792  0.61019  1.0000
  H   H546      1.0  0.01152  0.24887  0.60185  1.0000
  H   H547      1.0  0.10047  0.35696  0.55057  1.0000
  H   H548      1.0  0.07797  0.32187  0.54964  1.0000
  H   H549      1.0  0.06822  0.34636  0.55833  1.0000
  N   N18       1.0  0.18037  0.05251  0.58748  1.0000
  C   C324      1.0  0.21020  0.06977  0.58927  1.0000
  C   C325      1.0  0.17455  0.02287  0.58826  1.0000
  C   C326      1.0  0.17134  0.05672  0.57293  1.0000
  C   C327      1.0  0.16461  0.06062  0.59801  1.0000
  C   C328      1.0  0.17233  0.05950  0.61367  1.0000
  C   C329      1.0  0.21876  0.10072  0.58977  1.0000
  C   C330      1.0  0.14134  0.03970  0.56846  1.0000
  N   N19       1.0  0.08089  0.25301  0.50294  1.0000
  C   C331      1.0  0.21573  0.33367  0.58378  1.0000
  C   C332      1.0  0.15787  0.07183  0.62324  1.0000
  C   C333      1.0  0.24931  0.11570  0.59133  1.0000
  C   C334      1.0  0.13595  0.04206  0.55283  1.0000
  H   H550      1.0  0.22093  0.06458  0.58063  1.0000
  H   H551      1.0  0.21896  0.06574  0.59912  1.0000
  H   H552      1.0  0.12279  0.27564  0.49877  1.0000
  H   H553      1.0  0.17480  0.01384  0.57763  1.0000
  H   H554      1.0  0.18391  0.05256  0.56494  1.0000
  H   H555      1.0  0.17427  0.07796  0.57186  1.0000
  H   H556      1.0  0.16586  0.08115  0.59607  1.0000
  H   H557      1.0  0.14285  0.04730  0.59662  1.0000
  H   H558      1.0  0.19420  0.07062  0.61604  1.0000
  H   H559      1.0  0.16616  0.03826  0.61644  1.0000
  H   H560      1.0  0.21215  0.10741  0.58009  1.0000
  H   H561      1.0  0.21029  0.10730  0.59887  1.0000
  H   H562      1.0  0.12818  0.04696  0.57441  1.0000
  H   H563      1.0  0.13518  0.01806  0.57030  1.0000
  C   C335      1.0  0.23499  0.18343  0.49674  1.0000
  H   H564      1.0  0.15875  0.26148  0.51690  1.0000
  H   H565      1.0  0.21535  0.39046  0.64118  1.0000
  H   H566      1.0  0.13573  0.06103  0.62152  1.0000
  C   C336      1.0  0.21940  0.42587  0.61893  1.0000
  H   H567      1.0  0.16329  0.07029  0.63441  1.0000
  H   H568      1.0  0.16392  0.09344  0.62119  1.0000
  H   H569      1.0  0.19902  0.31342  0.58233  1.0000
  H   H570      1.0  0.25898  0.10996  0.58244  1.0000
  H   H571      1.0  0.25491  0.13772  0.59124  1.0000
  H   H572      1.0  0.25712  0.11121  0.60138  1.0000
  H   H573      1.0  0.14123  0.06338  0.55040  1.0000
  H   H574      1.0  0.14781  0.03390  0.54635  1.0000
  H   H575      1.0  0.11432  0.03021  0.54995  1.0000
  C   C337      1.0  0.41287  0.45315  0.72713  1.0000
  H   H576      1.0  0.25332  0.17991  0.53104  1.0000
  H   H577      1.0  0.03762  0.19778  0.50377  1.0000
  H   H578      1.0  0.15481  0.16794  0.52563  1.0000
  H   H579      1.0  0.25115  0.36563  0.62752  1.0000
  C   C338      1.0  0.01228  0.32332  0.60015  1.0000
  H   H580      1.0  0.04383  0.43367  0.60909  1.0000
  H   H581      1.0  0.03251  0.16913  0.52360  1.0000
  H   H582      1.0  0.10244  0.28360  0.58228  1.0000
  H   H583      1.0  0.41270  0.99876  0.60071  1.0000
  H   H584      1.0  0.15642  0.29353  0.59439  1.0000
  H   H585      1.0  0.19280  0.18410  0.51009  1.0000
  C   C339      1.0  0.07154  0.23838  0.48872  1.0000
  H   H586      1.0  0.26644  0.15777  0.49990  1.0000
  C   C340      1.0  0.13910  0.27856  0.59960  1.0000
  H   H587      1.0  0.01226  0.32427  0.62287  1.0000
  H   H588      1.0  0.26416  0.03222  0.49090  1.0000
  H   H589      1.0  0.10280  0.27499  0.60903  1.0000
  H   H590      1.0  0.11656  0.27111  0.51676  1.0000
  S   S93       1.0  0.34472  0.48591  0.67005  1.0000
  C   C341      1.0  0.11928  0.29066  0.60370  1.0000
  N   N20       1.0  0.23936  0.39026  0.61391  1.0000
  H   H591      1.0  0.23340  0.13250  0.49823  1.0000
  H   H592      1.0  0.28225  0.40660  0.61886  1.0000
  H   H593      1.0  0.15914  0.25920  0.49792  1.0000
  C   C342      1.0  0.19273  0.42894  0.61842  1.0000
  H   H594      1.0  0.18459  0.42697  0.60741  1.0000
  C   C343      1.0  0.20935  0.15416  0.51550  1.0000
  H   H595      1.0  0.38999  0.99596  0.64986  1.0000
  Fe  Fe50      1.0  0.24194  0.99483  0.55066  1.0000
  H   H596      1.0  0.41533  0.00415  0.57429  1.0000
  H   H597      1.0  0.21412  0.02263  0.59328  1.0000
  C   C344      1.0  0.19379  0.17176  0.51893  1.0000
  H   H598      1.0  0.21292  0.40085  0.60017  1.0000
  H   H599      1.0  0.07890  0.47074  0.62311  1.0000
  H   H600      1.0  0.28342  0.41920  0.59486  1.0000
  C   C345      1.0  0.07646  0.27865  0.50253  1.0000
  H   H601      1.0  0.39841  0.43386  0.73103  1.0000
  C   C346      1.0  0.05362  0.43317  0.72751  1.0000
  H   H602      1.0  0.25102  0.09731  0.50633  1.0000
  H   H603      1.0  0.09002  0.29264  0.49511  1.0000
  H   H604      1.0  0.04566  0.24000  0.51559  1.0000
  S   S94       1.0  0.00105  0.25525  0.50633  1.0000
  H   H605      1.0  0.29379  0.24069  0.52964  1.0000
  H   H606      1.0  0.24206  0.38437  0.59146  1.0000
  H   H607      1.0  0.25175  0.36507  0.65361  1.0000
  H   H608      1.0  0.12909  0.26059  0.59231  1.0000
  S   S95       1.0  0.11927  0.47198  0.67515  1.0000
  H   H609      1.0  0.27134  0.10500  0.52237  1.0000
  H   H610      1.0  0.00729  0.38476  0.65182  1.0000
  C   C347      1.0  0.21643  0.39881  0.61158  1.0000
  H   H611      1.0  0.23137  0.37850  0.66304  1.0000
  C   C348      1.0  0.05366  0.20517  0.51229  1.0000
  H   H612      1.0  0.05407  0.47938  0.63138  1.0000
  C   C349      1.0  0.27606  0.43030  0.60246  1.0000
  H   H613      1.0  0.07356  0.21894  0.48830  1.0000
  H   H614      1.0  0.14681  0.27227  0.60915  1.0000
  S   S96       1.0  0.27978  0.47934  0.64681  1.0000
  C   C350      1.0  0.26645  0.41374  0.61572  1.0000
  H   H615      1.0  0.19733  0.38280  0.61483  1.0000
  C   C351      1.0  0.23393  0.38677  0.64091  1.0000
  C   C352      1.0  0.19387  0.01517  0.59768  1.0000
  H   H616      1.0  0.98917  0.19894  0.49551  1.0000
  H   H617      1.0  0.07739  0.33122  0.52497  1.0000
  H   H618      1.0  0.15373  0.01138  0.59162  1.0000
  H   H619      1.0  0.25169  0.40593  0.64306  1.0000
  Fe  Fe51      1.0  0.18463  0.99158  0.54725  1.0000
  H   H620      1.0  0.10272  0.30375  0.52018  1.0000
  C   C353      1.0  0.06415  0.23623  0.51435  1.0000
  H   H621      1.0  0.44420  0.99208  0.61476  1.0000
  C   C354      1.0  0.11043  0.26065  0.50617  1.0000
  H   H622      1.0  0.07544  0.24232  0.52472  1.0000
  H   H623      1.0  0.19656  0.34786  0.59957  1.0000
  H   H624      1.0  0.06924  0.28311  0.52510  1.0000
  H   H625      1.0  0.15531  0.39761  0.70399  1.0000
  H   H626      1.0  0.16465  0.14219  0.53165  1.0000
  H   H627      1.0  0.36442  0.99879  0.63823  1.0000
  H   H628      1.0  0.23145  0.20164  0.49969  1.0000
  C   C355      1.0  0.29920  0.45752  0.60607  1.0000
  C   C356      1.0  0.24564  0.25954  0.49160  1.0000
  C   C357      1.0  0.15040  0.24798  0.50736  1.0000
  H   H629      1.0  0.39447  0.02808  0.64330  1.0000
  H   H630      1.0  0.05867  0.48323  0.61271  1.0000
  H   H631      1.0  0.03936  0.42978  0.62761  1.0000
  H   H632      1.0  0.25458  0.19142  0.49163  1.0000
  H   H633      1.0  0.15656  0.23093  0.50803  1.0000
  H   H634      1.0  0.17787  0.41360  0.62478  1.0000
  C   C358      1.0  0.38641  0.00615  0.64059  1.0000
  C   C359      1.0  0.05851  0.47052  0.62162  1.0000
  H   H635      1.0  0.02523  0.47327  0.73081  1.0000
  H   H636      1.0  0.11272  0.22393  0.49677  1.0000
  H   H637      1.0  0.98822  0.39659  0.66316  1.0000
  C   C360      1.0  0.10616  0.43814  0.73212  1.0000
  C   C361      1.0  0.98843  0.38786  0.65248  1.0000
  C   C362      1.0  0.21346  0.16683  0.48517  1.0000
  H   H638      1.0  0.98793  0.16653  0.48958  1.0000
  C   C363      1.0  0.98376  0.25177  0.48969  1.0000
  H   H639      1.0  0.28556  0.99930  0.61210  1.0000
  C   C364      1.0  0.40041  0.00097  0.62788  1.0000
  S   S97       1.0  0.98211  0.24174  0.57006  1.0000
  H   H640      1.0  0.19308  0.15805  0.48932  1.0000
  H   H641      1.0  0.00911  0.39750  0.60128  1.0000
  H   H642      1.0  0.22650  0.37311  0.73034  1.0000
  H   H643      1.0  0.00553  0.45216  0.62548  1.0000
  H   H644      1.0  0.30477  0.46919  0.59646  1.0000
  H   H645      1.0  0.42219  0.00878  0.63079  1.0000
  H   H646      1.0  0.40225  0.46043  0.71924  1.0000
  H   H647      1.0  0.42896  0.44929  0.72188  1.0000
  C   C365      1.0  0.23814  0.39514  0.72935  1.0000
  H   H648      1.0  0.16871  0.48257  0.72385  1.0000
  S   S98       1.0  0.20977  0.99375  0.49765  1.0000
  C   C366      1.0  0.98698  0.39532  0.62633  1.0000
  H   H649      1.0  0.99176  0.41350  0.59204  1.0000
  C   C367      1.0  0.98990  0.40006  0.60088  1.0000
  H   H650      1.0  0.98981  0.36588  0.57911  1.0000
  C   C368      1.0  0.32952  0.45123  0.73242  1.0000
  Fe  Fe52      1.0  0.21532  0.02744  0.90053  1.0000
  S   S99       1.0  0.24341  0.00900  0.90818  1.0000
  S   S100      1.0  0.23505  0.07343  0.90335  1.0000
  C   C369      1.0  0.02267  0.33107  0.86430  1.0000
  C   C370      1.0  0.99989  0.25715  0.95997  1.0000
  Fe  Fe53      1.0  0.21230  0.20957  0.89843  1.0000
  S   S101      1.0  0.25629  0.23447  0.90279  1.0000
  S   S102      1.0  0.19212  0.16453  0.89221  1.0000
  Fe  Fe54      1.0  0.19872  0.25828  0.90449  1.0000
  S   S103      1.0  0.24189  0.28621  0.90971  1.0000
  S   S104      1.0  0.16898  0.27757  0.90508  1.0000
  Fe  Fe55      1.0  0.25068  0.26689  0.89025  1.0000
  S   S105      1.0  0.27419  0.28569  0.87067  1.0000
  Fe  Fe56      1.0  0.24321  0.25160  0.92180  1.0000
  S   S106      1.0  0.26131  0.25011  0.94375  1.0000
  S   S107      1.0  0.20719  0.24039  0.88473  1.0000
  S   S108      1.0  0.19945  0.22525  0.91777  1.0000
  Fe  Fe57      1.0  0.32866  0.42113  0.78468  1.0000
  S   S109      1.0  0.33897  0.40592  0.76390  1.0000
  Fe  Fe58      1.0  0.31882  0.41574  0.81679  1.0000
  S   S110      1.0  0.30835  0.45204  0.81720  1.0000
  S   S111      1.0  0.31352  0.39705  0.83867  1.0000
  Fe  Fe59      1.0  0.28404  0.43332  0.79728  1.0000
  S   S112      1.0  0.24098  0.42410  0.79037  1.0000
  C   C371      1.0  0.21083  0.46075  0.81861  1.0000
  C   C372      1.0  0.03269  0.35902  0.86262  1.0000
  S   S113      1.0  0.29307  0.39665  0.79716  1.0000
  S   S114      1.0  0.35614  0.43704  0.80430  1.0000
  Fe  Fe60      1.0  0.07444  0.46617  0.80584  1.0000
  S   S115      1.0  0.05020  0.42727  0.79325  1.0000
  Fe  Fe61      1.0  0.12028  0.44886  0.81185  1.0000
  S   S116      1.0  0.09961  0.40991  0.79944  1.0000
  C   C373      1.0  0.09567  0.32497  0.92348  1.0000
  Fe  Fe62      1.0  0.08931  0.43401  0.78325  1.0000
  S   S117      1.0  0.10341  0.43349  0.76079  1.0000
  Fe  Fe63      1.0  0.06278  0.40667  0.81079  1.0000
  S   S118      1.0  0.03788  0.36527  0.81975  1.0000
  C   C374      1.0  0.08776  0.25267  0.96917  1.0000
  S   S119      1.0  0.08411  0.44507  0.82388  1.0000
  Fe  Fe64      1.0  0.01801  0.23066  0.89464  1.0000
  S   S120      1.0  0.03394  0.27184  0.90510  1.0000
  S   S121      1.0  0.04614  0.21253  0.88677  1.0000
  H   H651      1.0  0.20206  0.42603  0.76958  1.0000
  H   H652      1.0  0.23765  0.18157  0.96745  1.0000
  C   C375      1.0  0.03394  0.35294  0.83715  1.0000
  C   C376      1.0  0.02426  0.32500  0.83885  1.0000
  C   C377      1.0  0.01894  0.31414  0.85230  1.0000
  C   C378      1.0  0.03846  0.36990  0.84921  1.0000
  H   H653      1.0  0.04537  0.39133  0.84814  1.0000
  C   C379      1.0  0.21935  0.43159  0.80139  1.0000
  C   C380      1.0  0.19158  0.41778  0.79870  1.0000
  C   C381      1.0  0.17358  0.42618  0.80541  1.0000
  C   C382      1.0  0.18314  0.44808  0.81516  1.0000
  C   C383      1.0  0.22898  0.45268  0.81164  1.0000
  C   C384      1.0  0.10625  0.30989  0.93360  1.0000
  H   H654      1.0  0.99338  0.19951  0.96271  1.0000
  C   C385      1.0  0.25185  0.25690  0.96074  1.0000
  C   C386      1.0  0.23551  0.27090  0.96269  1.0000
  C   C387      1.0  0.26172  0.24855  0.97269  1.0000
  H   H655      1.0  0.22786  0.27759  0.95364  1.0000
  H   H656      1.0  0.27442  0.23778  0.97135  1.0000
  C   C388      1.0  0.13564  0.25939  0.89865  1.0000
  C   C389      1.0  0.12552  0.23182  0.89512  1.0000
  C   C390      1.0  0.09817  0.21770  0.89098  1.0000
  C   C391      1.0  0.08090  0.23106  0.89041  1.0000
  C   C392      1.0  0.09142  0.25882  0.89337  1.0000
  C   C393      1.0  0.11862  0.27288  0.89758  1.0000
  H   H657      1.0  0.13856  0.22127  0.89588  1.0000
  H   H658      1.0  0.09021  0.19623  0.88860  1.0000
  H   H659      1.0  0.07857  0.26945  0.89249  1.0000
  H   H660      1.0  0.12643  0.29426  0.90016  1.0000
  C   C394      1.0  0.28555  0.31702  0.86207  1.0000
  C   C395      1.0  0.28981  0.31718  0.84752  1.0000
  C   C396      1.0  0.29782  0.34117  0.84013  1.0000
  C   C397      1.0  0.30250  0.36570  0.84725  1.0000
  C   C398      1.0  0.29865  0.36560  0.86184  1.0000
  C   C399      1.0  0.29006  0.34151  0.86916  1.0000
  H   H661      1.0  0.28670  0.29852  0.84188  1.0000
  H   H662      1.0  0.30087  0.34076  0.82897  1.0000
  H   H663      1.0  0.30243  0.38438  0.86754  1.0000
  H   H664      1.0  0.28744  0.34196  0.88036  1.0000
  Fe  Fe65      1.0  0.00213  0.27771  0.89175  1.0000
  H   H665      1.0  0.05036  0.42867  0.75001  1.0000
  C   C400      1.0  0.10583  0.34783  0.85101  1.0000
  H   H666      1.0  0.08258  0.33424  0.82560  1.0000
  H   H667      1.0  0.32710  0.45114  0.75497  1.0000
  C   C401      1.0  0.22201  0.09827  0.90128  1.0000
  C   C402      1.0  0.19501  0.09169  0.89751  1.0000
  C   C403      1.0  0.18612  0.11222  0.89495  1.0000
  C   C404      1.0  0.20399  0.13952  0.89631  1.0000
  C   C405      1.0  0.23084  0.14610  0.90042  1.0000
  C   C406      1.0  0.23978  0.12559  0.90287  1.0000
  H   H668      1.0  0.18106  0.07080  0.89634  1.0000
  H   H669      1.0  0.16528  0.10692  0.89179  1.0000
  H   H670      1.0  0.24484  0.16699  0.90136  1.0000
  H   H671      1.0  0.26073  0.13092  0.90574  1.0000
  H   H672      1.0  0.21836  0.47752  0.82628  1.0000
  N   N21       1.0  0.20337  0.31713  0.85792  1.0000
  C   C407      1.0  0.20196  0.33080  0.84453  1.0000
  C   C408      1.0  0.17585  0.30401  0.86394  1.0000
  C   C409      1.0  0.22143  0.33867  0.86850  1.0000
  C   C410      1.0  0.21542  0.29690  0.85566  1.0000
  C   C411      1.0  0.20024  0.27311  0.84500  1.0000
  C   C412      1.0  0.22901  0.34630  0.83751  1.0000
  C   C413      1.0  0.22392  0.32948  0.88355  1.0000
  C   C414      1.0  0.15115  0.29273  0.85334  1.0000
  C   C415      1.0  0.12550  0.27627  0.86069  1.0000
  C   C416      1.0  0.21651  0.25633  0.84242  1.0000
  C   C417      1.0  0.22460  0.35854  0.82394  1.0000
  C   C418      1.0  0.23959  0.35356  0.89366  1.0000
  H   H673      1.0  0.19282  0.34538  0.84663  1.0000
  H   H674      1.0  0.18854  0.31621  0.83635  1.0000
  H   H675      1.0  0.17504  0.28748  0.87081  1.0000
  H   H676      1.0  0.17191  0.31859  0.87103  1.0000
  H   H677      1.0  0.21460  0.35537  0.86940  1.0000
  H   H678      1.0  0.24230  0.34777  0.86497  1.0000
  H   H679      1.0  0.23636  0.30707  0.85245  1.0000
  H   H680      1.0  0.21695  0.28761  0.86568  1.0000
  H   H681      1.0  0.19637  0.28004  0.83470  1.0000
  H   H682      1.0  0.18095  0.25960  0.84929  1.0000
  H   H683      1.0  0.24303  0.36324  0.84445  1.0000
  H   H684      1.0  0.23899  0.33275  0.83474  1.0000
  H   H685      1.0  0.23487  0.31617  0.88352  1.0000
  H   H686      1.0  0.20403  0.31854  0.88792  1.0000
  H   H687      1.0  0.14810  0.30958  0.84843  1.0000
  H   H688      1.0  0.15358  0.27970  0.84483  1.0000
  H   H689      1.0  0.10803  0.26893  0.85299  1.0000
  H   H690      1.0  0.12708  0.25853  0.86542  1.0000
  H   H691      1.0  0.12178  0.28877  0.86909  1.0000
  H   H692      1.0  0.20498  0.23892  0.83506  1.0000
  H   H693      1.0  0.23584  0.26860  0.83772  1.0000
  H   H694      1.0  0.22084  0.24858  0.85243  1.0000
  H   H695      1.0  0.24430  0.36971  0.81928  1.0000
  H   H696      1.0  0.21168  0.34257  0.81614  1.0000
  H   H697      1.0  0.21526  0.37293  0.82608  1.0000
  H   H698      1.0  0.22870  0.36685  0.89475  1.0000
  H   H699      1.0  0.24188  0.34633  0.90419  1.0000
  H   H700      1.0  0.25993  0.36532  0.88986  1.0000
  C   C419      1.0  0.17715  0.15034  0.92786  1.0000
  C   C420      1.0  0.14746  0.14278  0.92403  1.0000
  H   H701      1.0  0.18883  0.16890  0.92241  1.0000
  H   H702      1.0  0.18247  0.13418  0.92357  1.0000
  H   H703      1.0  0.14146  0.15910  0.92759  1.0000
  H   H704      1.0  0.14403  0.13983  0.91242  1.0000
  H   H705      1.0  0.13472  0.12374  0.92883  1.0000
  C   C421      1.0  0.08851  0.27921  0.93227  1.0000
  N   N22       1.0  0.23209  0.08963  0.85831  1.0000
  C   C422      1.0  0.22582  0.11398  0.86081  1.0000
  C   C423      1.0  0.20955  0.06471  0.86324  1.0000
  C   C424      1.0  0.25736  0.09420  0.86705  1.0000
  C   C425      1.0  0.23753  0.08583  0.84314  1.0000
  C   C426      1.0  0.21495  0.08271  0.83209  1.0000
  C   C427      1.0  0.24754  0.14135  0.85678  1.0000
  C   C428      1.0  0.26507  0.06971  0.86800  1.0000
  C   C429      1.0  0.18038  0.06280  0.86146  1.0000
  C   C430      1.0  0.22476  0.08357  0.81717  1.0000
  C   C431      1.0  0.23830  0.16407  0.85944  1.0000
  H   H706      1.0  0.22212  0.11600  0.87213  1.0000
  H   H707      1.0  0.20689  0.11164  0.85513  1.0000
  H   H708      1.0  0.21013  0.04627  0.85812  1.0000
  H   H709      1.0  0.21240  0.06290  0.87474  1.0000
  H   H710      1.0  0.25572  0.10099  0.87800  1.0000
  H   H711      1.0  0.27508  0.11068  0.86292  1.0000
  H   H712      1.0  0.25634  0.10261  0.84019  1.0000
  H   H713      1.0  0.24147  0.06745  0.84161  1.0000
  H   H714      1.0  0.20769  0.09890  0.83335  1.0000
  H   H715      1.0  0.19795  0.06286  0.83288  1.0000
  H   H716      1.0  0.26649  0.14666  0.86319  1.0000
  H   H717      1.0  0.25175  0.14091  0.84548  1.0000
  H   H718      1.0  0.26919  0.06325  0.85750  1.0000
  H   H719      1.0  0.24894  0.05232  0.87249  1.0000
  H   H720      1.0  0.17771  0.07797  0.86859  1.0000
  H   H721      1.0  0.17525  0.06640  0.85063  1.0000
  S   S122      1.0  0.01755  0.25990  0.94431  1.0000
  H   H722      1.0  0.23184  0.06735  0.81518  1.0000
  H   H723      1.0  0.20801  0.08059  0.80943  1.0000
  H   H724      1.0  0.24139  0.10336  0.81554  1.0000
  H   H725      1.0  0.23474  0.16604  0.87076  1.0000
  H   H726      1.0  0.25406  0.18344  0.85642  1.0000
  H   H727      1.0  0.21950  0.16028  0.85315  1.0000
  C   C432      1.0  0.21785  0.00933  0.95918  1.0000
  C   C433      1.0  0.18186  0.46625  0.74941  1.0000
  H   H728      1.0  0.22775  0.16220  0.92884  1.0000
  C   C434      1.0  0.11632  0.39460  0.84409  1.0000
  C   C435      1.0  0.11738  0.40819  0.85874  1.0000
  C   C436      1.0  0.09764  0.35123  0.82025  1.0000
  C   C437      1.0  0.11101  0.43293  0.85758  1.0000
  H   H729      1.0  0.08505  0.34701  0.84998  1.0000
  H   H730      1.0  0.12796  0.41037  0.83685  1.0000
  H   H731      1.0  0.09512  0.38754  0.83998  1.0000
  H   H732      1.0  0.13752  0.41508  0.86410  1.0000
  H   H733      1.0  0.10207  0.39403  0.86536  1.0000
  H   H734      1.0  0.17109  0.42204  0.84300  1.0000
  H   H735      1.0  0.08990  0.36696  0.81915  1.0000
  N   N23       1.0  0.12531  0.37177  0.84363  1.0000
  H   H736      1.0  0.11659  0.36440  0.87306  1.0000
  H   H737      1.0  0.12567  0.44794  0.85098  1.0000
  H   H738      1.0  0.31549  0.98793  0.94547  1.0000
  H   H739      1.0  0.14666  0.41714  0.75568  1.0000
  H   H740      1.0  0.07997  0.33360  0.79969  1.0000
  H   H741      1.0  0.11439  0.35758  0.79947  1.0000
  C   C438      1.0  0.15427  0.38273  0.76064  1.0000
  C   C439      1.0  0.18328  0.15554  0.94395  1.0000
  H   H742      1.0  0.16775  0.13867  0.94924  1.0000
  H   H743      1.0  0.17914  0.17361  0.94650  1.0000
  H   H744      1.0  0.18985  0.10560  0.93594  1.0000
  H   H745      1.0  0.40286  0.44363  0.76450  1.0000
  C   C440      1.0  0.29036  0.07670  0.87748  1.0000
  H   H746      1.0  0.29528  0.05884  0.87803  1.0000
  H   H747      1.0  0.30768  0.09343  0.87325  1.0000
  H   H748      1.0  0.28705  0.08256  0.88831  1.0000
  H   H749      1.0  0.03095  0.25256  0.97272  1.0000
  H   H750      1.0  0.21263  0.07495  0.93768  1.0000
  H   H751      1.0  0.08308  0.30366  0.86729  1.0000
  C   C441      1.0  0.09992  0.34106  0.80540  1.0000
  H   H752      1.0  0.13807  0.38057  0.82231  1.0000
  S   S123      1.0  0.01349  0.31854  0.88143  1.0000
  H   H753      1.0  0.23012  0.19323  0.93618  1.0000
  H   H754      1.0  0.26451  0.16377  0.94727  1.0000
  C   C442      1.0  0.12538  0.36319  0.82838  1.0000
  C   C443      1.0  0.11224  0.34551  0.86680  1.0000
  H   H755      1.0  0.23093  0.13763  0.95993  1.0000
  H   H756      1.0  0.15496  0.38600  0.86116  1.0000
  H   H757      1.0  0.21797  0.28876  0.97777  1.0000
  C   C444      1.0  0.15360  0.38027  0.84981  1.0000
  C   C445      1.0  0.17586  0.40408  0.84292  1.0000
  C   C446      1.0  0.08886  0.32312  0.87335  1.0000
  C   C447      1.0  0.23178  0.17419  0.93893  1.0000
  H   H758      1.0  0.10446  0.32860  0.84584  1.0000
  H   H759      1.0  0.17847  0.39860  0.83192  1.0000
  H   H760      1.0  0.07118  0.32831  0.87366  1.0000
  H   H761      1.0  0.16737  0.23425  0.94802  1.0000
  H   H762      1.0  0.31063  0.00281  0.93003  1.0000
  N   N24       1.0  0.21122  0.15996  0.94949  1.0000
  C   C448      1.0  0.21011  0.11341  0.94124  1.0000
  H   H763      1.0  0.23396  0.09532  0.95220  1.0000
  H   H764      1.0  0.27764  0.20983  0.92703  1.0000
  C   C449      1.0  0.08981  0.43472  0.74369  1.0000
  H   H765      1.0  0.13437  0.34812  0.82751  1.0000
  H   H766      1.0  0.21854  0.42903  0.84547  1.0000
  H   H767      1.0  0.19561  0.12284  0.96040  1.0000
  C   C450      1.0  0.01157  0.25353  0.97268  1.0000
  H   H768      1.0  0.19809  0.07816  0.95401  1.0000
  H   H769      1.0  0.27530  0.17625  0.92280  1.0000
  C   C451      1.0  0.05165  0.19085  0.92470  1.0000
  C   C452      1.0  0.20307  0.41225  0.85080  1.0000
  C   C453      1.0  0.33623  0.41849  0.74714  1.0000
  H   H770      1.0  0.09469  0.32064  0.88431  1.0000
  H   H771      1.0  0.26236  0.99393  0.95887  1.0000
  H   H772      1.0  0.10654  0.32429  0.80581  1.0000
  C   C454      1.0  0.21225  0.13376  0.95346  1.0000
  C   C455      1.0  0.21395  0.08903  0.94668  1.0000
  H   H773      1.0  0.21908  0.19855  0.95984  1.0000
  H   H774      1.0  0.22555  0.12243  0.93344  1.0000
  H   H775      1.0  0.15936  0.36287  0.84920  1.0000
  H   H776      1.0  0.22091  0.02087  0.94988  1.0000
  H   H777      1.0  0.13006  0.34054  0.86789  1.0000
  H   H778      1.0  0.38587  0.46224  0.74817  1.0000
  C   C456      1.0  0.21766  0.17826  0.96261  1.0000
  C   C457      1.0  0.27997  0.19212  0.93130  1.0000
  H   H779      1.0  0.25039  0.46341  0.81382  1.0000
  H   H780      1.0  0.20226  0.41925  0.86179  1.0000
  H   H781      1.0  0.30124  0.19845  0.93504  1.0000
  C   C458      1.0  0.26159  0.18149  0.94351  1.0000
  H   H782      1.0  0.26849  0.19761  0.95199  1.0000
  H   H783      1.0  0.27537  0.40167  0.76103  1.0000
  H   H784      1.0  0.07773  0.21989  0.94758  1.0000
  H   H785      1.0  0.33461  0.06309  0.93469  1.0000
  H   H786      1.0  0.11424  0.28994  0.96028  1.0000
  H   H787      1.0  0.15613  0.23869  0.93065  1.0000
  S   S124      1.0  0.20336  0.00095  0.88048  1.0000
  C   C459      1.0  0.29496  0.99236  0.97186  1.0000
  H   H788      1.0  0.30408  0.07252  0.94827  1.0000
  H   H789      1.0  0.09051  0.22167  0.92155  1.0000
  C   C460      1.0  0.15968  0.24671  0.94175  1.0000
  H   H790      1.0  0.24758  0.37205  0.75397  1.0000
  H   H791      1.0  0.03129  0.18870  0.92751  1.0000
  C   C461      1.0  0.09474  0.27287  0.95723  1.0000
  H   H792      1.0  0.06633  0.23832  0.96790  1.0000
  H   H793      1.0  0.12720  0.31414  0.93090  1.0000
  C   C462      1.0  0.18989  0.43069  0.76133  1.0000
  C   C463      1.0  0.28385  0.03012  0.94005  1.0000
  H   H794      1.0  0.11899  0.22446  0.94693  1.0000
  N   N25       1.0  0.09540  0.26199  0.94247  1.0000
  H   H795      1.0  0.15396  0.41481  0.77405  1.0000
  C   C464      1.0  0.13352  0.24577  0.94761  1.0000
  C   C465      1.0  0.07100  0.22050  0.92526  1.0000
  C   C466      1.0  0.34058  0.40587  0.73490  1.0000
  H   H796      1.0  0.05895  0.17938  0.93191  1.0000
  H   H797      1.0  0.15238  0.41587  0.80288  1.0000
  H   H798      1.0  0.07494  0.32216  0.92600  1.0000
  C   C467      1.0  0.22740  0.47457  0.76062  1.0000
  H   H799      1.0  0.02048  0.31158  0.82964  1.0000
  H   H800      1.0  0.06244  0.23053  0.91782  1.0000
  H   H801      1.0  0.18401  0.40106  0.79103  1.0000
  H   H802      1.0  0.12447  0.26009  0.92795  1.0000
  C   C468      1.0  0.12312  0.26394  0.93939  1.0000
  H   H803      1.0  0.26963  0.08732  0.94006  1.0000
  C   C469      1.0  0.07418  0.23362  0.94026  1.0000
  H   H804      1.0  0.13835  0.28480  0.94167  1.0000
  H   H805      1.0  0.08993  0.27285  0.92127  1.0000
  H   H806      1.0  0.03504  0.46327  0.75443  1.0000
  H   H807      1.0  0.34504  0.38833  0.73581  1.0000
  H   H808      1.0  0.06729  0.27639  0.93322  1.0000
  N   N26       1.0  0.19725  0.46063  0.76147  1.0000
  H   H809      1.0  0.05013  0.18217  0.91382  1.0000
  H   H810      1.0  0.10649  0.31835  0.94438  1.0000
  H   H811      1.0  0.40479  0.42672  0.78785  1.0000
  H   H812      1.0  0.16770  0.45799  0.77685  1.0000
  H   H813      1.0  0.05418  0.23317  0.94283  1.0000
  C   C470      1.0  0.40539  0.45743  0.77378  1.0000
  H   H814      1.0  0.38374  0.08480  0.93835  1.0000
  C   C471      1.0  0.30144  0.99524  0.94015  1.0000
  S   S125      1.0  0.31783  0.45635  0.78371  1.0000
  S   S126      1.0  0.98911  0.21154  0.91149  1.0000
  H   H815      1.0  0.38250  0.06548  0.95353  1.0000
  H   H816      1.0  0.13802  0.25312  0.95878  1.0000
  H   H817      1.0  0.33818  0.02799  0.95889  1.0000
  H   H818      1.0  0.07922  0.28137  0.95765  1.0000
  H   H819      1.0  0.24001  0.44490  0.75085  1.0000
  H   H820      1.0  0.10879  0.34681  0.92444  1.0000
  H   H821      1.0  0.16145  0.46338  0.75271  1.0000
  H   H822      1.0  0.09554  0.31764  0.91244  1.0000
  C   C472      1.0  0.41795  0.44791  0.78584  1.0000
  C   C473      1.0  0.26370  0.40415  0.73931  1.0000
  H   H823      1.0  0.00354  0.43686  0.77266  1.0000
  H   H824      1.0  0.34916  0.03879  0.93437  1.0000
  H   H825      1.0  0.38523  0.45529  0.77689  1.0000
  C   C474      1.0  0.26937  0.06810  0.93567  1.0000
  H   H826      1.0  0.01123  0.29262  0.85331  1.0000
  H   H827      1.0  0.20928  0.39519  0.85086  1.0000
  H   H828      1.0  0.00365  0.18818  0.94691  1.0000
  H   H829      1.0  0.29167  0.03357  0.92929  1.0000
  Fe  Fe66      1.0  0.00290  0.25347  0.92114  1.0000
  H   H830      1.0  0.19487  0.42363  0.75116  1.0000
  H   H831      1.0  0.43800  0.44892  0.78313  1.0000
  C   C475      1.0  0.33059  0.44120  0.74577  1.0000
  H   H832      1.0  0.17813  0.45128  0.74045  1.0000
  C   C476      1.0  0.26867  0.48397  0.74629  1.0000
  H   H833      1.0  0.24814  0.05377  0.93348  1.0000
  H   H834      1.0  0.24268  0.40219  0.75873  1.0000
  H   H835      1.0  0.27383  0.42640  0.74026  1.0000
  C   C477      1.0  0.32676  0.03800  0.95333  1.0000
  C   C478      1.0  0.15985  0.41242  0.76321  1.0000
  H   H836      1.0  0.04674  0.47477  0.77996  1.0000
  H   H837      1.0  0.13931  0.03446  0.86415  1.0000
  C   C479      1.0  0.42509  0.47390  0.73937  1.0000
  H   H838      1.0  0.98696  0.45980  0.77271  1.0000
  H   H839      1.0  0.11217  0.44247  0.86820  1.0000
  Fe  Fe67      1.0  0.34384  0.47181  0.80359  1.0000
  H   H840      1.0  0.38234  0.00651  0.75702  1.0000
  H   H841      1.0  0.26239  0.01587  0.93841  1.0000
  H   H842      1.0  0.19993  0.46294  0.78414  1.0000
  H   H843      1.0  0.31474  0.00627  0.97667  1.0000
  H   H844      1.0  0.03555  0.37240  0.87175  1.0000
  H   H845      1.0  0.32573  0.05307  0.96122  1.0000
  H   H846      1.0  0.27273  0.05358  0.95601  1.0000
  H   H847      1.0  0.36779  0.08996  0.95379  1.0000
  H   H848      1.0  0.27973  0.07212  0.92558  1.0000
  C   C480      1.0  0.37125  0.07460  0.94716  1.0000
  H   H849      1.0  0.19829  0.14992  0.97898  1.0000
  C   C481      1.0  0.18962  0.46877  0.77543  1.0000
  C   C482      1.0  0.22313  0.02242  0.97266  1.0000
  S   S127      1.0  0.98723  0.23691  0.88058  1.0000
  H   H850      1.0  0.09041  0.42715  0.85291  1.0000
  C   C483      1.0  0.19760  0.16825  0.97455  1.0000
  H   H851      1.0  0.16716  0.37687  0.76786  1.0000
  H   H852      1.0  0.16110  0.01906  0.85822  1.0000
  H   H853      1.0  0.13288  0.37018  0.76257  1.0000
  H   H854      1.0  0.42002  0.46042  0.79563  1.0000
  C   C484      1.0  0.34453  0.05301  0.94128  1.0000
  S   S128      1.0  0.16093  0.46002  0.82301  1.0000
  S   S129      1.0  0.18039  0.00020  0.91252  1.0000
  C   C485      1.0  0.28354  0.05681  0.94609  1.0000
  H   H855      1.0  0.15800  0.37866  0.74958  1.0000
  C   C486      1.0  0.06340  0.43214  0.74129  1.0000
  H   H856      1.0  0.17529  0.26767  0.94219  1.0000
  C   C487      1.0  0.25674  0.39437  0.75413  1.0000
  N   N27       1.0  0.29894  0.01773  0.94885  1.0000
  H   H857      1.0  0.10006  0.24079  0.96916  1.0000
  H   H858      1.0  0.27720  0.47586  0.73779  1.0000
  C   C488      1.0  0.28352  0.00743  0.96182  1.0000
  H   H859      1.0  0.23033  0.04408  0.97363  1.0000
  H   H860      1.0  0.43479  0.46528  0.74701  1.0000
  H   H861      1.0  0.28225  0.02427  0.96825  1.0000
  H   H862      1.0  0.16360  0.03122  0.87635  1.0000
  C   C489      1.0  0.15994  0.03518  0.86527  1.0000
  S   S130      1.0  0.11260  0.47343  0.79516  1.0000
  H   H863      1.0  0.22767  0.46185  0.73837  1.0000
  C   C490      1.0  0.23964  0.46453  0.74837  1.0000
  H   H864      1.0  0.08179  0.48030  0.76000  1.0000
  C   C491      1.0  0.40329  0.48121  0.74619  1.0000
  C   C492      1.0  0.22994  0.27722  0.97641  1.0000
  H   H865      1.0  0.23751  0.47210  0.77054  1.0000
  C   C493      1.0  0.00402  0.45604  0.77730  1.0000
  C   C494      1.0  0.03536  0.48258  0.75886  1.0000
  C   C495      1.0  0.98671  0.18396  0.95394  1.0000
  H   H866      1.0  0.01724  0.48406  0.75410  1.0000
  H   H867      1.0  0.28122  0.48658  0.75611  1.0000
  H   H868      1.0  0.17668  0.16357  0.97075  1.0000
  H   H869      1.0  0.00163  0.45401  0.78881  1.0000
  H   H870      1.0  0.27820  0.39621  0.73546  1.0000
  H   H871      1.0  0.22578  0.40508  0.73389  1.0000
  H   H872      1.0  0.37142  0.48280  0.76635  1.0000
  C   C496      1.0  0.03075  0.47934  0.77475  1.0000
  H   H873      1.0  0.12643  0.43967  0.73375  1.0000
  H   H874      1.0  0.98157  0.16389  0.95829  1.0000
  C   C497      1.0  0.24734  0.95170  0.08635  1.0000
  H   H875      1.0  0.22640  0.90243  0.09074  1.0000
  H   H876      1.0  0.19066  0.92035  0.06498  1.0000
  H   H877      1.0  0.06109  0.67823  0.07635  1.0000
  C   C498      1.0  0.03043  0.67084  0.05939  1.0000
  S   S131      1.0  0.01265  0.76106  0.00575  1.0000
  Fe  Fe68      1.0  0.00575  0.80740  0.05054  1.0000
  S   S132      1.0  0.03716  0.84697  0.06066  1.0000
  S   S133      1.0  0.00942  0.76776  0.04727  1.0000
  H   H878      1.0  0.20731  0.96819  0.99280  1.0000
  S   S134      1.0  0.15533  0.92379  0.04266  1.0000
  H   H879      1.0  0.16783  0.88917  0.08046  1.0000
  H   H880      1.0  0.16814  0.86560  0.10245  1.0000
  C   C499      1.0  0.04364  0.66092  0.07135  1.0000
  C   C500      1.0  0.06931  0.86846  0.05477  1.0000
  C   C501      1.0  0.08394  0.85891  0.04597  1.0000
  C   C502      1.0  0.11016  0.87612  0.04243  1.0000
  C   C503      1.0  0.12190  0.90333  0.04729  1.0000
  C   C504      1.0  0.10711  0.91302  0.05590  1.0000
  C   C505      1.0  0.08114  0.89561  0.05973  1.0000
  H   H881      1.0  0.07536  0.83802  0.04226  1.0000
  H   H882      1.0  0.12145  0.86829  0.03587  1.0000
  H   H883      1.0  0.11580  0.93380  0.05980  1.0000
  H   H884      1.0  0.07013  0.90323  0.06662  1.0000
  H   H885      1.0  0.16610  0.93685  0.07614  1.0000
  H   H886      1.0  0.21598  0.95263  0.06353  1.0000
  H   H887      1.0  0.10816  0.89506  0.01559  1.0000
  H   H888      1.0  0.02012  0.85613  0.98498  1.0000
  H   H889      1.0  0.08312  0.91845  0.02769  1.0000
  C   C506      1.0  0.99844  0.75682  0.98826  1.0000
  H   H890      1.0  0.09238  0.80052  0.01647  1.0000
  H   H891      1.0  0.23277  0.90518  0.06533  1.0000
  H   H892      1.0  0.00978  0.85203  0.00280  1.0000
  H   H893      1.0  0.28539  0.97132  0.99129  1.0000
  C   C507      1.0  0.20326  0.95168  0.08989  1.0000
  S   S135      1.0  0.99061  0.80777  0.02846  1.0000
  H   H894      1.0  0.03714  0.62212  0.06122  1.0000
  C   C508      1.0  0.08508  0.81766  0.99724  1.0000
  H   H895      1.0  0.10470  0.85822  0.00498  1.0000
  C   C509      1.0  0.28764  0.97078  0.10378  1.0000
  C   C510      1.0  0.18525  0.88441  0.08313  1.0000
  H   H896      1.0  0.07827  0.83815  0.01559  1.0000
  H   H897      1.0  0.24861  0.94179  0.10864  1.0000
  H   H898      1.0  0.21222  0.92321  0.03876  1.0000
  H   H899      1.0  0.20481  0.91074  0.10150  1.0000
  H   H900      1.0  0.25418  0.97073  0.08063  1.0000
  C   C511      1.0  0.21572  0.90816  0.04515  1.0000
  H   H901      1.0  0.05866  0.87034  0.01760  1.0000
  H   H902      1.0  0.12259  0.82260  0.00834  1.0000
  N   N28       1.0  0.01242  0.68418  0.06412  1.0000
  C   C512      1.0  0.09417  0.90096  0.00930  1.0000
  C   C513      1.0  0.25699  0.95942  0.10202  1.0000
  C   C514      1.0  0.20935  0.90875  0.09029  1.0000
  C   C515      1.0  0.10187  0.80696  0.00629  1.0000
  C   C516      1.0  0.01437  0.72436  0.08032  1.0000
  C   C517      1.0  0.21214  0.93267  0.06781  1.0000
  H   H903      1.0  0.19127  0.87775  0.07318  1.0000
  H   H904      1.0  0.03219  0.82379  0.00819  1.0000
  H   H905      1.0  0.29501  0.95506  0.10103  1.0000
  H   H906      1.0  0.01284  0.73762  0.07206  1.0000
  H   H907      1.0  0.06875  0.64930  0.05753  1.0000
  C   C518      1.0  0.05404  0.64048  0.06574  1.0000
  H   H908      1.0  0.06499  0.80107  0.99546  1.0000
  H   H909      1.0  0.21169  0.97240  0.08595  1.0000
  C   C519      1.0  0.17570  0.86045  0.09256  1.0000
  C   C520      1.0  0.17230  0.94000  0.08749  1.0000
  C   C521      1.0  0.01405  0.84175  0.99351  1.0000
  H   H910      1.0  0.04788  0.72001  0.07060  1.0000
  H   H911      1.0  0.25074  0.97521  0.10612  1.0000
  Fe  Fe69      1.0  0.99218  0.76750  0.02529  1.0000
  H   H912      1.0  0.10322  0.90808  0.99912  1.0000
  H   H913      1.0  0.16918  0.97876  0.08913  1.0000
  H   H914      1.0  0.05258  0.88605  0.00258  1.0000
  H   H915      1.0  0.05067  0.75586  0.09013  1.0000
  C   C522      1.0  0.02845  0.70645  0.07488  1.0000
  H   H916      1.0  0.03372  0.69791  0.08439  1.0000
  H   H917      1.0  0.02937  0.65159  0.07964  1.0000
  H   H918      1.0  0.19612  0.89106  0.04648  1.0000
  Fe  Fe70      1.0  0.18160  0.96936  0.04373  1.0000
  H   H919      1.0  0.10305  0.78924  0.00074  1.0000
  H   H920      1.0  0.22883  0.90061  0.03935  1.0000
  N   N29       1.0  0.21749  0.93555  0.08355  1.0000
  C   C523      1.0  0.06612  0.87720  0.00701  1.0000
  H   H921      1.0  0.25891  0.94053  0.08215  1.0000
  C   C524      1.0  0.22919  0.92078  0.05946  1.0000
  C   C525      1.0  0.08367  0.84284  0.00449  1.0000
  H   H922      1.0  0.19232  0.85425  0.09515  1.0000
  H   H923      1.0  0.01962  0.75551  0.09634  1.0000
  H   H924      1.0  0.16291  0.92077  0.09277  1.0000
  H   H925      1.0  0.99928  0.66526  0.03523  1.0000
  C   C526      1.0  0.09221  0.92473  0.01741  1.0000
  C   C527      1.0  0.03653  0.83230  0.99762  1.0000
  S   S136      1.0  0.22387  0.98044  0.03640  1.0000
  N   N30       1.0  0.06487  0.85361  0.99771  1.0000
  H   H926      1.0  0.24910  0.93709  0.05763  1.0000
  C   C528      1.0  0.16077  0.95891  0.09392  1.0000
  H   H927      1.0  0.20695  0.95416  0.10150  1.0000
  H   H928      1.0  0.15903  0.84318  0.08702  1.0000
  H   H929      1.0  0.04709  0.68500  0.05334  1.0000
  H   H930      1.0  0.03395  0.81479  0.99057  1.0000
  C   C529      1.0  0.98694  0.69446  0.02672  1.0000
  H   H931      1.0  0.99061  0.66471  0.08226  1.0000
  H   H932      1.0  0.16523  0.96181  0.10547  1.0000
  H   H933      1.0  0.03102  0.73046  0.10192  1.0000
  C   C530      1.0  0.03000  0.74262  0.09295  1.0000
  C   C531      1.0  0.98791  0.81813  0.98862  1.0000
  H   H934      1.0  0.13860  0.95009  0.09195  1.0000
  H   H935      1.0  0.06419  0.63457  0.07446  1.0000
  H   H936      1.0  0.02410  0.71290  0.04779  1.0000
  H   H937      1.0  0.99397  0.71184  0.08361  1.0000
  C   C532      1.0  0.00545  0.69719  0.05173  1.0000
  H   H938      1.0  0.01956  0.65356  0.05187  1.0000
  C   C533      1.0  0.98949  0.67830  0.03908  1.0000
  H   H939      1.0  0.00704  0.70739  0.02301  1.0000
  C   C534      1.0  0.98725  0.66502  0.07067  1.0000
  H   H940      1.0  0.09491  0.82286  0.98707  1.0000
  H   H941      1.0  0.47802  0.49347  0.21517  1.0000
  H   H942      1.0  0.99277  0.70782  0.05495  1.0000
  H   H943      1.0  0.07994  0.93302  0.01126  1.0000
  H   H944      1.0  0.29409  0.97802  0.11488  1.0000
  H   H945      1.0  0.98864  0.62521  0.06874  1.0000
  H   H946      1.0  0.11267  0.94087  0.01950  1.0000
  H   H947      1.0  0.46753  0.51165  0.19330  1.0000
  C   C535      1.0  0.27625  0.98087  0.98385  1.0000
  C   C536      1.0  0.21006  0.97973  0.98350  1.0000
  H   H948      1.0  0.98107  0.80319  0.99688  1.0000
  C   C537      1.0  0.07343  0.86313  0.98318  1.0000
  H   H949      1.0  0.09574  0.87140  0.98283  1.0000
  H   H950      1.0  0.14307  0.83969  0.36080  1.0000
  H   H951      1.0  0.04968  0.85697  0.43377  1.0000
  C   C538      1.0  0.22279  0.95292  0.35993  1.0000
  S   S137      1.0  0.01128  0.82430  0.40650  1.0000
  C   C539      1.0  0.03289  0.87402  0.45636  1.0000
  Fe  Fe71      1.0  0.02990  0.81227  0.38840  1.0000
  S   S138      1.0  0.06280  0.84594  0.37727  1.0000
  S   S139      1.0  0.02798  0.77427  0.39824  1.0000
  H   H952      1.0  0.08077  0.92768  0.42343  1.0000
  C   C540      1.0  0.00630  0.78944  0.48128  1.0000
  S   S140      1.0  0.18088  0.93019  0.39741  1.0000
  C   C541      1.0  0.09513  0.86949  0.38354  1.0000
  C   C542      1.0  0.11330  0.86132  0.39049  1.0000
  C   C543      1.0  0.13936  0.88025  0.39462  1.0000
  C   C544      1.0  0.14758  0.90764  0.39201  1.0000
  C   C545      1.0  0.12951  0.91587  0.38495  1.0000
  C   C546      1.0  0.10365  0.89677  0.38048  1.0000
  H   H953      1.0  0.10749  0.84025  0.39227  1.0000
  H   H954      1.0  0.15331  0.87356  0.39984  1.0000
  H   H955      1.0  0.13548  0.93685  0.38282  1.0000
  H   H956      1.0  0.09000  0.90319  0.37475  1.0000
  H   H957      1.0  0.12078  0.84510  0.46872  1.0000
  H   H958      1.0  0.21888  0.92515  0.31107  1.0000
  C   C547      1.0  0.16424  0.88210  0.35712  1.0000
  H   H959      1.0  0.12052  0.87100  0.42117  1.0000
  H   H960      1.0  0.13421  0.92985  0.42068  1.0000
  H   H961      1.0  0.11873  0.90249  0.44911  1.0000
  H   H962      1.0  0.03318  0.68729  0.34900  1.0000
  H   H963      1.0  0.21945  0.95776  0.37098  1.0000
  C   C548      1.0  0.00466  0.78232  0.45560  1.0000
  H   H964      1.0  0.10824  0.81378  0.43230  1.0000
  C   C549      1.0  0.06854  0.90862  0.41742  1.0000
  H   H965      1.0  0.10456  0.92301  0.44122  1.0000
  H   H966      1.0  0.16364  0.94153  0.44984  1.0000
  H   H967      1.0  0.20702  0.90996  0.33615  1.0000
  H   H968      1.0  0.20747  0.89837  0.35888  1.0000
  H   H969      1.0  0.17291  0.94309  0.36712  1.0000
  C   C550      1.0  0.06789  0.86984  0.44042  1.0000
  C   C551      1.0  0.06359  0.91581  0.40253  1.0000
  H   H970      1.0  0.24841  0.93401  0.35096  1.0000
  H   H971      1.0  0.07725  0.81636  0.45591  1.0000
  C   C552      1.0  0.24742  0.94544  0.36062  1.0000
  H   H972      1.0  0.09911  0.79911  0.45795  1.0000
  N   N31       1.0  0.09162  0.88287  0.43129  1.0000
  H   H973      1.0  0.03439  0.81608  0.46738  1.0000
  H   H974      1.0  0.07093  0.79139  0.46895  1.0000
  C   C553      1.0  0.17438  0.93974  0.35563  1.0000
  C   C554      1.0  0.08562  0.83466  0.42283  1.0000
  C   C555      1.0  0.06042  0.88879  0.45031  1.0000
  S   S141      1.0  0.02026  0.79334  0.43945  1.0000
  H   H975      1.0  0.08298  0.92762  0.39777  1.0000
  C   C556      1.0  0.11266  0.90779  0.43875  1.0000
  C   C557      1.0  0.01670  0.79774  0.46803  1.0000
  H   H976      1.0  0.14935  0.96227  0.44120  1.0000
  H   H977      1.0  0.16763  0.85845  0.37453  1.0000
  H   H978      1.0  0.05991  0.90627  0.44493  1.0000
  H   H979      1.0  0.07152  0.85577  0.44759  1.0000
  C   C558      1.0  0.15821  0.94735  0.43951  1.0000
  C   C559      1.0  0.01207  0.68043  0.35215  1.0000
  H   H980      1.0  0.04859  0.89893  0.42203  1.0000
  H   H981      1.0  0.00439  0.66169  0.30344  1.0000
  H   H982      1.0  0.11792  0.82492  0.41483  1.0000
  Fe  Fe72      1.0  0.98651  0.75354  0.38705  1.0000
  H   H983      1.0  0.03236  0.85656  0.46220  1.0000
  H   H984      1.0  0.24591  0.93259  0.36968  1.0000
  H   H985      1.0  0.14770  0.88593  0.36189  1.0000
  Fe  Fe73      1.0  0.00686  0.78548  0.41598  1.0000
  C   C560      1.0  0.27380  0.97038  0.36269  1.0000
  H   H986      1.0  0.17691  0.95692  0.43376  1.0000
  C   C561      1.0  0.10446  0.86325  0.42878  1.0000
  C   C562      1.0  0.08253  0.88896  0.41721  1.0000
  H   H987      1.0  0.06883  0.82504  0.42971  1.0000
  H   H988      1.0  0.29088  0.96431  0.36376  1.0000
  H   H989      1.0  0.19283  0.91004  0.37244  1.0000
  C   C563      1.0  0.10478  0.82962  0.47447  1.0000
  H   H990      1.0  0.09964  0.89664  0.41022  1.0000
  H   H991      1.0  0.02855  0.88784  0.46371  1.0000
  H   H992      1.0  0.05219  0.89734  0.39578  1.0000
  C   C564      1.0  0.19168  0.90594  0.36086  1.0000
  H   H993      1.0  0.27692  0.98318  0.35350  1.0000
  H   H994      1.0  0.16016  0.87891  0.34557  1.0000
  C   C565      1.0  0.16340  0.85598  0.36297  1.0000
  C   C566      1.0  0.08687  0.80786  0.46367  1.0000
  H   H995      1.0  0.17835  0.84992  0.35794  1.0000
  H   H996      1.0  0.01297  0.66015  0.32696  1.0000
  H   H997      1.0  0.07708  0.83519  0.41220  1.0000
  H   H998      1.0  0.14963  0.90976  0.42874  1.0000
  C   C567      1.0  0.19942  0.92597  0.33774  1.0000
  H   H999      1.0  0.11438  0.86086  0.43875  1.0000
  H   H1000     1.0  0.08688  0.79630  0.41719  1.0000
  C   C568      1.0  0.10071  0.81640  0.42174  1.0000
  C   C569      1.0  0.13872  0.92272  0.43083  1.0000
  H   H1001     1.0  0.00310  0.69365  0.34765  1.0000
  H   H1002     1.0  0.15487  0.92350  0.35191  1.0000
  H   H1003     1.0  0.06790  0.87027  0.41165  1.0000
  H   H1004     1.0  0.07550  0.89661  0.45928  1.0000
  Fe  Fe74      1.0  0.20398  0.97591  0.39721  1.0000
  N   N32       1.0  0.19731  0.93148  0.35323  1.0000
  H   H1005     1.0  0.05172  0.92824  0.40286  1.0000
  H   H1006     1.0  0.17904  0.91756  0.33238  1.0000
  H   H1007     1.0  0.08386  0.85591  0.47520  1.0000
  H   H1008     1.0  0.01699  0.86693  0.44778  1.0000
  H   H1009     1.0  0.22836  0.96018  0.30784  1.0000
  H   H1010     1.0  0.27370  0.98233  0.37235  1.0000
  H   H1011     1.0  0.01497  0.65020  0.27994  1.0000
  S   S142      1.0  0.99007  0.79079  0.37624  1.0000
  H   H1012     1.0  0.18976  0.98202  0.46897  1.0000
  H   H1013     1.0  0.02080  0.63903  0.30460  1.0000
  H   H1014     1.0  0.22853  0.97225  0.35469  1.0000
  C   C570      1.0  0.21800  0.95000  0.32933  1.0000
  H   H1015     1.0  0.23942  0.95535  0.33240  1.0000
  H   H1016     1.0  0.98334  0.82094  0.44004  1.0000
  C   C571      1.0  0.15210  0.97215  0.35257  1.0000
  C   C572      1.0  0.21437  0.94293  0.31353  1.0000
  C   C573      1.0  0.98376  0.76530  0.48229  1.0000
  H   H1017     1.0  0.19350  0.93864  0.30972  1.0000
  C   C574      1.0  0.99770  0.63529  0.28522  1.0000
  C   C575      1.0  0.00190  0.64063  0.30116  1.0000
  H   H1018     1.0  0.21426  0.96830  0.33117  1.0000
  H   H1019     1.0  0.04075  0.58658  0.32627  1.0000
  H   H1020     1.0  0.02281  0.62337  0.32892  1.0000
  H   H1021     1.0  0.13238  0.95542  0.34963  1.0000
  H   H1022     1.0  0.17251  0.96060  0.33661  1.0000
  C   C576      1.0  0.17516  0.96484  0.34816  1.0000
  H   H1023     1.0  0.15338  0.97659  0.36410  1.0000
  H   H1024     1.0  0.01208  0.68242  0.36380  1.0000
  H   H1025     1.0  0.99618  0.61482  0.28223  1.0000
  C   C577      1.0  0.01994  0.57168  0.32354  1.0000
  H   H1026     1.0  0.01199  0.59463  0.30759  1.0000
  H   H1027     1.0  0.02086  0.55662  0.31566  1.0000
  H   H1028     1.0  0.00595  0.63884  0.35149  1.0000
  H   H1029     1.0  0.19422  0.98261  0.35062  1.0000
  C   C578      1.0  0.00288  0.58553  0.31743  1.0000
  H   H1030     1.0  0.01094  0.56105  0.33310  1.0000
  C   C579      1.0  0.99578  0.65113  0.34715  1.0000
  C   C580      1.0  0.99276  0.64803  0.33084  1.0000
  C   C581      1.0  0.00191  0.60750  0.32798  1.0000
  H   H1031     1.0  0.99822  0.59890  0.33856  1.0000
  H   H1032     1.0  0.11447  0.82028  0.48171  1.0000
  C   C582      1.0  0.98176  0.75843  0.45656  1.0000
  N   N33       1.0  0.98204  0.61960  0.32448  1.0000
  H   H1033     1.0  0.98274  0.56979  0.31449  1.0000
  C   C583      1.0  0.08853  0.84275  0.48258  1.0000
  Fe  Fe75      1.0  0.99607  0.76609  0.55279  1.0000
  S   S143      1.0  0.00262  0.80881  0.55864  1.0000
  S   S144      1.0  0.99479  0.73546  0.56939  1.0000
  Fe  Fe76      1.0  0.02719  0.81956  0.53940  1.0000
  S   S145      1.0  0.07102  0.84846  0.53776  1.0000
  S   S146      1.0  0.02194  0.77692  0.53400  1.0000
  C   C584      1.0  0.46485  0.59105  0.64935  1.0000
  H   H1034     1.0  0.22342  0.95353  0.64548  1.0000
  S   S147      1.0  0.20613  0.96985  0.53620  1.0000
  Fe  Fe77      1.0  0.09029  0.69882  0.67024  1.0000
  S   S148      1.0  0.11384  0.67423  0.66587  1.0000
  S   S149      1.0  0.09443  0.71653  0.69277  1.0000
  Fe  Fe78      1.0  0.07926  0.70352  0.63789  1.0000
  S   S150      1.0  0.10234  0.67861  0.63212  1.0000
  S   S151      1.0  0.07172  0.73000  0.62113  1.0000
  Fe  Fe79      1.0  0.08138  0.65187  0.64946  1.0000
  S   S152      1.0  0.06203  0.60585  0.64841  1.0000
  Fe  Fe80      1.0  0.13267  0.70314  0.64915  1.0000
  S   S153      1.0  0.17804  0.72065  0.64840  1.0000
  S   S154      1.0  0.05610  0.67523  0.65454  1.0000
  S   S155      1.0  0.11103  0.72900  0.65424  1.0000
  Fe  Fe81      1.0  0.31647  0.91810  0.66913  1.0000
  S   S156      1.0  0.31178  0.87609  0.66317  1.0000
  S   S157      1.0  0.32356  0.93706  0.69154  1.0000
  Fe  Fe82      1.0  0.31178  0.93181  0.63768  1.0000
  S   S158      1.0  0.30761  0.89086  0.62999  1.0000
  S   S159      1.0  0.30815  0.96465  0.62407  1.0000
  Fe  Fe83      1.0  0.27945  0.87517  0.64751  1.0000
  S   S160      1.0  0.23576  0.84698  0.64276  1.0000
  Fe  Fe84      1.0  0.34081  0.89589  0.64628  1.0000
  S   S161      1.0  0.37452  0.88225  0.64136  1.0000
  S   S162      1.0  0.28231  0.91602  0.65462  1.0000
  S   S163      1.0  0.34684  0.93798  0.65291  1.0000
  S   S164      1.0  0.11551  0.52068  0.64722  1.0000
  C   C585      1.0  0.43365  0.53509  0.65212  1.0000
  C   C586      1.0  0.46189  0.54552  0.65188  1.0000
  H   H1035     1.0  0.15847  0.66136  0.67719  1.0000
  H   H1036     1.0  0.11209  0.64310  0.71472  1.0000
  C   C587      1.0  0.43661  0.58063  0.64958  1.0000
  C   C588      1.0  0.42112  0.55292  0.65111  1.0000
  S   S165      1.0  0.14214  0.97195  0.55490  1.0000
  H   H1037     1.0  0.42658  0.59405  0.64844  1.0000
  H   H1038     1.0  0.39945  0.54529  0.65120  1.0000
  H   H1039     1.0  0.46181  0.95902  0.65294  1.0000
  C   C589      1.0  0.45412  0.89602  0.64256  1.0000
  C   C590      1.0  0.42576  0.88384  0.64111  1.0000
  C   C591      1.0  0.41021  0.89859  0.64388  1.0000
  C   C592      1.0  0.42345  0.92573  0.64829  1.0000
  C   C593      1.0  0.45182  0.93795  0.64967  1.0000
  C   C594      1.0  0.40139  0.97665  0.59891  1.0000
  H   H1040     1.0  0.41580  0.86284  0.63768  1.0000
  H   H1041     1.0  0.41185  0.93734  0.65058  1.0000
  H   H1042     1.0  0.11595  0.77943  0.72799  1.0000
  C   C595      1.0  0.19435  0.75571  0.64666  1.0000
  C   C596      1.0  0.22208  0.76914  0.64988  1.0000
  C   C597      1.0  0.23530  0.79718  0.64870  1.0000
  C   C598      1.0  0.22081  0.81179  0.64415  1.0000
  C   C599      1.0  0.19318  0.79826  0.64081  1.0000
  C   C600      1.0  0.17997  0.77039  0.64211  1.0000
  H   H1043     1.0  0.23334  0.75787  0.65338  1.0000
  H   H1044     1.0  0.25662  0.80746  0.65130  1.0000
  H   H1045     1.0  0.18189  0.80941  0.63723  1.0000
  H   H1046     1.0  0.15874  0.76025  0.63935  1.0000
  C   C601      1.0  0.07773  0.58286  0.64891  1.0000
  C   C602      1.0  0.06204  0.55567  0.65130  1.0000
  C   C603      1.0  0.07338  0.53651  0.65127  1.0000
  C   C604      1.0  0.10054  0.54425  0.64859  1.0000
  C   C605      1.0  0.11630  0.57153  0.64636  1.0000
  C   C606      1.0  0.10504  0.59077  0.64663  1.0000
  H   H1047     1.0  0.04088  0.54933  0.65307  1.0000
  H   H1048     1.0  0.06100  0.51565  0.65299  1.0000
  H   H1049     1.0  0.13730  0.57773  0.64424  1.0000
  H   H1050     1.0  0.11729  0.61153  0.64469  1.0000
  H   H1051     1.0  0.15582  0.63980  0.70001  1.0000
  C   C607      1.0  0.17499  0.49829  0.73255  1.0000
  C   C608      1.0  0.29503  0.96548  0.60667  1.0000
  C   C609      1.0  0.27577  0.96983  0.57898  1.0000
  H   H1052     1.0  0.40334  0.49226  0.68509  1.0000
  H   H1053     1.0  0.15888  0.77627  0.72185  1.0000
  C   C610      1.0  0.08994  0.88262  0.54322  1.0000
  C   C611      1.0  0.11776  0.89355  0.54140  1.0000
  C   C612      1.0  0.13374  0.92084  0.54478  1.0000
  C   C613      1.0  0.12221  0.93756  0.55028  1.0000
  C   C614      1.0  0.09443  0.92660  0.55236  1.0000
  C   C615      1.0  0.07827  0.89925  0.54875  1.0000
  H   H1054     1.0  0.12713  0.88082  0.53744  1.0000
  H   H1055     1.0  0.15505  0.92882  0.54329  1.0000
  H   H1056     1.0  0.08533  0.93935  0.55667  1.0000
  H   H1057     1.0  0.05688  0.89110  0.55021  1.0000
  C   C616      1.0  0.01698  0.73410  0.58345  1.0000
  C   C617      1.0  0.00866  0.71138  0.59175  1.0000
  C   C618      1.0  0.02510  0.70951  0.60314  1.0000
  C   C619      1.0  0.05017  0.73054  0.60656  1.0000
  C   C620      1.0  0.05850  0.75324  0.59824  1.0000
  H   H1058     1.0  0.21342  0.79630  0.72577  1.0000
  H   H1059     1.0  0.18173  0.97532  0.58748  1.0000
  H   H1060     1.0  0.01823  0.69190  0.60935  1.0000
  H   H1061     1.0  0.13747  0.71394  0.60226  1.0000
  C   C621      1.0  0.09727  0.71205  0.72144  1.0000
  C   C622      1.0  0.08542  0.69876  0.70847  1.0000
  C   C623      1.0  0.06588  0.67238  0.70841  1.0000
  C   C624      1.0  0.34848  0.89014  0.60141  1.0000
  H   H1062     1.0  0.11226  0.73247  0.72164  1.0000
  H   H1063     1.0  0.05626  0.66210  0.69854  1.0000
  C   C625      1.0  0.30350  0.89256  0.70814  1.0000
  C   C626      1.0  0.31458  0.92060  0.70763  1.0000
  C   C627      1.0  0.31919  0.93620  0.72031  1.0000
  H   H1064     1.0  0.29996  0.88030  0.69850  1.0000
  H   H1065     1.0  0.32770  0.95791  0.72003  1.0000
  H   H1066     1.0  0.16893  0.70308  0.58871  1.0000
  H   H1067     1.0  0.12548  0.83823  0.50485  1.0000
  H   H1068     1.0  0.23265  0.78720  0.70356  1.0000
  C   C628      1.0  0.08970  0.61825  0.60185  1.0000
  H   H1069     1.0  0.04741  0.88013  0.51863  1.0000
  C   C629      1.0  0.04162  0.87601  0.50723  1.0000
  H   H1070     1.0  0.04922  0.77247  0.58047  1.0000
  H   H1071     1.0  0.04776  0.89539  0.50198  1.0000
  N   N34       1.0  0.16250  0.78848  0.69261  1.0000
  C   C630      1.0  0.14735  0.78438  0.67858  1.0000
  C   C631      1.0  0.16680  0.76346  0.69603  1.0000
  C   C632      1.0  0.14512  0.79275  0.70370  1.0000
  C   C633      1.0  0.18881  0.81298  0.69316  1.0000
  C   C634      1.0  0.20827  0.81451  0.68140  1.0000
  C   C635      1.0  0.14153  0.80842  0.67359  1.0000
  C   C636      1.0  0.41275  0.96897  0.58559  1.0000
  C   C637      1.0  0.17083  0.74645  0.68364  1.0000
  C   C638      1.0  0.17890  0.72448  0.68897  1.0000
  C   C639      1.0  0.23291  0.84134  0.68250  1.0000
  C   C640      1.0  0.12689  0.80185  0.65910  1.0000
  H   H1072     1.0  0.38797  0.95910  0.63287  1.0000
  H   H1073     1.0  0.12771  0.76669  0.67885  1.0000
  H   H1074     1.0  0.15817  0.77935  0.67003  1.0000
  H   H1075     1.0  0.18399  0.76858  0.70376  1.0000
  H   H1076     1.0  0.14912  0.74898  0.70131  1.0000
  H   H1077     1.0  0.12451  0.77623  0.70267  1.0000
  H   H1078     1.0  0.14250  0.81171  0.70220  1.0000
  H   H1079     1.0  0.18512  0.83166  0.69314  1.0000
  H   H1080     1.0  0.20027  0.81452  0.70324  1.0000
  H   H1081     1.0  0.19850  0.81272  0.67083  1.0000
  H   H1082     1.0  0.21574  0.79851  0.68230  1.0000
  H   H1083     1.0  0.12845  0.81327  0.68085  1.0000
  H   H1084     1.0  0.16045  0.82656  0.67274  1.0000
  H   H1085     1.0  0.98928  0.69503  0.58936  1.0000
  H   H1086     1.0  0.41290  0.90213  0.67479  1.0000
  H   H1087     1.0  0.15170  0.73628  0.67728  1.0000
  H   H1088     1.0  0.18631  0.75874  0.67658  1.0000
  H   H1089     1.0  0.19827  0.73345  0.69522  1.0000
  H   H1090     1.0  0.46238  0.91127  0.67735  1.0000
  H   H1091     1.0  0.14881  0.62889  0.66799  1.0000
  H   H1092     1.0  0.24705  0.84148  0.67432  1.0000
  H   H1093     1.0  0.22695  0.85829  0.68074  1.0000
  H   H1094     1.0  0.24362  0.84450  0.69296  1.0000
  H   H1095     1.0  0.12352  0.81951  0.65556  1.0000
  H   H1096     1.0  0.13894  0.79673  0.65124  1.0000
  H   H1097     1.0  0.10704  0.78462  0.65954  1.0000
  H   H1098     1.0  0.38907  0.86828  0.67701  1.0000
  H   H1099     1.0  0.13259  0.81571  0.72779  1.0000
  C   C641      1.0  0.47739  0.57327  0.65054  1.0000
  N   N35       1.0  0.21424  0.89755  0.60473  1.0000
  C   C642      1.0  0.22924  0.91157  0.61828  1.0000
  C   C643      1.0  0.23047  0.88473  0.59726  1.0000
  C   C644      1.0  0.21235  0.91878  0.59542  1.0000
  C   C645      1.0  0.18608  0.87700  0.60691  1.0000
  C   C646      1.0  0.18125  0.86218  0.62089  1.0000
  C   C647      1.0  0.21872  0.93101  0.62561  1.0000
  C   C648      1.0  0.20199  0.90936  0.57998  1.0000
  C   C649      1.0  0.23791  0.86445  0.60548  1.0000
  C   C650      1.0  0.25721  0.85596  0.59738  1.0000
  C   C651      1.0  0.15327  0.83925  0.62061  1.0000
  C   C652      1.0  0.23095  0.93931  0.64057  1.0000
  C   C653      1.0  0.19373  0.92966  0.57271  1.0000
  H   H1100     1.0  0.25079  0.92358  0.61636  1.0000
  H   H1101     1.0  0.22965  0.89697  0.62605  1.0000
  H   H1102     1.0  0.21966  0.87363  0.58739  1.0000
  H   H1103     1.0  0.24954  0.90068  0.59397  1.0000
  H   H1104     1.0  0.23235  0.93591  0.59502  1.0000
  H   H1105     1.0  0.19888  0.92754  0.59992  1.0000
  H   H1106     1.0  0.17139  0.88647  0.60649  1.0000
  H   H1107     1.0  0.17934  0.86145  0.59809  1.0000
  H   H1108     1.0  0.18267  0.87622  0.62989  1.0000
  H   H1109     1.0  0.19609  0.85359  0.62307  1.0000
  H   H1110     1.0  0.22449  0.94970  0.61974  1.0000
  H   H1111     1.0  0.19651  0.92168  0.62604  1.0000
  H   H1112     1.0  0.18437  0.88970  0.57941  1.0000
  H   H1113     1.0  0.21823  0.90733  0.57390  1.0000
  H   H1114     1.0  0.24812  0.87319  0.61580  1.0000
  H   H1115     1.0  0.21968  0.84595  0.60698  1.0000
  H   H1116     1.0  0.27623  0.87368  0.59584  1.0000
  H   H1117     1.0  0.26208  0.84133  0.60348  1.0000
  H   H1118     1.0  0.24795  0.84627  0.58698  1.0000
  H   H1119     1.0  0.14985  0.82988  0.63095  1.0000
  H   H1120     1.0  0.13750  0.84686  0.61851  1.0000
  H   H1121     1.0  0.15140  0.82352  0.61241  1.0000
  C   C654      1.0  0.43194  0.97085  0.61726  1.0000
  N   N36       1.0  0.47123  0.57822  0.69921  1.0000
  H   H1122     1.0  0.25321  0.94951  0.64041  1.0000
  H   H1123     1.0  0.17545  0.93017  0.57732  1.0000
  H   H1124     1.0  0.21022  0.95012  0.57371  1.0000
  H   H1125     1.0  0.18913  0.92376  0.56135  1.0000
  H   H1126     1.0  0.40313  0.89083  0.69222  1.0000
  C   C655      1.0  0.18391  0.98464  0.59826  1.0000
  H   H1127     1.0  0.06881  0.82659  0.48477  1.0000
  C   C656      1.0  0.44988  0.55116  0.70259  1.0000
  H   H1128     1.0  0.09236  0.52601  0.69851  1.0000
  C   C657      1.0  0.13562  0.79701  0.72944  1.0000
  H   H1129     1.0  0.08747  0.61654  0.59019  1.0000
  C   C658      1.0  0.38763  0.93390  0.70811  1.0000
  H   H1130     1.0  0.44454  0.94933  0.60064  1.0000
  H   H1131     1.0  0.14239  0.87023  0.48865  1.0000
  H   H1132     1.0  0.08010  0.59778  0.60593  1.0000
  H   H1133     1.0  0.02350  0.49073  0.70785  1.0000
  N   N37       1.0  0.10200  0.85856  0.49599  1.0000
  H   H1134     1.0  0.18463  0.90962  0.49636  1.0000
  C   C659      1.0  0.41534  0.50469  0.69437  1.0000
  H   H1135     1.0  0.44789  0.58184  0.68115  1.0000
  H   H1136     1.0  0.44052  0.59368  0.69746  1.0000
  H   H1137     1.0  0.43543  0.55385  0.70987  1.0000
  H   H1138     1.0  0.48060  0.97247  0.62753  1.0000
  H   H1139     1.0  0.45912  0.53917  0.70820  1.0000
  H   H1140     1.0  0.38027  0.97385  0.59644  1.0000
  H   H1141     1.0  0.07900  0.63035  0.60597  1.0000
  H   H1142     1.0  0.39067  0.95536  0.70855  1.0000
  H   H1143     1.0  0.25978  0.78485  0.71375  1.0000
  H   H1144     1.0  0.21388  0.69270  0.58905  1.0000
  H   H1145     1.0  0.44649  0.53066  0.68177  1.0000
  H   H1146     1.0  0.02325  0.60959  0.69058  1.0000
  H   H1147     1.0  0.18011  0.64372  0.67821  1.0000
  C   C660      1.0  0.08575  0.87330  0.50170  1.0000
  H   H1148     1.0  0.07310  0.61047  0.72759  1.0000
  H   H1149     1.0  0.14921  0.88896  0.51362  1.0000
  H   H1150     1.0  0.02402  0.81205  0.60326  1.0000
  C   C661      1.0  0.29700  0.88038  0.72115  1.0000
  H   H1151     1.0  0.25564  0.81620  0.71377  1.0000
  S   S166      1.0  0.99230  0.81663  0.52508  1.0000
  H   H1152     1.0  0.04755  0.83967  0.50621  1.0000
  C   C662      1.0  0.09239  0.79766  0.51973  1.0000
  C   C663      1.0  0.46739  0.92329  0.64668  1.0000
  H   H1153     1.0  0.00693  0.77607  0.60422  1.0000
  H   H1154     1.0  0.06533  0.81316  0.51114  1.0000
  C   C664      1.0  0.24487  0.79398  0.71357  1.0000
  H   H1155     1.0  0.21715  0.64029  0.59814  1.0000
  H   H1156     1.0  0.38944  0.92251  0.61986  1.0000
  Fe  Fe85      1.0  0.98551  0.77359  0.52083  1.0000
  C   C665      1.0  0.46632  0.86732  0.72945  1.0000
  H   H1157     1.0  0.11117  0.79544  0.51722  1.0000
  H   H1158     1.0  0.01579  0.79097  0.58738  1.0000
  H   H1159     1.0  0.08092  0.79999  0.49836  1.0000
  H   H1160     1.0  0.24326  0.66853  0.59074  1.0000
  C   C666      1.0  0.04224  0.75493  0.58673  1.0000
  H   H1161     1.0  0.42468  0.85954  0.69069  1.0000
  C   C667      1.0  0.14507  0.89977  0.50480  1.0000
  C   C668      1.0  0.17715  0.66080  0.59607  1.0000
  H   H1162     1.0  0.43142  0.86596  0.67249  1.0000
  H   H1163     1.0  0.01590  0.80139  0.49074  1.0000
  H   H1164     1.0  0.37024  0.92263  0.70068  1.0000
  C   C669      1.0  0.43318  0.53284  0.68985  1.0000
  C   C670      1.0  0.12902  0.87972  0.49246  1.0000
  C   C671      1.0  0.28547  0.95004  0.58193  1.0000
  H   H1165     1.0  0.45430  0.91205  0.69516  1.0000
  H   H1166     1.0  0.44457  0.63804  0.68941  1.0000
  H   H1167     1.0  0.18309  0.93405  0.50907  1.0000
  H   H1168     1.0  0.09032  0.89224  0.49611  1.0000
  H   H1169     1.0  0.32716  0.88229  0.59749  1.0000
  H   H1170     1.0  0.07614  0.77730  0.52054  1.0000
  H   H1171     1.0  0.36722  0.96544  0.61996  1.0000
  H   H1172     1.0  0.12245  0.67113  0.60659  1.0000
  H   H1173     1.0  0.30242  0.93258  0.59763  1.0000
  H   H1174     1.0  0.17194  0.63988  0.59920  1.0000
  C   C672      1.0  0.28535  0.98528  0.60373  1.0000
  H   H1175     1.0  0.37548  0.90035  0.72134  1.0000
  H   H1176     1.0  0.16420  0.97606  0.60323  1.0000
  C   C673      1.0  0.29486  0.94775  0.59565  1.0000
  C   C674      1.0  0.10675  0.84109  0.50687  1.0000
  C   C675      1.0  0.05780  0.65978  0.72122  1.0000
  H   H1177     1.0  0.21324  0.64866  0.58018  1.0000
  H   H1178     1.0  0.42092  0.92589  0.72899  1.0000
  C   C676      1.0  0.15566  0.79446  0.71922  1.0000
  C   C677      1.0  0.05466  0.85854  0.50064  1.0000
  C   C678      1.0  0.40656  0.98188  0.57270  1.0000
  C   C679      1.0  0.17016  0.67515  0.62045  1.0000
  C   C680      1.0  0.17599  0.65148  0.62611  1.0000
  H   H1179     1.0  0.41960  0.54112  0.68493  1.0000
  C   C681      1.0  0.08447  0.81246  0.50826  1.0000
  H   H1180     1.0  0.19389  0.71439  0.60272  1.0000
  H   H1181     1.0  0.17603  0.75400  0.59406  1.0000
  C   C682      1.0  0.17858  0.65337  0.64216  1.0000
  H   H1182     1.0  0.16216  0.76100  0.60989  1.0000
  H   H1183     1.0  0.01941  0.86531  0.50607  1.0000
  C   C683      1.0  0.40755  0.88483  0.68167  1.0000
  H   H1184     1.0  0.04202  0.63972  0.72109  1.0000
  H   H1185     1.0  0.45934  0.84953  0.68550  1.0000
  C   C684      1.0  0.46005  0.86823  0.71376  1.0000
  H   H1186     1.0  0.09174  0.87990  0.51292  1.0000
  C   C685      1.0  0.11936  0.63106  0.60675  1.0000
  H   H1187     1.0  0.18834  0.69370  0.62361  1.0000
  H   H1188     1.0  0.15385  0.67678  0.62662  1.0000
  H   H1189     1.0  0.19517  0.65197  0.62227  1.0000
  H   H1190     1.0  0.16011  0.63159  0.62285  1.0000
  C   C686      1.0  0.43030  0.87529  0.68288  1.0000
  H   H1191     1.0  0.21701  0.68407  0.60683  1.0000
  H   H1192     1.0  0.15588  0.71674  0.61867  1.0000
  H   H1193     1.0  0.36008  0.88444  0.59352  1.0000
  H   H1194     1.0  0.11996  0.63144  0.61842  1.0000
  C   C687      1.0  0.17344  0.74981  0.60538  1.0000
  C   C688      1.0  0.22116  0.65706  0.59098  1.0000
  H   H1195     1.0  0.12888  0.61789  0.60269  1.0000
  C   C689      1.0  0.10979  0.62183  0.71541  1.0000
  H   H1196     1.0  0.18174  0.63581  0.64605  1.0000
  H   H1197     1.0  0.19593  0.67207  0.64594  1.0000
  H   H1198     1.0  0.16003  0.65352  0.64659  1.0000
  H   H1199     1.0  0.12875  0.65956  0.59016  1.0000
  H   H1200     1.0  0.28853  0.85874  0.72143  1.0000
  S   S167      1.0  0.26445  0.97175  0.56133  1.0000
  C   C690      1.0  0.38180  0.92244  0.72268  1.0000
  H   H1201     1.0  0.18139  0.71258  0.67986  1.0000
  N   N38       1.0  0.16322  0.67431  0.60489  1.0000
  C   C691      1.0  0.17197  0.70289  0.60033  1.0000
  C   C692      1.0  0.17204  0.92000  0.50008  1.0000
  C   C693      1.0  0.13330  0.66001  0.60168  1.0000
  N   N39       1.0  0.40296  0.96239  0.61199  1.0000
  H   H1202     1.0  0.35808  0.92909  0.59345  1.0000
  H   H1203     1.0  0.13394  0.91146  0.50885  1.0000
  H   H1204     1.0  0.16902  0.93209  0.49155  1.0000
  C   C694      1.0  0.00874  0.79350  0.59792  1.0000
  H   H1205     1.0  0.07779  0.76967  0.60069  1.0000
  N   N40       1.0  0.09815  0.60633  0.70158  1.0000
  C   C695      1.0  0.11482  0.62275  0.69012  1.0000
  C   C696      1.0  0.06936  0.60338  0.69980  1.0000
  H   H1206     1.0  0.11062  0.85140  0.51746  1.0000
  C   C697      1.0  0.09935  0.57916  0.70218  1.0000
  C   C698      1.0  0.09130  0.56118  0.68840  1.0000
  C   C699      1.0  0.14482  0.62708  0.69062  1.0000
  H   H1207     1.0  0.01626  0.57405  0.68892  1.0000
  C   C700      1.0  0.05733  0.60089  0.68460  1.0000
  C   C701      1.0  0.02722  0.59397  0.68446  1.0000
  C   C702      1.0  0.10020  0.53795  0.68918  1.0000
  C   C703      1.0  0.15883  0.64117  0.67770  1.0000
  H   H1208     1.0  0.34944  0.88057  0.61142  1.0000
  H   H1209     1.0  0.11415  0.64295  0.69041  1.0000
  H   H1210     1.0  0.10636  0.61382  0.67949  1.0000
  H   H1211     1.0  0.05576  0.58594  0.70556  1.0000
  H   H1212     1.0  0.06732  0.62129  0.70462  1.0000
  H   H1213     1.0  0.09531  0.80869  0.53009  1.0000
  H   H1214     1.0  0.28582  0.93643  0.57349  1.0000
  H   H1215     1.0  0.11973  0.58143  0.70594  1.0000
  H   H1216     1.0  0.08587  0.56707  0.71021  1.0000
  H   H1217     1.0  0.10047  0.57234  0.67908  1.0000
  H   H1218     1.0  0.06911  0.55226  0.68667  1.0000
  H   H1219     1.0  0.16303  0.71068  0.69550  1.0000
  H   H1220     1.0  0.14687  0.60765  0.69075  1.0000
  C   C704      1.0  0.20823  0.67567  0.59617  1.0000
  H   H1221     1.0  0.16972  0.65855  0.58486  1.0000
  H   H1222     1.0  0.06699  0.62042  0.67953  1.0000
  H   H1223     1.0  0.06033  0.58528  0.67808  1.0000
  C   C705      1.0  0.45771  0.89902  0.68687  1.0000
  C   C706      1.0  0.15787  0.71972  0.60724  1.0000
  H   H1224     1.0  0.19345  0.75722  0.61104  1.0000
  H   H1225     1.0  0.09250  0.52437  0.67961  1.0000
  H   H1226     1.0  0.12248  0.54572  0.68965  1.0000
  H   H1227     1.0  0.44142  0.87177  0.71276  1.0000
  H   H1228     1.0  0.04706  0.85401  0.48950  1.0000
  H   H1229     1.0  0.40407  0.94695  0.58328  1.0000
  C   C707      1.0  0.45727  0.59288  0.69129  1.0000
  C   C708      1.0  0.38911  0.93216  0.60975  1.0000
  H   H1230     1.0  0.39997  0.92430  0.60247  1.0000
  H   H1231     1.0  0.46571  0.88442  0.64019  1.0000
  C   C709      1.0  0.03685  0.49523  0.72985  1.0000
  C   C710      1.0  0.35960  0.92071  0.60374  1.0000
  H   H1232     1.0  0.34639  0.92525  0.61102  1.0000
  H   H1233     1.0  0.47941  0.86868  0.67229  1.0000
  H   H1234     1.0  0.47684  0.56420  0.72925  1.0000
  H   H1235     1.0  0.41737  0.95644  0.73092  1.0000
  C   C711      1.0  0.45760  0.63554  0.68124  1.0000
  H   H1236     1.0  0.42774  0.49460  0.69879  1.0000
  H   H1237     1.0  0.01949  0.59311  0.67344  1.0000
  H   H1238     1.0  0.22538  0.92146  0.64709  1.0000
  H   H1239     1.0  0.44486  0.62368  0.67201  1.0000
  H   H1240     1.0  0.18467  0.51826  0.72795  1.0000
  H   H1241     1.0  0.98497  0.81356  0.59003  1.0000
  H   H1242     1.0  0.13030  0.62283  0.71776  1.0000
  H   H1243     1.0  0.40574  0.93220  0.70399  1.0000
  H   H1244     1.0  0.38450  0.97449  0.57061  1.0000
  C   C712      1.0  0.47700  0.96729  0.61606  1.0000
  H   H1245     1.0  0.47182  0.53192  0.65254  1.0000
  H   H1246     1.0  0.46820  0.59885  0.71848  1.0000
  H   H1247     1.0  0.17487  0.81234  0.72124  1.0000
  C   C713      1.0  0.47889  0.86632  0.68388  1.0000
  S   S168      1.0  0.41529  0.49977  0.65369  1.0000
  H   H1248     1.0  0.47735  0.68829  0.71009  1.0000
  H   H1249     1.0  0.45632  0.84829  0.70878  1.0000
  C   C714      1.0  0.98183  0.79589  0.59643  1.0000
  H   H1250     1.0  0.41535  0.97654  0.56333  1.0000
  H   H1251     1.0  0.43493  0.97649  0.58692  1.0000
  H   H1252     1.0  0.47611  0.81340  0.68219  1.0000
  C   C715      1.0  0.22675  0.78544  0.72605  1.0000
  C   C716      1.0  0.44691  0.95348  0.61216  1.0000
  C   C717      1.0  0.04262  0.49964  0.71433  1.0000
  C   C718      1.0  0.38852  0.97057  0.62331  1.0000
  H   H1253     1.0  0.43890  0.93387  0.61728  1.0000
  C   C719      1.0  0.09355  0.61073  0.72863  1.0000
  H   H1254     1.0  0.47070  0.65574  0.67773  1.0000
  H   H1255     1.0  0.05236  0.52143  0.71249  1.0000
  H   H1256     1.0  0.40116  0.50567  0.70228  1.0000
  H   H1257     1.0  0.43336  0.97066  0.62896  1.0000
  H   H1258     1.0  0.05577  0.48967  0.71086  1.0000
  H   H1259     1.0  0.12658  0.89173  0.48368  1.0000
  C   C720      1.0  0.47493  0.62174  0.68711  1.0000
  H   H1260     1.0  0.19862  0.97962  0.60454  1.0000
  H   H1261     1.0  0.09160  0.59004  0.73048  1.0000
  H   H1262     1.0  0.21461  0.76350  0.72451  1.0000
  H   H1263     1.0  0.36494  0.92664  0.72654  1.0000
  H   H1264     1.0  0.23418  0.49296  0.64268  1.0000
  Fe  Fe86      1.0  0.00504  0.75573  0.89272  1.0000
  S   S169      1.0  0.03197  0.73970  0.88031  1.0000
  H   H1265     1.0  0.98182  0.84009  0.89511  1.0000
  Fe  Fe87      1.0  0.01815  0.80934  0.90916  1.0000
  S   S170      1.0  0.05196  0.84824  0.91751  1.0000
  S   S171      1.0  0.02250  0.77157  0.91473  1.0000
  H   H1266     1.0  0.35979  0.84656  0.74311  1.0000
  S   S172      1.0  0.19596  0.95068  0.90085  1.0000
  S   S173      1.0  0.12945  0.94619  0.88355  1.0000
  Fe  Fe88      1.0  0.30136  0.92222  0.80185  1.0000
  S   S174      1.0  0.32280  0.90084  0.81348  1.0000
  S   S175      1.0  0.28138  0.94762  0.81259  1.0000
  Fe  Fe89      1.0  0.30385  0.89401  0.77283  1.0000
  S   S176      1.0  0.32419  0.87041  0.78335  1.0000
  S   S177      1.0  0.29203  0.87922  0.74977  1.0000
  Fe  Fe90      1.0  0.29494  0.86433  0.80034  1.0000
  S   S178      1.0  0.27194  0.82338  0.80913  1.0000
  Fe  Fe91      1.0  0.35003  0.90916  0.79506  1.0000
  S   S179      1.0  0.39594  0.92811  0.79401  1.0000
  S   S180      1.0  0.27296  0.88537  0.78921  1.0000
  S   S181      1.0  0.33039  0.93330  0.78410  1.0000
  Fe  Fe92      1.0  0.07621  0.67301  0.77211  1.0000
  S   S182      1.0  0.11909  0.67989  0.77645  1.0000
  S   S183      1.0  0.05796  0.65653  0.75003  1.0000
  Fe  Fe93      1.0  0.06929  0.68671  0.80367  1.0000
  S   S184      1.0  0.11205  0.69389  0.80970  1.0000
  S   S185      1.0  0.03830  0.69134  0.81847  1.0000
  Fe  Fe94      1.0  0.12234  0.71607  0.78967  1.0000
  S   S186      1.0  0.15183  0.75851  0.78582  1.0000
  Fe  Fe95      1.0  0.10443  0.65651  0.79580  1.0000
  S   S187      1.0  0.12056  0.62448  0.80002  1.0000
  S   S188      1.0  0.07993  0.71062  0.78416  1.0000
  S   S189      1.0  0.06113  0.64786  0.79097  1.0000
  H   H1267     1.0  0.13445  0.80212  0.82763  1.0000
  C   C721      1.0  0.46295  0.56645  0.80550  1.0000
  C   C722      1.0  0.45214  0.53925  0.80894  1.0000
  C   C723      1.0  0.42411  0.52366  0.80812  1.0000
  C   C724      1.0  0.40644  0.53523  0.80407  1.0000
  C   C725      1.0  0.41727  0.56237  0.80051  1.0000
  C   C726      1.0  0.44532  0.57777  0.80104  1.0000
  Fe  Fe96      1.0  0.17086  0.97190  0.89334  1.0000
  C   C727      1.0  0.01425  0.89328  0.91731  1.0000
  H   H1268     1.0  0.40384  0.57152  0.79728  1.0000
  H   H1269     1.0  0.36844  0.50786  0.74527  1.0000
  H   H1270     1.0  0.26054  0.97670  0.93030  1.0000
  C   C728      1.0  0.26337  0.96095  0.85902  1.0000
  C   C729      1.0  0.10251  0.58911  0.80107  1.0000
  C   C730      1.0  0.07444  0.57695  0.80078  1.0000
  C   C731      1.0  0.06099  0.54910  0.80265  1.0000
  C   C732      1.0  0.07540  0.53298  0.80456  1.0000
  C   C733      1.0  0.10343  0.54494  0.80425  1.0000
  C   C734      1.0  0.11688  0.57287  0.80265  1.0000
  H   H1271     1.0  0.06320  0.58910  0.79928  1.0000
  H   H1272     1.0  0.03929  0.54001  0.80273  1.0000
  H   H1273     1.0  0.11483  0.53286  0.80575  1.0000
  H   H1274     1.0  0.13861  0.58204  0.80288  1.0000
  H   H1275     1.0  0.09516  0.62078  0.75102  1.0000
  C   C735      1.0  0.45968  0.65019  0.81540  1.0000
  H   H1276     1.0  0.27511  0.85497  0.85340  1.0000
  H   H1277     1.0  0.02380  0.50548  0.73283  1.0000
  C   C736      1.0  0.28192  0.86703  0.84399  1.0000
  C   C737      1.0  0.23771  0.80546  0.80384  1.0000
  C   C738      1.0  0.22473  0.77781  0.80603  1.0000
  C   C739      1.0  0.19796  0.76295  0.80096  1.0000
  C   C740      1.0  0.18410  0.77587  0.79384  1.0000
  C   C741      1.0  0.19673  0.80361  0.79222  1.0000
  C   C742      1.0  0.22336  0.81827  0.79713  1.0000
  H   H1278     1.0  0.23562  0.76772  0.81131  1.0000
  H   H1279     1.0  0.18831  0.74152  0.80229  1.0000
  H   H1280     1.0  0.18594  0.81377  0.78692  1.0000
  H   H1281     1.0  0.23263  0.83947  0.79569  1.0000
  C   C743      1.0  0.41950  0.91328  0.79575  1.0000
  C   C744      1.0  0.41223  0.88696  0.79991  1.0000
  C   C745      1.0  0.43196  0.87656  0.80165  1.0000
  C   C746      1.0  0.45904  0.89207  0.79899  1.0000
  C   C747      1.0  0.01527  0.76129  0.97681  1.0000
  C   C748      1.0  0.44656  0.92878  0.79309  1.0000
  H   H1282     1.0  0.39153  0.87481  0.80207  1.0000
  H   H1283     1.0  0.42620  0.85636  0.80517  1.0000
  H   H1284     1.0  0.09849  0.70990  0.74414  1.0000
  H   H1285     1.0  0.45245  0.94931  0.79013  1.0000
  H   H1286     1.0  0.20660  0.50213  0.80044  1.0000
  C   C749      1.0  0.47463  0.65344  0.84582  1.0000
  C   C750      1.0  0.28284  0.95094  0.85591  1.0000
  C   C751      1.0  0.28856  0.94670  0.84186  1.0000
  C   C752      1.0  0.27491  0.95245  0.83062  1.0000
  H   H1287     1.0  0.08094  0.54899  0.75749  1.0000
  H   H1288     1.0  0.37917  0.58356  0.85494  1.0000
  H   H1289     1.0  0.30383  0.93932  0.83975  1.0000
  H   H1290     1.0  0.08634  0.65512  0.84657  1.0000
  C   C753      1.0  0.38484  0.94333  0.75387  1.0000
  C   C754      1.0  0.19478  0.49420  0.74297  1.0000
  C   C755      1.0  0.07374  0.87415  0.90742  1.0000
  C   C756      1.0  0.09846  0.89211  0.91367  1.0000
  C   C757      1.0  0.11588  0.91390  0.90633  1.0000
  C   C758      1.0  0.10853  0.91817  0.89274  1.0000
  C   C759      1.0  0.08385  0.90009  0.88643  1.0000
  C   C760      1.0  0.06652  0.87809  0.89373  1.0000
  H   H1291     1.0  0.10409  0.88936  0.92430  1.0000
  H   H1292     1.0  0.13475  0.92775  0.91134  1.0000
  H   H1293     1.0  0.07801  0.90332  0.87593  1.0000
  H   H1294     1.0  0.04737  0.86458  0.88889  1.0000
  C   C761      1.0  0.03795  0.70704  0.83531  1.0000
  C   C762      1.0  0.05997  0.71613  0.84505  1.0000
  C   C763      1.0  0.05784  0.72641  0.85862  1.0000
  C   C764      1.0  0.03390  0.72825  0.86264  1.0000
  C   C765      1.0  0.01212  0.71973  0.85280  1.0000
  C   C766      1.0  0.01407  0.70896  0.83934  1.0000
  H   H1295     1.0  0.07842  0.71466  0.84225  1.0000
  H   H1296     1.0  0.07481  0.73269  0.86611  1.0000
  H   H1297     1.0  0.01780  0.76073  0.95414  1.0000
  H   H1298     1.0  0.02821  0.87968  0.93602  1.0000
  H   H1299     1.0  0.39278  0.51269  0.77565  1.0000
  S   S190      1.0  0.00240  0.79453  0.88710  1.0000
  N   N41       1.0  0.03103  0.61666  0.83539  1.0000
  H   H1300     1.0  0.29351  0.94252  0.93222  1.0000
  C   C767      1.0  0.35206  0.85520  0.75175  1.0000
  C   C768      1.0  0.02355  0.58948  0.84161  1.0000
  H   H1301     1.0  0.37574  0.98219  0.77035  1.0000
  H   H1302     1.0  0.44092  0.96468  0.75224  1.0000
  H   H1303     1.0  0.23695  0.83886  0.74500  1.0000
  H   H1304     1.0  0.01628  0.63567  0.81968  1.0000
  H   H1305     1.0  0.44868  0.92080  0.74402  1.0000
  H   H1306     1.0  0.19927  0.94517  0.96905  1.0000
  H   H1307     1.0  0.26959  0.50385  0.74329  1.0000
  H   H1308     1.0  0.02604  0.88610  0.91029  1.0000
  C   C769      1.0  0.20964  0.98145  0.95777  1.0000
  H   H1309     1.0  0.19532  0.79567  0.74611  1.0000
  H   H1310     1.0  0.47503  0.92518  0.82678  1.0000
  H   H1311     1.0  0.15684  0.49740  0.73791  1.0000
  H   H1312     1.0  0.06523  0.83809  0.94813  1.0000
  C   C770      1.0  0.06217  0.53244  0.76054  1.0000
  C   C771      1.0  0.44899  0.92920  0.75479  1.0000
  H   H1313     1.0  0.46554  0.53022  0.81242  1.0000
  H   H1314     1.0  0.98900  0.58534  0.78993  1.0000
  C   C772      1.0  0.24948  0.96644  0.84778  1.0000
  H   H1315     1.0  0.12755  0.62812  0.74395  1.0000
  C   C773      1.0  0.17820  0.90076  0.85498  1.0000
  H   H1316     1.0  0.16245  0.90851  0.85314  1.0000
  H   H1317     1.0  0.07711  0.52516  0.73584  1.0000
  H   H1318     1.0  0.23076  0.90709  0.79301  1.0000
  H   H1319     1.0  0.26023  0.93247  0.92421  1.0000
  S   S191      1.0  0.37082  0.51713  0.80358  1.0000
  C   C774      1.0  0.18755  0.84000  0.82585  1.0000
  C   C775      1.0  0.19158  0.50511  0.79334  1.0000
  H   H1320     1.0  0.18353  0.88578  0.81256  1.0000
  C   C776      1.0  0.08949  0.69929  0.73423  1.0000
  H   H1321     1.0  0.22441  0.89776  0.84657  1.0000
  C   C777      1.0  0.07480  0.85321  0.95694  1.0000
  C   C778      1.0  0.20550  0.96673  0.97001  1.0000
  H   H1322     1.0  0.11672  0.54139  0.75818  1.0000
  H   H1323     1.0  0.27002  0.89102  0.83024  1.0000
  N   N42       1.0  0.41213  0.49921  0.75939  1.0000
  H   H1324     1.0  0.37982  0.55085  0.85280  1.0000
  H   H1325     1.0  0.02538  0.57219  0.75941  1.0000
  N   N43       1.0  0.10763  0.81515  0.88732  1.0000
  C   C779      1.0  0.12128  0.79605  0.88576  1.0000
  C   C780      1.0  0.09175  0.80875  0.90046  1.0000
  C   C781      1.0  0.08790  0.80946  0.87487  1.0000
  C   C782      1.0  0.12689  0.84445  0.88770  1.0000
  C   C783      1.0  0.15546  0.85195  0.89448  1.0000
  C   C784      1.0  0.13491  0.79651  0.87164  1.0000
  C   C785      1.0  0.07129  0.82676  0.87428  1.0000
  C   C786      1.0  0.10819  0.81379  0.91465  1.0000
  C   C787      1.0  0.09005  0.80281  0.92689  1.0000
  C   C788      1.0  0.16980  0.88222  0.89766  1.0000
  C   C789      1.0  0.15505  0.78358  0.87277  1.0000
  C   C790      1.0  0.05301  0.81968  0.86093  1.0000
  H   H1326     1.0  0.10638  0.77491  0.88679  1.0000
  H   H1327     1.0  0.13654  0.79950  0.89439  1.0000
  H   H1328     1.0  0.07998  0.82113  0.90158  1.0000
  H   H1329     1.0  0.07669  0.78741  0.89970  1.0000
  H   H1330     1.0  0.07364  0.78792  0.87426  1.0000
  H   H1331     1.0  0.09849  0.81290  0.86486  1.0000
  H   H1332     1.0  0.13014  0.85195  0.87687  1.0000
  H   H1333     1.0  0.11773  0.85695  0.89312  1.0000
  H   H1334     1.0  0.16779  0.84598  0.88718  1.0000
  H   H1335     1.0  0.15529  0.84201  0.90442  1.0000
  H   H1336     1.0  0.11944  0.78484  0.86329  1.0000
  H   H1337     1.0  0.14546  0.81733  0.86821  1.0000
  H   H1338     1.0  0.08465  0.84848  0.87433  1.0000
  H   H1339     1.0  0.05818  0.82333  0.88328  1.0000
  H   H1340     1.0  0.12244  0.80399  0.91466  1.0000
  H   H1341     1.0  0.11934  0.83577  0.91691  1.0000
  H   H1342     1.0  0.07892  0.78064  0.92549  1.0000
  H   H1343     1.0  0.10241  0.80743  0.93690  1.0000
  H   H1344     1.0  0.07552  0.81227  0.92774  1.0000
  H   H1345     1.0  0.15916  0.88885  0.90574  1.0000
  H   H1346     1.0  0.19067  0.88738  0.90178  1.0000
  H   H1347     1.0  0.17061  0.89337  0.88801  1.0000
  H   H1348     1.0  0.16372  0.78324  0.86241  1.0000
  H   H1349     1.0  0.17171  0.79519  0.88053  1.0000
  H   H1350     1.0  0.14493  0.76252  0.87602  1.0000
  S   S192      1.0  0.05760  0.49837  0.80781  1.0000
  N   N44       1.0  0.21191  0.86479  0.83089  1.0000
  C   C791      1.0  0.04089  0.56577  0.76373  1.0000
  H   H1351     1.0  0.19366  0.86545  0.80091  1.0000
  C   C792      1.0  0.26180  0.87852  0.83935  1.0000
  H   H1352     1.0  0.25575  0.77934  0.73925  1.0000
  Fe  Fe97      1.0  0.20785  0.98079  0.91929  1.0000
  H   H1353     1.0  0.28212  0.78530  0.75818  1.0000
  C   C793      1.0  0.24365  0.79153  0.74004  1.0000
  C   C794      1.0  0.15027  0.79482  0.83027  1.0000
  H   H1354     1.0  0.21996  0.92725  0.80465  1.0000
  C   C795      1.0  0.11261  0.51978  0.75680  1.0000
  H   H1355     1.0  0.99931  0.62020  0.79539  1.0000
  H   H1356     1.0  0.25667  0.96534  0.97966  1.0000
  H   H1357     1.0  0.47611  0.71569  0.85745  1.0000
  H   H1358     1.0  0.32978  0.84481  0.75133  1.0000
  H   H1359     1.0  0.16451  0.87271  0.83722  1.0000
  H   H1360     1.0  0.29382  0.94666  0.86445  1.0000
  H   H1361     1.0  0.19015  0.80899  0.83941  1.0000
  C   C796      1.0  0.08432  0.50156  0.76178  1.0000
  C   C797      1.0  0.22589  0.83255  0.75474  1.0000
  H   H1362     1.0  0.16901  0.70683  0.75839  1.0000
  H   H1363     1.0  0.08514  0.50509  0.77342  1.0000
  C   C798      1.0  0.23366  0.85579  0.83550  1.0000
  H   H1364     1.0  0.11458  0.51523  0.74555  1.0000
  H   H1365     1.0  0.18981  0.90562  0.83369  1.0000
  H   H1366     1.0  0.01570  0.66987  0.86397  1.0000
  H   H1367     1.0  0.24463  0.96696  0.82516  1.0000
  H   H1368     1.0  0.01502  0.91265  0.91359  1.0000
  H   H1369     1.0  0.07257  0.49091  0.73602  1.0000
  H   H1370     1.0  0.23633  0.84243  0.82711  1.0000
  C   C799      1.0  0.43349  0.61332  0.84950  1.0000
  H   H1371     1.0  0.29809  0.77604  0.78065  1.0000
  C   C800      1.0  0.44111  0.63106  0.82600  1.0000
  H   H1372     1.0  0.44278  0.91222  0.76196  1.0000
  C   C801      1.0  0.20629  0.87930  0.84333  1.0000
  C   C802      1.0  0.41522  0.58332  0.84569  1.0000
  C   C803      1.0  0.44368  0.65182  0.80227  1.0000
  H   H1373     1.0  0.45758  0.66563  0.79491  1.0000
  H   H1374     1.0  0.31593  0.93621  0.74294  1.0000
  H   H1375     1.0  0.01884  0.90766  0.93932  1.0000
  C   C804      1.0  0.39226  0.57240  0.85570  1.0000
  H   H1376     1.0  0.25865  0.81285  0.74038  1.0000
  H   H1377     1.0  0.42007  0.62412  0.85058  1.0000
  H   H1378     1.0  0.47007  0.67093  0.82006  1.0000
  H   H1379     1.0  0.19670  0.91770  0.85937  1.0000
  H   H1380     1.0  0.02805  0.59958  0.80645  1.0000
  H   H1381     1.0  0.42557  0.63868  0.82856  1.0000
  H   H1382     1.0  0.42976  0.61144  0.82017  1.0000
  H   H1383     1.0  0.22787  0.84366  0.84497  1.0000
  H   H1384     1.0  0.23406  0.49658  0.75993  1.0000
  H   H1385     1.0  0.20210  0.86672  0.85267  1.0000
  H   H1386     1.0  0.35864  0.53175  0.77317  1.0000
  H   H1387     1.0  0.40623  0.58057  0.83484  1.0000
  H   H1388     1.0  0.42690  0.57075  0.84649  1.0000
  H   H1389     1.0  0.14228  0.77886  0.83794  1.0000
  H   H1390     1.0  0.00092  0.87421  0.89139  1.0000
  H   H1391     1.0  0.02554  0.54269  0.85188  1.0000
  H   H1392     1.0  0.17105  0.88496  0.86277  1.0000
  C   C805      1.0  0.36030  0.88529  0.75014  1.0000
  C   C806      1.0  0.02854  0.89865  0.93187  1.0000
  H   H1393     1.0  0.06091  0.58255  0.76290  1.0000
  H   H1394     1.0  0.21731  0.86808  0.75572  1.0000
  H   H1395     1.0  0.10502  0.61585  0.83086  1.0000
  H   H1396     1.0  0.30174  0.88377  0.84669  1.0000
  C   C807      1.0  0.46997  0.61013  0.83538  1.0000
  H   H1397     1.0  0.40025  0.57401  0.86672  1.0000
  H   H1398     1.0  0.45636  0.59130  0.82953  1.0000
  H   H1399     1.0  0.35463  0.97414  0.75434  1.0000
  C   C808      1.0  0.42992  0.94406  0.75595  1.0000
  H   H1400     1.0  0.38245  0.94002  0.76534  1.0000
  C   C809      1.0  0.27480  0.97058  0.93620  1.0000
  S   S193      1.0  0.25758  0.96632  0.87709  1.0000
  C   C810      1.0  0.30151  0.89596  0.73381  1.0000
  C   C811      1.0  0.02290  0.54237  0.84025  1.0000
  C   C812      1.0  0.46277  0.67410  0.84983  1.0000
  H   H1401     1.0  0.21649  0.51225  0.77582  1.0000
  C   C813      1.0  0.44317  0.54799  0.76793  1.0000
  H   H1402     1.0  0.13183  0.49404  0.76411  1.0000
  H   H1403     1.0  0.47154  0.58937  0.77214  1.0000
  H   H1404     1.0  0.06509  0.82402  0.85142  1.0000
  H   H1405     1.0  0.44964  0.66713  0.85885  1.0000
  H   H1406     1.0  0.23402  0.90434  0.82319  1.0000
  H   H1407     1.0  0.12407  0.64175  0.84396  1.0000
  H   H1408     1.0  0.19410  0.52633  0.79475  1.0000
  H   H1409     1.0  0.29505  0.80773  0.78235  1.0000
  H   H1410     1.0  0.28819  0.95874  0.91676  1.0000
  H   H1411     1.0  0.98254  0.90711  0.89562  1.0000
  H   H1412     1.0  0.44241  0.61463  0.86030  1.0000
  H   H1413     1.0  0.99059  0.60853  0.82744  1.0000
  C   C814      1.0  0.47812  0.94791  0.75894  1.0000
  H   H1414     1.0  0.03821  0.65721  0.84272  1.0000
  C   C815      1.0  0.17569  0.81785  0.83656  1.0000
  H   H1415     1.0  0.45070  0.67706  0.84100  1.0000
  C   C816      1.0  0.06328  0.50501  0.73919  1.0000
  C   C817      1.0  0.18361  0.88918  0.84116  1.0000
  S   S194      1.0  0.20765  0.96461  0.94118  1.0000
  H   H1416     1.0  0.35987  0.85156  0.76204  1.0000
  H   H1417     1.0  0.19458  0.84052  0.76517  1.0000
  H   H1418     1.0  0.44914  0.85114  0.73413  1.0000
  H   H1419     1.0  0.00114  0.53300  0.83712  1.0000
  C   C818      1.0  0.38804  0.50272  0.76493  1.0000
  H   H1420     1.0  0.03658  0.76728  0.97875  1.0000
  H   H1421     1.0  0.47508  0.64317  0.81203  1.0000
  C   C819      1.0  0.03924  0.54042  0.75559  1.0000
  H   H1422     1.0  0.24008  0.84061  0.76401  1.0000
  C   C820      1.0  0.16808  0.71442  0.74778  1.0000
  H   H1423     1.0  0.14660  0.70740  0.74425  1.0000
  H   H1424     1.0  0.35110  0.89260  0.75862  1.0000
  H   H1425     1.0  0.00129  0.57825  0.84116  1.0000
  C   C821      1.0  0.10752  0.62836  0.74178  1.0000
  H   H1426     1.0  0.35133  0.88778  0.74004  1.0000
  H   H1427     1.0  0.99349  0.72075  0.85566  1.0000
  H   H1428     1.0  0.04086  0.83186  0.86094  1.0000
  C   C822      1.0  0.05907  0.62796  0.83002  1.0000
  C   C823      1.0  0.03013  0.63649  0.84665  1.0000
  H   H1429     1.0  0.27006  0.77789  0.78939  1.0000
  H   H1430     1.0  0.13476  0.52125  0.77647  1.0000
  C   C824      1.0  0.20107  0.88418  0.80777  1.0000
  H   H1431     1.0  0.19186  0.83964  0.74613  1.0000
  C   C825      1.0  0.22215  0.88347  0.81894  1.0000
  H   H1432     1.0  0.01915  0.52441  0.75717  1.0000
  C   C826      1.0  0.00467  0.75759  0.96281  1.0000
  H   H1433     1.0  0.99682  0.70193  0.83200  1.0000
  H   H1434     1.0  0.20130  0.51091  0.75104  1.0000
  H   H1435     1.0  0.03723  0.56176  0.77501  1.0000
  H   H1436     1.0  0.19805  0.90739  0.79019  1.0000
  H   H1437     1.0  0.17031  0.82606  0.84621  1.0000
  N   N45       1.0  0.45484  0.62703  0.83922  1.0000
  H   H1438     1.0  0.39406  0.97785  0.74047  1.0000
  H   H1439     1.0  0.17085  0.84513  0.82210  1.0000
  C   C827      1.0  0.21327  0.90793  0.79835  1.0000
  H   H1440     1.0  0.15477  0.78575  0.82058  1.0000
  H   H1441     1.0  0.28456  0.85420  0.83540  1.0000
  Fe  Fe98      1.0  0.22900  0.98064  0.88892  1.0000
  H   H1442     1.0  0.39580  0.49068  0.73789  1.0000
  H   H1443     1.0  0.00134  0.85600  0.86698  1.0000
  C   C828      1.0  0.99058  0.59931  0.79901  1.0000
  H   H1444     1.0  0.41615  0.50287  0.81095  1.0000
  H   H1445     1.0  0.34448  0.53320  0.75601  1.0000
  H   H1446     1.0  0.99876  0.57473  0.81391  1.0000
  H   H1447     1.0  0.39681  0.89854  0.76249  1.0000
  H   H1448     1.0  0.03257  0.52979  0.83551  1.0000
  H   H1449     1.0  0.19257  0.83042  0.81653  1.0000
  H   H1450     1.0  0.41468  0.98553  0.75659  1.0000
  H   H1451     1.0  0.06161  0.61427  0.82189  1.0000
  H   H1452     1.0  0.43327  0.63172  0.79680  1.0000
  C   C829      1.0  0.35230  0.52129  0.76262  1.0000
  H   H1453     1.0  0.07645  0.62024  0.84990  1.0000
  H   H1454     1.0  0.45224  0.52298  0.75296  1.0000
  H   H1455     1.0  0.33582  0.50121  0.76375  1.0000
  H   H1456     1.0  0.16962  0.75246  0.75537  1.0000
  H   H1457     1.0  0.11476  0.65090  0.82727  1.0000
  N   N46       1.0  0.22829  0.78571  0.75330  1.0000
  C   C830      1.0  0.21112  0.80149  0.75468  1.0000
  C   C831      1.0  0.21109  0.75585  0.75410  1.0000
  C   C832      1.0  0.24858  0.79416  0.76563  1.0000
  H   H1458     1.0  0.06810  0.88030  0.98073  1.0000
  C   C833      1.0  0.18140  0.74514  0.74833  1.0000
  C   C834      1.0  0.26742  0.77907  0.76657  1.0000
  C   C835      1.0  0.06129  0.84225  0.97058  1.0000
  H   H1459     1.0  0.46981  0.88675  0.73506  1.0000
  C   C836      1.0  0.13473  0.51544  0.76518  1.0000
  C   C837      1.0  0.28360  0.78566  0.78060  1.0000
  H   H1460     1.0  0.20001  0.79637  0.76451  1.0000
  H   H1461     1.0  0.10996  0.64943  0.74050  1.0000
  H   H1462     1.0  0.22078  0.74383  0.74877  1.0000
  H   H1463     1.0  0.20952  0.74995  0.76528  1.0000
  H   H1464     1.0  0.23799  0.79164  0.77562  1.0000
  H   H1465     1.0  0.26224  0.81584  0.76549  1.0000
  C   C838      1.0  0.39422  0.97388  0.75182  1.0000
  H   H1466     1.0  0.42637  0.55302  0.77124  1.0000
  C   C839      1.0  0.00842  0.59590  0.81083  1.0000
  H   H1467     1.0  0.15458  0.52813  0.76115  1.0000
  H   H1468     1.0  0.23643  0.87805  0.81278  1.0000
  H   H1469     1.0  0.25609  0.75694  0.76555  1.0000
  H   H1470     1.0  0.40036  0.89005  0.74462  1.0000
  H   H1471     1.0  0.09651  0.85738  0.95779  1.0000
  H   H1472     1.0  0.06323  0.82313  0.97230  1.0000
  H   H1473     1.0  0.23444  0.97411  0.84990  1.0000
  H   H1474     1.0  0.07243  0.87193  0.95440  1.0000
  H   H1475     1.0  0.42773  0.53381  0.74648  1.0000
  H   H1476     1.0  0.04987  0.91286  0.93110  1.0000
  H   H1477     1.0  0.42862  0.65985  0.80509  1.0000
  C   C840      1.0  0.01123  0.61525  0.82361  1.0000
  H   H1478     1.0  0.05773  0.57861  0.83783  1.0000
  H   H1479     1.0  0.03039  0.49780  0.77982  1.0000
  C   C841      1.0  0.37599  0.51846  0.75567  1.0000
  N   N47       1.0  0.40270  0.93046  0.74826  1.0000
  H   H1480     1.0  0.26090  0.89170  0.84823  1.0000
  C   C842      1.0  0.20606  0.84587  0.75548  1.0000
  H   H1481     1.0  0.17959  0.75177  0.73764  1.0000
  H   H1482     1.0  0.14337  0.79774  0.74044  1.0000
  C   C843      1.0  0.39131  0.90094  0.75137  1.0000
  H   H1483     1.0  0.04345  0.63737  0.85592  1.0000
  H   H1484     1.0  0.06278  0.64679  0.82447  1.0000
  C   C844      1.0  0.08205  0.63499  0.84154  1.0000
  H   H1485     1.0  0.03956  0.83737  0.96882  1.0000
  C   C845      1.0  0.10800  0.63592  0.83549  1.0000
  C   C846      1.0  0.43391  0.52578  0.75591  1.0000
  C   C847      1.0  0.06942  0.67316  0.73420  1.0000
  H   H1486     1.0  0.26509  0.96035  0.94570  1.0000
  H   H1487     1.0  0.42750  0.94685  0.76740  1.0000
  C   C848      1.0  0.19560  0.49890  0.77804  1.0000
  C   C849      1.0  0.47452  0.96410  0.82481  1.0000
  H   H1488     1.0  0.45130  0.54144  0.77720  1.0000
  H   H1489     1.0  0.45333  0.59849  0.79816  1.0000
  H   H1490     1.0  0.39103  0.53902  0.75399  1.0000
  H   H1491     1.0  0.03906  0.79804  0.86046  1.0000
  H   H1492     1.0  0.04111  0.54505  0.74431  1.0000
  H   H1493     1.0  0.02956  0.59178  0.85303  1.0000
  N   N48       1.0  0.06080  0.50558  0.75499  1.0000
  C   C850      1.0  0.46620  0.91820  0.79454  1.0000
  H   H1494     1.0  0.06359  0.53370  0.77225  1.0000
  C   C851      1.0  0.27965  0.94988  0.92679  1.0000
  C   C852      1.0  0.37552  0.98474  0.75882  1.0000
  H   H1495     1.0  0.36417  0.93368  0.74905  1.0000
  C   C853      1.0  0.25533  0.96235  0.83372  1.0000
  C   C854      1.0  0.03591  0.57080  0.83500  1.0000
  H   H1496     1.0  0.17115  0.49187  0.79643  1.0000
  H   H1497     1.0  0.45220  0.95485  0.82470  1.0000
  H   H1498     1.0  0.18147  0.50405  0.77141  1.0000
  H   H1499     1.0  0.17811  0.70586  0.74029  1.0000
  H   H1500     1.0  0.03365  0.56922  0.82342  1.0000
  H   H1501     1.0  0.01527  0.64252  0.87439  1.0000
  C   C855      1.0  0.98487  0.87192  0.91770  1.0000
  H   H1502     1.0  0.47967  0.95741  0.76960  1.0000
  C   C856      1.0  0.00459  0.64818  0.86581  1.0000
  C   C857      1.0  0.00212  0.63113  0.85233  1.0000
  H   H1503     1.0  0.45837  0.58178  0.75418  1.0000
  H   H1504     1.0  0.99075  0.80809  0.97884  1.0000
  C   C858      1.0  0.31272  0.92398  0.73333  1.0000
  H   H1505     1.0  0.47721  0.60521  0.85821  1.0000
  H   H1506     1.0  0.47866  0.57990  0.84650  1.0000
  H   H1507     1.0  0.99109  0.60966  0.85463  1.0000
  H   H1508     1.0  0.98999  0.63674  0.84449  1.0000
  C   C859      1.0  0.46544  0.57386  0.76334  1.0000
  H   H1509     1.0  0.98589  0.85258  0.92038  1.0000
  H   H1510     1.0  0.29736  0.97535  0.96628  1.0000
  H   H1511     1.0  0.42645  0.49883  0.78078  1.0000
  H   H1512     1.0  0.21268  0.49593  0.73714  1.0000
  H   H1513     1.0  0.44082  0.49199  0.73513  1.0000
  H   H1514     1.0  0.98428  0.64500  0.86924  1.0000
  H   H1515     1.0  0.44341  0.48818  0.76807  1.0000
  C   C860      1.0  0.40698  0.93462  0.73277  1.0000
  C   C861      1.0  0.42318  0.48700  0.77062  1.0000
  H   H1516     1.0  0.48058  0.94492  0.84303  1.0000
  H   H1517     1.0  0.58248  0.16657  0.12469  1.0000
  C   C862      1.0  0.83371  0.05375  0.00977  1.0000
  H   H1518     1.0  0.85338  0.04862  0.02908  1.0000
  C   C863      1.0  0.82221  0.08790  0.98897  1.0000
  H   H1519     1.0  0.50645  0.06824  0.21323  1.0000
  H   H1520     1.0  0.92879  0.35458  0.08246  1.0000
  Fe  Fe99      1.0  0.96341  0.20161  0.04506  1.0000
  S   S195      1.0  0.94362  0.15657  0.04780  1.0000
  S   S196      1.0  0.93989  0.22541  0.03918  1.0000
  Fe  Fe100     1.0  0.75516  0.01815  0.02893  1.0000
  S   S197      1.0  0.79336  0.02198  0.04054  1.0000
  S   S198      1.0  0.75960  0.01092  0.00538  1.0000
  Fe  Fe101     1.0  0.73056  0.02549  0.05727  1.0000
  S   S199      1.0  0.76729  0.02932  0.06993  1.0000
  S   S200      1.0  0.69550  0.03126  0.06765  1.0000
  Fe  Fe102     1.0  0.79033  0.05611  0.05311  1.0000
  S   S201      1.0  0.81857  0.09999  0.05726  1.0000
  H   H1521     1.0  0.92233  0.46460  0.17958  1.0000
  S   S202      1.0  0.75356  0.05370  0.04087  1.0000
  C   C864      1.0  0.49963  0.21091  0.12807  1.0000
  Fe  Fe103     1.0  0.84577  0.29851  0.15331  1.0000
  S   S203      1.0  0.88764  0.30664  0.16154  1.0000
  S   S204      1.0  0.81849  0.25434  0.15486  1.0000
  Fe  Fe104     1.0  0.86209  0.35768  0.14628  1.0000
  S   S205      1.0  0.90479  0.36868  0.15370  1.0000
  S   S206      1.0  0.84569  0.38841  0.13942  1.0000
  Fe  Fe105     1.0  0.90093  0.33007  0.14205  1.0000
  S   S207      1.0  0.93413  0.32482  0.12934  1.0000
  Fe  Fe106     1.0  0.88708  0.34377  0.17232  1.0000
  S   S208      1.0  0.90062  0.36320  0.19452  1.0000
  S   S209      1.0  0.85906  0.32053  0.13344  1.0000
  S   S210      1.0  0.84442  0.33420  0.16528  1.0000
  Fe  Fe107     1.0  0.65953  0.09579  0.13981  1.0000
  S   S211      1.0  0.64657  0.12270  0.12708  1.0000
  S   S212      1.0  0.68106  0.07083  0.13010  1.0000
  Fe  Fe108     1.0  0.64686  0.11813  0.16796  1.0000
  S   S213      1.0  0.63396  0.14689  0.15645  1.0000
  S   S214      1.0  0.64082  0.12232  0.19163  1.0000
  Fe  Fe109     1.0  0.61153  0.11233  0.14117  1.0000
  S   S215      1.0  0.57102  0.10640  0.13061  1.0000
  Fe  Fe110     1.0  0.66977  0.15490  0.14346  1.0000
  S   S216      1.0  0.69479  0.19675  0.13638  1.0000
  S   S217      1.0  0.62258  0.08265  0.15299  1.0000
  S   S218      1.0  0.68459  0.12896  0.15587  1.0000
  C   C865      1.0  0.78398  0.23927  0.14997  1.0000
  C   C866      1.0  0.77052  0.25375  0.14400  1.0000
  C   C867      1.0  0.74307  0.24056  0.13990  1.0000
  C   C868      1.0  0.72892  0.21304  0.14197  1.0000
  C   C869      1.0  0.74231  0.19875  0.14811  1.0000
  C   C870      1.0  0.76979  0.21175  0.15199  1.0000
  H   H1522     1.0  0.78134  0.27496  0.14238  1.0000
  H   H1523     1.0  0.73277  0.25171  0.13510  1.0000
  H   H1524     1.0  0.73160  0.17753  0.14949  1.0000
  H   H1525     1.0  0.78014  0.20044  0.15657  1.0000
  C   C871      1.0  0.69307  0.04403  0.08490  1.0000
  C   C872      1.0  0.71023  0.04456  0.09628  1.0000
  C   C873      1.0  0.70636  0.05303  0.10992  1.0000
  C   C874      1.0  0.68549  0.06138  0.11246  1.0000
  C   C875      1.0  0.66853  0.06115  0.10106  1.0000
  C   C876      1.0  0.67224  0.05243  0.08744  1.0000
  H   H1526     1.0  0.72619  0.03796  0.09462  1.0000
  H   H1527     1.0  0.71954  0.05292  0.11863  1.0000
  H   H1528     1.0  0.65207  0.06699  0.10281  1.0000
  H   H1529     1.0  0.65857  0.05182  0.07882  1.0000
  C   C877      1.0  0.90874  0.14085  0.05017  1.0000
  C   C878      1.0  0.89365  0.15598  0.05250  1.0000
  C   C879      1.0  0.86596  0.14300  0.05445  1.0000
  C   C880      1.0  0.85313  0.11485  0.05417  1.0000
  C   C881      1.0  0.86808  0.09961  0.05176  1.0000
  C   C882      1.0  0.89585  0.11262  0.04978  1.0000
  H   H1530     1.0  0.90335  0.17766  0.05284  1.0000
  H   H1531     1.0  0.85431  0.15477  0.05600  1.0000
  H   H1532     1.0  0.85838  0.07790  0.05166  1.0000
  H   H1533     1.0  0.90746  0.10080  0.04805  1.0000
  C   C883      1.0  0.94054  0.28796  0.08560  1.0000
  C   C884      1.0  0.54516  0.46178  0.14127  1.0000
  C   C885      1.0  0.95751  0.30338  0.10975  1.0000
  C   C886      1.0  0.93510  0.30912  0.11263  1.0000
  C   C887      1.0  0.91522  0.30386  0.10190  1.0000
  C   C888      1.0  0.91813  0.29373  0.08848  1.0000
  H   H1534     1.0  0.71150  0.20084  0.17322  1.0000
  H   H1535     1.0  0.89787  0.30813  0.10384  1.0000
  H   H1536     1.0  0.90294  0.29046  0.08020  1.0000
  C   C889      1.0  0.90076  0.36341  0.22344  1.0000
  C   C890      1.0  0.89421  0.34730  0.21086  1.0000
  C   C891      1.0  0.88350  0.31932  0.21167  1.0000
  H   H1537     1.0  0.90934  0.38506  0.22293  1.0000
  H   H1538     1.0  0.87860  0.30667  0.20211  1.0000
  H   H1539     1.0  0.97315  0.30749  0.11788  1.0000
  C   C892      1.0  0.67467  0.11064  0.21053  1.0000
  C   C893      1.0  0.65311  0.11813  0.20861  1.0000
  C   C894      1.0  0.64138  0.12368  0.22060  1.0000
  H   H1540     1.0  0.88498  0.38545  0.11955  1.0000
  H   H1541     1.0  0.68378  0.10600  0.20147  1.0000
  H   H1542     1.0  0.62466  0.12943  0.21929  1.0000
  C   C895      1.0  0.49284  0.09679  0.15188  1.0000
  C   C896      1.0  0.51649  0.10195  0.16007  1.0000
  C   C897      1.0  0.54061  0.10519  0.15376  1.0000
  C   C898      1.0  0.54136  0.10326  0.13911  1.0000
  C   C899      1.0  0.51785  0.09873  0.13090  1.0000
  C   C900      1.0  0.49374  0.09559  0.13723  1.0000
  H   H1543     1.0  0.51624  0.10355  0.17137  1.0000
  H   H1544     1.0  0.55855  0.10885  0.16021  1.0000
  H   H1545     1.0  0.51821  0.09718  0.11956  1.0000
  C   C901      1.0  0.52048  0.44255  0.14572  1.0000
  S   S219      1.0  0.72816  0.98895  0.04403  1.0000
  C   C902      1.0  0.84626  0.43885  0.13657  1.0000
  C   C903      1.0  0.86203  0.42406  0.13855  1.0000
  C   C904      1.0  0.89003  0.43792  0.13946  1.0000
  C   C905      1.0  0.73933  0.14291  0.18441  1.0000
  H   H1546     1.0  0.82460  0.42838  0.13578  1.0000
  H   H1547     1.0  0.90245  0.42693  0.14107  1.0000
  H   H1548     1.0  0.50059  0.48269  0.20603  1.0000
  H   H1549     1.0  0.87073  0.13530  0.02421  1.0000
  H   H1550     1.0  0.51471  0.27926  0.13501  1.0000
  H   H1551     1.0  0.72351  0.03529  0.99443  1.0000
  H   H1552     1.0  0.85289  0.36142  0.09163  1.0000
  C   C906      1.0  0.51603  0.06496  0.19183  1.0000
  H   H1553     1.0  0.67308  0.47257  0.18408  1.0000
  C   C907      1.0  0.93770  0.44291  0.10914  1.0000
  H   H1554     1.0  0.75709  0.22224  0.17887  1.0000
  H   H1555     1.0  0.87727  0.41017  0.18556  1.0000
  H   H1556     1.0  0.88085  0.21144  0.98705  1.0000
  C   C908      1.0  0.64357  0.44921  0.15391  1.0000
  H   H1557     1.0  0.94993  0.36261  0.10609  1.0000
  Fe  Fe111     1.0  0.96715  0.25716  0.05509  1.0000
  H   H1558     1.0  0.77356  0.99366  0.09157  1.0000
  H   H1559     1.0  0.87271  0.28611  0.22539  1.0000
  H   H1560     1.0  0.75083  0.08093  0.01405  1.0000
  H   H1561     1.0  0.63355  0.44342  0.17599  1.0000
  C   C909      1.0  0.78169  0.25771  0.19122  1.0000
  H   H1562     1.0  0.62785  0.47485  0.13341  1.0000
  C   C910      1.0  0.68124  0.22624  0.16705  1.0000
  N   N49       1.0  0.66885  0.47484  0.15444  1.0000
  H   H1563     1.0  0.67191  0.24096  0.16735  1.0000
  H   H1564     1.0  0.73373  0.23737  0.20526  1.0000
  C   C911      1.0  0.68663  0.21975  0.18199  1.0000
  H   H1565     1.0  0.52351  0.04934  0.19432  1.0000
  H   H1566     1.0  0.67317  0.47369  0.13188  1.0000
  H   H1567     1.0  0.86719  0.13164  0.99846  1.0000
  H   H1568     1.0  0.87315  0.40664  0.21238  1.0000
  N   N50       1.0  0.73618  0.14903  0.10238  1.0000
  C   C912      1.0  0.76044  0.17534  0.10161  1.0000
  C   C913      1.0  0.73813  0.12793  0.09223  1.0000
  C   C914      1.0  0.71175  0.15400  0.09793  1.0000
  C   C915      1.0  0.73241  0.13927  0.11715  1.0000
  C   C916      1.0  0.75575  0.13397  0.12405  1.0000
  C   C917      1.0  0.76104  0.19899  0.11133  1.0000
  C   C918      1.0  0.68502  0.12865  0.09534  1.0000
  C   C919      1.0  0.76658  0.12896  0.08978  1.0000
  C   C920      1.0  0.76508  0.10381  0.08155  1.0000
  C   C921      1.0  0.75175  0.12890  0.13968  1.0000
  C   C922      1.0  0.78694  0.22408  0.10999  1.0000
  C   C923      1.0  0.66205  0.13640  0.09082  1.0000
  H   H1569     1.0  0.76220  0.18199  0.09059  1.0000
  H   H1570     1.0  0.77933  0.17305  0.10419  1.0000
  H   H1571     1.0  0.72509  0.10736  0.09547  1.0000
  H   H1572     1.0  0.73020  0.12952  0.08152  1.0000
  H   H1573     1.0  0.71542  0.16518  0.08806  1.0000
  H   H1574     1.0  0.70767  0.16693  0.10603  1.0000
  H   H1575     1.0  0.72766  0.15326  0.12424  1.0000
  H   H1576     1.0  0.71449  0.11996  0.11737  1.0000
  H   H1577     1.0  0.77538  0.15117  0.12326  1.0000
  H   H1578     1.0  0.75640  0.11560  0.11897  1.0000
  H   H1579     1.0  0.74399  0.20448  0.10874  1.0000
  H   H1580     1.0  0.76034  0.19364  0.12245  1.0000
  H   H1581     1.0  0.67932  0.11741  0.10502  1.0000
  H   H1582     1.0  0.68647  0.11479  0.08694  1.0000
  H   H1583     1.0  0.77801  0.14654  0.08352  1.0000
  H   H1584     1.0  0.77827  0.13082  0.09973  1.0000
  H   H1585     1.0  0.78566  0.10584  0.07934  1.0000
  H   H1586     1.0  0.75560  0.08580  0.08779  1.0000
  H   H1587     1.0  0.75344  0.10082  0.07138  1.0000
  H   H1588     1.0  0.73219  0.11193  0.14123  1.0000
  H   H1589     1.0  0.76799  0.12369  0.14414  1.0000
  H   H1590     1.0  0.75247  0.14715  0.14552  1.0000
  H   H1591     1.0  0.80455  0.22026  0.11362  1.0000
  H   H1592     1.0  0.78922  0.23028  0.09894  1.0000
  H   H1593     1.0  0.78640  0.24090  0.11670  1.0000
  H   H1594     1.0  0.64301  0.11803  0.08959  1.0000
  H   H1595     1.0  0.65946  0.15028  0.09887  1.0000
  H   H1596     1.0  0.66601  0.14623  0.08060  1.0000
  N   N51       1.0  0.83076  0.09868  0.00394  1.0000
  C   C924      1.0  0.84653  0.08489  0.01103  1.0000
  C   C925      1.0  0.84838  0.12833  0.00386  1.0000
  C   C926      1.0  0.80578  0.09351  0.01197  1.0000
  H   H1597     1.0  0.51069  0.26238  0.11793  1.0000
  H   H1598     1.0  0.88410  0.48343  0.22435  1.0000
  H   H1599     1.0  0.58918  0.20184  0.12533  1.0000
  H   H1600     1.0  0.96068  0.43198  0.14525  1.0000
  H   H1601     1.0  0.64936  0.99915  0.09940  1.0000
  H   H1602     1.0  0.84573  0.47803  0.13395  1.0000
  H   H1603     1.0  0.84950  0.09052  0.02250  1.0000
  H   H1604     1.0  0.49143  0.19424  0.15245  1.0000
  C   C927      1.0  0.88385  0.38339  0.10791  1.0000
  C   C928      1.0  0.73800  0.22181  0.19920  1.0000
  H   H1605     1.0  0.81064  0.09700  0.02351  1.0000
  H   H1606     1.0  0.93719  0.48234  0.10746  1.0000
  H   H1607     1.0  0.59528  0.40959  0.16169  1.0000
  H   H1608     1.0  0.49241  0.14567  0.13012  1.0000
  C   C929      1.0  0.85098  0.04212  0.01776  1.0000
  H   H1609     1.0  0.79170  0.07192  0.01064  1.0000
  H   H1610     1.0  0.49584  0.17609  0.17615  1.0000
  H   H1611     1.0  0.73183  0.17350  0.17397  1.0000
  H   H1612     1.0  0.84015  0.14036  0.02507  1.0000
  C   C930      1.0  0.95243  0.38093  0.10037  1.0000
  H   H1613     1.0  0.50500  0.10756  0.20203  1.0000
  H   H1614     1.0  0.50234  0.21376  0.11662  1.0000
  H   H1615     1.0  0.72630  0.16914  0.20579  1.0000
  H   H1616     1.0  0.67335  0.17711  0.20472  1.0000
  H   H1617     1.0  0.52902  0.41847  0.19884  1.0000
  H   H1618     1.0  0.87899  0.45616  0.16625  1.0000
  H   H1619     1.0  0.91813  0.43547  0.11411  1.0000
  H   H1620     1.0  0.50352  0.44687  0.19638  1.0000
  H   H1621     1.0  0.53037  0.18033  0.17444  1.0000
  H   H1622     1.0  0.50982  0.42399  0.13954  1.0000
  H   H1623     1.0  0.79215  0.26824  0.18192  1.0000
  C   C931      1.0  0.69312  0.19415  0.20745  1.0000
  H   H1624     1.0  0.90220  0.37254  0.09084  1.0000
  C   C932      1.0  0.96007  0.29257  0.09643  1.0000
  H   H1625     1.0  0.84957  0.37214  0.21030  1.0000
  Fe  Fe112     1.0  0.76632  0.99431  0.05594  1.0000
  C   C933      1.0  0.70233  0.18980  0.22240  1.0000
  H   H1626     1.0  0.89424  0.41880  0.16927  1.0000
  C   C934      1.0  0.69828  0.19801  0.18220  1.0000
  H   H1627     1.0  0.69870  0.15389  0.19339  1.0000
  S   S220      1.0  0.95507  0.24790  0.00113  1.0000
  H   H1628     1.0  0.86120  0.44620  0.18170  1.0000
  C   C935      1.0  0.51421  0.23921  0.13558  1.0000
  C   C936      1.0  0.81169  0.47866  0.16561  1.0000
  H   H1629     1.0  0.73284  0.99546  0.10221  1.0000
  H   H1630     1.0  0.68883  0.21241  0.20844  1.0000
  H   H1631     1.0  0.87357  0.17609  0.98581  1.0000
  H   H1632     1.0  0.78282  0.10623  0.99642  1.0000
  H   H1633     1.0  0.82666  0.46116  0.18175  1.0000
  H   H1634     1.0  0.84108  0.01981  0.01689  1.0000
  C   C937      1.0  0.75401  0.23631  0.18648  1.0000
  H   H1635     1.0  0.81185  0.09918  0.98367  1.0000
  C   C938      1.0  0.96878  0.41005  0.12763  1.0000
  N   N52       1.0  0.71243  0.19693  0.19591  1.0000
  H   H1636     1.0  0.50602  0.05992  0.18114  1.0000
  C   C939      1.0  0.83325  0.47016  0.17157  1.0000
  C   C940      1.0  0.85819  0.46705  0.13553  1.0000
  H   H1637     1.0  0.90177  0.35455  0.10623  1.0000
  H   H1638     1.0  0.80112  0.21803  0.21530  1.0000
  H   H1639     1.0  0.81368  0.04589  0.01427  1.0000
  H   H1640     1.0  0.93020  0.41814  0.08973  1.0000
  H   H1641     1.0  0.87967  0.18315  0.02800  1.0000
  C   C941      1.0  0.73792  0.17041  0.18469  1.0000
  H   H1642     1.0  0.75297  0.11464  0.01279  1.0000
  H   H1643     1.0  0.66717  0.21228  0.18725  1.0000
  H   H1644     1.0  0.55320  0.45765  0.13167  1.0000
  C   C942      1.0  0.71791  0.17187  0.19548  1.0000
  C   C943      1.0  0.94354  0.20346  0.08935  1.0000
  C   C944      1.0  0.85263  0.39230  0.21484  1.0000
  C   C945      1.0  0.78945  0.11003  0.00770  1.0000
  H   H1645     1.0  0.72340  0.20388  0.22513  1.0000
  H   H1646     1.0  0.50428  0.14731  0.17633  1.0000
  H   H1647     1.0  0.68671  0.98841  0.08763  1.0000
  H   H1648     1.0  0.86114  0.18237  0.01190  1.0000
  C   C946      1.0  0.93903  0.39580  0.12207  1.0000
  N   N53       1.0  0.93468  0.39372  0.10628  1.0000
  H   H1649     1.0  0.51765  0.15383  0.15176  1.0000
  C   C947      1.0  0.75330  0.02092  0.98848  1.0000
  H   H1650     1.0  0.83750  0.39846  0.20979  1.0000
  H   H1651     1.0  0.71931  0.12665  0.18148  1.0000
  H   H1652     1.0  0.92732  0.40586  0.12715  1.0000
  H   H1653     1.0  0.50450  0.43634  0.21416  1.0000
  H   H1654     1.0  0.79420  0.24831  0.19622  1.0000
  H   H1655     1.0  0.69145  0.45159  0.14860  1.0000
  C   C948      1.0  0.84981  0.39108  0.23074  1.0000
  H   H1656     1.0  0.87113  0.04874  0.01330  1.0000
  H   H1657     1.0  0.80147  0.13190  0.00972  1.0000
  H   H1658     1.0  0.51511  0.47664  0.17505  1.0000
  H   H1659     1.0  0.90477  0.45650  0.19574  1.0000
  H   H1660     1.0  0.84039  0.36842  0.10791  1.0000
  H   H1661     1.0  0.74632  0.13908  0.19486  1.0000
  H   H1662     1.0  0.93100  0.37535  0.12629  1.0000
  H   H1663     1.0  0.94404  0.19251  0.09892  1.0000
  H   H1664     1.0  0.53628  0.24693  0.13480  1.0000
  C   C949      1.0  0.50505  0.25956  0.12906  1.0000
  H   H1665     1.0  0.85643  0.45799  0.20326  1.0000
  C   C950      1.0  0.90587  0.37496  0.10244  1.0000
  C   C951      1.0  0.76420  0.10255  0.01606  1.0000
  C   C952      1.0  0.87351  0.17327  0.01732  1.0000
  N   N54       1.0  0.87242  0.20195  0.09656  1.0000
  C   C953      1.0  0.86161  0.19998  0.08159  1.0000
  C   C954      1.0  0.85747  0.17545  0.10321  1.0000
  C   C955      1.0  0.86628  0.22318  0.10451  1.0000
  C   C956      1.0  0.90246  0.20984  0.09763  1.0000
  C   C957      1.0  0.91490  0.19987  0.08538  1.0000
  C   C958      1.0  0.87132  0.22685  0.07406  1.0000
  C   C959      1.0  0.87250  0.22601  0.12066  1.0000
  C   C960      1.0  0.85912  0.15014  0.09614  1.0000
  C   C961      1.0  0.84053  0.12456  0.10291  1.0000
  C   C962      1.0  0.50902  0.16706  0.17166  1.0000
  C   C963      1.0  0.86787  0.22231  0.05808  1.0000
  C   C964      1.0  0.86957  0.25063  0.12723  1.0000
  H   H1666     1.0  0.83923  0.19141  0.08116  1.0000
  H   H1667     1.0  0.86669  0.18572  0.07505  1.0000
  H   H1668     1.0  0.86512  0.17621  0.11425  1.0000
  H   H1669     1.0  0.83580  0.17159  0.10373  1.0000
  H   H1670     1.0  0.84472  0.21939  0.10275  1.0000
  H   H1671     1.0  0.87793  0.24340  0.10044  1.0000
  H   H1672     1.0  0.91364  0.23217  0.09832  1.0000
  H   H1673     1.0  0.90815  0.20308  0.10765  1.0000
  H   H1674     1.0  0.91578  0.21157  0.07593  1.0000
  H   H1675     1.0  0.90326  0.17846  0.08223  1.0000
  H   H1676     1.0  0.85967  0.23854  0.07739  1.0000
  H   H1677     1.0  0.89275  0.23921  0.07681  1.0000
  H   H1678     1.0  0.89330  0.22808  0.12316  1.0000
  H   H1679     1.0  0.85820  0.20824  0.12586  1.0000
  H   H1680     1.0  0.85311  0.14762  0.08479  1.0000
  H   H1681     1.0  0.87979  0.15119  0.09758  1.0000
  H   H1682     1.0  0.84230  0.10683  0.09768  1.0000
  H   H1683     1.0  0.84611  0.12524  0.11428  1.0000
  H   H1684     1.0  0.81928  0.12189  0.10163  1.0000
  H   H1685     1.0  0.49604  0.14408  0.20213  1.0000
  H   H1686     1.0  0.82761  0.21149  0.22416  1.0000
  Fe  Fe113     1.0  0.97088  0.24366  0.02314  1.0000
  H   H1687     1.0  0.88054  0.21207  0.05424  1.0000
  H   H1688     1.0  0.84652  0.21000  0.05480  1.0000
  H   H1689     1.0  0.87448  0.24203  0.05313  1.0000
  H   H1690     1.0  0.87346  0.25169  0.13881  1.0000
  H   H1691     1.0  0.88428  0.26940  0.12303  1.0000
  H   H1692     1.0  0.84895  0.24948  0.12520  1.0000
  C   C965      1.0  0.90271  0.45300  0.18414  1.0000
  H   H1693     1.0  0.49930  0.39104  0.20424  1.0000
  H   H1694     1.0  0.77983  0.27283  0.19873  1.0000
  H   H1695     1.0  0.80688  0.06678  0.98875  1.0000
  H   H1696     1.0  0.62549  0.45363  0.15232  1.0000
  H   H1697     1.0  0.50513  0.16254  0.10585  1.0000
  H   H1698     1.0  0.92365  0.47650  0.13861  1.0000
  C   C966      1.0  0.63802  0.43236  0.16714  1.0000
  C   C967      1.0  0.50673  0.40930  0.19798  1.0000
  H   H1699     1.0  0.95343  0.45076  0.11777  1.0000
  H   H1700     1.0  0.75845  0.18567  0.18758  1.0000
  H   H1701     1.0  0.74313  0.24653  0.18071  1.0000
  C   C968      1.0  0.88008  0.30770  0.22491  1.0000
  H   H1702     1.0  0.66729  0.20778  0.16104  1.0000
  H   H1703     1.0  0.64350  0.43597  0.14470  1.0000
  H   H1704     1.0  0.56916  0.17983  0.11075  1.0000
  H   H1705     1.0  0.75365  0.14230  0.17649  1.0000
  C   C969      1.0  0.94799  0.37255  0.08446  1.0000
  C   C970      1.0  0.82069  0.22738  0.22137  1.0000
  H   H1706     1.0  0.68111  0.17827  0.17958  1.0000
  H   H1707     1.0  0.76964  0.10679  0.02750  1.0000
  C   C971      1.0  0.90199  0.46607  0.13810  1.0000
  H   H1708     1.0  0.65512  0.42733  0.17026  1.0000
  H   H1709     1.0  0.88557  0.40249  0.10343  1.0000
  H   H1710     1.0  0.86719  0.09199  0.00711  1.0000
  C   C972      1.0  0.89623  0.42329  0.18082  1.0000
  H   H1711     1.0  0.50042  0.40340  0.18673  1.0000
  H   H1712     1.0  0.66303  0.18089  0.23089  1.0000
  C   C973      1.0  0.50920  0.44779  0.15787  1.0000
  H   H1713     1.0  0.83136  0.04603  0.99868  1.0000
  C   C974      1.0  0.68453  0.10918  0.22424  1.0000
  H   H1714     1.0  0.96227  0.40044  0.14959  1.0000
  N   N55       1.0  0.50837  0.18931  0.13283  1.0000
  H   H1715     1.0  0.83839  0.13889  0.99759  1.0000
  C   C975      1.0  0.50826  0.18945  0.14872  1.0000
  H   H1716     1.0  0.95130  0.19505  0.08063  1.0000
  C   C976      1.0  0.53626  0.19592  0.12778  1.0000
  C   C977      1.0  0.54841  0.17513  0.13038  1.0000
  H   H1717     1.0  0.91274  0.41837  0.18517  1.0000
  H   H1718     1.0  0.75187  0.21690  0.20628  1.0000
  C   C978      1.0  0.50425  0.16286  0.15572  1.0000
  H   H1719     1.0  0.70033  0.23518  0.16154  1.0000
  C   C979      1.0  0.57386  0.18138  0.12226  1.0000
  H   H1720     1.0  0.50966  0.23869  0.14688  1.0000
  H   H1721     1.0  0.60943  0.39427  0.17422  1.0000
  H   H1722     1.0  0.95681  0.22515  0.09120  1.0000
  C   C980      1.0  0.49598  0.42964  0.20331  1.0000
  H   H1723     1.0  0.52707  0.20564  0.15341  1.0000
  S   S221      1.0  0.94309  0.27564  0.06826  1.0000
  H   H1724     1.0  0.70127  0.10348  0.22558  1.0000
  C   C981      1.0  0.94171  0.42076  0.09994  1.0000
  H   H1725     1.0  0.53687  0.19968  0.11636  1.0000
  H   H1726     1.0  0.55083  0.21512  0.13293  1.0000
  H   H1727     1.0  0.53430  0.15443  0.12703  1.0000
  H   H1728     1.0  0.55440  0.17593  0.14167  1.0000
  H   H1729     1.0  0.85269  0.34236  0.10684  1.0000
  H   H1730     1.0  0.79170  0.46158  0.16570  1.0000
  C   C982      1.0  0.61335  0.40581  0.16453  1.0000
  C   C983      1.0  0.85748  0.14306  0.01854  1.0000
  H   H1731     1.0  0.61668  0.39338  0.15593  1.0000
  H   H1732     1.0  0.97891  0.39607  0.12638  1.0000
  C   C984      1.0  0.52347  0.47227  0.16565  1.0000
  H   H1733     1.0  0.70037  0.23872  0.18764  1.0000
  C   C985      1.0  0.85581  0.36255  0.10327  1.0000
  H   H1734     1.0  0.53356  0.08469  0.19189  1.0000
  H   H1735     1.0  0.95943  0.47577  0.09571  1.0000
  H   H1736     1.0  0.83375  0.45404  0.16428  1.0000
  H   H1737     1.0  0.69368  0.45983  0.16676  1.0000
  C   C986      1.0  0.88040  0.46070  0.17782  1.0000
  C   C987      1.0  0.69299  0.46803  0.15634  1.0000
  H   H1738     1.0  0.92336  0.46024  0.09210  1.0000
  C   C988      1.0  0.97314  0.25212  0.98552  1.0000
  H   H1739     1.0  0.70070  0.16890  0.22310  1.0000
  C   C989      1.0  0.93959  0.46673  0.10051  1.0000
  H   H1740     1.0  0.49453  0.11009  0.22594  1.0000
  C   C990      1.0  0.49615  0.06543  0.20269  1.0000
  H   H1741     1.0  0.89203  0.17723  0.01152  1.0000
  H   H1742     1.0  0.83567  0.24153  0.21457  1.0000
  H   H1743     1.0  0.85795  0.07999  0.98399  1.0000
  H   H1744     1.0  0.74377  0.46696  0.15525  1.0000
  H   H1745     1.0  0.81275  0.25905  0.23112  1.0000
  H   H1746     1.0  0.97749  0.28842  0.09445  1.0000
  C   C991      1.0  0.73440  0.03175  0.98584  1.0000
  H   H1747     1.0  0.94752  0.38913  0.07814  1.0000
  C   C992      1.0  0.48680  0.08846  0.20026  1.0000
  C   C993      1.0  0.88617  0.48086  0.13617  1.0000
  H   H1748     1.0  0.77325  0.98924  0.11023  1.0000
  C   C994      1.0  0.48808  0.16272  0.12654  1.0000
  H   H1749     1.0  0.48258  0.45651  0.22521  1.0000
  H   H1750     1.0  0.96319  0.42975  0.09718  1.0000
  C   C995      1.0  0.97107  0.41846  0.14324  1.0000
  H   H1751     1.0  0.96584  0.35741  0.06807  1.0000
  C   C996      1.0  0.48561  0.15977  0.11024  1.0000
  H   H1752     1.0  0.84896  0.47600  0.22612  1.0000
  H   H1753     1.0  0.48388  0.14396  0.21948  1.0000
  H   H1754     1.0  0.58412  0.48224  0.23262  1.0000
  H   H1755     1.0  0.48331  0.14795  0.15355  1.0000
  C   C997      1.0  0.97027  0.36477  0.07927  1.0000
  H   H1756     1.0  0.97156  0.34837  0.08548  1.0000
  C   C998      1.0  0.86116  0.47975  0.20460  1.0000
  H   H1757     1.0  0.48295  0.25271  0.12949  1.0000
  H   H1758     1.0  0.84333  0.48360  0.20143  1.0000
  H   H1759     1.0  0.74257  0.48327  0.17199  1.0000
  H   H1760     1.0  0.97400  0.39474  0.10211  1.0000
  H   H1761     1.0  0.81559  0.48432  0.15455  1.0000
  H   H1762     1.0  0.97997  0.42815  0.12173  1.0000
  H   H1763     1.0  0.48206  0.18120  0.20585  1.0000
  C   C999      1.0  0.55926  0.48636  0.14898  1.0000
  C   C1000     1.0  0.48168  0.48558  0.20490  1.0000
  C   C1001     1.0  0.74390  0.48557  0.16046  1.0000
  H   H1764     1.0  0.86959  0.43496  0.23252  1.0000
  H   H1765     1.0  0.82967  0.37536  0.23272  1.0000
  H   H1766     1.0  0.48093  0.08785  0.18893  1.0000
  Fe  Fe114     1.0  0.74252  0.01388  0.42647  1.0000
  S   S222      1.0  0.77527  0.00090  0.42092  1.0000
  C   C1002     1.0  0.49420  0.37050  0.34284  1.0000
  Fe  Fe115     1.0  0.74048  0.03467  0.39647  1.0000
  S   S223      1.0  0.77357  0.02310  0.38933  1.0000
  S   S224      1.0  0.71727  0.05402  0.38323  1.0000
  H   H1767     1.0  0.93070  0.47629  0.28740  1.0000
  Fe  Fe116     1.0  0.79377  0.04030  0.41053  1.0000
  S   S225      1.0  0.83845  0.06175  0.41606  1.0000
  H   H1768     1.0  0.82328  0.00037  0.44295  1.0000
  S   S226      1.0  0.76227  0.05455  0.41726  1.0000
  H   H1769     1.0  0.83685  0.26153  0.26252  1.0000
  H   H1770     1.0  0.90673  0.15832  0.43073  1.0000
  S   S227      1.0  0.94205  0.24501  0.44581  1.0000
  C   C1003     1.0  0.80932  0.29084  0.34462  1.0000
  C   C1004     1.0  0.88670  0.32381  0.23747  1.0000
  H   H1771     1.0  0.56594  0.47917  0.26339  1.0000
  Fe  Fe117     1.0  0.94523  0.20338  0.39806  1.0000
  S   S228      1.0  0.91295  0.16712  0.38638  1.0000
  S   S229      1.0  0.93120  0.23524  0.40482  1.0000
  Fe  Fe118     1.0  0.67234  0.11731  0.27540  1.0000
  S   S230      1.0  0.65745  0.14817  0.28309  1.0000
  S   S231      1.0  0.68676  0.11352  0.25326  1.0000
  Fe  Fe119     1.0  0.67437  0.09694  0.30613  1.0000
  S   S232      1.0  0.65788  0.12549  0.31513  1.0000
  S   S233      1.0  0.69396  0.07304  0.31861  1.0000
  Fe  Fe120     1.0  0.62937  0.11468  0.29583  1.0000
  S   S234      1.0  0.58316  0.09922  0.29439  1.0000
  Fe  Fe121     1.0  0.68718  0.15615  0.30160  1.0000
  S   S235      1.0  0.72033  0.19242  0.31290  1.0000
  S   S236      1.0  0.64391  0.08351  0.28763  1.0000
  S   S237      1.0  0.70385  0.12779  0.29302  1.0000
  Fe  Fe122     1.0  0.88299  0.32763  0.27548  1.0000
  S   S238      1.0  0.85962  0.35283  0.27800  1.0000
  S   S239      1.0  0.88325  0.30822  0.25387  1.0000
  Fe  Fe123     1.0  0.88949  0.32389  0.30819  1.0000
  S   S240      1.0  0.86585  0.34912  0.31246  1.0000
  S   S241      1.0  0.89730  0.29646  0.32421  1.0000
  Fe  Fe124     1.0  0.83792  0.32457  0.29448  1.0000
  S   S242      1.0  0.79257  0.30744  0.29233  1.0000
  Fe  Fe125     1.0  0.88971  0.37543  0.29551  1.0000
  S   S243      1.0  0.91038  0.42153  0.29571  1.0000
  S   S244      1.0  0.85963  0.29820  0.29117  1.0000
  S   S245      1.0  0.91512  0.35152  0.29209  1.0000
  C   C1005     1.0  0.55934  0.44314  0.25112  1.0000
  H   H1772     1.0  0.68992  0.18843  0.24391  1.0000
  H   H1773     1.0  0.57199  0.09335  0.34394  1.0000
  H   H1774     1.0  0.90216  0.36437  0.24622  1.0000
  H   H1775     1.0  0.87400  0.30154  0.38180  1.0000
  H   H1776     1.0  0.51566  0.35476  0.32930  1.0000
  C   C1006     1.0  0.95855  0.24730  0.46255  1.0000
  H   H1777     1.0  0.64175  0.12629  0.24339  1.0000
  C   C1007     1.0  0.74096  0.22183  0.30473  1.0000
  C   C1008     1.0  0.72985  0.23574  0.29638  1.0000
  C   C1009     1.0  0.74609  0.26171  0.29228  1.0000
  C   C1010     1.0  0.77361  0.27363  0.29618  1.0000
  C   C1011     1.0  0.78508  0.25894  0.30369  1.0000
  C   C1012     1.0  0.76868  0.23336  0.30821  1.0000
  H   H1778     1.0  0.70845  0.22718  0.29384  1.0000
  H   H1779     1.0  0.73710  0.27295  0.28646  1.0000
  H   H1780     1.0  0.80629  0.26789  0.30671  1.0000
  H   H1781     1.0  0.77736  0.22278  0.31475  1.0000
  C   C1013     1.0  0.55972  0.11447  0.29509  1.0000
  C   C1014     1.0  0.53411  0.10099  0.28832  1.0000
  C   C1015     1.0  0.51387  0.11077  0.28972  1.0000
  C   C1016     1.0  0.51871  0.13378  0.29830  1.0000
  C   C1017     1.0  0.54445  0.14751  0.30488  1.0000
  C   C1018     1.0  0.56487  0.13806  0.30323  1.0000
  H   H1782     1.0  0.52985  0.08270  0.28202  1.0000
  H   H1783     1.0  0.49437  0.10014  0.28441  1.0000
  H   H1784     1.0  0.54853  0.16540  0.31149  1.0000
  H   H1785     1.0  0.58433  0.14855  0.30861  1.0000
  H   H1786     1.0  0.78599  0.30190  0.24230  1.0000
  Fe  Fe126     1.0  0.96705  0.26353  0.39398  1.0000
  C   C1019     1.0  0.89686  0.44635  0.29696  1.0000
  C   C1020     1.0  0.87227  0.44130  0.30294  1.0000
  H   H1787     1.0  0.92164  0.19046  0.43940  1.0000
  H   H1788     1.0  0.86081  0.42175  0.30693  1.0000
  C   C1021     1.0  0.53107  0.40019  0.28550  1.0000
  H   H1789     1.0  0.83540  0.33280  0.34208  1.0000
  C   C1022     1.0  0.94891  0.29658  0.36401  1.0000
  C   C1023     1.0  0.92991  0.27257  0.35765  1.0000
  C   C1024     1.0  0.91486  0.27300  0.34535  1.0000
  C   C1025     1.0  0.91857  0.29732  0.33913  1.0000
  C   C1026     1.0  0.93796  0.32130  0.34533  1.0000
  C   C1027     1.0  0.95290  0.32089  0.35768  1.0000
  H   H1790     1.0  0.50942  0.37608  0.35173  1.0000
  C   C1028     1.0  0.52568  0.47215  0.29236  1.0000
  H   H1791     1.0  0.94131  0.34018  0.34069  1.0000
  S   S246      1.0  0.96770  0.29750  0.37993  1.0000
  C   C1029     1.0  0.85869  0.09115  0.40777  1.0000
  C   C1030     1.0  0.84876  0.10038  0.39633  1.0000
  C   C1031     1.0  0.86568  0.12363  0.38979  1.0000
  C   C1032     1.0  0.89238  0.13809  0.39486  1.0000
  C   C1033     1.0  0.90224  0.12890  0.40635  1.0000
  C   C1034     1.0  0.88547  0.10541  0.41273  1.0000
  H   H1792     1.0  0.82818  0.08946  0.39241  1.0000
  H   H1793     1.0  0.85803  0.13056  0.38084  1.0000
  H   H1794     1.0  0.92293  0.13967  0.41012  1.0000
  H   H1795     1.0  0.89331  0.09823  0.42151  1.0000
  C   C1035     1.0  0.71177  0.05985  0.36520  1.0000
  C   C1036     1.0  0.72566  0.05439  0.35424  1.0000
  C   C1037     1.0  0.71987  0.05848  0.34014  1.0000
  C   C1038     1.0  0.70052  0.06863  0.33671  1.0000
  C   C1039     1.0  0.68710  0.07475  0.34770  1.0000
  C   C1040     1.0  0.69272  0.07041  0.36179  1.0000
  H   H1796     1.0  0.74114  0.04740  0.35665  1.0000
  H   H1797     1.0  0.73064  0.05392  0.33180  1.0000
  H   H1798     1.0  0.67204  0.08237  0.34531  1.0000
  H   H1799     1.0  0.68195  0.07501  0.37012  1.0000
  C   C1041     1.0  0.94577  0.24986  0.47481  1.0000
  H   H1800     1.0  0.83175  0.30864  0.37589  1.0000
  C   C1042     1.0  0.86301  0.19451  0.46202  1.0000
  H   H1801     1.0  0.92637  0.25082  0.47384  1.0000
  N   N56       1.0  0.48227  0.07422  0.32781  1.0000
  C   C1043     1.0  0.74447  0.04349  0.46755  1.0000
  C   C1044     1.0  0.73408  0.01557  0.46500  1.0000
  H   H1802     1.0  0.65569  0.02320  0.37453  1.0000
  H   H1803     1.0  0.72643  0.18654  0.28002  1.0000
  H   H1804     1.0  0.93580  0.44004  0.26821  1.0000
  N   N57       1.0  0.54281  0.40062  0.31234  1.0000
  C   C1045     1.0  0.52911  0.39816  0.32610  1.0000
  C   C1046     1.0  0.86271  0.46178  0.30406  1.0000
  C   C1047     1.0  0.52131  0.39333  0.30062  1.0000
  C   C1048     1.0  0.55619  0.38131  0.31089  1.0000
  H   H1805     1.0  0.70469  0.17323  0.26453  1.0000
  C   C1049     1.0  0.50707  0.37004  0.32886  1.0000
  C   C1050     1.0  0.88714  0.36719  0.35217  1.0000
  H   H1806     1.0  0.48463  0.38507  0.34275  1.0000
  C   C1051     1.0  0.87117  0.17325  0.41798  1.0000
  N   N58       1.0  0.79466  0.23510  0.25843  1.0000
  H   H1807     1.0  0.78157  0.30718  0.26079  1.0000
  H   H1808     1.0  0.52304  0.07608  0.34745  1.0000
  H   H1809     1.0  0.51976  0.41292  0.32677  1.0000
  H   H1810     1.0  0.54368  0.40378  0.33524  1.0000
  H   H1811     1.0  0.81287  0.33842  0.38907  1.0000
  H   H1812     1.0  0.81910  0.29369  0.26704  1.0000
  H   H1813     1.0  0.50751  0.40336  0.30277  1.0000
  H   H1814     1.0  0.50860  0.37134  0.30016  1.0000
  H   H1815     1.0  0.79882  0.20469  0.24470  1.0000
  H   H1816     1.0  0.83743  0.18185  0.41045  1.0000
  C   C1052     1.0  0.60142  0.47179  0.32071  1.0000
  H   H1817     1.0  0.78813  0.38284  0.27690  1.0000
  C   C1053     1.0  0.68452  0.19393  0.23352  1.0000
  H   H1818     1.0  0.87255  0.36814  0.34410  1.0000
  C   C1054     1.0  0.50728  0.39071  0.27472  1.0000
  H   H1819     1.0  0.87422  0.25216  0.27197  1.0000
  C   C1055     1.0  0.56265  0.42936  0.31078  1.0000
  H   H1820     1.0  0.84357  0.36840  0.38789  1.0000
  H   H1821     1.0  0.84730  0.30970  0.33500  1.0000
  H   H1822     1.0  0.65995  0.00923  0.39094  1.0000
  H   H1823     1.0  0.85993  0.18099  0.39712  1.0000
  H   H1824     1.0  0.81039  0.27161  0.34113  1.0000
  H   H1825     1.0  0.83445  0.42118  0.23394  1.0000
  C   C1056     1.0  0.92148  0.15759  0.45173  1.0000
  H   H1826     1.0  0.91820  0.37569  0.33687  1.0000
  S   S247      1.0  0.98030  0.23155  0.38639  1.0000
  C   C1057     1.0  0.81823  0.24264  0.23464  1.0000
  H   H1827     1.0  0.56648  0.09710  0.32555  1.0000
  C   C1058     1.0  0.80634  0.38047  0.28094  1.0000
  N   N59       1.0  0.76168  0.14847  0.34152  1.0000
  C   C1059     1.0  0.76724  0.13609  0.32822  1.0000
  C   C1060     1.0  0.76380  0.13311  0.35415  1.0000
  C   C1061     1.0  0.73302  0.14598  0.33999  1.0000
  C   C1062     1.0  0.77975  0.17799  0.34359  1.0000
  C   C1063     1.0  0.81037  0.18552  0.34411  1.0000
  C   C1064     1.0  0.76741  0.15092  0.31457  1.0000
  C   C1065     1.0  0.72118  0.15314  0.35338  1.0000
  C   C1066     1.0  0.78550  0.12141  0.35426  1.0000
  C   C1067     1.0  0.78940  0.11206  0.36881  1.0000
  C   C1068     1.0  0.82614  0.21592  0.34342  1.0000
  C   C1069     1.0  0.77139  0.13553  0.30175  1.0000
  C   C1070     1.0  0.69273  0.15106  0.35020  1.0000
  H   H1828     1.0  0.75222  0.11484  0.32657  1.0000
  H   H1829     1.0  0.78698  0.13478  0.32900  1.0000
  H   H1830     1.0  0.76670  0.14575  0.36401  1.0000
  H   H1831     1.0  0.74457  0.11522  0.35520  1.0000
  H   H1832     1.0  0.71927  0.12519  0.33628  1.0000
  H   H1833     1.0  0.73101  0.15908  0.33177  1.0000
  H   H1834     1.0  0.77497  0.18956  0.33528  1.0000
  H   H1835     1.0  0.77577  0.18638  0.35362  1.0000
  H   H1836     1.0  0.81639  0.17582  0.33525  1.0000
  H   H1837     1.0  0.81656  0.17955  0.35419  1.0000
  H   H1838     1.0  0.74832  0.15310  0.31267  1.0000
  H   H1839     1.0  0.78399  0.17131  0.31515  1.0000
  H   H1840     1.0  0.73343  0.17400  0.35744  1.0000
  H   H1841     1.0  0.72001  0.13923  0.36185  1.0000
  H   H1842     1.0  0.77902  0.10365  0.34673  1.0000
  H   H1843     1.0  0.80527  0.13606  0.35119  1.0000
  H   H1844     1.0  0.80397  0.10254  0.36838  1.0000
  H   H1845     1.0  0.79742  0.12939  0.37661  1.0000
  H   H1846     1.0  0.77010  0.09704  0.37237  1.0000
  H   H1847     1.0  0.82141  0.22670  0.35231  1.0000
  H   H1848     1.0  0.84804  0.22088  0.34406  1.0000
  H   H1849     1.0  0.82132  0.22307  0.33333  1.0000
  H   H1850     1.0  0.79099  0.13384  0.30277  1.0000
  H   H1851     1.0  0.75492  0.11504  0.30056  1.0000
  H   H1852     1.0  0.77102  0.14634  0.29211  1.0000
  H   H1853     1.0  0.69278  0.16519  0.34202  1.0000
  H   H1854     1.0  0.67924  0.13026  0.34646  1.0000
  H   H1855     1.0  0.68465  0.15625  0.35988  1.0000
  H   H1856     1.0  0.62673  0.00240  0.38371  1.0000
  H   H1857     1.0  0.74831  0.05647  0.45879  1.0000
  H   H1858     1.0  0.88433  0.04034  0.40450  1.0000
  H   H1859     1.0  0.55402  0.06398  0.33254  1.0000
  H   H1860     1.0  0.87663  0.46485  0.25212  1.0000
  H   H1861     1.0  0.87005  0.20952  0.40946  1.0000
  H   H1862     1.0  0.77030  0.27709  0.33345  1.0000
  C   C1071     1.0  0.83272  0.22265  0.26866  1.0000
  H   H1863     1.0  0.52668  0.47227  0.28104  1.0000
  C   C1072     1.0  0.57806  0.44579  0.32430  1.0000
  H   H1864     1.0  0.82106  0.09030  0.45154  1.0000
  H   H1865     1.0  0.49016  0.44347  0.24905  1.0000
  C   C1073     1.0  0.84293  0.99609  0.39188  1.0000
  H   H1866     1.0  0.92790  0.40872  0.25826  1.0000
  C   C1074     1.0  0.87218  0.18306  0.43353  1.0000
  H   H1867     1.0  0.56422  0.45142  0.33069  1.0000
  H   H1868     1.0  0.86238  0.33743  0.37816  1.0000
  C   C1075     1.0  0.87662  0.29110  0.37215  1.0000
  H   H1869     1.0  0.82508  0.98996  0.36323  1.0000
  H   H1870     1.0  0.57006  0.34149  0.32230  1.0000
  C   C1076     1.0  0.79627  0.22390  0.24395  1.0000
  H   H1871     1.0  0.53620  0.10923  0.34049  1.0000
  C   C1077     1.0  0.82085  0.24399  0.26699  1.0000
  S   S248      1.0  0.72467  0.00014  0.44775  1.0000
  H   H1872     1.0  0.91040  0.13545  0.45196  1.0000
  H   H1873     1.0  0.92662  0.25367  0.36228  1.0000
  C   C1078     1.0  0.72569  0.18009  0.26879  1.0000
  C   C1079     1.0  0.53112  0.08759  0.33802  1.0000
  C   C1080     1.0  0.88360  0.33798  0.35455  1.0000
  H   H1874     1.0  0.81541  0.09473  0.43316  1.0000
  C   C1081     1.0  0.55744  0.08529  0.33478  1.0000
  H   H1875     1.0  0.55209  0.44148  0.30655  1.0000
  C   C1082     1.0  0.51057  0.07710  0.32528  1.0000
  H   H1876     1.0  0.80137  0.28836  0.35531  1.0000
  H   H1877     1.0  0.51908  0.09095  0.31665  1.0000
  N   N60       1.0  0.88029  0.16776  0.44438  1.0000
  H   H1878     1.0  0.90010  0.25428  0.34067  1.0000
  Fe  Fe127     1.0  0.95830  0.24122  0.42423  1.0000
  H   H1879     1.0  0.80684  0.38164  0.29262  1.0000
  H   H1880     1.0  0.88719  0.26299  0.38390  1.0000
  H   H1881     1.0  0.88491  0.37687  0.36221  1.0000
  H   H1882     1.0  0.54090  0.36015  0.31050  1.0000
  C   C1083     1.0  0.91157  0.47208  0.29198  1.0000
  C   C1084     1.0  0.50366  0.45202  0.29845  1.0000
  H   H1883     1.0  0.81227  0.36720  0.38048  1.0000
  C   C1085     1.0  0.50197  0.45158  0.31308  1.0000
  C   C1086     1.0  0.84536  0.32651  0.37040  1.0000
  H   H1884     1.0  0.79289  0.09750  0.44594  1.0000
  H   H1885     1.0  0.78456  0.31232  0.33891  1.0000
  C   C1087     1.0  0.72872  0.99903  0.47657  1.0000
  H   H1886     1.0  0.80950  0.33225  0.36289  1.0000
  H   H1887     1.0  0.48682  0.12114  0.25078  1.0000
  C   C1088     1.0  0.74427  0.20320  0.26040  1.0000
  H   H1888     1.0  0.49578  0.36859  0.27479  1.0000
  H   H1889     1.0  0.73712  0.21959  0.26116  1.0000
  C   C1089     1.0  0.86365  0.20172  0.47770  1.0000
  H   H1890     1.0  0.56775  0.43616  0.24211  1.0000
  H   H1891     1.0  0.77493  0.25933  0.26708  1.0000
  C   C1090     1.0  0.85740  0.29127  0.35979  1.0000
  C   C1091     1.0  0.77381  0.21293  0.26616  1.0000
  H   H1892     1.0  0.49062  0.36344  0.32063  1.0000
  H   H1893     1.0  0.82332  0.14220  0.43860  1.0000
  H   H1894     1.0  0.81828  0.25110  0.27772  1.0000
  H   H1895     1.0  0.68720  0.21526  0.23430  1.0000
  H   H1896     1.0  0.83107  0.38022  0.25672  1.0000
  H   H1897     1.0  0.84384  0.45771  0.30891  1.0000
  C   C1092     1.0  0.85884  0.18735  0.40821  1.0000
  C   C1093     1.0  0.52250  0.47165  0.32148  1.0000
  S   S249      1.0  0.96983  0.20721  0.41811  1.0000
  C   C1094     1.0  0.95023  0.16328  0.44789  1.0000
  H   H1898     1.0  0.83646  0.21543  0.25826  1.0000
  C   C1095     1.0  0.91713  0.04181  0.41779  1.0000
  H   H1899     1.0  0.85022  0.21222  0.47953  1.0000
  H   H1900     1.0  0.82873  0.13794  0.45709  1.0000
  C   C1096     1.0  0.57821  0.38419  0.32223  1.0000
  H   H1901     1.0  0.85900  0.15133  0.41644  1.0000
  H   H1902     1.0  0.54204  0.42221  0.28460  1.0000
  C   C1097     1.0  0.74948  0.99882  0.34875  1.0000
  C   C1098     1.0  0.87846  0.99857  0.40873  1.0000
  C   C1099     1.0  0.82937  0.34424  0.36824  1.0000
  H   H1903     1.0  0.55398  0.48374  0.23792  1.0000
  H   H1904     1.0  0.89784  0.30121  0.36925  1.0000
  H   H1905     1.0  0.56598  0.38348  0.30067  1.0000
  S   S250      1.0  0.71813  0.99490  0.40634  1.0000
  H   H1906     1.0  0.61102  0.48396  0.33051  1.0000
  H   H1907     1.0  0.95049  0.15488  0.43713  1.0000
  H   H1908     1.0  0.90543  0.42491  0.23933  1.0000
  C   C1100     1.0  0.93156  0.43023  0.25747  1.0000
  H   H1909     1.0  0.85679  0.24078  0.28798  1.0000
  H   H1910     1.0  0.92290  0.06340  0.42079  1.0000
  N   N61       1.0  0.85669  0.42162  0.25326  1.0000
  C   C1101     1.0  0.83241  0.40075  0.25952  1.0000
  H   H1911     1.0  0.81753  0.01564  0.37231  1.0000
  C   C1102     1.0  0.88133  0.41750  0.25813  1.0000
  C   C1103     1.0  0.86046  0.44974  0.25797  1.0000
  C   C1104     1.0  0.83535  0.45633  0.25631  1.0000
  C   C1105     1.0  0.83171  0.40262  0.27579  1.0000
  C   C1106     1.0  0.90735  0.43300  0.25035  1.0000
  H   H1912     1.0  0.57111  0.38410  0.33301  1.0000
  H   H1913     1.0  0.88649  0.20468  0.43437  1.0000
  H   H1914     1.0  0.91184  0.45474  0.25023  1.0000
  H   H1915     1.0  0.81359  0.40123  0.25493  1.0000
  H   H1916     1.0  0.76887  0.01326  0.35376  1.0000
  H   H1917     1.0  0.83285  0.00523  0.41791  1.0000
  H   H1918     1.0  0.87760  0.39583  0.25752  1.0000
  H   H1919     1.0  0.88608  0.42357  0.26945  1.0000
  H   H1920     1.0  0.86770  0.45415  0.26922  1.0000
  H   H1921     1.0  0.90300  0.19748  0.46091  1.0000
  H   H1922     1.0  0.81928  0.44409  0.26317  1.0000
  H   H1923     1.0  0.58628  0.43448  0.33102  1.0000
  H   H1924     1.0  0.84921  0.40035  0.28080  1.0000
  H   H1925     1.0  0.83205  0.42215  0.27967  1.0000
  H   H1926     1.0  0.92958  0.04052  0.40900  1.0000
  H   H1927     1.0  0.91756  0.40499  0.34587  1.0000
  H   H1928     1.0  0.74191  0.19558  0.24930  1.0000
  H   H1929     1.0  0.86743  0.12798  0.45245  1.0000
  C   C1107     1.0  0.80807  0.28691  0.25667  1.0000
  H   H1930     1.0  0.73148  0.16276  0.26802  1.0000
  C   C1108     1.0  0.67280  0.11479  0.23624  1.0000
  H   H1931     1.0  0.89090  0.33082  0.34517  1.0000
  H   H1932     1.0  0.77831  0.19474  0.26611  1.0000
  H   H1933     1.0  0.81913  0.20522  0.27433  1.0000
  H   H1934     1.0  0.87375  0.25087  0.36633  1.0000
  H   H1935     1.0  0.85163  0.25189  0.37992  1.0000
  C   C1109     1.0  0.78925  0.29555  0.33469  1.0000
  C   C1110     1.0  0.86132  0.13840  0.44407  1.0000
  H   H1936     1.0  0.86805  0.21914  0.27787  1.0000
  C   C1111     1.0  0.57524  0.47323  0.25443  1.0000
  H   H1937     1.0  0.86911  0.21349  0.45636  1.0000
  H   H1938     1.0  0.79761  0.30070  0.32417  1.0000
  C   C1112     1.0  0.81424  0.10179  0.44409  1.0000
  N   N62       1.0  0.85570  0.31789  0.35741  1.0000
  H   H1939     1.0  0.61682  0.46726  0.31514  1.0000
  H   H1940     1.0  0.96268  0.18532  0.44838  1.0000
  H   H1941     1.0  0.85224  0.18299  0.43549  1.0000
  H   H1942     1.0  0.83725  0.27568  0.36190  1.0000
  H   H1943     1.0  0.86370  0.28381  0.35008  1.0000
  H   H1944     1.0  0.84960  0.12609  0.48110  1.0000
  H   H1945     1.0  0.68163  0.99980  0.36134  1.0000
  H   H1946     1.0  0.51455  0.39572  0.26399  1.0000
  H   H1947     1.0  0.51057  0.05746  0.32167  1.0000
  C   C1113     1.0  0.87188  0.26241  0.37576  1.0000
  H   H1948     1.0  0.77702  0.21838  0.23777  1.0000
  H   H1949     1.0  0.77429  0.21936  0.27746  1.0000
  C   C1114     1.0  0.64738  0.00535  0.38103  1.0000
  H   H1950     1.0  0.85759  0.99791  0.38363  1.0000
  C   C1115     1.0  0.88260  0.18096  0.45891  1.0000
  H   H1951     1.0  0.87596  0.03115  0.42230  1.0000
  H   H1952     1.0  0.86270  0.12791  0.43410  1.0000
  H   H1953     1.0  0.88432  0.21536  0.48153  1.0000
  C   C1116     1.0  0.85957  0.23449  0.27714  1.0000
  C   C1117     1.0  0.83773  0.31404  0.34441  1.0000
  H   H1954     1.0  0.89808  0.33975  0.36339  1.0000
  H   H1955     1.0  0.93092  0.38418  0.35496  1.0000
  H   H1956     1.0  0.49625  0.11723  0.32653  1.0000
  H   H1957     1.0  0.80505  0.36029  0.27746  1.0000
  C   C1118     1.0  0.91520  0.38396  0.34719  1.0000
  C   C1119     1.0  0.58713  0.36101  0.32071  1.0000
  H   H1958     1.0  0.49535  0.10643  0.34399  1.0000
  H   H1959     1.0  0.49356  0.40069  0.27702  1.0000
  C   C1120     1.0  0.79617  0.30703  0.25294  1.0000
  H   H1960     1.0  0.84517  0.01692  0.39470  1.0000
  C   C1121     1.0  0.82426  0.35517  0.38232  1.0000
  H   H1961     1.0  0.94959  0.44011  0.25126  1.0000
  H   H1962     1.0  0.68900  0.99248  0.37848  1.0000
  H   H1963     1.0  0.83992  0.36156  0.36176  1.0000
  C   C1122     1.0  0.48427  0.10117  0.33358  1.0000
  H   H1964     1.0  0.56064  0.43188  0.26041  1.0000
  H   H1965     1.0  0.74244  0.00958  0.34095  1.0000
  H   H1966     1.0  0.57757  0.43005  0.30288  1.0000
  H   H1967     1.0  0.59500  0.36037  0.31014  1.0000
  C   C1123     1.0  0.83137  0.13199  0.44619  1.0000
  H   H1968     1.0  0.92259  0.16658  0.46245  1.0000
  C   C1124     1.0  0.88729  0.02874  0.41326  1.0000
  H   H1969     1.0  0.54448  0.39033  0.28246  1.0000
  H   H1970     1.0  0.88475  0.98939  0.41758  1.0000
  H   H1971     1.0  0.89182  0.17797  0.41459  1.0000
  H   H1972     1.0  0.59593  0.47622  0.25788  1.0000
  H   H1973     1.0  0.95932  0.15385  0.45542  1.0000
  S   S251      1.0  0.49311  0.14540  0.30189  1.0000
  C   C1125     1.0  0.90772  0.16926  0.44090  1.0000
  H   H1974     1.0  0.77104  0.25422  0.24852  1.0000
  C   C1126     1.0  0.74840  0.05453  0.48151  1.0000
  C   C1127     1.0  0.85286  0.41862  0.23744  1.0000
  C   C1128     1.0  0.78581  0.25806  0.25755  1.0000
  H   H1975     1.0  0.88062  0.16629  0.46712  1.0000
  H   H1976     1.0  0.84199  0.18159  0.45862  1.0000
  H   H1977     1.0  0.59621  0.40305  0.32094  1.0000
  C   C1129     1.0  0.65104  0.12194  0.23431  1.0000
  H   H1978     1.0  0.52136  0.47163  0.33280  1.0000
  H   H1979     1.0  0.82685  0.45243  0.24536  1.0000
  C   C1130     1.0  0.84240  0.48588  0.26039  1.0000
  H   H1980     1.0  0.48789  0.43696  0.29184  1.0000
  H   H1981     1.0  0.60334  0.36384  0.32877  1.0000
  H   H1982     1.0  0.96760  0.33960  0.36241  1.0000
  H   H1983     1.0  0.53786  0.43865  0.24861  1.0000
  H   H1984     1.0  0.92134  0.03190  0.42701  1.0000
  H   H1985     1.0  0.50144  0.31569  0.27963  1.0000
  H   H1986     1.0  0.81254  0.32751  0.25296  1.0000
  H   H1987     1.0  0.86505  0.38447  0.23509  1.0000
  H   H1988     1.0  0.72748  0.00484  0.36590  1.0000
  H   H1989     1.0  0.82297  0.28809  0.24883  1.0000
  H   H1990     1.0  0.83826  0.25141  0.24022  1.0000
  H   H1991     1.0  0.89093  0.99750  0.39986  1.0000
  C   C1131     1.0  0.89671  0.35176  0.23666  1.0000
  H   H1992     1.0  0.48836  0.05009  0.30040  1.0000
  C   C1132     1.0  0.81188  0.99365  0.37092  1.0000
  H   H1993     1.0  0.59426  0.48403  0.31395  1.0000
  C   C1133     1.0  0.72895  0.98767  0.36001  1.0000
  Fe  Fe128     1.0  0.79082  0.04452  0.55553  1.0000
  S   S252      1.0  0.75491  0.05460  0.55201  1.0000
  S   S253      1.0  0.83232  0.07353  0.56479  1.0000
  C   C1134     1.0  0.91173  0.12944  0.52200  1.0000
  C   C1135     1.0  0.91024  0.17261  0.51735  1.0000
  Fe  Fe129     1.0  0.75098  0.03340  0.53068  1.0000
  S   S254      1.0  0.74544  0.05240  0.51039  1.0000
  Fe  Fe130     1.0  0.73002  0.01385  0.56060  1.0000
  H   H1994     1.0  0.82533  0.10318  0.49214  1.0000
  S   S255      1.0  0.78761  0.02494  0.53396  1.0000
  S   S256      1.0  0.76628  0.00497  0.56551  1.0000
  Fe  Fe131     1.0  0.95086  0.22371  0.55208  1.0000
  S   S257      1.0  0.96080  0.26407  0.54240  1.0000
  S   S258      1.0  0.90572  0.19588  0.55125  1.0000
  H   H1995     1.0  0.70897  0.10211  0.54478  1.0000
  C   C1136     1.0  0.94872  0.16832  0.49066  1.0000
  C   C1137     1.0  0.89506  0.13520  0.49883  1.0000
  H   H1996     1.0  0.91346  0.22412  0.52431  1.0000
  C   C1138     1.0  0.65569  0.98769  0.52391  1.0000
  C   C1139     1.0  0.68128  0.06328  0.53572  1.0000
  H   H1997     1.0  0.76273  0.01056  0.59716  1.0000
  H   H1998     1.0  0.60259  0.00079  0.51034  1.0000
  H   H1999     1.0  0.87986  0.20342  0.51735  1.0000
  C   C1140     1.0  0.97878  0.18122  0.48813  1.0000
  H   H2000     1.0  0.97105  0.35656  0.60345  1.0000
  C   C1141     1.0  0.74288  0.03791  0.49306  1.0000
  H   H2001     1.0  0.89955  0.18708  0.49761  1.0000
  H   H2002     1.0  0.66597  0.98982  0.50145  1.0000
  H   H2003     1.0  0.60952  0.01970  0.56092  1.0000
  H   H2004     1.0  0.89193  0.12366  0.52685  1.0000
  C   C1142     1.0  0.85268  0.10727  0.56048  1.0000
  C   C1143     1.0  0.84367  0.12142  0.55108  1.0000
  C   C1144     1.0  0.86022  0.14837  0.54837  1.0000
  C   C1145     1.0  0.88622  0.16147  0.55476  1.0000
  C   C1146     1.0  0.89543  0.14718  0.56396  1.0000
  C   C1147     1.0  0.87867  0.12039  0.56688  1.0000
  H   H2005     1.0  0.82371  0.11177  0.54613  1.0000
  H   H2006     1.0  0.85267  0.15924  0.54137  1.0000
  H   H2007     1.0  0.91521  0.15693  0.56908  1.0000
  H   H2008     1.0  0.88588  0.10977  0.57421  1.0000
  H   H2009     1.0  0.93285  0.20715  0.50521  1.0000
  C   C1148     1.0  0.64640  0.02380  0.51249  1.0000
  H   H2010     1.0  0.86009  0.10882  0.51031  1.0000
  C   C1149     1.0  0.96017  0.41591  0.61443  1.0000
  C   C1150     1.0  0.61698  0.01447  0.49010  1.0000
  H   H2011     1.0  0.94851  0.25480  0.49756  1.0000
  C   C1151     1.0  0.68033  0.03496  0.53185  1.0000
  C   C1152     1.0  0.84670  0.11119  0.48927  1.0000
  H   H2012     1.0  0.78272  0.99085  0.59749  1.0000
  H   H2013     1.0  0.64313  0.04247  0.51445  1.0000
  N   N63       1.0  0.91516  0.14954  0.51081  1.0000
  H   H2014     1.0  0.97099  0.36810  0.65105  1.0000
  H   H2015     1.0  0.71169  0.01380  0.60104  1.0000
  H   H2016     1.0  0.72500  0.08331  0.53587  1.0000
  H   H2017     1.0  0.66425  0.99204  0.71994  1.0000
  C   C1153     1.0  0.91161  0.19514  0.50755  1.0000
  H   H2018     1.0  0.85657  0.18328  0.48383  1.0000
  C   C1154     1.0  0.70836  0.08167  0.54276  1.0000
  H   H2019     1.0  0.94026  0.18308  0.48812  1.0000
  C   C1155     1.0  0.67574  0.98920  0.58881  1.0000
  S   S259      1.0  0.72328  0.99421  0.53880  1.0000
  H   H2020     1.0  0.69066  0.00238  0.62413  1.0000
  C   C1156     1.0  0.92945  0.11559  0.54398  1.0000
  H   H2021     1.0  0.91017  0.41254  0.60440  1.0000
  H   H2022     1.0  0.92255  0.44055  0.59314  1.0000
  C   C1157     1.0  0.62060  0.00377  0.50431  1.0000
  H   H2023     1.0  0.62649  0.02858  0.53648  1.0000
  C   C1158     1.0  0.69082  0.00005  0.60140  1.0000
  C   C1159     1.0  0.96791  0.37162  0.59686  1.0000
  H   H2024     1.0  0.68762  0.02757  0.54119  1.0000
  H   H2025     1.0  0.93063  0.15493  0.54109  1.0000
  H   H2026     1.0  0.90846  0.10594  0.54734  1.0000
  C   C1160     1.0  0.63169  0.01081  0.53623  1.0000
  C   C1161     1.0  0.96920  0.36359  0.58147  1.0000
  H   H2027     1.0  0.85958  0.14078  0.50635  1.0000
  H   H2028     1.0  0.95019  0.41455  0.59172  1.0000
  C   C1162     1.0  0.63776  0.00548  0.55159  1.0000
  H   H2029     1.0  0.96852  0.41033  0.64291  1.0000
  H   H2030     1.0  0.89070  0.16516  0.52253  1.0000
  H   H2031     1.0  0.72953  0.99711  0.49924  1.0000
  N   N64       1.0  0.65352  0.01432  0.52611  1.0000
  H   H2032     1.0  0.59823  0.00003  0.48451  1.0000
  H   H2033     1.0  0.71134  0.07383  0.55301  1.0000
  C   C1163     1.0  0.93292  0.13885  0.53455  1.0000
  H   H2034     1.0  0.96322  0.37626  0.57441  1.0000
  H   H2035     1.0  0.96920  0.37570  0.62522  1.0000
  H   H2036     1.0  0.61277  0.99360  0.53254  1.0000
  H   H2037     1.0  0.95383  0.14671  0.53107  1.0000
  H   H2038     1.0  0.66356  0.02974  0.50539  1.0000
  H   H2039     1.0  0.91181  0.11052  0.51720  1.0000
  H   H2040     1.0  0.93451  0.10022  0.53834  1.0000
  C   C1164     1.0  0.94363  0.15903  0.50594  1.0000
  H   H2041     1.0  0.94313  0.39624  0.61587  1.0000
  H   H2042     1.0  0.89899  0.11790  0.49455  1.0000
  H   H2043     1.0  0.65545  0.02263  0.55645  1.0000
  H   H2044     1.0  0.90227  0.23033  0.50737  1.0000
  H   H2045     1.0  0.95757  0.17577  0.51313  1.0000
  H   H2046     1.0  0.63415  0.01690  0.48344  1.0000
  H   H2047     1.0  0.69434  0.00048  0.51366  1.0000
  H   H2048     1.0  0.95087  0.14264  0.50659  1.0000
  H   H2049     1.0  0.95532  0.34220  0.57923  1.0000
  H   H2050     1.0  0.66561  0.06231  0.54309  1.0000
  H   H2051     1.0  0.92534  0.18277  0.52604  1.0000
  H   H2052     1.0  0.67852  0.07307  0.52612  1.0000
  H   H2053     1.0  0.69590  0.03808  0.52404  1.0000
  H   H2054     1.0  0.94304  0.12327  0.55354  1.0000
  C   C1165     1.0  0.92721  0.43206  0.60280  1.0000
  C   C1166     1.0  0.86494  0.12432  0.50234  1.0000
  C   C1167     1.0  0.90111  0.21435  0.51459  1.0000
  H   H2055     1.0  0.94737  0.37033  0.59837  1.0000
  H   H2056     1.0  0.61924  0.99834  0.57173  1.0000
  H   H2057     1.0  0.75540  0.07605  0.48335  1.0000
  C   C1168     1.0  0.95320  0.42809  0.60117  1.0000
  H   H2058     1.0  0.89738  0.14835  0.48990  1.0000
  H   H2059     1.0  0.95987  0.42891  0.62364  1.0000
  H   H2060     1.0  0.92935  0.44627  0.61187  1.0000
  H   H2061     1.0  0.77701  0.00572  0.61356  1.0000
  H   H2062     1.0  0.96938  0.44794  0.59926  1.0000
  S   S260      1.0  0.97863  0.21326  0.53851  1.0000
  H   H2063     1.0  0.64171  0.98707  0.55199  1.0000
  C   C1169     1.0  0.76777  0.99594  0.60318  1.0000
  C   C1170     1.0  0.73366  0.01012  0.49049  1.0000
  S   S261      1.0  0.68952  0.99691  0.57175  1.0000
  H   H2064     1.0  0.61553  0.03415  0.49155  1.0000
  C   C1171     1.0  0.61407  0.00157  0.56077  1.0000
  C   C1172     1.0  0.67875  0.99353  0.61454  1.0000
  C   C1173     1.0  0.95826  0.25207  0.48829  1.0000
  Fe  Fe132     1.0  0.76009  0.98687  0.54350  1.0000
  H   H2065     1.0  0.93945  0.15066  0.48312  1.0000
  H   H2066     1.0  0.85083  0.09417  0.48488  1.0000
  H   H2067     1.0  0.65689  0.98726  0.69705  1.0000
  C   C1174     1.0  0.95075  0.32059  0.90256  1.0000
  C   C1175     1.0  0.76719  0.01653  0.97714  1.0000
  Fe  Fe133     1.0  0.79671  0.04207  0.90360  1.0000
  S   S262      1.0  0.75882  0.04949  0.90276  1.0000
  S   S263      1.0  0.84100  0.07006  0.90045  1.0000
  Fe  Fe134     1.0  0.74885  0.02607  0.92270  1.0000
  S   S264      1.0  0.73350  0.03758  0.94303  1.0000
  H   H2068     1.0  0.94907  0.22084  0.85583  1.0000
  H   H2069     1.0  0.88872  0.26357  0.86820  1.0000
  S   S265      1.0  0.78738  0.02073  0.92395  1.0000
  H   H2070     1.0  0.93203  0.30666  0.90720  1.0000
  Fe  Fe135     1.0  0.95943  0.22135  0.89852  1.0000
  C   C1176     1.0  0.88929  0.10358  0.93373  1.0000
  S   S266      1.0  0.91372  0.19657  0.89727  1.0000
  H   H2071     1.0  0.82042  0.08277  0.95981  1.0000
  C   C1177     1.0  0.89824  0.23144  0.92707  1.0000
  H   H2072     1.0  0.88199  0.14989  0.93411  1.0000
  H   H2073     1.0  0.96745  0.31466  0.90535  1.0000
  C   C1178     1.0  0.89051  0.30280  0.86512  1.0000
  C   C1179     1.0  0.83352  0.07431  0.96510  1.0000
  C   C1180     1.0  0.94729  0.31259  0.85659  1.0000
  S   S267      1.0  0.71481  0.99987  0.86887  1.0000
  C   C1181     1.0  0.89171  0.20423  0.93347  1.0000
  C   C1182     1.0  0.93604  0.26471  0.85824  1.0000
  C   C1183     1.0  0.74211  0.03180  0.96050  1.0000
  C   C1184     1.0  0.76159  0.02176  0.96326  1.0000
  H   H2074     1.0  0.92860  0.25976  0.84705  1.0000
  N   N65       1.0  0.91316  0.17823  0.94827  1.0000
  H   H2075     1.0  0.89217  0.15806  0.96627  1.0000
  C   C1185     1.0  0.72887  0.03714  0.97193  1.0000
  H   H2076     1.0  0.85868  0.29018  0.84855  1.0000
  Fe  Fe136     1.0  0.73861  0.00892  0.89059  1.0000
  H   H2077     1.0  0.71384  0.04502  0.96997  1.0000
  C   C1186     1.0  0.89394  0.16132  0.89827  1.0000
  C   C1187     1.0  0.90504  0.14227  0.89726  1.0000
  C   C1188     1.0  0.88842  0.11455  0.89771  1.0000
  C   C1189     1.0  0.86058  0.10539  0.89951  1.0000
  C   C1190     1.0  0.84954  0.12449  0.90071  1.0000
  C   C1191     1.0  0.86607  0.15219  0.89996  1.0000
  H   H2078     1.0  0.92634  0.14881  0.89585  1.0000
  H   H2079     1.0  0.89723  0.10003  0.89670  1.0000
  H   H2080     1.0  0.82820  0.11787  0.90204  1.0000
  H   H2081     1.0  0.85714  0.16664  0.90065  1.0000
  H   H2082     1.0  0.85408  0.30976  0.86304  1.0000
  H   H2083     1.0  0.88844  0.12218  0.95369  1.0000
  H   H2084     1.0  0.66028  0.01874  0.74102  1.0000
  H   H2085     1.0  0.91466  0.15729  0.92869  1.0000
  H   H2086     1.0  0.97977  0.34647  0.83743  1.0000
  H   H2087     1.0  0.91732  0.20443  0.97599  1.0000
  H   H2088     1.0  0.95625  0.16815  0.93736  1.0000
  C   C1192     1.0  0.96253  0.18456  0.94564  1.0000
  H   H2089     1.0  0.95101  0.29687  0.83556  1.0000
  S   S268      1.0  0.77739  0.00302  0.89046  1.0000
  H   H2090     1.0  0.95819  0.27052  0.85827  1.0000
  H   H2091     1.0  0.96892  0.31746  0.85895  1.0000
  H   H2092     1.0  0.92188  0.27738  0.88582  1.0000
  C   C1193     1.0  0.96176  0.25647  0.97286  1.0000
  H   H2093     1.0  0.88252  0.18828  0.92502  1.0000
  H   H2094     1.0  0.77223  0.01787  0.95467  1.0000
  H   H2095     1.0  0.61369  0.01302  0.82734  1.0000
  H   H2096     1.0  0.96634  0.26274  0.95055  1.0000
  H   H2097     1.0  0.93678  0.16547  0.96272  1.0000
  C   C1194     1.0  0.90123  0.12724  0.94449  1.0000
  H   H2098     1.0  0.96661  0.33415  0.88264  1.0000
  H   H2099     1.0  0.93056  0.20380  0.93108  1.0000
  C   C1195     1.0  0.87588  0.19372  0.97963  1.0000
  C   C1196     1.0  0.84505  0.08920  0.97928  1.0000
  H   H2100     1.0  0.94748  0.20056  0.96241  1.0000
  H   H2101     1.0  0.95586  0.28662  0.88176  1.0000
  H   H2102     1.0  0.89153  0.30677  0.87666  1.0000
  H   H2103     1.0  0.92152  0.30395  0.83708  1.0000
  H   H2104     1.0  0.84822  0.27510  0.86524  1.0000
  H   H2105     1.0  0.90015  0.21723  0.96373  1.0000
  H   H2106     1.0  0.90210  0.32168  0.85993  1.0000
  H   H2107     1.0  0.87231  0.16765  0.95457  1.0000
  H   H2108     1.0  0.90185  0.23135  0.86718  1.0000
  H   H2109     1.0  0.62629  0.99410  0.74296  1.0000
  H   H2110     1.0  0.85791  0.11041  0.97719  1.0000
  H   H2111     1.0  0.87648  0.20183  0.94135  1.0000
  H   H2112     1.0  0.65079  0.00232  0.75736  1.0000
  C   C1197     1.0  0.86107  0.29380  0.86017  1.0000
  H   H2113     1.0  0.85663  0.18992  0.97378  1.0000
  C   C1198     1.0  0.90263  0.15375  0.93825  1.0000
  H   H2114     1.0  0.91367  0.23529  0.91912  1.0000
  H   H2115     1.0  0.90580  0.24789  0.93539  1.0000
  C   C1199     1.0  0.92758  0.21518  0.85792  1.0000
  H   H2116     1.0  0.94268  0.25816  0.97294  1.0000
  C   C1200     1.0  0.94306  0.31087  0.84035  1.0000
  H   H2117     1.0  0.86891  0.10099  0.92984  1.0000
  H   H2118     1.0  0.90251  0.10675  0.92472  1.0000
  C   C1201     1.0  0.93827  0.29171  0.87970  1.0000
  N   N66       1.0  0.93029  0.28786  0.86414  1.0000
  C   C1202     1.0  0.92372  0.23800  0.86599  1.0000
  S   S269      1.0  0.97214  0.26297  0.90889  1.0000
  H   H2119     1.0  0.94449  0.33059  0.86056  1.0000
  C   C1203     1.0  0.89850  0.19933  0.96951  1.0000
  H   H2120     1.0  0.85009  0.07619  0.95814  1.0000
  H   H2121     1.0  0.93345  0.24041  0.87664  1.0000
  H   H2122     1.0  0.89401  0.27293  0.85065  1.0000
  H   H2123     1.0  0.92857  0.22132  0.94660  1.0000
  C   C1204     1.0  0.90058  0.28058  0.86171  1.0000
  H   H2124     1.0  0.94970  0.35280  0.83786  1.0000
  H   H2125     1.0  0.87983  0.23155  0.92181  1.0000
  C   C1205     1.0  0.89300  0.17449  0.95942  1.0000
  H   H2126     1.0  0.78236  0.00888  0.97914  1.0000
  H   H2127     1.0  0.92154  0.12886  0.94780  1.0000
  H   H2128     1.0  0.93240  0.32927  0.88426  1.0000
  C   C1206     1.0  0.93956  0.18193  0.95548  1.0000
  H   H2129     1.0  0.92059  0.19698  0.86424  1.0000
  C   C1207     1.0  0.94700  0.32047  0.88659  1.0000
  H   H2130     1.0  0.88757  0.08475  0.93861  1.0000
  C   C1208     1.0  0.91743  0.20267  0.94000  1.0000
  C   C1209     1.0  0.95808  0.33832  0.83423  1.0000
  H   H2131     1.0  0.95603  0.34120  0.90718  1.0000
  H   H2132     1.0  0.91568  0.21010  0.84776  1.0000
  H   H2133     1.0  0.82162  0.05258  0.96656  1.0000
  H   H2134     1.0  0.57070  0.99737  0.83846  1.0000
  H   H2135     1.0  0.96933  0.20407  0.94051  1.0000
  C   C1210     1.0  0.60433  0.99174  0.83029  1.0000
  C   C1211     1.0  0.64787  0.99948  0.74573  1.0000
  H   H2136     1.0  0.53525  0.00069  0.87907  1.0000
  H   H2137     1.0  0.95612  0.33631  0.82256  1.0000
  H   H2138     1.0  0.61363  0.99006  0.84057  1.0000
  H   H2139     1.0  0.70162  0.99805  0.83915  1.0000
  C   C1212     1.0  0.97503  0.25892  0.96015  1.0000
  H   H2140     1.0  0.55781  0.98950  0.85959  1.0000
  H   H2141     1.0  0.52492  0.98747  0.85395  1.0000
  Fe  Fe137     1.0  0.74421  0.75673  0.03027  1.0000
  S   S270      1.0  0.77077  0.79900  0.03762  1.0000
  S   S271      1.0  0.74340  0.74061  0.00746  1.0000
  Fe  Fe138     1.0  0.72517  0.74058  0.06086  1.0000
  S   S272      1.0  0.74970  0.78285  0.06982  1.0000
  S   S273      1.0  0.70116  0.70168  0.07264  1.0000
  Fe  Fe139     1.0  0.73646  0.79811  0.05043  1.0000
  S   S274      1.0  0.72356  0.83320  0.04767  1.0000
  Fe  Fe140     1.0  0.78212  0.78103  0.05627  1.0000
  S   S275      1.0  0.82414  0.79519  0.06610  1.0000
  S   S276      1.0  0.70884  0.75582  0.04231  1.0000
  S   S277      1.0  0.75866  0.73863  0.04810  1.0000
  Fe  Fe141     1.0  0.94947  0.78493  0.03621  1.0000
  S   S278      1.0  0.91407  0.79129  0.02676  1.0000
  S   S279      1.0  0.94996  0.74451  0.03160  1.0000
  Fe  Fe142     1.0  0.88474  0.54812  0.13705  1.0000
  S   S280      1.0  0.91025  0.58654  0.14958  1.0000
  S   S281      1.0  0.90232  0.51635  0.13446  1.0000
  Fe  Fe143     1.0  0.83785  0.56528  0.13485  1.0000
  S   S282      1.0  0.85953  0.60358  0.14780  1.0000
  S   S283      1.0  0.79538  0.55427  0.12633  1.0000
  Fe  Fe144     1.0  0.89428  0.60814  0.13401  1.0000
  S   S284      1.0  0.91941  0.64987  0.12511  1.0000
  Fe  Fe145     1.0  0.87354  0.57886  0.16213  1.0000
  S   S285      1.0  0.86448  0.56816  0.18524  1.0000
  S   S286      1.0  0.87171  0.57022  0.12064  1.0000
  S   S287      1.0  0.84886  0.54023  0.14978  1.0000
  Fe  Fe146     1.0  0.65988  0.60867  0.14678  1.0000
  S   S288      1.0  0.66167  0.56864  0.14204  1.0000
  S   S289      1.0  0.67715  0.64518  0.13249  1.0000
  Fe  Fe147     1.0  0.64071  0.59172  0.17708  1.0000
  S   S290      1.0  0.64138  0.55102  0.17391  1.0000
  S   S291      1.0  0.62674  0.60309  0.19771  1.0000
  Fe  Fe148     1.0  0.68046  0.57345  0.16378  1.0000
  S   S292      1.0  0.71745  0.56749  0.17088  1.0000
  Fe  Fe149     1.0  0.62189  0.54958  0.15261  1.0000
  S   S293      1.0  0.58953  0.51058  0.14232  1.0000
  S   S294      1.0  0.68099  0.61429  0.16822  1.0000
  S   S295      1.0  0.61883  0.58945  0.15614  1.0000
  S   S296      1.0  0.77415  0.95947  0.06514  1.0000
  C   C1213     1.0  0.64007  0.60152  0.21482  1.0000
  C   C1214     1.0  0.62941  0.60902  0.22669  1.0000
  C   C1215     1.0  0.64021  0.97813  0.10277  1.0000
  H   H2142     1.0  0.95755  0.74480  0.99414  1.0000
  C   C1216     1.0  0.66078  0.59287  0.21687  1.0000
  H   H2143     1.0  0.61349  0.61588  0.22523  1.0000
  H   H2144     1.0  0.66925  0.58710  0.20787  1.0000
  H   H2145     1.0  0.96085  0.72827  0.09574  1.0000
  H   H2146     1.0  0.69749  0.87016  0.10009  1.0000
  H   H2147     1.0  0.65414  0.93340  0.07102  1.0000
  C   C1217     1.0  0.67946  0.92406  0.09408  1.0000
  C   C1218     1.0  0.74364  0.93030  0.00158  1.0000
  C   C1219     1.0  0.56781  0.59047  0.10236  1.0000
  C   C1220     1.0  0.86060  0.86769  0.04571  1.0000
  H   H2148     1.0  0.83457  0.87710  0.02296  1.0000
  C   C1221     1.0  0.87967  0.57815  0.20251  1.0000
  C   C1222     1.0  0.86733  0.56218  0.21376  1.0000
  C   C1223     1.0  0.59179  0.62292  0.12977  1.0000
  C   C1224     1.0  0.90284  0.60166  0.20544  1.0000
  H   H2149     1.0  0.84950  0.54387  0.21164  1.0000
  H   H2150     1.0  0.91262  0.61416  0.19694  1.0000
  C   C1225     1.0  0.77393  0.55836  0.13870  1.0000
  C   C1226     1.0  0.74841  0.55645  0.13425  1.0000
  C   C1227     1.0  0.73114  0.55998  0.14400  1.0000
  C   C1228     1.0  0.73919  0.56492  0.15826  1.0000
  C   C1229     1.0  0.76460  0.56663  0.16271  1.0000
  C   C1230     1.0  0.78204  0.56361  0.15294  1.0000
  H   H2151     1.0  0.74212  0.55240  0.12322  1.0000
  H   H2152     1.0  0.71155  0.55853  0.14051  1.0000
  H   H2153     1.0  0.77082  0.57024  0.17375  1.0000
  H   H2154     1.0  0.80164  0.56496  0.15646  1.0000
  C   C1231     1.0  0.93619  0.69342  0.08271  1.0000
  C   C1232     1.0  0.91864  0.66599  0.08296  1.0000
  C   C1233     1.0  0.91294  0.65241  0.09571  1.0000
  C   C1234     1.0  0.92474  0.66603  0.10856  1.0000
  C   C1235     1.0  0.94183  0.69363  0.10832  1.0000
  C   C1236     1.0  0.94739  0.70722  0.09558  1.0000
  H   H2155     1.0  0.60352  0.52405  0.22237  1.0000
  H   H2156     1.0  0.89968  0.63128  0.09558  1.0000
  H   H2157     1.0  0.68736  0.58604  0.23202  1.0000
  C   C1237     1.0  0.60461  0.57587  0.10223  1.0000
  C   C1238     1.0  0.84897  0.79411  0.05508  1.0000
  C   C1239     1.0  0.87515  0.80109  0.06070  1.0000
  C   C1240     1.0  0.89531  0.80022  0.05210  1.0000
  C   C1241     1.0  0.88937  0.79260  0.03783  1.0000
  C   C1242     1.0  0.86333  0.78622  0.03216  1.0000
  C   C1243     1.0  0.84308  0.78669  0.04078  1.0000
  H   H2158     1.0  0.87983  0.80712  0.07173  1.0000
  H   H2159     1.0  0.91550  0.80572  0.05646  1.0000
  H   H2160     1.0  0.85872  0.78052  0.02109  1.0000
  H   H2161     1.0  0.82294  0.78137  0.03636  1.0000
  C   C1244     1.0  0.73886  0.86839  0.05238  1.0000
  C   C1245     1.0  0.75648  0.87886  0.06417  1.0000
  C   C1246     1.0  0.76701  0.90669  0.06790  1.0000
  C   C1247     1.0  0.76031  0.92453  0.05983  1.0000
  C   C1248     1.0  0.74287  0.91410  0.04796  1.0000
  C   C1249     1.0  0.73204  0.88622  0.04436  1.0000
  H   H2162     1.0  0.76137  0.86536  0.07063  1.0000
  H   H2163     1.0  0.78035  0.91443  0.07714  1.0000
  H   H2164     1.0  0.73755  0.92747  0.04159  1.0000
  H   H2165     1.0  0.71827  0.87837  0.03528  1.0000
  C   C1250     1.0  0.69529  0.68668  0.08950  1.0000
  C   C1251     1.0  0.70394  0.70159  0.10235  1.0000
  C   C1252     1.0  0.69793  0.68863  0.11529  1.0000
  C   C1253     1.0  0.68365  0.66053  0.11571  1.0000
  C   C1254     1.0  0.67522  0.64565  0.10286  1.0000
  C   C1255     1.0  0.68083  0.65859  0.08995  1.0000
  H   H2166     1.0  0.71485  0.72318  0.10232  1.0000
  H   H2167     1.0  0.70424  0.70059  0.12507  1.0000
  H   H2168     1.0  0.66439  0.62416  0.10278  1.0000
  H   H2169     1.0  0.67397  0.64673  0.08016  1.0000
  C   C1256     1.0  0.74169  0.75462  0.99090  1.0000
  H   H2170     1.0  0.74318  0.79236  0.99929  1.0000
  H   H2171     1.0  0.97645  0.70736  0.02982  1.0000
  H   H2172     1.0  0.57912  0.56457  0.21029  1.0000
  H   H2173     1.0  0.84091  0.95390  0.04200  1.0000
  H   H2174     1.0  0.81313  0.58227  0.21192  1.0000
  H   H2175     1.0  0.72406  0.98035  0.07823  1.0000
  H   H2176     1.0  0.80289  0.87105  0.08429  1.0000
  C   C1257     1.0  0.84083  0.62269  0.19510  1.0000
  C   C1258     1.0  0.64161  0.55942  0.09907  1.0000
  H   H2177     1.0  0.81815  0.63244  0.10401  1.0000
  H   H2178     1.0  0.97196  0.82545  0.98643  1.0000
  H   H2179     1.0  0.55074  0.54445  0.14720  1.0000
  H   H2180     1.0  0.57899  0.60896  0.09659  1.0000
  H   H2181     1.0  0.53305  0.59251  0.08080  1.0000
  H   H2182     1.0  0.76210  0.86098  0.01449  1.0000
  H   H2183     1.0  0.91135  0.50074  0.16365  1.0000
  H   H2184     1.0  0.87352  0.87538  0.05551  1.0000
  C   C1259     1.0  0.79568  0.87086  0.02962  1.0000
  H   H2185     1.0  0.55362  0.59556  0.10868  1.0000
  C   C1260     1.0  0.82201  0.86669  0.03171  1.0000
  H   H2186     1.0  0.78597  0.61625  0.22624  1.0000
  H   H2187     1.0  0.88622  0.89869  0.03189  1.0000
  C   C1261     1.0  0.91017  0.50750  0.17468  1.0000
  C   C1262     1.0  0.74211  0.78037  0.98982  1.0000
  H   H2188     1.0  0.65433  0.49541  0.11318  1.0000
  H   H2189     1.0  0.91664  0.54654  0.18541  1.0000
  H   H2190     1.0  0.73437  0.95683  0.98847  1.0000
  C   C1263     1.0  0.74503  0.94336  0.98749  1.0000
  H   H2191     1.0  0.61780  0.62463  0.11274  1.0000
  H   H2192     1.0  0.94385  0.54748  0.15758  1.0000
  H   H2193     1.0  0.67733  0.94024  0.04182  1.0000
  H   H2194     1.0  0.62774  0.54043  0.09344  1.0000
  H   H2195     1.0  0.58642  0.56268  0.13054  1.0000
  N   N67       1.0  0.77104  0.64844  0.13423  1.0000
  C   C1264     1.0  0.79454  0.64978  0.12577  1.0000
  C   C1265     1.0  0.76952  0.67567  0.13519  1.0000
  C   C1266     1.0  0.77593  0.64123  0.14894  1.0000
  C   C1267     1.0  0.74482  0.62706  0.12835  1.0000
  C   C1268     1.0  0.73672  0.62952  0.11295  1.0000
  C   C1269     1.0  0.79929  0.62358  0.12420  1.0000
  C   C1270     1.0  0.75482  0.64040  0.15973  1.0000
  C   C1271     1.0  0.77942  0.69405  0.12257  1.0000
  C   C1272     1.0  0.77431  0.71953  0.12447  1.0000
  C   C1273     1.0  0.71148  0.60497  0.10794  1.0000
  C   C1274     1.0  0.76445  0.63807  0.17467  1.0000
  H   H2196     1.0  0.81345  0.66573  0.13055  1.0000
  H   H2197     1.0  0.79269  0.65586  0.11493  1.0000
  H   H2198     1.0  0.74854  0.67323  0.13705  1.0000
  H   H2199     1.0  0.78187  0.68800  0.14448  1.0000
  H   H2200     1.0  0.79615  0.65549  0.15326  1.0000
  H   H2201     1.0  0.77613  0.62088  0.14889  1.0000
  H   H2202     1.0  0.74474  0.60679  0.12940  1.0000
  H   H2203     1.0  0.72788  0.62696  0.13464  1.0000
  H   H2204     1.0  0.75273  0.63100  0.10571  1.0000
  H   H2205     1.0  0.73189  0.64736  0.11212  1.0000
  H   H2206     1.0  0.80465  0.61766  0.13450  1.0000
  H   H2207     1.0  0.78123  0.60676  0.11942  1.0000
  H   H2208     1.0  0.73573  0.62255  0.15729  1.0000
  H   H2209     1.0  0.75044  0.65858  0.15970  1.0000
  H   H2210     1.0  0.80144  0.70061  0.12173  1.0000
  H   H2211     1.0  0.76938  0.68368  0.11248  1.0000
  H   H2212     1.0  0.75256  0.71438  0.12536  1.0000
  H   H2213     1.0  0.78542  0.73156  0.13404  1.0000
  H   H2214     1.0  0.78119  0.73205  0.11521  1.0000
  H   H2215     1.0  0.71528  0.58641  0.10810  1.0000
  H   H2216     1.0  0.69465  0.60278  0.11480  1.0000
  H   H2217     1.0  0.70550  0.60751  0.09702  1.0000
  H   H2218     1.0  0.78255  0.65638  0.17805  1.0000
  H   H2219     1.0  0.74830  0.63580  0.18202  1.0000
  H   H2220     1.0  0.76926  0.62016  0.17529  1.0000
  H   H2221     1.0  0.61466  0.59196  0.09478  1.0000
  H   H2222     1.0  0.72417  0.96250  0.10860  1.0000
  H   H2223     1.0  0.55874  0.51007  0.16739  1.0000
  H   H2224     1.0  0.97353  0.63295  0.05356  1.0000
  H   H2225     1.0  0.87177  0.50942  0.22224  1.0000
  H   H2226     1.0  0.85288  0.84531  0.04573  1.0000
  H   H2227     1.0  0.61805  0.97148  0.10243  1.0000
  H   H2228     1.0  0.91740  0.87707  0.02660  1.0000
  H   H2229     1.0  0.56348  0.56842  0.08210  1.0000
  N   N68       1.0  0.86655  0.72236  0.07049  1.0000
  C   C1275     1.0  0.86123  0.72339  0.05490  1.0000
  C   C1276     1.0  0.84666  0.72933  0.07871  1.0000
  C   C1277     1.0  0.89443  0.74344  0.07433  1.0000
  C   C1278     1.0  0.86606  0.69550  0.07434  1.0000
  C   C1279     1.0  0.84006  0.67037  0.07035  1.0000
  C   C1280     1.0  0.88180  0.71979  0.04508  1.0000
  C   C1281     1.0  0.90291  0.74798  0.09026  1.0000
  C   C1282     1.0  0.81781  0.72050  0.07197  1.0000
  C   C1283     1.0  0.79887  0.72464  0.08239  1.0000
  C   C1284     1.0  0.84395  0.64466  0.07319  1.0000
  C   C1285     1.0  0.87173  0.71637  0.02967  1.0000
  C   C1286     1.0  0.93095  0.77050  0.09274  1.0000
  H   H2230     1.0  0.86068  0.74310  0.05265  1.0000
  H   H2231     1.0  0.84108  0.70825  0.05133  1.0000
  H   H2232     1.0  0.84500  0.72129  0.08941  1.0000
  H   H2233     1.0  0.85401  0.75161  0.08041  1.0000
  H   H2234     1.0  0.89661  0.76314  0.07034  1.0000
  H   H2235     1.0  0.90991  0.73835  0.06915  1.0000
  H   H2236     1.0  0.88327  0.69241  0.06984  1.0000
  H   H2237     1.0  0.86923  0.69510  0.08590  1.0000
  H   H2238     1.0  0.83395  0.66926  0.05907  1.0000
  H   H2239     1.0  0.82358  0.67040  0.07690  1.0000
  H   H2240     1.0  0.90100  0.73795  0.04608  1.0000
  H   H2241     1.0  0.88577  0.70196  0.04755  1.0000
  H   H2242     1.0  0.90371  0.72965  0.09460  1.0000
  H   H2243     1.0  0.88887  0.75368  0.09638  1.0000
  H   H2244     1.0  0.81825  0.73286  0.06283  1.0000
  H   H2245     1.0  0.80896  0.69915  0.06818  1.0000
  H   H2246     1.0  0.80648  0.74614  0.08607  1.0000
  H   H2247     1.0  0.77867  0.71888  0.07715  1.0000
  H   H2248     1.0  0.79679  0.71200  0.09156  1.0000
  H   H2249     1.0  0.82466  0.62686  0.07108  1.0000
  H   H2250     1.0  0.85908  0.64268  0.06621  1.0000
  H   H2251     1.0  0.85080  0.64477  0.08432  1.0000
  H   H2252     1.0  0.85319  0.69765  0.02786  1.0000
  H   H2253     1.0  0.86749  0.73383  0.02663  1.0000
  H   H2254     1.0  0.88736  0.71513  0.02283  1.0000
  H   H2255     1.0  0.94605  0.76505  0.08744  1.0000
  H   H2256     1.0  0.93154  0.78964  0.08869  1.0000
  H   H2257     1.0  0.93644  0.77364  0.10419  1.0000
  H   H2258     1.0  0.85914  0.51192  0.17772  1.0000
  H   H2259     1.0  0.79957  0.83666  0.08175  1.0000
  N   N69       1.0  0.58707  0.58398  0.11167  1.0000
  H   H2260     1.0  0.48998  0.50087  0.18385  1.0000
  H   H2261     1.0  0.65785  0.55561  0.10461  1.0000
  H   H2262     1.0  0.55183  0.53697  0.20130  1.0000
  H   H2263     1.0  0.50295  0.52617  0.19801  1.0000
  H   H2264     1.0  0.59223  0.55751  0.09562  1.0000
  H   H2265     1.0  0.94063  0.59780  0.06757  1.0000
  N   N70       1.0  0.88381  0.48942  0.18057  1.0000
  C   C1287     1.0  0.54538  0.55848  0.12658  1.0000
  C   C1288     1.0  0.84856  0.90666  0.04757  1.0000
  C   C1289     1.0  0.83046  0.91883  0.05475  1.0000
  H   H2266     1.0  0.82844  0.95735  0.05889  1.0000
  C   C1290     1.0  0.84129  0.94921  0.05325  1.0000
  H   H2267     1.0  0.72732  0.95012  0.08093  1.0000
  H   H2268     1.0  0.80265  0.86812  0.05828  1.0000
  H   H2269     1.0  0.86781  0.91459  0.05402  1.0000
  H   H2270     1.0  0.82966  0.91528  0.06616  1.0000
  H   H2271     1.0  0.80956  0.90997  0.05038  1.0000
  H   H2272     1.0  0.84830  0.88771  0.07443  1.0000
  H   H2273     1.0  0.80016  0.89258  0.02940  1.0000
  H   H2274     1.0  0.67964  0.50776  0.20221  1.0000
  H   H2275     1.0  0.54382  0.54787  0.09548  1.0000
  H   H2276     1.0  0.64179  0.58684  0.11561  1.0000
  H   H2277     1.0  0.61978  0.60525  0.12699  1.0000
  H   H2278     1.0  0.64670  0.49256  0.16663  1.0000
  H   H2279     1.0  0.51629  0.53613  0.14159  1.0000
  H   H2280     1.0  0.55245  0.53394  0.22745  1.0000
  H   H2281     1.0  0.90955  0.65502  0.07316  1.0000
  H   H2282     1.0  0.65091  0.57498  0.09132  1.0000
  H   H2283     1.0  0.67830  0.53048  0.18925  1.0000
  C   C1291     1.0  0.81434  0.74040  0.99285  1.0000
  H   H2284     1.0  0.81711  0.84489  0.02971  1.0000
  H   H2285     1.0  0.82823  0.60353  0.18918  1.0000
  H   H2286     1.0  0.76491  0.96055  0.09812  1.0000
  H   H2287     1.0  0.63435  0.51305  0.11888  1.0000
  H   H2288     1.0  0.57622  0.62740  0.12403  1.0000
  H   H2289     1.0  0.66560  0.86810  0.09313  1.0000
  C   C1292     1.0  0.68364  0.88054  0.09990  1.0000
  H   H2290     1.0  0.56920  0.54144  0.11591  1.0000
  C   C1293     1.0  0.81979  0.86229  0.05739  1.0000
  H   H2291     1.0  0.71633  0.91936  0.10076  1.0000
  C   C1294     1.0  0.55097  0.56814  0.09115  1.0000
  H   H2292     1.0  0.68626  0.97360  0.10401  1.0000
  H   H2293     1.0  0.65886  0.90989  0.09029  1.0000
  C   C1295     1.0  0.76311  0.98001  0.09991  1.0000
  H   H2294     1.0  0.67768  0.90428  0.06590  1.0000
  C   C1296     1.0  0.87955  0.87682  0.03330  1.0000
  H   H2295     1.0  0.67757  0.88226  0.11079  1.0000
  H   H2296     1.0  0.84598  0.85397  0.07275  1.0000
  C   C1297     1.0  0.61238  0.64965  0.13630  1.0000
  H   H2297     1.0  0.84211  0.64422  0.21452  1.0000
  C   C1298     1.0  0.57086  0.54260  0.20767  1.0000
  C   C1299     1.0  0.59229  0.53208  0.22939  1.0000
  C   C1300     1.0  0.82616  0.60074  0.21827  1.0000
  H   H2298     1.0  0.58284  0.61001  0.13861  1.0000
  C   C1301     1.0  0.82882  0.62474  0.20917  1.0000
  H   H2299     1.0  0.82484  0.85967  0.09405  1.0000
  H   H2300     1.0  0.54578  0.57768  0.13093  1.0000
  C   C1302     1.0  0.73359  0.97564  0.09989  1.0000
  H   H2301     1.0  0.92737  0.50625  0.18072  1.0000
  H   H2302     1.0  0.70431  0.90556  0.08345  1.0000
  H   H2303     1.0  0.67889  0.51564  0.16261  1.0000
  C   C1303     1.0  0.69782  0.90836  0.09405  1.0000
  H   H2304     1.0  0.86214  0.95930  0.05786  1.0000
  H   H2305     1.0  0.93108  0.62758  0.22157  1.0000
  H   H2306     1.0  0.64867  0.50045  0.19217  1.0000
  C   C1304     1.0  0.67175  0.92066  0.04678  1.0000
  H   H2307     1.0  0.78152  0.86161  0.03793  1.0000
  C   C1305     1.0  0.67089  0.50895  0.19170  1.0000
  H   H2308     1.0  0.85391  0.91588  0.03722  1.0000
  C   C1306     1.0  0.91321  0.60928  0.21945  1.0000
  C   C1307     1.0  0.83419  0.86647  0.07216  1.0000
  C   C1308     1.0  0.57300  0.56129  0.12123  1.0000
  H   H2309     1.0  0.77606  0.83623  0.01481  1.0000
  H   H2310     1.0  0.60208  0.65953  0.14281  1.0000
  H   H2311     1.0  0.63934  0.96045  0.08230  1.0000
  H   H2312     1.0  0.91638  0.88233  0.04532  1.0000
  S   S297      1.0  0.94419  0.70877  0.06600  1.0000
  H   H2313     1.0  0.81116  0.49589  0.17199  1.0000
  C   C1309     1.0  0.65174  0.50824  0.12181  1.0000
  C   C1310     1.0  0.62660  0.56903  0.10974  1.0000
  H   H2314     1.0  0.82577  0.60853  0.11387  1.0000
  H   H2315     1.0  0.86147  0.62367  0.19681  1.0000
  H   H2316     1.0  0.61766  0.55287  0.11721  1.0000
  N   N71       1.0  0.68843  0.94939  0.08592  1.0000
  H   H2317     1.0  0.87119  0.63686  0.23202  1.0000
  H   H2318     1.0  0.75475  0.91711  0.00140  1.0000
  H   H2319     1.0  0.81404  0.72002  0.99108  1.0000
  H   H2320     1.0  0.67748  0.92861  0.10538  1.0000
  H   H2321     1.0  0.84195  0.63965  0.18861  1.0000
  C   C1311     1.0  0.82262  0.62744  0.11473  1.0000
  H   H2322     1.0  0.62301  0.66344  0.12802  1.0000
  C   C1312     1.0  0.64766  0.95963  0.09299  1.0000
  C   C1313     1.0  0.60532  0.60927  0.12001  1.0000
  H   H2323     1.0  0.51268  0.57116  0.09396  1.0000
  C   C1314     1.0  0.90449  0.87099  0.03575  1.0000
  C   C1315     1.0  0.81404  0.85793  0.08374  1.0000
  H   H2324     1.0  0.51557  0.55676  0.07712  1.0000
  N   N72       1.0  0.83747  0.87633  0.04570  1.0000
  H   H2325     1.0  0.72170  0.51036  0.15988  1.0000
  H   H2326     1.0  0.64952  0.91060  0.04707  1.0000
  H   H2327     1.0  0.86665  0.49918  0.16182  1.0000
  H   H2328     1.0  0.79378  0.86775  0.00664  1.0000
  C   C1316     1.0  0.68472  0.92455  0.06162  1.0000
  H   H2329     1.0  0.86920  0.86561  0.02338  1.0000
  H   H2330     1.0  0.62739  0.64627  0.14322  1.0000
  C   C1317     1.0  0.67101  0.59227  0.23060  1.0000
  H   H2331     1.0  0.97103  0.67237  0.06951  1.0000
  C   C1318     1.0  0.53614  0.53800  0.13799  1.0000
  H   H2332     1.0  0.52981  0.55130  0.11785  1.0000
  H   H2333     1.0  0.53410  0.51792  0.13385  1.0000
  H   H2334     1.0  0.84153  0.64364  0.11923  1.0000
  C   C1319     1.0  0.78116  0.85816  0.01551  1.0000
  H   H2335     1.0  0.81040  0.84020  0.05497  1.0000
  H   H2336     1.0  0.68847  0.50645  0.14020  1.0000
  H   H2337     1.0  0.67879  0.90783  0.04018  1.0000
  H   H2338     1.0  0.89863  0.84915  0.03698  1.0000
  Fe  Fe150     1.0  0.96628  0.74793  0.05408  1.0000
  C   C1320     1.0  0.56557  0.52721  0.22116  1.0000
  C   C1321     1.0  0.94364  0.55383  0.16877  1.0000
  H   H2339     1.0  0.90082  0.54141  0.16811  1.0000
  H   H2340     1.0  0.68134  0.96249  0.06558  1.0000
  C   C1322     1.0  0.71858  0.96355  0.08550  1.0000
  H   H2341     1.0  0.93309  0.62693  0.06638  1.0000
  C   C1323     1.0  0.52660  0.57250  0.08544  1.0000
  C   C1324     1.0  0.78656  0.59794  0.23081  1.0000
  H   H2342     1.0  0.60483  0.55405  0.23045  1.0000
  C   C1325     1.0  0.88527  0.49690  0.19605  1.0000
  H   H2343     1.0  0.90391  0.49697  0.20121  1.0000
  C   C1326     1.0  0.91617  0.53793  0.17466  1.0000
  H   H2344     1.0  0.75292  0.94622  0.01008  1.0000
  H   H2345     1.0  0.80886  0.62499  0.20682  1.0000
  C   C1327     1.0  0.67642  0.94333  0.07104  1.0000
  H   H2346     1.0  0.79796  0.73884  0.99992  1.0000
  H   H2347     1.0  0.70676  0.93289  0.06064  1.0000
  C   C1328     1.0  0.86697  0.48768  0.22029  1.0000
  H   H2348     1.0  0.88691  0.51786  0.19763  1.0000
  H   H2349     1.0  0.94839  0.62148  0.08245  1.0000
  S   S298      1.0  0.96375  0.78774  0.05881  1.0000
  H   H2350     1.0  0.83379  0.75392  0.99818  1.0000
  H   H2351     1.0  0.72243  0.91827  0.00407  1.0000
  H   H2352     1.0  0.77497  0.58123  0.22301  1.0000
  C   C1329     1.0  0.67858  0.96888  0.09285  1.0000
  C   C1330     1.0  0.86141  0.49408  0.17289  1.0000
  C   C1331     1.0  0.64634  0.49347  0.13551  1.0000
  H   H2353     1.0  0.95107  0.70456  0.11812  1.0000
  H   H2354     1.0  0.64720  0.97763  0.11379  1.0000
  H   H2355     1.0  0.96878  0.66566  0.04209  1.0000
  H   H2356     1.0  0.67006  0.52730  0.12307  1.0000
  H   H2357     1.0  0.84612  0.59975  0.21915  1.0000
  C   C1332     1.0  0.54835  0.49130  0.16134  1.0000
  C   C1333     1.0  0.87773  0.56980  0.22776  1.0000
  C   C1334     1.0  0.94773  0.61946  0.07078  1.0000
  H   H2358     1.0  0.63775  0.93883  0.09656  1.0000
  H   H2359     1.0  0.58529  0.53804  0.20122  1.0000
  H   H2360     1.0  0.55446  0.50553  0.21812  1.0000
  C   C1335     1.0  0.67050  0.48705  0.14027  1.0000
  H   H2361     1.0  0.94805  0.57561  0.16937  1.0000
  H   H2362     1.0  0.64240  0.50629  0.14364  1.0000
  N   N73       1.0  0.81523  0.60084  0.23262  1.0000
  H   H2363     1.0  0.95974  0.55084  0.17494  1.0000
  C   C1336     1.0  0.66777  0.49459  0.16571  1.0000
  H   H2364     1.0  0.97510  0.68060  0.01783  1.0000
  H   H2365     1.0  0.72396  0.49533  0.14320  1.0000
  H   H2366     1.0  0.76327  0.50253  0.15848  1.0000
  C   C1337     1.0  0.97080  0.74847  0.98549  1.0000
  H   H2367     1.0  0.76651  0.95583  0.98587  1.0000
  H   H2368     1.0  0.80604  0.54597  0.22373  1.0000
  C   C1338     1.0  0.72067  0.49161  0.15454  1.0000
  C   C1339     1.0  0.97550  0.63512  0.06517  1.0000
  C   C1340     1.0  0.48573  0.50732  0.19434  1.0000
  H   H2369     1.0  0.70171  0.50243  0.18086  1.0000
  C   C1341     1.0  0.67942  0.49334  0.18066  1.0000
  C   C1342     1.0  0.90058  0.59363  0.23073  1.0000
  Fe  Fe151     1.0  0.74217  0.75821  0.43038  1.0000
  S   S299      1.0  0.78139  0.79389  0.43193  1.0000
  S   S300      1.0  0.71988  0.73926  0.44985  1.0000
  Fe  Fe152     1.0  0.74559  0.74931  0.39784  1.0000
  S   S301      1.0  0.78555  0.78566  0.39775  1.0000
  S   S302      1.0  0.73118  0.71522  0.38014  1.0000
  Fe  Fe153     1.0  0.79643  0.77034  0.41760  1.0000
  S   S303      1.0  0.83241  0.76175  0.42389  1.0000
  Fe  Fe154     1.0  0.76679  0.80677  0.41216  1.0000
  S   S304      1.0  0.77625  0.85181  0.41576  1.0000
  S   S305      1.0  0.75803  0.73366  0.41715  1.0000
  S   S306      1.0  0.72610  0.77139  0.41123  1.0000
  H   H2370     1.0  0.62728  0.49661  0.24007  1.0000
  Fe  Fe155     1.0  0.65824  0.59129  0.28134  1.0000
  S   S307      1.0  0.64723  0.54870  0.28719  1.0000
  S   S308      1.0  0.67538  0.60024  0.25943  1.0000
  Fe  Fe156     1.0  0.65184  0.60855  0.31216  1.0000
  S   S309      1.0  0.63912  0.56618  0.31950  1.0000
  S   S310      1.0  0.65739  0.64597  0.32640  1.0000
  Fe  Fe157     1.0  0.67305  0.56589  0.30669  1.0000
  S   S311      1.0  0.70364  0.55073  0.31444  1.0000
  Fe  Fe158     1.0  0.61371  0.55218  0.29917  1.0000
  S   S312      1.0  0.57377  0.51662  0.29238  1.0000
  S   S313      1.0  0.68672  0.60837  0.30031  1.0000
  S   S314      1.0  0.62372  0.59467  0.29246  1.0000
  Fe  Fe159     1.0  0.89508  0.59359  0.26947  1.0000
  S   S315      1.0  0.85573  0.55928  0.27281  1.0000
  S   S316      1.0  0.91460  0.60427  0.24821  1.0000
  Fe  Fe160     1.0  0.90115  0.61593  0.30091  1.0000
  S   S317      1.0  0.86174  0.58279  0.30598  1.0000
  S   S318      1.0  0.92655  0.65452  0.31469  1.0000
  Fe  Fe161     1.0  0.87524  0.55482  0.29326  1.0000
  S   S319      1.0  0.86453  0.51265  0.30136  1.0000
  Fe  Fe162     1.0  0.84571  0.58960  0.28514  1.0000
  S   S320      1.0  0.80834  0.59617  0.27941  1.0000
  S   S321      1.0  0.91575  0.58760  0.28928  1.0000
  S   S322      1.0  0.88397  0.62426  0.28069  1.0000
  H   H2371     1.0  0.69618  0.97758  0.34423  1.0000
  H   H2372     1.0  0.58140  0.56926  0.24466  1.0000
  S   S323      1.0  0.94088  0.81786  0.39312  1.0000
  H   H2373     1.0  0.95740  0.60390  0.34230  1.0000
  C   C1343     1.0  0.95305  0.69566  0.35953  1.0000
  C   C1344     1.0  0.93731  0.66775  0.35780  1.0000
  C   C1345     1.0  0.92810  0.65496  0.34430  1.0000
  C   C1346     1.0  0.93501  0.66981  0.33219  1.0000
  H   H2374     1.0  0.76341  0.86683  0.45195  1.0000
  H   H2375     1.0  0.93236  0.65584  0.36700  1.0000
  H   H2376     1.0  0.91616  0.63352  0.34327  1.0000
  H   H2377     1.0  0.93170  0.77526  0.47464  1.0000
  H   H2378     1.0  0.87413  0.79843  0.47569  1.0000
  H   H2379     1.0  0.63937  0.68807  0.38292  1.0000
  C   C1347     1.0  0.61707  0.52806  0.25049  1.0000
  H   H2380     1.0  0.59337  0.67093  0.43214  1.0000
  C   C1348     1.0  0.73238  0.56157  0.30439  1.0000
  C   C1349     1.0  0.73216  0.57301  0.29150  1.0000
  C   C1350     1.0  0.75555  0.58316  0.28391  1.0000
  C   C1351     1.0  0.77925  0.58170  0.28903  1.0000
  C   C1352     1.0  0.77946  0.56982  0.30182  1.0000
  C   C1353     1.0  0.75602  0.55979  0.30950  1.0000
  H   H2381     1.0  0.71401  0.57431  0.28742  1.0000
  H   H2382     1.0  0.75527  0.59250  0.27412  1.0000
  H   H2383     1.0  0.79769  0.56863  0.30586  1.0000
  H   H2384     1.0  0.75626  0.55089  0.31947  1.0000
  H   H2385     1.0  0.85278  0.77400  0.46240  1.0000
  H   H2386     1.0  0.61556  0.52145  0.26148  1.0000
  C   C1354     1.0  0.59056  0.65092  0.42750  1.0000
  H   H2387     1.0  0.90224  0.54013  0.32782  1.0000
  H   H2388     1.0  0.82769  0.64376  0.23661  1.0000
  C   C1355     1.0  0.86167  0.77692  0.41463  1.0000
  C   C1356     1.0  0.88165  0.76709  0.41591  1.0000
  C   C1357     1.0  0.90608  0.77980  0.40948  1.0000
  C   C1358     1.0  0.91047  0.80201  0.40143  1.0000
  C   C1359     1.0  0.89024  0.81156  0.39987  1.0000
  C   C1360     1.0  0.86585  0.79908  0.40652  1.0000
  H   H2389     1.0  0.87822  0.74953  0.42185  1.0000
  H   H2390     1.0  0.92149  0.77243  0.41080  1.0000
  H   H2391     1.0  0.89353  0.82876  0.39362  1.0000
  H   H2392     1.0  0.85047  0.80679  0.40550  1.0000
  C   C1361     1.0  0.76596  0.87614  0.40852  1.0000
  C   C1362     1.0  0.77120  0.90011  0.41651  1.0000
  C   C1363     1.0  0.76445  0.92053  0.41112  1.0000
  C   C1364     1.0  0.75307  0.91764  0.39748  1.0000
  C   C1365     1.0  0.74781  0.89368  0.38947  1.0000
  C   C1366     1.0  0.75401  0.87296  0.39498  1.0000
  H   H2393     1.0  0.78031  0.90277  0.42701  1.0000
  H   H2394     1.0  0.76789  0.93842  0.41756  1.0000
  H   H2395     1.0  0.73895  0.89113  0.37892  1.0000
  H   H2396     1.0  0.75001  0.85476  0.38866  1.0000
  C   C1367     1.0  0.71168  0.69704  0.36465  1.0000
  C   C1368     1.0  0.69330  0.70486  0.35757  1.0000
  C   C1369     1.0  0.67718  0.68910  0.34593  1.0000
  C   C1370     1.0  0.67918  0.66533  0.34098  1.0000
  C   C1371     1.0  0.69790  0.65769  0.34789  1.0000
  C   C1372     1.0  0.71396  0.67340  0.35961  1.0000
  H   H2397     1.0  0.69134  0.72301  0.36108  1.0000
  H   H2398     1.0  0.66294  0.69540  0.34070  1.0000
  H   H2399     1.0  0.69964  0.63943  0.34435  1.0000
  H   H2400     1.0  0.72792  0.66692  0.36496  1.0000
  C   C1373     1.0  0.66046  0.59987  0.24246  1.0000
  H   H2401     1.0  0.61082  0.89023  0.34878  1.0000
  H   H2402     1.0  0.88471  0.73235  0.35303  1.0000
  H   H2403     1.0  0.63150  0.61459  0.24940  1.0000
  H   H2404     1.0  0.82445  0.62550  0.25194  1.0000
  N   N74       1.0  0.84905  0.98308  0.40453  1.0000
  H   H2405     1.0  0.67447  0.61877  0.37109  1.0000
  S   S324      1.0  0.74564  0.94351  0.38989  1.0000
  C   C1374     1.0  0.74642  0.78227  0.46912  1.0000
  C   C1375     1.0  0.72887  0.75516  0.46700  1.0000
  N   N75       1.0  0.67836  0.95879  0.36322  1.0000
  C   C1376     1.0  0.74190  0.59081  0.24119  1.0000
  H   H2406     1.0  0.84654  0.95211  0.38881  1.0000
  H   H2407     1.0  0.75506  0.79396  0.46017  1.0000
  H   H2408     1.0  0.77788  0.54563  0.23327  1.0000
  H   H2409     1.0  0.56427  0.55918  0.27516  1.0000
  H   H2410     1.0  0.97578  0.64484  0.35172  1.0000
  H   H2411     1.0  0.57088  0.58932  0.26588  1.0000
  H   H2412     1.0  0.86823  0.55719  0.23625  1.0000
  H   H2413     1.0  0.76924  0.57516  0.24956  1.0000
  H   H2414     1.0  0.80349  0.75789  0.46367  1.0000
  C   C1377     1.0  0.83516  0.97322  0.43025  1.0000
  H   H2415     1.0  0.84721  0.90605  0.39285  1.0000
  C   C1378     1.0  0.83132  0.62676  0.24100  1.0000
  H   H2416     1.0  0.94138  0.61397  0.32848  1.0000
  H   H2417     1.0  0.79101  0.89601  0.45962  1.0000
  H   H2418     1.0  0.82407  0.49000  0.25950  1.0000
  H   H2419     1.0  0.79312  0.72206  0.46150  1.0000
  C   C1379     1.0  0.65335  0.94069  0.35468  1.0000
  H   H2420     1.0  0.82690  0.73908  0.48097  1.0000
  H   H2421     1.0  0.82273  0.52988  0.24452  1.0000
  H   H2422     1.0  0.86819  0.83485  0.46252  1.0000
  H   H2423     1.0  0.67282  0.54638  0.25435  1.0000
  C   C1380     1.0  0.77676  0.87516  0.46156  1.0000
  C   C1381     1.0  0.94056  0.57390  0.32585  1.0000
  H   H2424     1.0  0.60916  0.66919  0.40254  1.0000
  N   N76       1.0  0.77541  0.65894  0.31508  1.0000
  C   C1382     1.0  0.78626  0.68292  0.32542  1.0000
  C   C1383     1.0  0.79821  0.65192  0.31051  1.0000
  C   C1384     1.0  0.76434  0.66738  0.30221  1.0000
  C   C1385     1.0  0.75326  0.63485  0.32091  1.0000
  C   C1386     1.0  0.75495  0.63123  0.33699  1.0000
  C   C1387     1.0  0.76608  0.69546  0.32917  1.0000
  C   C1388     1.0  0.75568  0.64712  0.28930  1.0000
  C   C1389     1.0  0.81341  0.64345  0.32206  1.0000
  C   C1390     1.0  0.83794  0.64037  0.31625  1.0000
  C   C1391     1.0  0.73476  0.60363  0.34092  1.0000
  C   C1392     1.0  0.74013  0.65514  0.27802  1.0000
  H   H2425     1.0  0.80412  0.69923  0.32120  1.0000
  H   H2426     1.0  0.79392  0.67797  0.33536  1.0000
  H   H2427     1.0  0.79075  0.63458  0.30269  1.0000
  H   H2428     1.0  0.81317  0.66908  0.30509  1.0000
  H   H2429     1.0  0.77935  0.68678  0.29860  1.0000
  H   H2430     1.0  0.74631  0.67112  0.30481  1.0000
  H   H2431     1.0  0.73335  0.63552  0.31883  1.0000
  H   H2432     1.0  0.75172  0.61598  0.31528  1.0000
  H   H2433     1.0  0.75021  0.64651  0.34292  1.0000
  H   H2434     1.0  0.77510  0.63340  0.34082  1.0000
  H   H2435     1.0  0.74559  0.67979  0.33039  1.0000
  H   H2436     1.0  0.74266  0.62678  0.29249  1.0000
  H   H2437     1.0  0.77350  0.64630  0.28431  1.0000
  H   H2438     1.0  0.82070  0.65842  0.33104  1.0000
  H   H2439     1.0  0.80009  0.62354  0.32581  1.0000
  H   H2440     1.0  0.83179  0.62513  0.30734  1.0000
  H   H2441     1.0  0.85256  0.65982  0.31260  1.0000
  H   H2442     1.0  0.84816  0.63357  0.32457  1.0000
  H   H2443     1.0  0.73463  0.60247  0.35253  1.0000
  H   H2444     1.0  0.71415  0.59993  0.33686  1.0000
  H   H2445     1.0  0.74043  0.58764  0.33650  1.0000
  H   H2446     1.0  0.75264  0.67532  0.27427  1.0000
  H   H2447     1.0  0.73447  0.64028  0.26893  1.0000
  H   H2448     1.0  0.72136  0.65532  0.28216  1.0000
  C   C1393     1.0  0.77495  0.71314  0.34274  1.0000
  C   C1394     1.0  0.80164  0.52793  0.24365  1.0000
  N   N77       1.0  0.65047  0.67403  0.40222  1.0000
  C   C1395     1.0  0.64352  0.64735  0.39435  1.0000
  C   C1396     1.0  0.62645  0.67287  0.41012  1.0000
  C   C1397     1.0  0.65569  0.69505  0.39137  1.0000
  C   C1398     1.0  0.67516  0.68215  0.41204  1.0000
  C   C1399     1.0  0.68020  0.65907  0.41903  1.0000
  C   C1400     1.0  0.66410  0.64691  0.38355  1.0000
  C   C1401     1.0  0.65864  0.72324  0.39694  1.0000
  C   C1402     1.0  0.61673  0.65199  0.42159  1.0000
  C   C1403     1.0  0.70074  0.66968  0.43143  1.0000
  C   C1404     1.0  0.65993  0.61821  0.37913  1.0000
  C   C1405     1.0  0.67058  0.74435  0.38603  1.0000
  H   H2449     1.0  0.64054  0.63103  0.40162  1.0000
  H   H2450     1.0  0.63078  0.69251  0.41576  1.0000
  H   H2451     1.0  0.67444  0.69808  0.38599  1.0000
  H   H2452     1.0  0.69381  0.69364  0.40647  1.0000
  H   H2453     1.0  0.67476  0.69656  0.42054  1.0000
  H   H2454     1.0  0.68813  0.64882  0.41127  1.0000
  H   H2455     1.0  0.66176  0.64360  0.42299  1.0000
  H   H2456     1.0  0.66151  0.65672  0.37391  1.0000
  H   H2457     1.0  0.68508  0.65789  0.38781  1.0000
  H   H2458     1.0  0.67170  0.72977  0.40668  1.0000
  H   H2459     1.0  0.63863  0.72282  0.39927  1.0000
  H   H2460     1.0  0.63187  0.65790  0.43053  1.0000
  H   H2461     1.0  0.69341  0.67952  0.43972  1.0000
  H   H2462     1.0  0.70410  0.65279  0.43607  1.0000
  H   H2463     1.0  0.72021  0.68437  0.42794  1.0000
  H   H2464     1.0  0.66330  0.60766  0.38829  1.0000
  H   H2465     1.0  0.63929  0.60684  0.37444  1.0000
  H   H2466     1.0  0.69124  0.74658  0.38376  1.0000
  H   H2467     1.0  0.65790  0.73860  0.37611  1.0000
  H   H2468     1.0  0.67173  0.76412  0.39016  1.0000
  H   H2469     1.0  0.84131  0.77197  0.37945  1.0000
  H   H2470     1.0  0.67721  0.89908  0.39009  1.0000
  C   C1406     1.0  0.81817  0.97848  0.44147  1.0000
  C   C1407     1.0  0.83113  0.98431  0.41602  1.0000
  C   C1408     1.0  0.54452  0.49180  0.31540  1.0000
  H   H2471     1.0  0.79489  0.53006  0.25435  1.0000
  H   H2472     1.0  0.83653  0.80926  0.46710  1.0000
  H   H2473     1.0  0.76047  0.72234  0.34482  1.0000
  H   H2474     1.0  0.67588  0.51781  0.24589  1.0000
  H   H2475     1.0  0.54277  0.55862  0.26015  1.0000
  H   H2476     1.0  0.94885  0.83409  0.45032  1.0000
  H   H2477     1.0  0.60274  0.56992  0.25965  1.0000
  H   H2478     1.0  0.89413  0.68735  0.41851  1.0000
  C   C1409     1.0  0.81696  0.57795  0.24048  1.0000
  H   H2479     1.0  0.77171  0.73531  0.46998  1.0000
  H   H2480     1.0  0.94243  0.80000  0.35682  1.0000
  C   C1410     1.0  0.97152  0.74992  0.46984  1.0000
  H   H2481     1.0  0.94407  0.76887  0.35106  1.0000
  C   C1411     1.0  0.75987  0.87491  0.47413  1.0000
  C   C1412     1.0  0.90184  0.49249  0.29294  1.0000
  H   H2482     1.0  0.85638  0.98271  0.43428  1.0000
  H   H2483     1.0  0.96168  0.80705  0.42444  1.0000
  C   C1413     1.0  0.64663  0.98038  0.37291  1.0000
  H   H2484     1.0  0.91212  0.72258  0.41571  1.0000
  H   H2485     1.0  0.62047  0.90767  0.33263  1.0000
  C   C1414     1.0  0.96708  0.82237  0.43327  1.0000
  C   C1415     1.0  0.85420  0.81342  0.46058  1.0000
  H   H2486     1.0  0.69078  0.92841  0.40206  1.0000
  H   H2487     1.0  0.86814  0.66129  0.26113  1.0000
  H   H2488     1.0  0.89995  0.57209  0.32696  1.0000
  H   H2489     1.0  0.79079  0.98388  0.36661  1.0000
  H   H2490     1.0  0.55141  0.52025  0.24940  1.0000
  H   H2491     1.0  0.86113  0.90156  0.40950  1.0000
  C   C1416     1.0  0.57539  0.48962  0.24137  1.0000
  C   C1417     1.0  0.65382  0.91469  0.34775  1.0000
  H   H2492     1.0  0.87362  0.67825  0.24471  1.0000
  H   H2493     1.0  0.74841  0.88710  0.47156  1.0000
  H   H2494     1.0  0.78814  0.86252  0.46337  1.0000
  H   H2495     1.0  0.80975  0.97258  0.41263  1.0000
  H   H2496     1.0  0.91281  0.56343  0.34294  1.0000
  H   H2497     1.0  0.78879  0.50755  0.23908  1.0000
  C   C1418     1.0  0.57300  0.52930  0.25297  1.0000
  H   H2498     1.0  0.82201  0.97098  0.45165  1.0000
  H   H2499     1.0  0.81206  0.57920  0.25165  1.0000
  H   H2500     1.0  0.73084  0.58774  0.25104  1.0000
  C   C1419     1.0  0.67258  0.91476  0.39574  1.0000
  H   H2501     1.0  0.74197  0.60929  0.23654  1.0000
  C   C1420     1.0  0.95917  0.71065  0.34747  1.0000
  H   H2502     1.0  0.61289  0.63143  0.41748  1.0000
  H   H2503     1.0  0.76470  0.70829  0.32059  1.0000
  H   H2504     1.0  0.57428  0.64449  0.41911  1.0000
  N   N78       1.0  0.58947  0.51978  0.24353  1.0000
  H   H2505     1.0  0.62380  0.64103  0.38840  1.0000
  H   H2506     1.0  0.81487  0.73992  0.38310  1.0000
  C   C1421     1.0  0.79296  0.73847  0.46868  1.0000
  H   H2507     1.0  0.91672  0.77705  0.34467  1.0000
  C   C1422     1.0  0.71770  0.74039  0.47880  1.0000
  H   H2508     1.0  0.63385  0.97752  0.36316  1.0000
  H   H2509     1.0  0.82153  0.94105  0.40140  1.0000
  H   H2510     1.0  0.94723  0.78493  0.45187  1.0000
  C   C1423     1.0  0.92065  0.78826  0.47285  1.0000
  H   H2511     1.0  0.62749  0.55028  0.25159  1.0000
  C   C1424     1.0  0.79940  0.54922  0.23425  1.0000
  H   H2512     1.0  0.65969  0.94606  0.39170  1.0000
  H   H2513     1.0  0.66854  0.91951  0.33938  1.0000
  H   H2514     1.0  0.90540  0.82201  0.45657  1.0000
  C   C1425     1.0  0.66216  0.52447  0.25174  1.0000
  C   C1426     1.0  0.67525  0.98361  0.36905  1.0000
  H   H2515     1.0  0.63666  0.96294  0.37941  1.0000
  C   C1427     1.0  0.93041  0.78944  0.44747  1.0000
  H   H2516     1.0  0.86118  0.94406  0.41930  1.0000
  H   H2517     1.0  0.77528  0.70096  0.35182  1.0000
  H   H2518     1.0  0.97129  0.73207  0.34850  1.0000
  H   H2519     1.0  0.65893  0.90273  0.35563  1.0000
  H   H2520     1.0  0.78029  0.61098  0.25208  1.0000
  C   C1428     1.0  0.86213  0.63496  0.24241  1.0000
  H   H2521     1.0  0.56009  0.50706  0.32202  1.0000
  C   C1429     1.0  0.63944  0.60810  0.24043  1.0000
  H   H2522     1.0  0.91346  0.51218  0.28915  1.0000
  H   H2523     1.0  0.96089  0.62761  0.30688  1.0000
  H   H2524     1.0  0.70298  0.95866  0.38135  1.0000
  C   C1430     1.0  0.91220  0.56176  0.33127  1.0000
  C   C1431     1.0  0.87624  0.66204  0.25052  1.0000
  S   S325      1.0  0.96519  0.71032  0.37690  1.0000
  C   C1432     1.0  0.63652  0.51851  0.24272  1.0000
  C   C1433     1.0  0.84829  0.91048  0.40438  1.0000
  H   H2525     1.0  0.93221  0.83202  0.47556  1.0000
  H   H2526     1.0  0.70408  0.71943  0.47731  1.0000
  H   H2527     1.0  0.92755  0.82118  0.43469  1.0000
  H   H2528     1.0  0.74575  0.85368  0.47523  1.0000
  H   H2529     1.0  0.90102  0.77565  0.36900  1.0000
  C   C1434     1.0  0.68546  0.94435  0.37486  1.0000
  C   C1435     1.0  0.66350  0.93063  0.38537  1.0000
  H   H2530     1.0  0.65741  0.51367  0.26167  1.0000
  H   H2531     1.0  0.92262  0.77587  0.43788  1.0000
  H   H2532     1.0  0.79644  0.96776  0.43846  1.0000
  H   H2533     1.0  0.70486  0.95060  0.34898  1.0000
  C   C1436     1.0  0.77062  0.59364  0.24442  1.0000
  C   C1437     1.0  0.93021  0.77841  0.35392  1.0000
  H   H2534     1.0  0.65641  0.90480  0.40307  1.0000
  H   H2535     1.0  0.95152  0.56235  0.33023  1.0000
  H   H2536     1.0  0.79519  0.72952  0.34182  1.0000
  C   C1438     1.0  0.95524  0.60397  0.33068  1.0000
  H   H2537     1.0  0.83795  0.57963  0.24104  1.0000
  N   N79       1.0  0.90868  0.78363  0.45800  1.0000
  H   H2538     1.0  0.73098  0.57324  0.23380  1.0000
  H   H2539     1.0  0.82780  0.90077  0.40840  1.0000
  H   H2540     1.0  0.97465  0.84255  0.42879  1.0000
  H   H2541     1.0  0.93858  0.57082  0.31427  1.0000
  H   H2542     1.0  0.84698  0.80991  0.44934  1.0000
  N   N80       1.0  0.87972  0.71908  0.37440  1.0000
  C   C1439     1.0  0.89788  0.71860  0.38658  1.0000
  C   C1440     1.0  0.89702  0.73452  0.36290  1.0000
  C   C1441     1.0  0.86180  0.73222  0.37957  1.0000
  C   C1442     1.0  0.86233  0.69104  0.36862  1.0000
  C   C1443     1.0  0.87756  0.67373  0.36385  1.0000
  C   C1444     1.0  0.88402  0.69973  0.39849  1.0000
  C   C1445     1.0  0.84371  0.73749  0.36822  1.0000
  C   C1446     1.0  0.91387  0.76490  0.36638  1.0000
  C   C1447     1.0  0.85801  0.64494  0.35962  1.0000
  C   C1448     1.0  0.89262  0.80017  0.45523  1.0000
  C   C1449     1.0  0.82760  0.75193  0.37478  1.0000
  H   H2543     1.0  0.90841  0.73908  0.39159  1.0000
  H   H2544     1.0  0.91433  0.71325  0.38287  1.0000
  H   H2545     1.0  0.91176  0.72593  0.36015  1.0000
  H   H2546     1.0  0.87387  0.75164  0.38542  1.0000
  H   H2547     1.0  0.84798  0.71968  0.38737  1.0000
  H   H2548     1.0  0.84741  0.67987  0.37636  1.0000
  H   H2549     1.0  0.85014  0.69184  0.35921  1.0000
  H   H2550     1.0  0.89145  0.67263  0.37231  1.0000
  H   H2551     1.0  0.88940  0.68224  0.35457  1.0000
  H   H2552     1.0  0.86802  0.70478  0.40298  1.0000
  H   H2553     1.0  0.87501  0.67840  0.39454  1.0000
  H   H2554     1.0  0.82908  0.71831  0.36313  1.0000
  H   H2555     1.0  0.85578  0.75030  0.35998  1.0000
  H   H2556     1.0  0.64908  0.95216  0.34614  1.0000
  H   H2557     1.0  0.92825  0.76778  0.37541  1.0000
  H   H2558     1.0  0.86940  0.63334  0.35580  1.0000
  H   H2559     1.0  0.84665  0.63490  0.36879  1.0000
  H   H2560     1.0  0.84367  0.64474  0.35105  1.0000
  H   H2561     1.0  0.95437  0.73097  0.47053  1.0000
  C   C1450     1.0  0.86007  0.94083  0.40774  1.0000
  H   H2562     1.0  0.88092  0.94942  0.40409  1.0000
  H   H2563     1.0  0.81426  0.75495  0.36661  1.0000
  C   C1451     1.0  0.88960  0.75433  0.45604  1.0000
  C   C1452     1.0  0.90250  0.73357  0.45640  1.0000
  C   C1453     1.0  0.88178  0.70533  0.45204  1.0000
  H   H2564     1.0  0.88495  0.79670  0.44402  1.0000
  H   H2565     1.0  0.85053  0.49067  0.27144  1.0000
  H   H2566     1.0  0.87756  0.75087  0.44593  1.0000
  H   H2567     1.0  0.87478  0.74857  0.46441  1.0000
  H   H2568     1.0  0.97055  0.60093  0.30342  1.0000
  H   H2569     1.0  0.91024  0.73283  0.46722  1.0000
  H   H2570     1.0  0.91929  0.73834  0.44922  1.0000
  H   H2571     1.0  0.87388  0.70469  0.44107  1.0000
  H   H2572     1.0  0.89135  0.69082  0.45257  1.0000
  H   H2573     1.0  0.86482  0.69903  0.45921  1.0000
  H   H2574     1.0  0.57335  0.52208  0.26368  1.0000
  C   C1454     1.0  0.56378  0.56712  0.26459  1.0000
  H   H2575     1.0  0.90457  0.78200  0.48052  1.0000
  C   C1455     1.0  0.58206  0.56019  0.25485  1.0000
  H   H2576     1.0  0.58427  0.63619  0.43589  1.0000
  H   H2577     1.0  0.92116  0.69794  0.40657  1.0000
  S   S326      1.0  0.96586  0.76198  0.40574  1.0000
  C   C1456     1.0  0.62640  0.89677  0.34082  1.0000
  C   C1457     1.0  0.90418  0.70212  0.41053  1.0000
  C   C1458     1.0  0.94259  0.81819  0.44180  1.0000
  H   H2578     1.0  0.62738  0.87856  0.33573  1.0000
  Fe  Fe163     1.0  0.97168  0.80012  0.39530  1.0000
  C   C1459     1.0  0.54628  0.49216  0.30077  1.0000
  C   C1460     1.0  0.86803  0.79487  0.46434  1.0000
  H   H2579     1.0  0.75294  0.98230  0.34323  1.0000
  H   H2580     1.0  0.64455  0.91638  0.37995  1.0000
  C   C1461     1.0  0.70130  0.96795  0.35339  1.0000
  H   H2581     1.0  0.69242  0.92919  0.37049  1.0000
  H   H2582     1.0  0.95930  0.82239  0.47106  1.0000
  C   C1462     1.0  0.97751  0.62103  0.30887  1.0000
  H   H2583     1.0  0.89808  0.66690  0.25182  1.0000
  H   H2584     1.0  0.72037  0.97744  0.47471  1.0000
  H   H2585     1.0  0.97974  0.65829  0.32737  1.0000
  C   C1463     1.0  0.94099  0.81713  0.47717  1.0000
  H   H2586     1.0  0.85751  0.49930  0.25339  1.0000
  C   C1464     1.0  0.95049  0.69776  0.33395  1.0000
  H   H2587     1.0  0.73707  0.97713  0.36739  1.0000
  H   H2588     1.0  0.82857  0.95110  0.42908  1.0000
  H   H2589     1.0  0.80811  0.95990  0.38293  1.0000
  C   C1465     1.0  0.81418  0.98179  0.38496  1.0000
  C   C1466     1.0  0.84320  0.95410  0.40021  1.0000
  H   H2590     1.0  0.86673  0.61994  0.24826  1.0000
  C   C1467     1.0  0.87742  0.48753  0.29914  1.0000
  H   H2591     1.0  0.97249  0.74609  0.44713  1.0000
  H   H2592     1.0  0.63546  0.93412  0.36116  1.0000
  H   H2593     1.0  0.79955  0.98459  0.39195  1.0000
  Fe  Fe164     1.0  0.75256  0.98444  0.40045  1.0000
  H   H2594     1.0  0.95609  0.70958  0.32474  1.0000
  H   H2595     1.0  0.97906  0.63717  0.28142  1.0000
  H   H2596     1.0  0.64259  0.52926  0.23285  1.0000
  H   H2597     1.0  0.95958  0.80522  0.49481  1.0000
  H   H2598     1.0  0.78102  0.86182  0.52206  1.0000
  H   H2599     1.0  0.56634  0.78818  0.69707  1.0000
  H   H2600     1.0  0.97644  0.80025  0.60702  1.0000
  S   S327      1.0  0.93381  0.81645  0.54807  1.0000
  H   H2601     1.0  0.90786  0.71003  0.58301  1.0000
  Fe  Fe165     1.0  0.75909  0.81734  0.56243  1.0000
  S   S328      1.0  0.71943  0.79682  0.55055  1.0000
  S   S329      1.0  0.77240  0.85911  0.57268  1.0000
  Fe  Fe166     1.0  0.77582  0.77082  0.55639  1.0000
  S   S330      1.0  0.73620  0.74653  0.54466  1.0000
  S   S331      1.0  0.80765  0.75330  0.55577  1.0000
  Fe  Fe167     1.0  0.74242  0.78497  0.53422  1.0000
  S   S332      1.0  0.74735  0.79722  0.51132  1.0000
  Fe  Fe168     1.0  0.71658  0.76029  0.56226  1.0000
  S   S333      1.0  0.67558  0.73369  0.57121  1.0000
  S   S334      1.0  0.78236  0.80848  0.54552  1.0000
  S   S335      1.0  0.75585  0.78151  0.57475  1.0000
  Fe  Fe169     1.0  0.53678  0.92484  0.64729  1.0000
  S   S336      1.0  0.57603  0.95080  0.65916  1.0000
  S   S337      1.0  0.50316  0.94029  0.64783  1.0000
  Fe  Fe170     1.0  0.55711  0.88123  0.64073  1.0000
  S   S338      1.0  0.59660  0.90371  0.65245  1.0000
  S   S339      1.0  0.54848  0.84045  0.63031  1.0000
  Fe  Fe171     1.0  0.57247  0.91264  0.66922  1.0000
  S   S340      1.0  0.57618  0.90103  0.69205  1.0000
  Fe  Fe172     1.0  0.59691  0.93973  0.64119  1.0000
  S   S341      1.0  0.63744  0.96841  0.63245  1.0000
  S   S342      1.0  0.53284  0.88744  0.65795  1.0000
  S   S343      1.0  0.55793  0.91662  0.62872  1.0000
  Fe  Fe173     1.0  0.57116  0.67283  0.67569  1.0000
  S   S344      1.0  0.53175  0.67633  0.67438  1.0000
  S   S345      1.0  0.58739  0.66118  0.69556  1.0000
  Fe  Fe174     1.0  0.58481  0.69132  0.64512  1.0000
  S   S346      1.0  0.54538  0.69549  0.64199  1.0000
  S   S347      1.0  0.62247  0.70854  0.63163  1.0000
  Fe  Fe175     1.0  0.55358  0.71486  0.66377  1.0000
  S   S348      1.0  0.55028  0.75275  0.67218  1.0000
  Fe  Fe176     1.0  0.52632  0.65602  0.65288  1.0000
  H   H2602     1.0  0.76325  0.74711  0.51825  1.0000
  S   S349      1.0  0.59361  0.71280  0.66656  1.0000
  S   S350      1.0  0.56514  0.65034  0.65462  1.0000
  S   S351      1.0  0.75329  0.94483  0.53572  1.0000
  C   C1468     1.0  0.57493  0.66350  0.71235  1.0000
  C   C1469     1.0  0.55114  0.66712  0.71372  1.0000
  H   H2603     1.0  0.72839  0.97719  0.61091  1.0000
  C   C1470     1.0  0.74296  0.86204  0.50463  1.0000
  C   C1471     1.0  0.58886  0.66117  0.72457  1.0000
  H   H2604     1.0  0.54005  0.66855  0.70443  1.0000
  H   H2605     1.0  0.60721  0.65821  0.72363  1.0000
  C   C1472     1.0  0.57271  0.91213  0.70945  1.0000
  C   C1473     1.0  0.56915  0.89448  0.72044  1.0000
  C   C1474     1.0  0.62666  0.87434  0.72788  1.0000
  C   C1475     1.0  0.57595  0.93850  0.71282  1.0000
  H   H2606     1.0  0.56665  0.87405  0.71799  1.0000
  H   H2607     1.0  0.57923  0.95251  0.70459  1.0000
  C   C1476     1.0  0.58601  0.77716  0.71509  1.0000
  C   C1477     1.0  0.63650  0.96478  0.60280  1.0000
  H   H2608     1.0  0.81799  0.78409  0.52729  1.0000
  H   H2609     1.0  0.61557  0.95119  0.60317  1.0000
  H   H2610     1.0  0.50365  0.56678  0.71806  1.0000
  C   C1478     1.0  0.54795  0.81584  0.64203  1.0000
  C   C1479     1.0  0.54223  0.78955  0.63687  1.0000
  C   C1480     1.0  0.54281  0.76998  0.64603  1.0000
  C   C1481     1.0  0.54875  0.77654  0.66041  1.0000
  C   C1482     1.0  0.55376  0.80264  0.66559  1.0000
  C   C1483     1.0  0.55355  0.82228  0.65643  1.0000
  H   H2611     1.0  0.53742  0.78435  0.62578  1.0000
  H   H2612     1.0  0.53831  0.74976  0.64202  1.0000
  H   H2613     1.0  0.55807  0.80789  0.67668  1.0000
  H   H2614     1.0  0.55779  0.84242  0.66053  1.0000
  H   H2615     1.0  0.56498  0.60616  0.60315  1.0000
  C   C1484     1.0  0.74062  0.77991  0.49455  1.0000
  H   H2616     1.0  0.84252  0.72686  0.51916  1.0000
  C   C1485     1.0  0.76522  0.88278  0.56310  1.0000
  C   C1486     1.0  0.74870  0.87483  0.55082  1.0000
  C   C1487     1.0  0.74398  0.89403  0.54304  1.0000
  C   C1488     1.0  0.75636  0.92140  0.54718  1.0000
  C   C1489     1.0  0.77206  0.92937  0.55975  1.0000
  C   C1490     1.0  0.77639  0.91003  0.56773  1.0000
  H   H2617     1.0  0.73985  0.85395  0.54721  1.0000
  H   H2618     1.0  0.73121  0.88775  0.53355  1.0000
  H   H2619     1.0  0.78167  0.95047  0.56303  1.0000
  H   H2620     1.0  0.78913  0.91628  0.57725  1.0000
  C   C1491     1.0  0.66129  0.72760  0.58816  1.0000
  C   C1492     1.0  0.67640  0.73831  0.60077  1.0000
  C   C1493     1.0  0.66419  0.73221  0.61387  1.0000
  C   C1494     1.0  0.63668  0.71547  0.61467  1.0000
  C   C1495     1.0  0.62156  0.70482  0.60206  1.0000
  C   C1496     1.0  0.63376  0.71088  0.58897  1.0000
  H   H2621     1.0  0.69758  0.75108  0.60043  1.0000
  H   H2622     1.0  0.67624  0.74058  0.62348  1.0000
  H   H2623     1.0  0.60045  0.69183  0.60236  1.0000
  H   H2624     1.0  0.62180  0.70234  0.57935  1.0000
  C   C1497     1.0  0.89837  0.79834  0.54885  1.0000
  C   C1498     1.0  0.88240  0.81274  0.55130  1.0000
  C   C1499     1.0  0.85457  0.79931  0.55314  1.0000
  C   C1500     1.0  0.84232  0.77120  0.55262  1.0000
  C   C1501     1.0  0.85812  0.75676  0.54976  1.0000
  C   C1502     1.0  0.88591  0.77022  0.54773  1.0000
  H   H2625     1.0  0.89174  0.83449  0.55213  1.0000
  H   H2626     1.0  0.84275  0.81073  0.55537  1.0000
  H   H2627     1.0  0.84884  0.73501  0.54923  1.0000
  H   H2628     1.0  0.89773  0.75882  0.54556  1.0000
  H   H2629     1.0  0.81236  0.83468  0.51998  1.0000
  H   H2630     1.0  0.82378  0.87959  0.53553  1.0000
  H   H2631     1.0  0.71450  0.74114  0.50144  1.0000
  H   H2632     1.0  0.93258  0.81471  0.49952  1.0000
  C   C1503     1.0  0.92689  0.76893  0.61595  1.0000
  H   H2633     1.0  0.61338  0.57239  0.62841  1.0000
  C   C1504     1.0  0.79770  0.73651  0.51460  1.0000
  C   C1505     1.0  0.60396  0.61768  0.62509  1.0000
  C   C1506     1.0  0.54095  0.74181  0.71188  1.0000
  H   H2634     1.0  0.58133  0.81443  0.71036  1.0000
  H   H2635     1.0  0.79490  0.78546  0.51414  1.0000
  H   H2636     1.0  0.55538  0.63348  0.60731  1.0000
  H   H2637     1.0  0.75250  0.68725  0.51458  1.0000
  H   H2638     1.0  0.57432  0.79400  0.60697  1.0000
  H   H2639     1.0  0.60499  0.60483  0.61607  1.0000
  C   C1507     1.0  0.64849  0.97151  0.58967  1.0000
  C   C1508     1.0  0.59146  0.63620  0.61878  1.0000
  C   C1509     1.0  0.53543  0.96468  0.68587  1.0000
  H   H2640     1.0  0.57235  0.83668  0.60105  1.0000
  H   H2641     1.0  0.52456  0.91074  0.68963  1.0000
  H   H2642     1.0  0.58918  0.60369  0.63211  1.0000
  H   H2643     1.0  0.93792  0.72418  0.57339  1.0000
  H   H2644     1.0  0.83968  0.72419  0.50026  1.0000
  H   H2645     1.0  0.72888  0.70140  0.51909  1.0000
  C   C1510     1.0  0.59191  0.84239  0.59600  1.0000
  C   C1511     1.0  0.79676  0.88067  0.51850  1.0000
  C   C1512     1.0  0.68881  0.95929  0.71949  1.0000
  H   H2646     1.0  0.80552  0.89967  0.53967  1.0000
  C   C1513     1.0  0.76742  0.73078  0.51310  1.0000
  C   C1514     1.0  0.56370  0.61972  0.61180  1.0000
  C   C1515     1.0  0.49698  0.70149  0.70600  1.0000
  H   H2647     1.0  0.50273  0.89020  0.71040  1.0000
  H   H2648     1.0  0.58816  0.83587  0.58468  1.0000
  C   C1516     1.0  0.72363  0.75263  0.49252  1.0000
  N   N81       1.0  0.63093  0.63164  0.63296  1.0000
  C   C1517     1.0  0.64172  0.61142  0.63766  1.0000
  C   C1518     1.0  0.62646  0.64549  0.64603  1.0000
  C   C1519     1.0  0.65100  0.65270  0.62441  1.0000
  C   C1520     1.0  0.65717  0.64278  0.61009  1.0000
  C   C1521     1.0  0.65125  0.65985  0.65634  1.0000
  C   C1522     1.0  0.63507  0.58580  0.62799  1.0000
  C   C1523     1.0  0.65108  0.56989  0.63280  1.0000
  C   C1524     1.0  0.67377  0.66644  0.60139  1.0000
  C   C1525     1.0  0.64323  0.67053  0.66969  1.0000
  H   H2649     1.0  0.66396  0.62142  0.63951  1.0000
  H   H2650     1.0  0.63377  0.60359  0.64802  1.0000
  H   H2651     1.0  0.61018  0.63079  0.65208  1.0000
  H   H2652     1.0  0.61947  0.66125  0.64328  1.0000
  H   H2653     1.0  0.64457  0.66935  0.62263  1.0000
  H   H2654     1.0  0.67070  0.66248  0.63033  1.0000
  H   H2655     1.0  0.63862  0.63047  0.60371  1.0000
  H   H2656     1.0  0.66920  0.63079  0.61184  1.0000
  H   H2657     1.0  0.58882  0.64981  0.62687  1.0000
  H   H2658     1.0  0.60430  0.64858  0.61063  1.0000
  H   H2659     1.0  0.66658  0.67738  0.65146  1.0000
  H   H2660     1.0  0.66063  0.64611  0.65956  1.0000
  H   H2661     1.0  0.63941  0.59054  0.61689  1.0000
  H   H2662     1.0  0.67298  0.58204  0.63208  1.0000
  H   H2663     1.0  0.64678  0.56396  0.64381  1.0000
  H   H2664     1.0  0.64536  0.55133  0.62594  1.0000
  H   H2665     1.0  0.66199  0.67825  0.59861  1.0000
  H   H2666     1.0  0.69263  0.67985  0.60729  1.0000
  H   H2667     1.0  0.67908  0.65891  0.59147  1.0000
  H   H2668     1.0  0.62833  0.65380  0.67531  1.0000
  H   H2669     1.0  0.66121  0.68099  0.67687  1.0000
  H   H2670     1.0  0.63444  0.68511  0.66709  1.0000
  N   N82       1.0  0.70565  0.92889  0.59136  1.0000
  C   C1526     1.0  0.68919  0.92829  0.60393  1.0000
  C   C1527     1.0  0.72916  0.95603  0.59096  1.0000
  C   C1528     1.0  0.68775  0.92524  0.57831  1.0000
  C   C1529     1.0  0.71510  0.90640  0.59107  1.0000
  C   C1530     1.0  0.73213  0.90505  0.60408  1.0000
  C   C1531     1.0  0.66414  0.90186  0.60576  1.0000
  C   C1532     1.0  0.70147  0.92803  0.56403  1.0000
  H   H2671     1.0  0.53807  0.57074  0.68097  1.0000
  Fe  Fe177     1.0  0.96675  0.80153  0.54378  1.0000
  C   C1533     1.0  0.73578  0.87867  0.60373  1.0000
  C   C1534     1.0  0.65025  0.90374  0.61922  1.0000
  C   C1535     1.0  0.68207  0.92673  0.55181  1.0000
  H   H2672     1.0  0.68220  0.94483  0.60349  1.0000
  H   H2673     1.0  0.70145  0.93242  0.61392  1.0000
  H   H2674     1.0  0.74520  0.95436  0.58452  1.0000
  H   H2675     1.0  0.63070  0.96846  0.72163  1.0000
  H   H2676     1.0  0.67830  0.93995  0.57879  1.0000
  H   H2677     1.0  0.67091  0.90499  0.57766  1.0000
  H   H2678     1.0  0.69774  0.88661  0.58925  1.0000
  H   H2679     1.0  0.72784  0.90794  0.58195  1.0000
  H   H2680     1.0  0.72280  0.90636  0.61407  1.0000
  H   H2681     1.0  0.75248  0.92158  0.60402  1.0000
  H   H2682     1.0  0.64917  0.89789  0.59690  1.0000
  H   H2683     1.0  0.66977  0.88450  0.60647  1.0000
  H   H2684     1.0  0.70791  0.91138  0.56212  1.0000
  H   H2685     1.0  0.71926  0.94738  0.56363  1.0000
  H   H2686     1.0  0.74965  0.84585  0.50176  1.0000
  H   H2687     1.0  0.72281  0.97058  0.58560  1.0000
  C   C1536     1.0  0.50653  0.91451  0.68676  1.0000
  S   S352      1.0  0.97026  0.75355  0.49879  1.0000
  C   C1537     1.0  0.74244  0.97067  0.60527  1.0000
  H   H2688     1.0  0.74920  0.87871  0.61276  1.0000
  H   H2689     1.0  0.74026  0.90972  0.50855  1.0000
  H   H2690     1.0  0.74511  0.87623  0.59389  1.0000
  H   H2691     1.0  0.66409  0.90741  0.62862  1.0000
  H   H2692     1.0  0.64333  0.92028  0.61879  1.0000
  H   H2693     1.0  0.63237  0.88478  0.62046  1.0000
  H   H2694     1.0  0.67574  0.94367  0.55289  1.0000
  H   H2695     1.0  0.69230  0.92834  0.54176  1.0000
  H   H2696     1.0  0.66407  0.90736  0.55143  1.0000
  N   N83       1.0  0.81674  0.76150  0.50794  1.0000
  C   C1538     1.0  0.71372  0.85348  0.49856  1.0000
  C   C1539     1.0  0.84545  0.76407  0.50971  1.0000
  C   C1540     1.0  0.81514  0.78540  0.51573  1.0000
  C   C1541     1.0  0.80889  0.76225  0.49268  1.0000
  H   H2697     1.0  0.88288  0.72471  0.51000  1.0000
  C   C1542     1.0  0.83541  0.81352  0.51156  1.0000
  C   C1543     1.0  0.85010  0.73776  0.50946  1.0000
  C   C1544     1.0  0.88002  0.74369  0.50915  1.0000
  H   H2698     1.0  0.68086  0.95247  0.52015  1.0000
  C   C1545     1.0  0.83316  0.83582  0.52083  1.0000
  H   H2699     1.0  0.53059  0.59316  0.66963  1.0000
  H   H2700     1.0  0.60245  0.86464  0.59689  1.0000
  H   H2701     1.0  0.85807  0.77720  0.50167  1.0000
  H   H2702     1.0  0.85464  0.77434  0.52010  1.0000
  H   H2703     1.0  0.65250  0.94239  0.50761  1.0000
  H   H2704     1.0  0.73961  0.95965  0.72397  1.0000
  C   C1546     1.0  0.93039  0.79504  0.58763  1.0000
  H   H2705     1.0  0.62035  0.85487  0.72180  1.0000
  C   C1547     1.0  0.70043  0.94031  0.71277  1.0000
  H   H2706     1.0  0.83123  0.81718  0.50054  1.0000
  H   H2707     1.0  0.85650  0.81566  0.51273  1.0000
  H   H2708     1.0  0.55365  0.96039  0.68633  1.0000
  H   H2709     1.0  0.89149  0.75766  0.51809  1.0000
  H   H2710     1.0  0.96485  0.84008  0.49557  1.0000
  C   C1548     1.0  0.52096  0.59600  0.69147  1.0000
  C   C1549     1.0  0.90438  0.82456  0.58699  1.0000
  H   H2711     1.0  0.84715  0.85575  0.51741  1.0000
  H   H2712     1.0  0.83849  0.83403  0.53199  1.0000
  N   N84       1.0  0.60838  0.78364  0.60995  1.0000
  C   C1550     1.0  0.59425  0.79860  0.60247  1.0000
  C   C1551     1.0  0.59333  0.75402  0.60632  1.0000
  C   C1552     1.0  0.60905  0.78975  0.62558  1.0000
  C   C1553     1.0  0.63693  0.79221  0.60553  1.0000
  C   C1554     1.0  0.64062  0.78982  0.58950  1.0000
  C   C1555     1.0  0.60895  0.82967  0.60331  1.0000
  C   C1556     1.0  0.61765  0.77203  0.63531  1.0000
  C   C1557     1.0  0.56376  0.74117  0.61065  1.0000
  C   C1558     1.0  0.55118  0.71102  0.60672  1.0000
  C   C1559     1.0  0.67038  0.80181  0.58624  1.0000
  C   C1560     1.0  0.62118  0.78261  0.65063  1.0000
  H   H2713     1.0  0.58967  0.79160  0.59120  1.0000
  H   H2714     1.0  0.59268  0.74988  0.59477  1.0000
  H   H2715     1.0  0.60410  0.74262  0.61103  1.0000
  H   H2716     1.0  0.58913  0.78821  0.62887  1.0000
  H   H2717     1.0  0.62298  0.81099  0.62826  1.0000
  H   H2718     1.0  0.64950  0.81323  0.60944  1.0000
  H   H2719     1.0  0.64641  0.77979  0.61051  1.0000
  H   H2720     1.0  0.63074  0.80047  0.58333  1.0000
  H   H2721     1.0  0.63219  0.76840  0.58569  1.0000
  H   H2722     1.0  0.62842  0.83646  0.59816  1.0000
  H   H2723     1.0  0.63694  0.77153  0.63233  1.0000
  H   H2724     1.0  0.60212  0.75110  0.63486  1.0000
  H   H2725     1.0  0.56237  0.74388  0.62212  1.0000
  H   H2726     1.0  0.55140  0.75015  0.60514  1.0000
  H   H2727     1.0  0.56251  0.70077  0.61210  1.0000
  H   H2728     1.0  0.53010  0.70212  0.61003  1.0000
  H   H2729     1.0  0.55107  0.70737  0.59518  1.0000
  H   H2730     1.0  0.67251  0.79861  0.57484  1.0000
  H   H2731     1.0  0.67968  0.82374  0.58896  1.0000
  H   H2732     1.0  0.68137  0.79183  0.59216  1.0000
  H   H2733     1.0  0.62735  0.76960  0.65733  1.0000
  H   H2734     1.0  0.63694  0.80343  0.65183  1.0000
  H   H2735     1.0  0.60199  0.78236  0.65437  1.0000
  N   N85       1.0  0.93112  0.76773  0.58885  1.0000
  H   H2736     1.0  0.88767  0.75383  0.62524  1.0000
  H   H2737     1.0  0.70424  0.81080  0.49490  1.0000
  C   C1561     1.0  0.91652  0.75086  0.57585  1.0000
  C   C1562     1.0  0.91701  0.75362  0.60152  1.0000
  C   C1563     1.0  0.90809  0.75450  0.62745  1.0000
  C   C1564     1.0  0.90216  0.79570  0.58745  1.0000
  C   C1565     1.0  0.91708  0.72261  0.57410  1.0000
  C   C1566     1.0  0.78484  0.90007  0.51267  1.0000
  H   H2738     1.0  0.52170  0.61642  0.69028  1.0000
  S   S353      1.0  0.95858  0.75835  0.53906  1.0000
  C   C1567     1.0  0.66106  0.96992  0.69327  1.0000
  C   C1568     1.0  0.90119  0.70748  0.56073  1.0000
  N   N86       1.0  0.65875  0.95023  0.71799  1.0000
  H   H2739     1.0  0.74361  0.95616  0.50347  1.0000
  H   H2740     1.0  0.49894  0.58075  0.64997  1.0000
  H   H2741     1.0  0.60688  0.82438  0.68901  1.0000
  H   H2742     1.0  0.92507  0.76185  0.56626  1.0000
  H   H2743     1.0  0.89494  0.74732  0.57550  1.0000
  H   H2744     1.0  0.89497  0.74780  0.60011  1.0000
  H   H2745     1.0  0.88831  0.75270  0.49916  1.0000
  H   H2746     1.0  0.92788  0.78965  0.61591  1.0000
  H   H2747     1.0  0.78477  0.94740  0.50518  1.0000
  H   H2748     1.0  0.78961  0.76480  0.49174  1.0000
  H   H2749     1.0  0.89139  0.78700  0.59698  1.0000
  H   H2750     1.0  0.62691  0.95612  0.67802  1.0000
  C   C1569     1.0  0.75104  0.90877  0.49890  1.0000
  H   H2751     1.0  0.91597  0.76547  0.63776  1.0000
  H   H2752     1.0  0.50753  0.68875  0.70269  1.0000
  H   H2753     1.0  0.90671  0.73366  0.62819  1.0000
  H   H2754     1.0  0.88394  0.82442  0.58611  1.0000
  H   H2755     1.0  0.61087  0.79318  0.68939  1.0000
  H   H2756     1.0  0.71276  0.85639  0.48715  1.0000
  C   C1570     1.0  0.54149  0.66853  0.72713  1.0000
  C   C1571     1.0  0.60876  0.80930  0.69605  1.0000
  H   H2757     1.0  0.94229  0.80925  0.59634  1.0000
  C   C1572     1.0  0.49178  0.57384  0.69033  1.0000
  H   H2758     1.0  0.91492  0.83642  0.59672  1.0000
  H   H2759     1.0  0.75650  0.70575  0.53126  1.0000
  H   H2760     1.0  0.69495  0.92201  0.71891  1.0000
  H   H2761     1.0  0.90210  0.68750  0.55967  1.0000
  H   H2762     1.0  0.61265  0.83748  0.61441  1.0000
  C   C1573     1.0  0.65147  0.97589  0.61541  1.0000
  C   C1574     1.0  0.58370  0.79751  0.70462  1.0000
  C   C1575     1.0  0.64442  0.92504  0.72593  1.0000
  C   C1576     1.0  0.64903  0.96240  0.67821  1.0000
  H   H2763     1.0  0.61999  0.89401  0.70996  1.0000
  H   H2764     1.0  0.49355  0.55478  0.69287  1.0000
  H   H2765     1.0  0.62705  0.81933  0.70307  1.0000
  H   H2766     1.0  0.78737  0.87164  0.48962  1.0000
  C   C1577     1.0  0.77032  0.93807  0.49610  1.0000
  C   C1578     1.0  0.57678  0.94734  0.72702  1.0000
  H   H2767     1.0  0.51191  0.82281  0.68313  1.0000
  H   H2768     1.0  0.91549  0.83446  0.57773  1.0000
  H   H2769     1.0  0.90983  0.71873  0.55130  1.0000
  H   H2770     1.0  0.58019  0.96803  0.72950  1.0000
  H   H2771     1.0  0.52956  0.96558  0.67471  1.0000
  H   H2772     1.0  0.49995  0.61321  0.71130  1.0000
  C   C1579     1.0  0.63659  0.89742  0.71788  1.0000
  H   H2773     1.0  0.88967  0.78446  0.57807  1.0000
  H   H2774     1.0  0.69706  0.81979  0.51227  1.0000
  H   H2775     1.0  0.55012  0.72932  0.70645  1.0000
  C   C1580     1.0  0.94995  0.81933  0.49271  1.0000
  H   H2776     1.0  0.48418  0.91007  0.71227  1.0000
  H   H2777     1.0  0.80229  0.91807  0.50950  1.0000
  H   H2778     1.0  0.94698  0.76961  0.61898  1.0000
  H   H2779     1.0  0.65154  0.92871  0.69753  1.0000
  C   C1581     1.0  0.75470  0.95558  0.49395  1.0000
  H   H2780     1.0  0.79937  0.71819  0.51023  1.0000
  H   H2781     1.0  0.48649  0.98591  0.61023  1.0000
  H   H2782     1.0  0.54969  0.60758  0.61964  1.0000
  C   C1582     1.0  0.48329  0.59353  0.71299  1.0000
  H   H2783     1.0  0.74800  0.95767  0.61220  1.0000
  C   C1583     1.0  0.69664  0.82387  0.50092  1.0000
  H   H2784     1.0  0.76886  0.97648  0.49203  1.0000
  H   H2785     1.0  0.69320  0.93447  0.70166  1.0000
  H   H2786     1.0  0.54068  0.78788  0.72047  1.0000
  N   N87       1.0  0.76380  0.88901  0.50072  1.0000
  H   H2787     1.0  0.80328  0.73747  0.52602  1.0000
  H   H2788     1.0  0.55922  0.60621  0.68184  1.0000
  H   H2789     1.0  0.79446  0.71854  0.48742  1.0000
  H   H2790     1.0  0.48482  0.57089  0.67906  1.0000
  H   H2791     1.0  0.71616  0.86127  0.60444  1.0000
  H   H2792     1.0  0.62657  0.93974  0.70224  1.0000
  H   H2793     1.0  0.87980  0.70443  0.56114  1.0000
  H   H2794     1.0  0.59292  0.76310  0.70934  1.0000
  H   H2795     1.0  0.96651  0.77000  0.57811  1.0000
  H   H2796     1.0  0.53558  0.75257  0.70344  1.0000
  H   H2797     1.0  0.68627  0.95699  0.50169  1.0000
  H   H2798     1.0  0.94025  0.80429  0.57788  1.0000
  C   C1584     1.0  0.73112  0.95377  0.71301  1.0000
  H   H2799     1.0  0.63650  0.96284  0.58008  1.0000
  H   H2800     1.0  0.74095  0.86141  0.51623  1.0000
  H   H2801     1.0  0.51869  0.94468  0.70444  1.0000
  H   H2802     1.0  0.74027  0.94775  0.48473  1.0000
  H   H2803     1.0  0.53072  0.59601  0.70187  1.0000
  H   H2804     1.0  0.65338  0.94570  0.67355  1.0000
  H   H2805     1.0  0.76520  0.81568  0.48420  1.0000
  H   H2806     1.0  0.82375  0.78027  0.48791  1.0000
  H   H2807     1.0  0.70427  0.86560  0.50396  1.0000
  C   C1585     1.0  0.53816  0.59109  0.68027  1.0000
  H   H2808     1.0  0.73900  0.93952  0.70846  1.0000
  H   H2809     1.0  0.62496  0.92448  0.72953  1.0000
  C   C1586     1.0  0.51371  0.72246  0.71746  1.0000
  H   H2810     1.0  0.69556  0.96198  0.73078  1.0000
  H   H2811     1.0  0.67550  0.81864  0.49726  1.0000
  H   H2812     1.0  0.77658  0.90728  0.52166  1.0000
  C   C1587     1.0  0.64865  0.94575  0.70278  1.0000
  H   H2813     1.0  0.83334  0.91213  0.52816  1.0000
  H   H2814     1.0  0.76047  0.72851  0.50188  1.0000
  N   N88       1.0  0.56092  0.76125  0.72270  1.0000
  C   C1588     1.0  0.75037  0.70466  0.51993  1.0000
  C   C1589     1.0  0.81605  0.89392  0.53120  1.0000
  C   C1590     1.0  0.65199  0.97240  0.72439  1.0000
  C   C1591     1.0  0.75209  0.79456  0.48278  1.0000
  H   H2815     1.0  0.91920  0.73432  0.60254  1.0000
  C   C1592     1.0  0.67316  0.95767  0.51026  1.0000
  H   H2816     1.0  0.80811  0.87528  0.51038  1.0000
  H   H2817     1.0  0.73543  0.90206  0.49021  1.0000
  H   H2818     1.0  0.65345  0.89609  0.71224  1.0000
  S   S354      1.0  0.48323  0.62603  0.64676  1.0000
  H   H2819     1.0  0.52286  0.67093  0.72804  1.0000
  C   C1593     1.0  0.95985  0.77018  0.58905  1.0000
  H   H2820     1.0  0.49937  0.85126  0.69966  1.0000
  H   H2821     1.0  0.60299  0.78935  0.72249  1.0000
  C   C1594     1.0  0.77775  0.88585  0.48778  1.0000
  H   H2822     1.0  0.49678  0.83266  0.66855  1.0000
  H   H2823     1.0  0.52079  0.87019  0.68645  1.0000
  H   H2824     1.0  0.50596  0.91531  0.67508  1.0000
  H   H2825     1.0  0.48679  0.95351  0.61332  1.0000
  C   C1595     1.0  0.51247  0.94315  0.69311  1.0000
  C   C1596     1.0  0.48333  0.89114  0.70708  1.0000
  H   H2826     1.0  0.96130  0.75226  0.59371  1.0000
  H   H2827     1.0  0.73794  0.97191  0.70666  1.0000
  H   H2828     1.0  0.63544  0.97099  0.52214  1.0000
  C   C1597     1.0  0.49388  0.57848  0.72354  1.0000
  H   H2829     1.0  0.49319  0.71143  0.69667  1.0000
  H   H2830     1.0  0.69915  0.97956  0.71523  1.0000
  H   H2831     1.0  0.48817  0.62083  0.67867  1.0000
  H   H2832     1.0  0.48445  0.86302  0.73106  1.0000
  H   H2833     1.0  0.53269  0.61089  0.72925  1.0000
  H   H2834     1.0  0.68310  0.97631  0.69286  1.0000
  H   H2835     1.0  0.65778  0.98000  0.67155  1.0000
  H   H2836     1.0  0.48733  0.63465  0.69610  1.0000
  H   H2837     1.0  0.79460  0.90517  0.48561  1.0000
  C   C1598     1.0  0.50028  0.85562  0.68834  1.0000
  H   H2838     1.0  0.49474  0.94816  0.69206  1.0000
  H   H2839     1.0  0.62118  0.98388  0.50223  1.0000
  H   H2840     1.0  0.66426  0.98275  0.53363  1.0000
  H   H2841     1.0  0.50175  0.73382  0.72073  1.0000
  H   H2842     1.0  0.59597  0.98373  0.55686  1.0000
  H   H2843     1.0  0.78158  0.93879  0.48651  1.0000
  C   C1599     1.0  0.49588  0.82953  0.68003  1.0000
  H   H2844     1.0  0.51653  0.71160  0.72658  1.0000
  H   H2845     1.0  0.56533  0.72519  0.72907  1.0000
  C   C1600     1.0  0.54847  0.77902  0.72899  1.0000
  C   C1601     1.0  0.67328  0.98578  0.51173  1.0000
  H   H2846     1.0  0.54035  0.98467  0.69120  1.0000
  C   C1602     1.0  0.80655  0.73805  0.48293  1.0000
  N   N89       1.0  0.48113  0.89219  0.69131  1.0000
  H   H2847     1.0  0.55188  0.83151  0.73250  1.0000
  H   H2848     1.0  0.85131  0.72836  0.91364  1.0000
  H   H2849     1.0  0.57538  0.79410  0.81795  1.0000
  H   H2850     1.0  0.88354  0.80178  0.88050  1.0000
  Fe  Fe178     1.0  0.96128  0.77758  0.89626  1.0000
  S   S355      1.0  0.92703  0.78588  0.88618  1.0000
  S   S356      1.0  0.96256  0.73762  0.90053  1.0000
  Fe  Fe179     1.0  0.77680  0.76161  0.90458  1.0000
  S   S357      1.0  0.73652  0.73876  0.91376  1.0000
  S   S358      1.0  0.80728  0.74291  0.90735  1.0000
  Fe  Fe180     1.0  0.76141  0.80759  0.89724  1.0000
  S   S359      1.0  0.72071  0.78849  0.90620  1.0000
  S   S360      1.0  0.77560  0.84689  0.88628  1.0000
  Fe  Fe181     1.0  0.74226  0.77834  0.92439  1.0000
  S   S361      1.0  0.73720  0.78918  0.94741  1.0000
  Fe  Fe182     1.0  0.71823  0.75055  0.89470  1.0000
  S   S362      1.0  0.67882  0.72076  0.88301  1.0000
  S   S363      1.0  0.78325  0.80056  0.91602  1.0000
  S   S364      1.0  0.75821  0.77028  0.88488  1.0000
  Fe  Fe183     1.0  0.56462  0.86577  0.78725  1.0000
  S   S365      1.0  0.60058  0.90531  0.78697  1.0000
  S   S366      1.0  0.56967  0.82794  0.78051  1.0000
  Fe  Fe184     1.0  0.52685  0.89216  0.79592  1.0000
  S   S367      1.0  0.56027  0.93363  0.79643  1.0000
  H   H2851     1.0  0.89922  0.75256  0.94282  1.0000
  Fe  Fe185     1.0  0.57148  0.91916  0.77583  1.0000
  S   S368      1.0  0.57937  0.94329  0.75583  1.0000
  Fe  Fe186     1.0  0.58680  0.91618  0.80756  1.0000
  S   S369      1.0  0.60887  0.92738  0.82979  1.0000
  S   S370      1.0  0.53666  0.87894  0.77500  1.0000
  S   S371      1.0  0.55225  0.87541  0.80811  1.0000
  Fe  Fe187     1.0  0.52443  0.62973  0.80327  1.0000
  S   S372      1.0  0.56405  0.64009  0.79289  1.0000
  C   C1603     1.0  0.79367  0.71835  0.87155  1.0000
  Fe  Fe188     1.0  0.53252  0.68880  0.80486  1.0000
  S   S373      1.0  0.57166  0.70233  0.79444  1.0000
  S   S374      1.0  0.51683  0.71954  0.81207  1.0000
  Fe  Fe189     1.0  0.55112  0.66655  0.77934  1.0000
  S   S375      1.0  0.54266  0.66989  0.75588  1.0000
  Fe  Fe190     1.0  0.58119  0.67538  0.80914  1.0000
  S   S376      1.0  0.62350  0.69701  0.82025  1.0000
  S   S377      1.0  0.51111  0.65453  0.78920  1.0000
  S   S378      1.0  0.54237  0.66315  0.82017  1.0000
  S   S379      1.0  0.76247  0.94356  0.91912  1.0000
  H   H2852     1.0  0.56265  0.94105  0.82698  1.0000
  H   H2853     1.0  0.68375  0.69232  0.90843  1.0000
  C   C1604     1.0  0.70808  0.95661  0.94620  1.0000
  H   H2854     1.0  0.66211  0.95687  0.87504  1.0000
  H   H2855     1.0  0.49077  0.93623  0.75901  1.0000
  H   H2856     1.0  0.56800  0.83865  0.74981  1.0000
  C   C1605     1.0  0.55178  0.79740  0.78847  1.0000
  C   C1606     1.0  0.53575  0.79579  0.79991  1.0000
  C   C1607     1.0  0.52412  0.77152  0.80686  1.0000
  C   C1608     1.0  0.52814  0.74874  0.80222  1.0000
  C   C1609     1.0  0.54248  0.74998  0.79015  1.0000
  C   C1610     1.0  0.55463  0.77428  0.78347  1.0000
  H   H2857     1.0  0.53289  0.81338  0.80361  1.0000
  C   C1611     1.0  0.96012  0.74395  0.97149  1.0000
  H   H2858     1.0  0.54439  0.73227  0.78596  1.0000
  H   H2859     1.0  0.56650  0.77521  0.77445  1.0000
  C   C1612     1.0  0.73917  0.77526  0.96396  1.0000
  C   C1613     1.0  0.73890  0.74957  0.96503  1.0000
  H   H2860     1.0  0.70760  0.70450  0.84030  1.0000
  H   H2861     1.0  0.71665  0.62821  0.89658  1.0000
  H   H2862     1.0  0.73946  0.71933  0.97905  1.0000
  H   H2863     1.0  0.73723  0.73739  0.95557  1.0000
  H   H2864     1.0  0.89810  0.77631  0.93028  1.0000
  C   C1614     1.0  0.74006  0.73935  0.97839  1.0000
  C   C1615     1.0  0.77208  0.87385  0.89538  1.0000
  C   C1616     1.0  0.78202  0.89943  0.88977  1.0000
  C   C1617     1.0  0.77892  0.92107  0.89681  1.0000
  C   C1618     1.0  0.76609  0.91716  0.90954  1.0000
  C   C1619     1.0  0.75641  0.89166  0.91518  1.0000
  C   C1620     1.0  0.75929  0.87005  0.90811  1.0000
  H   H2865     1.0  0.79225  0.90254  0.88000  1.0000
  H   H2866     1.0  0.78707  0.94085  0.89260  1.0000
  H   H2867     1.0  0.74676  0.88856  0.92511  1.0000
  H   H2868     1.0  0.75180  0.85048  0.91258  1.0000
  C   C1621     1.0  0.66341  0.71561  0.86558  1.0000
  C   C1622     1.0  0.63683  0.69623  0.86312  1.0000
  C   C1623     1.0  0.62408  0.69065  0.84948  1.0000
  C   C1624     1.0  0.63786  0.70410  0.83795  1.0000
  C   C1625     1.0  0.66439  0.72359  0.84044  1.0000
  C   C1626     1.0  0.67700  0.72943  0.85411  1.0000
  H   H2869     1.0  0.62601  0.68529  0.87185  1.0000
  H   H2870     1.0  0.60379  0.67550  0.84785  1.0000
  H   H2871     1.0  0.67543  0.73411  0.83166  1.0000
  H   H2872     1.0  0.69745  0.74427  0.85571  1.0000
  H   H2873     1.0  0.72754  0.67305  0.89843  1.0000
  H   H2874     1.0  0.93447  0.84326  0.92954  1.0000
  H   H2875     1.0  0.80385  0.71135  0.87980  1.0000
  H   H2876     1.0  0.83702  0.78606  0.88878  1.0000
  H   H2877     1.0  0.70989  0.58442  0.87370  1.0000
  H   H2878     1.0  0.71823  0.69663  0.89011  1.0000
  H   H2879     1.0  0.76436  0.67783  0.93781  1.0000
  H   H2880     1.0  0.79671  0.71080  0.86107  1.0000
  H   H2881     1.0  0.92204  0.78738  0.94504  1.0000
  C   C1627     1.0  0.89416  0.77445  0.89262  1.0000
  C   C1628     1.0  0.88494  0.75392  0.90211  1.0000
  C   C1629     1.0  0.85837  0.74467  0.90655  1.0000
  C   C1630     1.0  0.84087  0.75615  0.90181  1.0000
  C   C1631     1.0  0.85027  0.77710  0.89257  1.0000
  C   C1632     1.0  0.87668  0.78598  0.88789  1.0000
  H   H2882     1.0  0.89810  0.74477  0.90579  1.0000
  N   N90       1.0  0.70854  0.91061  0.86724  1.0000
  C   C1633     1.0  0.72705  0.93406  0.85930  1.0000
  C   C1634     1.0  0.68018  0.89967  0.86071  1.0000
  C   C1635     1.0  0.70780  0.92109  0.88207  1.0000
  C   C1636     1.0  0.71858  0.88864  0.86808  1.0000
  C   C1637     1.0  0.72225  0.87623  0.85389  1.0000
  C   C1638     1.0  0.75720  0.94594  0.86414  1.0000
  C   C1639     1.0  0.68845  0.90044  0.89190  1.0000
  C   C1640     1.0  0.67685  0.90138  0.84455  1.0000
  C   C1641     1.0  0.64796  0.88464  0.83912  1.0000
  C   C1642     1.0  0.73677  0.85772  0.85611  1.0000
  C   C1643     1.0  0.75921  0.95225  0.95733  1.0000
  C   C1644     1.0  0.68567  0.91421  0.90562  1.0000
  H   H2883     1.0  0.71996  0.95059  0.85978  1.0000
  H   H2884     1.0  0.72665  0.92877  0.84795  1.0000
  H   H2885     1.0  0.66897  0.87832  0.86335  1.0000
  H   H2886     1.0  0.66869  0.91065  0.86528  1.0000
  H   H2887     1.0  0.70244  0.93882  0.88179  1.0000
  H   H2888     1.0  0.72790  0.92853  0.88762  1.0000
  H   H2889     1.0  0.73781  0.89592  0.87445  1.0000
  H   H2890     1.0  0.70458  0.87155  0.87387  1.0000
  H   H2891     1.0  0.73423  0.89183  0.84674  1.0000
  H   H2892     1.0  0.70230  0.86391  0.84870  1.0000
  H   H2893     1.0  0.53052  0.76694  0.73486  1.0000
  H   H2894     1.0  0.76591  0.93091  0.86245  1.0000
  H   H2895     1.0  0.69639  0.88531  0.89472  1.0000
  H   H2896     1.0  0.66800  0.88976  0.88694  1.0000
  H   H2897     1.0  0.68189  0.92263  0.84200  1.0000
  H   H2898     1.0  0.69004  0.89419  0.83866  1.0000
  H   H2899     1.0  0.64562  0.88836  0.82786  1.0000
  H   H2900     1.0  0.64301  0.86293  0.84009  1.0000
  H   H2901     1.0  0.63360  0.89022  0.84506  1.0000
  H   H2902     1.0  0.75760  0.86947  0.86046  1.0000
  H   H2903     1.0  0.72604  0.84187  0.86349  1.0000
  H   H2904     1.0  0.73790  0.84783  0.84592  1.0000
  H   H2905     1.0  0.83539  0.73559  0.96851  1.0000
  H   H2906     1.0  0.52129  0.63833  0.84918  1.0000
  H   H2907     1.0  0.94621  0.93434  0.89844  1.0000
  H   H2908     1.0  0.67182  0.89904  0.91243  1.0000
  H   H2909     1.0  0.70547  0.92421  0.91139  1.0000
  H   H2910     1.0  0.67740  0.92939  0.90349  1.0000
  C   C1645     1.0  0.58491  0.81582  0.83817  1.0000
  C   C1646     1.0  0.57532  0.83723  0.83355  1.0000
  H   H2911     1.0  0.58782  0.76918  0.84886  1.0000
  H   H2912     1.0  0.60196  0.82565  0.84593  1.0000
  H   H2913     1.0  0.56818  0.80052  0.84357  1.0000
  H   H2914     1.0  0.54602  0.71425  0.84768  1.0000
  H   H2915     1.0  0.55661  0.82788  0.82678  1.0000
  H   H2916     1.0  0.57099  0.84722  0.84292  1.0000
  H   H2917     1.0  0.59087  0.85287  0.82765  1.0000
  N   N91       1.0  0.82990  0.76334  0.95423  1.0000
  C   C1647     1.0  0.80317  0.74575  0.94700  1.0000
  C   C1648     1.0  0.83385  0.79256  0.95436  1.0000
  C   C1649     1.0  0.85165  0.76050  0.94568  1.0000
  C   C1650     1.0  0.83279  0.75486  0.96893  1.0000
  H   H2918     1.0  0.60914  0.87440  0.73353  1.0000
  C   C1651     1.0  0.79700  0.71540  0.94507  1.0000
  C   C1652     1.0  0.88106  0.77940  0.95040  1.0000
  C   C1653     1.0  0.80850  0.79863  0.95583  1.0000
  H   H2919     1.0  0.72052  0.96435  0.96798  1.0000
  C   C1654     1.0  0.51424  0.59786  0.73444  1.0000
  C   C1655     1.0  0.76820  0.69942  0.93924  1.0000
  C   C1656     1.0  0.90121  0.77351  0.94157  1.0000
  H   H2920     1.0  0.80169  0.75317  0.93637  1.0000
  H   H2921     1.0  0.78630  0.74726  0.95262  1.0000
  H   H2922     1.0  0.53469  0.81255  0.74720  1.0000
  H   H2923     1.0  0.84221  0.80154  0.94427  1.0000
  H   H2924     1.0  0.84855  0.76394  0.93440  1.0000
  H   H2925     1.0  0.85056  0.73967  0.94591  1.0000
  H   H2926     1.0  0.59282  0.71955  0.75020  1.0000
  H   H2927     1.0  0.48337  0.57021  0.76059  1.0000
  H   H2928     1.0  0.82692  0.83950  0.94866  1.0000
  H   H2929     1.0  0.69302  0.93310  0.96460  1.0000
  H   H2930     1.0  0.81047  0.71211  0.93742  1.0000
  H   H2931     1.0  0.79940  0.70697  0.95520  1.0000
  H   H2932     1.0  0.88566  0.77666  0.96150  1.0000
  H   H2933     1.0  0.88472  0.80080  0.94927  1.0000
  H   H2934     1.0  0.79520  0.79135  0.94616  1.0000
  H   H2935     1.0  0.59953  0.77765  0.74613  1.0000
  H   H2936     1.0  0.74269  0.90801  0.97530  1.0000
  H   H2937     1.0  0.66571  0.85117  0.93975  1.0000
  H   H2938     1.0  0.74085  0.81035  0.97582  1.0000
  H   H2939     1.0  0.55191  0.90141  0.83914  1.0000
  H   H2940     1.0  0.49555  0.86018  0.84567  1.0000
  H   H2941     1.0  0.68863  0.87981  0.96093  1.0000
  H   H2942     1.0  0.75357  0.70129  0.94662  1.0000
  H   H2943     1.0  0.76509  0.70677  0.92887  1.0000
  H   H2944     1.0  0.76022  0.95252  0.87537  1.0000
  C   C1657     1.0  0.63860  0.94793  0.84042  1.0000
  H   H2945     1.0  0.76006  0.67251  0.88353  1.0000
  H   H2946     1.0  0.76178  0.71804  0.88430  1.0000
  C   C1658     1.0  0.59323  0.80297  0.82536  1.0000
  H   H2947     1.0  0.95795  0.92814  0.88164  1.0000
  C   C1659     1.0  0.69891  0.68226  0.83875  1.0000
  H   H2948     1.0  0.74213  0.62793  0.88513  1.0000
  H   H2949     1.0  0.65981  0.65930  0.91204  1.0000
  H   H2950     1.0  0.57246  0.95083  0.84482  1.0000
  H   H2951     1.0  0.56333  0.75865  0.83457  1.0000
  H   H2952     1.0  0.62893  0.80509  0.84651  1.0000
  H   H2953     1.0  0.60822  0.81991  0.81986  1.0000
  C   C1660     1.0  0.67588  0.79748  0.84497  1.0000
  H   H2954     1.0  0.51919  0.95172  0.81885  1.0000
  C   C1661     1.0  0.68065  0.67092  0.90885  1.0000
  C   C1662     1.0  0.58432  0.76161  0.83765  1.0000
  H   H2955     1.0  0.80319  0.74069  0.87194  1.0000
  C   C1663     1.0  0.75004  0.67776  0.87447  1.0000
  C   C1664     1.0  0.72023  0.62224  0.88586  1.0000
  C   C1665     1.0  0.76372  0.70880  0.87408  1.0000
  C   C1666     1.0  0.56704  0.71604  0.84864  1.0000
  H   H2956     1.0  0.56677  0.69554  0.84781  1.0000
  H   H2957     1.0  0.92894  0.87044  0.92199  1.0000
  H   H2958     1.0  0.64399  0.81394  0.83025  1.0000
  N   N92       1.0  0.60402  0.78206  0.82856  1.0000
  C   C1667     1.0  0.71389  0.67481  0.88995  1.0000
  C   C1668     1.0  0.70627  0.59159  0.88417  1.0000
  H   H2959     1.0  0.69487  0.66909  0.91694  1.0000
  H   H2960     1.0  0.75557  0.66888  0.86503  1.0000
  C   C1669     1.0  0.63112  0.79639  0.83616  1.0000
  C   C1670     1.0  0.58341  0.73272  0.83694  1.0000
  H   H2961     1.0  0.60356  0.73258  0.83776  1.0000
  H   H2962     1.0  0.57620  0.72533  0.85912  1.0000
  C   C1671     1.0  0.68448  0.66014  0.89445  1.0000
  H   H2963     1.0  0.75483  0.71651  0.86559  1.0000
  H   H2964     1.0  0.71435  0.58250  0.89240  1.0000
  H   H2965     1.0  0.68429  0.58470  0.88533  1.0000
  H   H2966     1.0  0.68704  0.78494  0.84750  1.0000
  H   H2967     1.0  0.61039  0.75749  0.73469  1.0000
  H   H2968     1.0  0.73528  0.89723  0.95151  1.0000
  H   H2969     1.0  0.55096  0.73914  0.74180  1.0000
  N   N93       1.0  0.71998  0.66581  0.87581  1.0000
  C   C1672     1.0  0.70985  0.63561  0.87429  1.0000
  H   H2970     1.0  0.67882  0.63828  0.89525  1.0000
  H   H2971     1.0  0.71051  0.69683  0.86628  1.0000
  H   H2972     1.0  0.67539  0.80899  0.85472  1.0000
  H   H2973     1.0  0.67014  0.66287  0.88680  1.0000
  H   H2974     1.0  0.71587  0.62949  0.86416  1.0000
  H   H2975     1.0  0.68747  0.62614  0.87364  1.0000
  C   C1673     1.0  0.60582  0.76866  0.81473  1.0000
  C   C1674     1.0  0.64737  0.77945  0.83939  1.0000
  H   H2976     1.0  0.58531  0.75807  0.80967  1.0000
  H   H2977     1.0  0.57372  0.72237  0.82673  1.0000
  H   H2978     1.0  0.68691  0.81166  0.83693  1.0000
  H   H2979     1.0  0.63786  0.76538  0.84774  1.0000
  H   H2980     1.0  0.61561  0.80193  0.80032  1.0000
  H   H2981     1.0  0.64464  0.79855  0.80821  1.0000
  C   C1675     1.0  0.97941  0.84354  0.86718  1.0000
  C   C1676     1.0  0.71282  0.94630  0.96062  1.0000
  C   C1677     1.0  0.78191  0.94199  0.95779  1.0000
  H   H2982     1.0  0.73428  0.67973  0.84751  1.0000
  H   H2983     1.0  0.67688  0.67414  0.84008  1.0000
  C   C1678     1.0  0.70609  0.67510  0.86452  1.0000
  H   H2984     1.0  0.68389  0.66482  0.86513  1.0000
  C   C1679     1.0  0.62381  0.78738  0.80380  1.0000
  H   H2985     1.0  0.61314  0.75261  0.81627  1.0000
  H   H2986     1.0  0.64917  0.76800  0.82994  1.0000
  C   C1680     1.0  0.94037  0.84543  0.90689  1.0000
  H   H2987     1.0  0.51258  0.77062  0.81601  1.0000
  C   C1681     1.0  0.62509  0.77117  0.79066  1.0000
  H   H2988     1.0  0.63810  0.78492  0.78300  1.0000
  H   H2989     1.0  0.60469  0.76034  0.78561  1.0000
  H   H2990     1.0  0.62185  0.92952  0.85959  1.0000
  H   H2991     1.0  0.70234  0.67716  0.82781  1.0000
  H   H2992     1.0  0.59042  0.66144  0.74737  1.0000
  C   C1682     1.0  0.59450  0.75697  0.74187  1.0000
  C   C1683     1.0  0.71242  0.67029  0.84914  1.0000
  H   H2993     1.0  0.70484  0.64846  0.84634  1.0000
  H   H2994     1.0  0.56791  0.88963  0.74297  1.0000
  H   H2995     1.0  0.63353  0.75636  0.79337  1.0000
  H   H2996     1.0  0.93863  0.73667  0.96950  1.0000
  H   H2997     1.0  0.70210  0.94069  0.93767  1.0000
  H   H2998     1.0  0.75868  0.95939  0.94660  1.0000
  Fe  Fe191     1.0  0.76487  0.98282  0.91075  1.0000
  C   C1684     1.0  0.63926  0.94439  0.85503  1.0000
  H   H2999     1.0  0.67732  0.98297  0.74412  1.0000
  H   H3000     1.0  0.52225  0.61106  0.83812  1.0000
  H   H3001     1.0  0.48696  0.93047  0.79258  1.0000
  C   C1685     1.0  0.66141  0.96743  0.83483  1.0000
  C   C1686     1.0  0.52909  0.97933  0.87547  1.0000
  C   C1687     1.0  0.72280  0.90896  0.95015  1.0000
  N   N94       1.0  0.53088  0.94334  0.83940  1.0000
  S   S380      1.0  0.48322  0.87845  0.80223  1.0000
  C   C1688     1.0  0.56664  0.74469  0.73383  1.0000
  H   H3002     1.0  0.94472  0.84205  0.87764  1.0000
  N   N95       1.0  0.73173  0.93232  0.96084  1.0000
  H   H3003     1.0  0.72659  0.97361  0.94321  1.0000
  H   H3004     1.0  0.88621  0.83762  0.90993  1.0000
  H   H3005     1.0  0.82479  0.95673  0.95494  1.0000
  C   C1689     1.0  0.68591  0.96696  0.94685  1.0000
  C   C1690     1.0  0.51460  0.61620  0.84799  1.0000
  H   H3006     1.0  0.52349  0.60951  0.85695  1.0000
  H   H3007     1.0  0.81436  0.98144  0.96270  1.0000
  C   C1691     1.0  0.80884  0.96452  0.95471  1.0000
  H   H3008     1.0  0.69974  0.85410  0.94196  1.0000
  H   H3009     1.0  0.48533  0.62029  0.82768  1.0000
  C   C1692     1.0  0.55444  0.82232  0.74237  1.0000
  H   H3010     1.0  0.79659  0.78879  0.96477  1.0000
  H   H3011     1.0  0.92167  0.88477  0.90058  1.0000
  H   H3012     1.0  0.61556  0.74946  0.75982  1.0000
  H   H3013     1.0  0.49669  0.90467  0.83916  1.0000
  H   H3014     1.0  0.93358  0.87875  0.88418  1.0000
  C   C1693     1.0  0.56018  0.95346  0.83589  1.0000
  H   H3015     1.0  0.68390  0.97551  0.93667  1.0000
  H   H3016     1.0  0.57983  0.73817  0.76163  1.0000
  C   C1694     1.0  0.51801  0.91332  0.83616  1.0000
  H   H3017     1.0  0.77782  0.92552  0.94968  1.0000
  C   C1695     1.0  0.81590  0.82879  0.95777  1.0000
  H   H3018     1.0  0.72631  0.91621  0.93932  1.0000
  C   C1696     1.0  0.51499  0.86644  0.84048  1.0000
  H   H3019     1.0  0.53997  0.97043  0.88226  1.0000
  C   C1697     1.0  0.59563  0.73998  0.75413  1.0000
  H   H3020     1.0  0.78412  0.93455  0.96824  1.0000
  C   C1698     1.0  0.55566  0.66679  0.73937  1.0000
  C   C1699     1.0  0.73219  0.92180  0.97528  1.0000
  C   C1700     1.0  0.51638  0.95568  0.83013  1.0000
  H   H3021     1.0  0.85144  0.76967  0.97446  1.0000
  H   H3022     1.0  0.77211  0.96482  0.84446  1.0000
  H   H3023     1.0  0.69123  0.87300  0.92884  1.0000
  C   C1701     1.0  0.53586  0.97780  0.86009  1.0000
  H   H3024     1.0  0.51748  0.90904  0.82462  1.0000
  H   H3025     1.0  0.84902  0.80457  0.96277  1.0000
  H   H3026     1.0  0.67918  0.89819  0.94798  1.0000
  C   C1702     1.0  0.68496  0.97950  0.85829  1.0000
  H   H3027     1.0  0.50742  0.93605  0.85800  1.0000
  H   H3028     1.0  0.79471  0.97889  0.85966  1.0000
  C   C1703     1.0  0.94171  0.92004  0.88916  1.0000
  H   H3029     1.0  0.88635  0.83407  0.92868  1.0000
  C   C1704     1.0  0.48394  0.60188  0.84777  1.0000
  C   C1705     1.0  0.57440  0.93002  0.73806  1.0000
  C   C1706     1.0  0.97692  0.74842  0.96005  1.0000
  C   C1707     1.0  0.68716  0.86534  0.93957  1.0000
  H   H3030     1.0  0.97604  0.82276  0.86986  1.0000
  C   C1708     1.0  0.89585  0.83168  0.91888  1.0000
  C   C1709     1.0  0.57402  0.98288  0.83123  1.0000
  C   C1710     1.0  0.96634  0.85557  0.87779  1.0000
  H   H3031     1.0  0.92257  0.91828  0.88387  1.0000
  C   C1711     1.0  0.74077  0.79053  0.97647  1.0000
  H   H3032     1.0  0.89212  0.81018  0.91719  1.0000
  H   H3033     1.0  0.82840  0.83709  0.96762  1.0000
  C   C1712     1.0  0.57937  0.66295  0.73805  1.0000
  C   C1713     1.0  0.52821  0.94830  0.85486  1.0000
  H   H3034     1.0  0.79722  0.83227  0.95846  1.0000
  H   H3035     1.0  0.76555  0.97063  0.96426  1.0000
  H   H3036     1.0  0.66147  0.97062  0.82368  1.0000
  C   C1714     1.0  0.69312  0.88853  0.95047  1.0000
  H   H3037     1.0  0.66638  0.95036  0.94890  1.0000
  S   S381      1.0  0.49835  0.58566  0.80765  1.0000
  C   C1715     1.0  0.92603  0.84922  0.92011  1.0000
  C   C1716     1.0  0.93895  0.89240  0.89368  1.0000
  H   H3038     1.0  0.49795  0.69988  0.86298  1.0000
  H   H3039     1.0  0.96863  0.87543  0.87402  1.0000
  H   H3040     1.0  0.51079  0.86137  0.82902  1.0000
  H   H3041     1.0  0.92635  0.84135  0.89757  1.0000
  H   H3042     1.0  0.53413  0.90036  0.85484  1.0000
  C   C1717     1.0  0.56662  0.80190  0.73954  1.0000
  H   H3043     1.0  0.52605  0.85488  0.84472  1.0000
  H   H3044     1.0  0.54118  0.94124  0.86133  1.0000
  H   H3045     1.0  0.94282  0.82626  0.90807  1.0000
  C   C1718     1.0  0.66217  0.95990  0.86387  1.0000
  H   H3046     1.0  0.80781  0.97206  0.94408  1.0000
  C   C1719     1.0  0.53175  0.89657  0.84329  1.0000
  H   H3047     1.0  0.56847  0.79339  0.74976  1.0000
  H   H3048     1.0  0.48610  0.96392  0.75128  1.0000
  S   S382      1.0  0.96209  0.74004  0.94266  1.0000
  H   H3049     1.0  0.48189  0.98392  0.83067  1.0000
  H   H3050     1.0  0.52519  0.97790  0.83166  1.0000
  H   H3051     1.0  0.80943  0.77131  0.98157  1.0000
  H   H3052     1.0  0.50570  0.61068  0.73996  1.0000
  H   H3053     1.0  0.52004  0.58641  0.74235  1.0000
  S   S383      1.0  0.97717  0.79613  0.91777  1.0000
  C   C1720     1.0  0.48565  0.94566  0.83184  1.0000
  H   H3054     1.0  0.97008  0.59475  0.80264  1.0000
  H   H3055     1.0  0.64351  0.95878  0.74614  1.0000
  N   N96       1.0  0.96720  0.86798  0.90452  1.0000
  H   H3056     1.0  0.96661  0.90605  0.91161  1.0000
  C   C1721     1.0  0.96507  0.89421  0.90161  1.0000
  H   H3057     1.0  0.97608  0.87807  0.92684  1.0000
  H   H3058     1.0  0.60867  0.97922  0.82213  1.0000
  C   C1722     1.0  0.80992  0.75158  0.97892  1.0000
  H   H3059     1.0  0.79015  0.73743  0.97431  1.0000
  C   C1723     1.0  0.56987  0.90327  0.73464  1.0000
  C   C1724     1.0  0.48509  0.70154  0.85410  1.0000
  H   H3060     1.0  0.65634  0.92536  0.73570  1.0000
  H   H3061     1.0  0.49770  0.70997  0.84502  1.0000
  H   H3062     1.0  0.50712  0.96853  0.87668  1.0000
  C   C1725     1.0  0.77329  0.97047  0.85585  1.0000
  H   H3063     1.0  0.97016  0.84254  0.85651  1.0000
  H   H3064     1.0  0.71137  0.90925  0.97824  1.0000
  H   H3065     1.0  0.58695  0.81304  0.73571  1.0000
  C   C1726     1.0  0.68426  0.98303  0.84368  1.0000
  H   H3066     1.0  0.49171  0.66295  0.83886  1.0000
  H   H3067     1.0  0.69092  0.98312  0.95525  1.0000
  C   C1727     1.0  0.65600  0.97705  0.74066  1.0000
  H   H3068     1.0  0.56593  0.98446  0.82060  1.0000
  H   H3069     1.0  0.48412  0.65012  0.85567  1.0000
  H   H3070     1.0  0.64291  0.87608  0.73570  1.0000
  S   S384      1.0  0.72545  0.98680  0.91046  1.0000
  H   H3071     1.0  0.48073  0.96726  0.81379  1.0000
  H   H3072     1.0  0.76556  0.98635  0.85736  1.0000
  Fe  Fe192     1.0  0.98040  0.75730  0.92197  1.0000
  C   C1728     1.0  0.98011  0.85924  0.89264  1.0000
