data_image0
_chemical_formula_structural       FeSH3FeSH5SHFeCFeH2C2HC2H2FeS2HFeS2FeHFeH2SHC3HC2SCH3SCH2C3H5CSH2CH2C2HCH2C2H4CHCH5CH6C3H2C2SHCH2C2NH2C2HSHCH6SHCHSH2NC2H5NCHC2H3CHCH2CH5CHCHC2H3CHCH2SH6CH2CH2FeC3H2C3HCHNH2CH4C2H2CHCH2CSH3CHC2HCH2CHCH3CH2C2H2S2FeCSC2HCHC2HCFeS2FeCFeHFeHS2HCFeS2FeC2FeHFeHS2HCHSH5C2H8C6H4C2H3C5H2C2H7CHCH7CH4CH3C2HCHSCH2CH2C2H5CSH3NSHCH3C3H2CHCHC2HCHCH10CNHSHCH5C2SHCH3NC2H5C2HCH2C2HCH5C2H3CHC2SH2C3HCHCHSCH2CHCH3CFeS2FeH2FeCFeCS2FeHFeS2FeHFeHS2H2CSCH2CHCNHCH2C6H6SHCHC2H2SH7C3HCH4CHCHCH2NCHC3HCH2CH2CH3CH5CH8C2H2C2HCHSH2SCHCH2CH2CH2SCH2CH2CHSH3C2H3CH2CH2CH3NH2C2H2CHCH3C4H4CH2CH3C2HSCNH2CHCHC3HCSHC2H2CH5CHCHCHCHCH5C2H3NH2CH2CH11FeCSFeH2FeH2FeSHSH2C2FeHSHFeSNCFeHFeCSCHCH2CH8CNSC2HCH3C2HCH2CHSHSH4SHC4H2C2SNC5FeHC3H2FeH3CH5CH12SHC3HC2HC2HFeH2SCH5SHC3H7CHC2HCH2CHCHC2SHC3SH2NH5CHCHSHSHCH2CH2CH4CH4C6HCH4CHCH2CH2CHS2C3H3NH5C4SHCHCH5CH3CHSC2FeH4C3HC3H2CH5CNC3FeCH2CHNH4C2HSCNC5HSCHCH2CH2CH7NHSH4CH11C4H4C2HCH7C2HCH2CH3C2HC2H7SHC2HCH3C2H3CH5C2SHCFeS2FeS2FeSFeS3FeS2FeHSFeHFeHS2HC2H4SC2H6C6H4C4HCHCH2C2H2NC10HCH20CH11NH4CH3CHNCH3CH3CH2CHCH7CH3CH2CHCH3NH2C2SH2C2HCHC5H2CHCH6C2HC4SH3CH2CHCH5C2H2C2H3C3HCH2CH3FeS2FeS2FeSFeHS2CSC2SHFeSFeSHSH2CHCH3C2H3C6H5C2H2C2HNC3H4NC12H36C3HCHCH2C3H4C2H14CH2SHC2H2FeHCHCHCH4CHFeCHCH2C2HC2H3C2H3NHC3NH2CH4CH3C2SH3CHC2HSH4C3H3CH9CHCH6SH2CH2CH2CH3CSHC4H3C2H2CH3C3H5C3HSH4CHC2H2NCFeCHC2H3CH2CH7CH5CHSH4CHCH5NH6CHNC12H8CH2SH4CH3CH4CHSCHC4HSH5CHCSH2FeS2FeCFeH2SFeS2HFeS2HFeSFeCHSHFeSC2H3CSCHCSCNS2HSH4C7H3CFeH3CH2CHCHCHC2H2CFeC2H2CHCHC4HNHCH2C3H3CH11CHNC9HC2H19CH4SH2C3HSHCHCH6CH12CH4CNC3HCH3FeHCHC2HCSC2HCHCSH2S2C2FeH5FeSHFeSCFeSFeS2FeS2FeCFeHFeS3H3CH2NH3CH2CHCHC6H5C2HCHC2HCH2CH2NC12H19SCH7NC12H29NH8C2HC3H4CH4SHC2H3CH4CSH3C2H2CHCH3CHCH3CH2C3SHCHCHCH2CH3CHC3H2C2H2SFeSCFeSCFeSFeS3FeS2FeCFeCFeHS2H4CNH4CH3C6H4CH5CH6SH3CH3CHC2H5CHCHSCHCH3CH5CHSH3CH5C3H2CH2NSH3CH3SCH8CHCH3NH2CHC4H5C2H2CHCHSH4C2SCHCH2CHC2HC2H2CHCHC2HC2HSCHCH2CH3CH3CH3CHCHC4HC2HC2H3CH2C2H2CH2CSCFeS2FeHFeHS2H3FeSH2FeHFeS2FeHFeS3H2FeHSCH2C2H3C2H5FeC2H2CH2C6H4CHCHCHCSH3NHCH2C7HCH4C2HC2H2CH6CH3CH3C6H2C2H4SH3SHCH4SHCH7SNC10HCH16CHCH3C2H2C3H10CNHC3H2C2H2CH2FeHSHNHSHCNH8FeC2HC2H2CHCH2
_chemical_formula_sum              "Fe96 S192 H1536 C864 N48"
_cell_length_a       61.5511
_cell_length_b       48.6897
_cell_length_c       36.1366
_cell_angle_alpha    89.3173
_cell_angle_beta     89.1704
_cell_angle_gamma    89.1711

_space_group_name_H-M_alt    "P 1"
_space_group_IT_number       1

loop_
  _space_group_symop_operation_xyz
  'x, y, z'

loop_
  _atom_site_type_symbol
  _atom_site_label
  _atom_site_symmetry_multiplicity
  _atom_site_fract_x
  _atom_site_fract_y
  _atom_site_fract_z
  _atom_site_occupancy
  Fe  Fe1       1.0  0.03331  0.37565  0.46326  1.0000
  S   S1        1.0  0.03468  0.40383  0.41379  1.0000
  H   H1        1.0  0.24164  0.22907  0.16904  1.0000
  H   H2        1.0  0.27099  0.17916  0.18732  1.0000
  H   H3        1.0  0.07454  0.33240  0.47163  1.0000
  Fe  Fe2       1.0  0.02366  0.36777  0.38134  1.0000
  S   S2        1.0  0.04006  0.36270  0.32542  1.0000
  H   H4        1.0  0.05678  0.42529  0.31101  1.0000
  H   H5        1.0  0.17552  0.46522  0.05008  1.0000
  H   H6        1.0  0.05396  0.49540  0.06931  1.0000
  H   H7        1.0  0.10177  0.25420  0.11672  1.0000
  H   H8        1.0  0.24495  0.11768  0.41731  1.0000
  S   S3        1.0  0.29264  0.10454  0.41328  1.0000
  H   H9        1.0  0.09220  0.38692  0.19588  1.0000
  Fe  Fe3       1.0  0.30356  0.14120  0.44620  1.0000
  C   C1        1.0  0.24953  0.20308  0.10434  1.0000
  Fe  Fe4       1.0  0.30658  0.07770  0.45897  1.0000
  H   H10       1.0  0.16615  0.34743  0.44308  1.0000
  H   H11       1.0  0.07356  0.34713  0.22175  1.0000
  C   C2        1.0  0.25801  0.21919  0.16763  1.0000
  C   C3        1.0  0.32605  0.10211  0.21855  1.0000
  H   H12       1.0  0.21698  0.16320  0.09904  1.0000
  C   C4        1.0  0.15665  0.39857  0.46341  1.0000
  C   C5        1.0  0.25079  0.24809  0.49117  1.0000
  H   H13       1.0  0.23622  0.26328  0.13071  1.0000
  H   H14       1.0  0.16834  0.38324  0.35047  1.0000
  Fe  Fe5       1.0  0.03535  0.37597  0.07416  1.0000
  S   S4        1.0  0.07108  0.36380  0.07567  1.0000
  S   S5        1.0  0.02630  0.40261  0.12260  1.0000
  H   H15       1.0  0.23419  0.13702  0.07873  1.0000
  Fe  Fe6       1.0  0.30617  0.11767  0.11435  1.0000
  S   S6        1.0  0.27856  0.10706  0.07711  1.0000
  S   S7        1.0  0.29720  0.13128  0.17324  1.0000
  Fe  Fe7       1.0  0.29964  0.07246  0.05506  1.0000
  H   H16       1.0  0.25373  0.16075  0.12774  1.0000
  Fe  Fe8       1.0  0.29472  0.13481  0.03471  1.0000
  H   H17       1.0  0.14507  0.41334  0.39688  1.0000
  H   H18       1.0  0.24940  0.17651  0.24486  1.0000
  S   S8        1.0  0.32174  0.14666  0.07285  1.0000
  H   H19       1.0  0.01787  0.41746  0.31167  1.0000
  C   C6        1.0  0.19296  0.39117  0.43672  1.0000
  C   C7        1.0  0.29903  0.00709  0.48948  1.0000
  C   C8        1.0  0.25183  0.29275  0.09523  1.0000
  H   H20       1.0  0.14440  0.42158  0.32916  1.0000
  C   C9        1.0  0.08797  0.35346  0.03830  1.0000
  C   C10       1.0  0.26842  0.24646  0.11326  1.0000
  S   S9        1.0  0.27164  0.16388  0.00160  1.0000
  C   C11       1.0  0.25593  0.19172  0.18922  1.0000
  H   H21       1.0  0.19924  0.41238  0.43277  1.0000
  H   H22       1.0  0.08453  0.37829  0.14965  1.0000
  H   H23       1.0  0.05261  0.46204  0.30877  1.0000
  S   S10       1.0  0.02493  0.33841  0.42999  1.0000
  C   C12       1.0  0.18803  0.47343  0.03198  1.0000
  H   H24       1.0  0.00879  0.44115  0.48446  1.0000
  H   H25       1.0  0.04023  0.29880  0.12415  1.0000
  C   C13       1.0  0.30841  0.12048  0.21636  1.0000
  C   C14       1.0  0.29938  0.13097  0.24944  1.0000
  C   C15       1.0  0.30780  0.12319  0.28427  1.0000
  H   H26       1.0  0.13319  0.37072  0.38591  1.0000
  H   H27       1.0  0.00229  0.45720  0.18836  1.0000
  H   H28       1.0  0.02579  0.43807  0.27164  1.0000
  H   H29       1.0  0.19084  0.13140  0.45946  1.0000
  H   H30       1.0  0.26516  0.20735  0.24301  1.0000
  C   C16       1.0  0.05838  0.33317  0.17114  1.0000
  S   S11       1.0  0.28964  0.02701  0.05437  1.0000
  H   H31       1.0  0.27389  0.46611  0.17284  1.0000
  H   H32       1.0  0.08027  0.44588  0.04029  1.0000
  C   C17       1.0  0.07711  0.34709  0.19156  1.0000
  H   H33       1.0  0.03700  0.27010  0.15469  1.0000
  H   H34       1.0  0.04431  0.44274  0.34963  1.0000
  C   C18       1.0  0.00684  0.48992  0.04251  1.0000
  C   C19       1.0  0.05084  0.29606  0.21718  1.0000
  H   H35       1.0  0.33322  0.09390  0.19343  1.0000
  C   C20       1.0  0.26367  0.19951  0.00126  1.0000
  H   H36       1.0  0.14195  0.34187  0.02010  1.0000
  H   H37       1.0  0.05608  0.48471  0.02209  1.0000
  C   C21       1.0  0.03136  0.37474  0.25310  1.0000
  C   C22       1.0  0.01841  0.37578  0.22145  1.0000
  H   H38       1.0  0.07599  0.28373  0.30231  1.0000
  H   H39       1.0  0.04766  0.38273  0.25189  1.0000
  H   H40       1.0  0.02465  0.38482  0.19623  1.0000
  H   H41       1.0  0.25645  0.48996  0.09974  1.0000
  C   C23       1.0  0.00187  0.35430  0.28810  1.0000
  H   H42       1.0  0.04334  0.34384  0.18030  1.0000
  C   C24       1.0  0.13797  0.35754  0.40976  1.0000
  H   H43       1.0  0.33301  0.20101  0.11254  1.0000
  H   H44       1.0  0.01103  0.30243  0.19425  1.0000
  H   H45       1.0  0.19586  0.38613  0.46643  1.0000
  H   H46       1.0  0.11009  0.30776  0.47437  1.0000
  H   H47       1.0  0.24211  0.17993  0.17858  1.0000
  C   C25       1.0  0.06511  0.48635  0.04822  1.0000
  H   H48       1.0  0.23620  0.20892  0.23428  1.0000
  H   H49       1.0  0.24077  0.48415  0.14184  1.0000
  H   H50       1.0  0.31425  0.02881  0.13241  1.0000
  H   H51       1.0  0.06402  0.38864  0.18320  1.0000
  H   H52       1.0  0.25951  0.13095  0.47067  1.0000
  H   H53       1.0  0.21208  0.16489  0.40848  1.0000
  C   C26       1.0  0.24703  0.26296  0.10595  1.0000
  C   C27       1.0  0.08451  0.29327  0.12408  1.0000
  C   C28       1.0  0.17206  0.40438  0.35914  1.0000
  H   H54       1.0  0.23273  0.14692  0.35319  1.0000
  H   H55       1.0  0.33213  0.03479  0.01321  1.0000
  C   C29       1.0  0.20826  0.37114  0.41514  1.0000
  C   C30       1.0  0.23216  0.37744  0.42150  1.0000
  S   S12       1.0  0.19267  0.42011  0.00779  1.0000
  H   H56       1.0  0.14648  0.44905  0.00906  1.0000
  C   C31       1.0  0.25136  0.19659  0.23034  1.0000
  H   H57       1.0  0.04075  0.31298  0.22947  1.0000
  H   H58       1.0  0.17172  0.35325  0.39573  1.0000
  C   C32       1.0  0.02316  0.36398  0.28649  1.0000
  C   C33       1.0  0.22902  0.12697  0.42565  1.0000
  N   N1        1.0  0.05632  0.30265  0.17701  1.0000
  H   H59       1.0  0.14171  0.42840  0.06935  1.0000
  H   H60       1.0  0.05508  0.30885  0.29240  1.0000
  C   C34       1.0  0.23946  0.07294  0.45740  1.0000
  C   C35       1.0  0.24427  0.13353  0.48732  1.0000
  H   H61       1.0  0.18990  0.40733  0.35831  1.0000
  S   S13       1.0  0.32589  0.08145  0.09564  1.0000
  H   H62       1.0  0.23646  0.30366  0.08800  1.0000
  C   C36       1.0  0.13614  0.41652  0.04533  1.0000
  H   H63       1.0  0.26621  0.16634  0.08343  1.0000
  H   H64       1.0  0.20551  0.34970  0.42489  1.0000
  H   H65       1.0  0.20550  0.37194  0.38501  1.0000
  H   H66       1.0  0.24263  0.36311  0.40525  1.0000
  H   H67       1.0  0.23589  0.39883  0.41273  1.0000
  H   H68       1.0  0.23616  0.37470  0.45119  1.0000
  S   S14       1.0  0.01963  0.40421  0.03298  1.0000
  H   H69       1.0  0.23268  0.20820  0.11386  1.0000
  C   C37       1.0  0.02333  0.43790  0.30203  1.0000
  H   H70       1.0  0.13851  0.31358  0.42224  1.0000
  S   S15       1.0  0.31387  0.09891  0.00961  1.0000
  H   H71       1.0  0.26288  0.29363  0.07067  1.0000
  H   H72       1.0  0.23843  0.07219  0.42675  1.0000
  N   N2        1.0  0.22503  0.12267  0.46672  1.0000
  C   C38       1.0  0.11042  0.35108  0.04414  1.0000
  C   C39       1.0  0.27301  0.46751  0.14218  1.0000
  H   H73       1.0  0.28715  0.18146  0.13328  1.0000
  H   H74       1.0  0.16591  0.44573  0.33728  1.0000
  H   H75       1.0  0.25940  0.30356  0.11855  1.0000
  H   H76       1.0  0.29330  0.20296  0.09519  1.0000
  H   H77       1.0  0.01375  0.32660  0.15671  1.0000
  N   N3        1.0  0.26591  0.21742  0.12797  1.0000
  C   C40       1.0  0.19936  0.45566  0.00766  1.0000
  H   H78       1.0  0.27784  0.24638  0.08669  1.0000
  C   C41       1.0  0.13374  0.32777  0.39934  1.0000
  C   C42       1.0  0.07952  0.37705  0.17925  1.0000
  H   H79       1.0  0.15579  0.44375  0.45912  1.0000
  H   H80       1.0  0.08865  0.31525  0.12036  1.0000
  H   H81       1.0  0.07661  0.49308  0.47228  1.0000
  C   C43       1.0  0.16221  0.36149  0.41947  1.0000
  H   H82       1.0  0.23795  0.25402  0.08275  1.0000
  C   C44       1.0  0.28790  0.20336  0.12480  1.0000
  H   H83       1.0  0.23902  0.26316  0.48157  1.0000
  H   H84       1.0  0.08278  0.30562  0.24154  1.0000
  C   C45       1.0  0.04560  0.44242  0.31896  1.0000
  H   H85       1.0  0.26860  0.23290  0.18364  1.0000
  H   H86       1.0  0.14302  0.32219  0.37387  1.0000
  H   H87       1.0  0.07212  0.28797  0.10350  1.0000
  H   H88       1.0  0.22977  0.16890  0.05412  1.0000
  H   H89       1.0  0.14887  0.40094  0.03830  1.0000
  C   C46       1.0  0.13203  0.43590  0.01257  1.0000
  H   H90       1.0  0.25100  0.22504  0.44037  1.0000
  C   C47       1.0  0.16304  0.41068  0.39835  1.0000
  H   H91       1.0  0.09057  0.29176  0.18216  1.0000
  C   C48       1.0  0.23189  0.15952  0.08205  1.0000
  C   C49       1.0  0.25688  0.49002  0.13038  1.0000
  H   H92       1.0  0.32602  0.17832  0.15088  1.0000
  H   H93       1.0  0.00706  0.46136  0.34464  1.0000
  H   H94       1.0  0.12709  0.36238  0.43352  1.0000
  C   C50       1.0  0.22444  0.46482  0.47903  1.0000
  H   H95       1.0  0.30068  0.13144  0.30939  1.0000
  C   C51       1.0  0.25171  0.17141  0.10082  1.0000
  H   H96       1.0  0.28576  0.14519  0.24814  1.0000
  H   H97       1.0  0.28944  0.47166  0.13046  1.0000
  S   S16       1.0  0.28146  0.17996  0.44814  1.0000
  H   H98       1.0  0.25591  0.08008  0.46442  1.0000
  H   H99       1.0  0.23725  0.17085  0.43124  1.0000
  H   H100      1.0  0.07752  0.26967  0.23698  1.0000
  H   H101      1.0  0.09292  0.33661  0.18629  1.0000
  H   H102      1.0  0.25064  0.21070  0.07521  1.0000
  H   H103      1.0  0.11687  0.35551  0.07107  1.0000
  C   C52       1.0  0.32776  0.20014  0.14207  1.0000
  H   H104      1.0  0.27801  0.25891  0.13262  1.0000
  H   H105      1.0  0.20592  0.08608  0.46084  1.0000
  C   C53       1.0  0.12468  0.34331  0.01529  1.0000
  H   H106      1.0  0.11806  0.44931  0.02005  1.0000
  H   H107      1.0  0.04051  0.27744  0.21934  1.0000
  Fe  Fe9       1.0  0.00802  0.42851  0.08195  1.0000
  C   C54       1.0  0.07657  0.28729  0.16439  1.0000
  C   C55       1.0  0.27751  0.22043  0.01215  1.0000
  C   C56       1.0  0.06212  0.28870  0.28396  1.0000
  H   H108      1.0  0.01413  0.48025  0.30373  1.0000
  H   H109      1.0  0.26764  0.44738  0.13168  1.0000
  C   C57       1.0  0.24054  0.16002  0.37399  1.0000
  C   C58       1.0  0.22907  0.15725  0.41163  1.0000
  C   C59       1.0  0.16229  0.42410  0.33043  1.0000
  H   H110      1.0  0.11841  0.28174  0.13347  1.0000
  C   C60       1.0  0.10797  0.32716  0.48833  1.0000
  H   H111      1.0  0.07404  0.26474  0.16738  1.0000
  N   N4        1.0  0.16887  0.39037  0.42856  1.0000
  H   H112      1.0  0.13881  0.39855  0.45922  1.0000
  H   H113      1.0  0.16921  0.43139  0.40496  1.0000
  C   C61       1.0  0.29344  0.00101  0.02039  1.0000
  H   H114      1.0  0.24245  0.15615  0.49096  1.0000
  H   H115      1.0  0.21661  0.11606  0.40935  1.0000
  H   H116      1.0  0.05958  0.33825  0.14122  1.0000
  H   H117      1.0  0.11032  0.28142  0.08579  1.0000
  C   C62       1.0  0.22152  0.09236  0.47332  1.0000
  C   C63       1.0  0.03774  0.29298  0.15374  1.0000
  H   H118      1.0  0.30931  0.23756  0.13941  1.0000
  H   H119      1.0  0.14405  0.49214  0.46724  1.0000
  C   C64       1.0  0.27317  0.20661  0.47942  1.0000
  H   H120      1.0  0.30834  0.00878  0.43192  1.0000
  C   C65       1.0  0.10501  0.27655  0.11464  1.0000
  H   H121      1.0  0.25797  0.15402  0.37625  1.0000
  H   H122      1.0  0.28183  0.26424  0.01741  1.0000
  C   C66       1.0  0.07062  0.45717  0.06149  1.0000
  S   S17       1.0  0.00819  0.47446  0.08638  1.0000
  H   H123      1.0  0.11614  0.32517  0.39418  1.0000
  H   H124      1.0  0.23967  0.18175  0.36435  1.0000
  H   H125      1.0  0.23465  0.45603  0.45748  1.0000
  C   C67       1.0  0.20447  0.13826  0.47700  1.0000
  H   H126      1.0  0.05533  0.44577  0.06664  1.0000
  C   C68       1.0  0.06999  0.28994  0.24366  1.0000
  C   C69       1.0  0.32264  0.00965  0.14172  1.0000
  H   H127      1.0  0.04963  0.27264  0.28788  1.0000
  C   C70       1.0  0.32550  0.10488  0.28645  1.0000
  H   H128      1.0  0.00094  0.45247  0.01370  1.0000
  H   H129      1.0  0.20630  0.16061  0.47120  1.0000
  C   C71       1.0  0.30635  0.21593  0.14771  1.0000
  H   H130      1.0  0.07975  0.45750  0.08776  1.0000
  C   C72       1.0  0.08783  0.34112  0.48662  1.0000
  H   H131      1.0  0.24903  0.02987  0.45837  1.0000
  H   H132      1.0  0.32477  0.01069  0.17213  1.0000
  H   H133      1.0  0.16939  0.41962  0.30267  1.0000
  C   C73       1.0  0.23683  0.04358  0.47203  1.0000
  H   H134      1.0  0.22038  0.03584  0.46607  1.0000
  H   H135      1.0  0.30230  0.21505  0.17772  1.0000
  C   C74       1.0  0.25765  0.22637  0.46782  1.0000
  C   C75       1.0  0.00695  0.46066  0.31377  1.0000
  H   H136      1.0  0.09699  0.49231  0.02428  1.0000
  H   H137      1.0  0.15992  0.38322  0.48591  1.0000
  S   S18       1.0  0.31447  0.11430  0.49334  1.0000
  S   S19       1.0  0.29186  0.04256  0.49300  1.0000
  Fe  Fe10      1.0  0.32662  0.10434  0.38908  1.0000
  C   C76       1.0  0.21807  0.49278  0.47654  1.0000
  S   S20       1.0  0.00596  0.34910  0.08109  1.0000
  C   C77       1.0  0.07975  0.34730  0.00355  1.0000
  C   C78       1.0  0.00411  0.47405  0.01103  1.0000
  H   H138      1.0  0.17931  0.43013  0.48224  1.0000
  C   C79       1.0  0.01483  0.30453  0.16428  1.0000
  H   H139      1.0  0.29361  0.21515  0.02180  1.0000
  C   C80       1.0  0.16167  0.42752  0.47844  1.0000
  C   C81       1.0  0.27076  0.24834  0.00952  1.0000
  H   H140      1.0  0.12090  0.40598  0.05344  1.0000
  C   C82       1.0  0.00023  0.46039  0.48830  1.0000
  Fe  Fe11      1.0  0.19899  0.34644  0.61605  1.0000
  S   S21       1.0  0.23261  0.35234  0.59132  1.0000
  S   S22       1.0  0.18415  0.34831  0.67490  1.0000
  Fe  Fe12      1.0  0.17998  0.33323  0.54050  1.0000
  C   C83       1.0  0.21567  0.46657  0.98477  1.0000
  Fe  Fe13      1.0  0.22664  0.31365  0.55841  1.0000
  H   H141      1.0  0.18429  0.48629  0.92805  1.0000
  Fe  Fe14      1.0  0.21563  0.37569  0.54497  1.0000
  H   H142      1.0  0.23480  0.11638  0.54275  1.0000
  S   S23       1.0  0.19404  0.30684  0.58589  1.0000
  S   S24       1.0  0.18260  0.37243  0.57169  1.0000
  H   H143      1.0  0.13553  0.37158  0.54143  1.0000
  C   C84       1.0  0.06207  0.44830  0.57198  1.0000
  Fe  Fe15      1.0  0.20772  0.35303  0.89566  1.0000
  S   S25       1.0  0.22890  0.36148  0.94492  1.0000
  S   S26       1.0  0.22378  0.35467  0.83793  1.0000
  Fe  Fe16      1.0  0.16982  0.33721  0.94639  1.0000
  C   C85       1.0  0.13094  0.46330  0.93964  1.0000
  C   C86       1.0  0.11434  0.37728  0.87294  1.0000
  Fe  Fe17      1.0  0.19952  0.38258  0.97071  1.0000
  H   H144      1.0  0.10087  0.29242  0.69449  1.0000
  Fe  Fe18      1.0  0.21658  0.32111  0.96831  1.0000
  H   H145      1.0  0.11122  0.28743  0.58763  1.0000
  S   S27       1.0  0.17945  0.37719  0.91968  1.0000
  S   S28       1.0  0.19645  0.31245  0.91832  1.0000
  H   H146      1.0  0.29188  0.24482  0.87634  1.0000
  C   C87       1.0  0.15578  0.46069  0.93213  1.0000
  H   H147      1.0  0.27573  0.28718  0.76383  1.0000
  S   S29       1.0  0.25224  0.27823  0.55701  1.0000
  H   H148      1.0  0.08662  0.42339  0.95970  1.0000
  H   H149      1.0  0.10074  0.37636  0.64626  1.0000
  H   H150      1.0  0.08886  0.47907  0.91725  1.0000
  H   H151      1.0  0.17937  0.26114  0.88042  1.0000
  H   H152      1.0  0.25113  0.30247  0.74608  1.0000
  C   C88       1.0  0.14355  0.27207  0.59582  1.0000
  C   C89       1.0  0.12530  0.33811  0.50794  1.0000
  H   H153      1.0  0.13613  0.31148  0.74748  1.0000
  H   H154      1.0  0.13004  0.28922  0.68750  1.0000
  H   H155      1.0  0.13895  0.25072  0.58927  1.0000
  H   H156      1.0  0.25176  0.30501  0.81420  1.0000
  H   H157      1.0  0.12445  0.47516  0.91566  1.0000
  H   H158      1.0  0.16500  0.49676  0.96319  1.0000
  H   H159      1.0  0.16223  0.14045  0.50726  1.0000
  H   H160      1.0  0.10415  0.35865  0.87213  1.0000
  C   C90       1.0  0.19569  0.34966  0.71992  1.0000
  C   C91       1.0  0.21808  0.35146  0.72543  1.0000
  C   C92       1.0  0.22630  0.35301  0.76167  1.0000
  C   C93       1.0  0.21235  0.35252  0.79293  1.0000
  C   C94       1.0  0.18997  0.35047  0.78744  1.0000
  C   C95       1.0  0.18173  0.34919  0.75119  1.0000
  H   H161      1.0  0.22905  0.35193  0.70179  1.0000
  H   H162      1.0  0.24362  0.35473  0.76550  1.0000
  H   H163      1.0  0.17900  0.35013  0.81109  1.0000
  H   H164      1.0  0.16439  0.34800  0.74736  1.0000
  C   C96       1.0  0.20470  0.45990  0.53691  1.0000
  C   C97       1.0  0.24998  0.25593  0.99659  1.0000
  H   H165      1.0  0.19961  0.44748  0.56041  1.0000
  H   H166      1.0  0.04736  0.32023  0.60858  1.0000
  H   H167      1.0  0.04977  0.47189  0.90932  1.0000
  C   C98       1.0  0.21080  0.24332  0.89588  1.0000
  C   C99       1.0  0.25782  0.28498  0.76255  1.0000
  C   C100      1.0  0.13562  0.37877  0.63957  1.0000
  C   C101      1.0  0.10207  0.37687  0.52489  1.0000
  C   C102      1.0  0.12231  0.36308  0.52613  1.0000
  H   H168      1.0  0.09972  0.39597  0.53949  1.0000
  H   H169      1.0  0.29008  0.21476  0.93214  1.0000
  C   C103      1.0  0.00028  0.47285  0.52297  1.0000
  C   C104      1.0  0.28144  0.22658  0.87578  1.0000
  H   H170      1.0  0.13176  0.32869  0.59091  1.0000
  H   H171      1.0  0.00845  0.46283  0.54586  1.0000
  H   H172      1.0  0.28321  0.21736  0.84787  1.0000
  H   H173      1.0  0.24033  0.30118  0.87324  1.0000
  H   H174      1.0  0.18330  0.22554  0.86771  1.0000
  H   H175      1.0  0.17808  0.23452  0.91533  1.0000
  H   H176      1.0  0.19537  0.11504  0.52782  1.0000
  C   C105      1.0  0.25947  0.25056  0.52659  1.0000
  H   H177      1.0  0.17003  0.14969  0.55329  1.0000
  C   C106      1.0  0.16669  0.48859  0.93471  1.0000
  H   H178      1.0  0.11175  0.38951  0.84721  1.0000
  H   H179      1.0  0.15894  0.45277  0.90382  1.0000
  H   H180      1.0  0.11943  0.28159  0.75264  1.0000
  H   H181      1.0  0.25563  0.15798  0.55543  1.0000
  H   H182      1.0  0.13800  0.38095  0.66979  1.0000
  H   H183      1.0  0.29521  0.02841  0.97339  1.0000
  H   H184      1.0  0.15029  0.28172  0.57027  1.0000
  C   C107      1.0  0.12202  0.42024  0.90947  1.0000
  H   H185      1.0  0.26315  0.48601  0.60422  1.0000
  H   H186      1.0  0.30727  0.19997  0.89667  1.0000
  H   H187      1.0  0.23197  0.19123  0.97979  1.0000
  H   H188      1.0  0.08735  0.30353  0.64091  1.0000
  C   C108      1.0  0.24292  0.20710  0.98820  1.0000
  H   H189      1.0  0.31467  0.14665  0.57138  1.0000
  H   H190      1.0  0.13252  0.43010  0.51348  1.0000
  H   H191      1.0  0.15212  0.41708  0.62832  1.0000
  C   C109      1.0  0.27484  0.23060  0.53830  1.0000
  C   C110      1.0  0.12909  0.31846  0.61831  1.0000
  H   H192      1.0  0.11062  0.38078  0.93159  1.0000
  C   C111      1.0  0.11769  0.33144  0.68218  1.0000
  H   H193      1.0  0.14366  0.40938  0.96878  1.0000
  S   S30       1.0  0.21211  0.33741  0.51079  1.0000
  C   C112      1.0  0.29565  0.00719  0.98264  1.0000
  H   H194      1.0  0.26548  0.33730  0.88900  1.0000
  H   H195      1.0  0.28175  0.27951  0.91109  1.0000
  C   C113      1.0  0.12360  0.28811  0.60961  1.0000
  H   H196      1.0  0.21972  0.24012  0.97775  1.0000
  H   H197      1.0  0.12802  0.47671  0.96400  1.0000
  C   C114      1.0  0.26020  0.48339  0.57422  1.0000
  C   C115      1.0  0.08267  0.45797  0.92150  1.0000
  H   H198      1.0  0.09038  0.45488  0.53804  1.0000
  H   H199      1.0  0.05423  0.32168  0.55992  1.0000
  H   H200      1.0  0.27906  0.14384  0.53145  1.0000
  H   H201      1.0  0.32785  0.19192  0.55215  1.0000
  H   H202      1.0  0.13928  0.41342  0.90626  1.0000
  C   C116      1.0  0.12002  0.30281  0.74108  1.0000
  S   S31       1.0  0.05923  0.38297  0.50629  1.0000
  H   H203      1.0  0.13452  0.33828  0.68759  1.0000
  H   H204      1.0  0.11690  0.40266  0.98381  1.0000
  H   H205      1.0  0.27498  0.47448  0.56071  1.0000
  N   N5        1.0  0.11264  0.33434  0.64151  1.0000
  S   S32       1.0  0.24238  0.29171  0.99461  1.0000
  H   H206      1.0  0.31996  0.25673  0.54653  1.0000
  C   C117      1.0  0.11671  0.30218  0.69923  1.0000
  H   H207      1.0  0.12311  0.42079  0.63491  1.0000
  H   H208      1.0  0.18912  0.49696  0.55699  1.0000
  H   H209      1.0  0.10666  0.34511  0.69867  1.0000
  C   C118      1.0  0.22078  0.49472  0.98665  1.0000
  C   C119      1.0  0.09399  0.33856  0.97499  1.0000
  C   C120      1.0  0.23599  0.23496  0.98648  1.0000
  H   H210      1.0  0.28033  0.18684  0.90464  1.0000
  H   H211      1.0  0.09056  0.39931  0.90536  1.0000
  C   C121      1.0  0.06034  0.31575  0.58775  1.0000
  H   H212      1.0  0.24677  0.46862  0.57120  1.0000
  C   C122      1.0  0.08951  0.32572  0.63516  1.0000
  H   H213      1.0  0.06410  0.29337  0.58785  1.0000
  C   C123      1.0  0.05852  0.46067  0.93168  1.0000
  C   C124      1.0  0.12803  0.41982  0.97650  1.0000
  H   H214      1.0  0.11876  0.43324  0.88456  1.0000
  C   C125      1.0  0.29025  0.20575  0.90403  1.0000
  H   H215      1.0  0.13415  0.40694  0.59220  1.0000
  C   C126      1.0  0.18642  0.24102  0.88926  1.0000
  H   H216      1.0  0.14940  0.36675  0.62784  1.0000
  H   H217      1.0  0.07829  0.33614  0.65521  1.0000
  H   H218      1.0  0.26930  0.12776  0.57359  1.0000
  H   H219      1.0  0.26603  0.32237  0.93521  1.0000
  H   H220      1.0  0.11703  0.27684  0.63389  1.0000
  H   H221      1.0  0.07624  0.35423  0.59329  1.0000
  H   H222      1.0  0.08392  0.44699  0.89484  1.0000
  H   H223      1.0  0.11099  0.36773  0.60160  1.0000
  H   H224      1.0  0.09305  0.32742  0.57406  1.0000
  H   H225      1.0  0.05114  0.44008  0.93522  1.0000
  C   C127      1.0  0.13619  0.40768  0.62263  1.0000
  N   N6        1.0  0.11911  0.43656  0.94445  1.0000
  H   H226      1.0  0.28161  0.23210  0.56565  1.0000
  S   S33       1.0  0.18883  0.34289  0.99815  1.0000
  H   H227      1.0  0.14535  0.31877  0.63155  1.0000
  C   C128      1.0  0.27392  0.32225  0.90740  1.0000
  H   H228      1.0  0.06107  0.42638  0.56410  1.0000
  H   H229      1.0  0.10706  0.31532  0.75478  1.0000
  H   H230      1.0  0.21448  0.27227  0.85085  1.0000
  H   H231      1.0  0.21302  0.25779  0.91877  1.0000
  H   H232      1.0  0.21668  0.22278  0.90526  1.0000
  C   C129      1.0  0.10812  0.39407  0.90704  1.0000
  C   C130      1.0  0.09539  0.44266  0.95251  1.0000
  S   S34       1.0  0.13409  0.32664  0.94395  1.0000
  H   H233      1.0  0.06245  0.34881  0.99886  1.0000
  C   C131      1.0  0.22300  0.25314  0.86025  1.0000
  H   H234      1.0  0.22004  0.23750  0.83865  1.0000
  H   H235      1.0  0.24856  0.21429  0.87637  1.0000
  H   H236      1.0  0.25482  0.23563  0.91424  1.0000
  N   N7        1.0  0.24712  0.25799  0.86382  1.0000
  C   C132      1.0  0.24985  0.28389  0.88573  1.0000
  C   C133      1.0  0.24770  0.28513  0.80144  1.0000
  H   H237      1.0  0.05618  0.47234  0.95765  1.0000
  H   H238      1.0  0.22459  0.45325  0.96601  1.0000
  H   H239      1.0  0.16383  0.44646  0.95190  1.0000
  H   H240      1.0  0.25396  0.26566  0.74813  1.0000
  H   H241      1.0  0.04526  0.45650  0.57586  1.0000
  C   C134      1.0  0.11654  0.33681  0.98064  1.0000
  C   C135      1.0  0.11386  0.36455  0.63160  1.0000
  H   H242      1.0  0.27439  0.26283  0.82530  1.0000
  C   C136      1.0  0.25650  0.26067  0.82510  1.0000
  H   H243      1.0  0.24282  0.28142  0.91403  1.0000
  H   H244      1.0  0.15624  0.27123  0.61737  1.0000
  C   C137      1.0  0.07400  0.46441  0.54155  1.0000
  C   C138      1.0  0.08070  0.33208  0.59580  1.0000
  H   H245      1.0  0.28273  0.29420  0.86472  1.0000
  C   C139      1.0  0.00490  0.48622  0.97580  1.0000
  H   H246      1.0  0.09359  0.45555  0.97747  1.0000
  H   H247      1.0  0.08755  0.33343  0.94828  1.0000
  H   H248      1.0  0.07084  0.44945  0.59856  1.0000
  H   H249      1.0  0.25368  0.24138  0.80965  1.0000
  H   H250      1.0  0.22984  0.28429  0.79823  1.0000
  C   C140      1.0  0.25711  0.23345  0.88376  1.0000
  C   C141      1.0  0.27343  0.29347  0.89115  1.0000
  H   H251      1.0  0.29101  0.32875  0.91041  1.0000
  H   H252      1.0  0.13163  0.37043  0.87423  1.0000
  H   H253      1.0  0.00283  0.47375  0.95154  1.0000
  C   C142      1.0  0.26428  0.13861  0.54783  1.0000
  H   H254      1.0  0.06501  0.46172  0.51551  1.0000
  C   C143      1.0  0.19876  0.48800  0.53484  1.0000
  C   C144      1.0  0.15038  0.43243  0.51574  1.0000
  S   S35       1.0  0.15044  0.32011  0.50846  1.0000
  H   H255      1.0  0.15670  0.41773  0.53678  1.0000
  H   H256      1.0  0.15376  0.45355  0.52518  1.0000
  C   C145      1.0  0.08474  0.36592  0.50516  1.0000
  C   C146      1.0  0.28154  0.20875  0.51506  1.0000
  C   C147      1.0  0.24945  0.12027  0.52559  1.0000
  H   H257      1.0  0.29320  0.19363  0.52465  1.0000
  C   C148      1.0  0.33223  0.15115  0.57357  1.0000
  H   H258      1.0  0.20865  0.14742  0.53560  1.0000
  C   C149      1.0  0.19697  0.13656  0.51801  1.0000
  H   H259      1.0  0.25796  0.10021  0.52169  1.0000
  S   S36       1.0  0.22740  0.41346  0.51172  1.0000
  C   C150      1.0  0.21794  0.44823  0.50931  1.0000
  H   H260      1.0  0.29042  0.99812  0.54635  1.0000
  H   H261      1.0  0.23961  0.04265  0.50234  1.0000
  C   C151      1.0  0.17486  0.15075  0.52357  1.0000
  H   H262      1.0  0.08561  0.49543  0.57761  1.0000
  C   C152      1.0  0.07582  0.49514  0.55199  1.0000
  H   H263      1.0  0.10897  0.48403  0.50094  1.0000
  H   H264      1.0  0.21963  0.08742  0.50318  1.0000
  H   H265      1.0  0.17564  0.17274  0.51508  1.0000
  C   C153      1.0  0.00526  0.61686  0.42398  1.0000
  Fe  Fe19      1.0  0.20339  0.60353  0.38655  1.0000
  S   S37       1.0  0.22931  0.59150  0.42787  1.0000
  S   S38       1.0  0.20068  0.58890  0.32646  1.0000
  Fe  Fe20      1.0  0.17404  0.62826  0.44648  1.0000
  H   H266      1.0  0.03411  0.67595  0.43319  1.0000
  H   H267      1.0  0.07880  0.52914  0.46783  1.0000
  Fe  Fe21      1.0  0.22364  0.63396  0.45233  1.0000
  C   C154      1.0  0.26478  0.73539  0.08800  1.0000
  Fe  Fe22      1.0  0.20182  0.57696  0.46475  1.0000
  C   C155      1.0  0.13427  0.67614  0.30052  1.0000
  S   S39       1.0  0.19950  0.64661  0.40842  1.0000
  S   S40       1.0  0.17629  0.58622  0.42238  1.0000
  Fe  Fe23      1.0  0.16635  0.62571  0.05598  1.0000
  H   H268      1.0  0.20615  0.72062  0.33399  1.0000
  Fe  Fe24      1.0  0.20509  0.62542  0.10758  1.0000
  S   S41       1.0  0.22807  0.61776  0.05983  1.0000
  S   S42       1.0  0.22035  0.63556  0.16318  1.0000
  Fe  Fe25      1.0  0.20942  0.65033  0.02840  1.0000
  H   H269      1.0  0.05878  0.64040  0.00225  1.0000
  Fe  Fe26      1.0  0.20403  0.58701  0.03959  1.0000
  H   H270      1.0  0.24696  0.89003  0.06644  1.0000
  S   S43       1.0  0.18745  0.65945  0.07725  1.0000
  S   S44       1.0  0.18247  0.59219  0.09001  1.0000
  H   H271      1.0  0.28536  0.69956  0.21756  1.0000
  H   H272      1.0  0.07647  0.65307  0.42553  1.0000
  C   C156      1.0  0.03768  0.51842  0.45277  1.0000
  S   S45       1.0  0.12956  0.62770  0.06103  1.0000
  C   C157      1.0  0.08590  0.50397  0.04305  1.0000
  H   H273      1.0  0.13372  0.62187  0.28475  1.0000
  H   H274      1.0  0.28615  0.69153  0.04748  1.0000
  C   C158      1.0  0.24619  0.71446  0.47519  1.0000
  H   H275      1.0  0.04451  0.53603  0.43686  1.0000
  C   C159      1.0  0.18372  0.69179  0.31059  1.0000
  N   N8        1.0  0.15372  0.65712  0.29544  1.0000
  H   H276      1.0  0.21163  0.68527  0.34618  1.0000
  C   C160      1.0  0.04812  0.51593  0.49080  1.0000
  H   H277      1.0  0.22235  0.74199  0.08343  1.0000
  H   H278      1.0  0.23590  0.72967  0.14801  1.0000
  C   C161      1.0  0.20636  0.60260  0.28145  1.0000
  C   C162      1.0  0.19690  0.59019  0.25068  1.0000
  C   C163      1.0  0.20056  0.60037  0.21442  1.0000
  C   C164      1.0  0.21415  0.62280  0.20839  1.0000
  C   C165      1.0  0.22371  0.63515  0.23911  1.0000
  C   C166      1.0  0.21972  0.62528  0.27545  1.0000
  H   H279      1.0  0.18653  0.57265  0.25497  1.0000
  H   H280      1.0  0.19306  0.59067  0.19116  1.0000
  H   H281      1.0  0.23432  0.65244  0.23480  1.0000
  H   H282      1.0  0.22719  0.63499  0.29875  1.0000
  H   H283      1.0  0.28332  0.56607  0.08004  1.0000
  H   H284      1.0  0.14272  0.70312  0.34654  1.0000
  S   S46       1.0  0.05234  0.59136  0.48421  1.0000
  H   H285      1.0  0.13557  0.69442  0.28180  1.0000
  C   C167      1.0  0.22754  0.54278  0.14489  1.0000
  H   H286      1.0  0.27680  0.63223  0.07242  1.0000
  C   C168      1.0  0.12277  0.52388  0.49067  1.0000
  C   C169      1.0  0.11419  0.60831  0.45246  1.0000
  H   H287      1.0  0.12630  0.59948  0.43409  1.0000
  H   H288      1.0  0.27979  0.51810  0.48806  1.0000
  S   S47       1.0  0.32846  0.83844  0.49456  1.0000
  H   H289      1.0  0.15265  0.62506  0.36298  1.0000
  H   H290      1.0  0.12961  0.65732  0.22956  1.0000
  H   H291      1.0  0.01094  0.53074  0.06317  1.0000
  H   H292      1.0  0.27067  0.66246  0.15458  1.0000
  H   H293      1.0  0.21694  0.70634  0.07620  1.0000
  H   H294      1.0  0.00695  0.68288  0.39227  1.0000
  H   H295      1.0  0.25856  0.73353  0.05930  1.0000
  C   C170      1.0  0.00929  0.51829  0.03879  1.0000
  C   C171      1.0  0.26137  0.56844  0.14676  1.0000
  C   C172      1.0  0.13722  0.58839  0.34540  1.0000
  H   H296      1.0  0.09478  0.68815  0.33687  1.0000
  C   C173      1.0  0.19639  0.72594  0.11666  1.0000
  H   H297      1.0  0.26864  0.60090  0.23169  1.0000
  H   H298      1.0  0.29197  0.96814  0.06083  1.0000
  H   H299      1.0  0.24842  0.68770  0.06334  1.0000
  H   H300      1.0  0.21656  0.50752  0.11137  1.0000
  C   C174      1.0  0.11270  0.63208  0.02210  1.0000
  H   H301      1.0  0.18517  0.64781  0.31887  1.0000
  C   C175      1.0  0.31038  0.96717  0.45367  1.0000
  H   H302      1.0  0.28231  0.66282  0.21946  1.0000
  C   C176      1.0  0.14042  0.61944  0.34226  1.0000
  H   H303      1.0  0.31215  0.99194  0.13561  1.0000
  H   H304      1.0  0.24242  0.57358  0.19884  1.0000
  N   N9        1.0  0.25097  0.54307  0.13147  1.0000
  C   C177      1.0  0.07800  0.60710  0.48110  1.0000
  H   H305      1.0  0.14777  0.55487  0.04534  1.0000
  C   C178      1.0  0.15433  0.65666  0.18677  1.0000
  C   C179      1.0  0.28085  0.64835  0.05154  1.0000
  C   C180      1.0  0.21855  0.72226  0.09756  1.0000
  H   H306      1.0  0.28938  0.75767  0.02790  1.0000
  C   C181      1.0  0.14628  0.64875  0.22567  1.0000
  H   H307      1.0  0.22334  0.50526  0.45325  1.0000
  H   H308      1.0  0.22100  0.56422  0.14717  1.0000
  C   C182      1.0  0.26954  0.68210  0.16975  1.0000
  H   H309      1.0  0.18905  0.70368  0.36779  1.0000
  H   H310      1.0  0.16732  0.66458  0.34960  1.0000
  C   C183      1.0  0.30634  0.99571  0.45611  1.0000
  H   H311      1.0  0.15281  0.57724  0.33998  1.0000
  H   H312      1.0  0.29059  0.54858  0.01755  1.0000
  H   H313      1.0  0.21845  0.77917  0.00802  1.0000
  C   C184      1.0  0.27394  0.54749  0.02970  1.0000
  H   H314      1.0  0.28114  0.52084  0.14088  1.0000
  H   H315      1.0  0.00092  0.69980  0.45579  1.0000
  H   H316      1.0  0.16526  0.68108  0.24825  1.0000
  H   H317      1.0  0.24389  0.52793  0.07651  1.0000
  H   H318      1.0  0.13153  0.58287  0.37374  1.0000
  C   C185      1.0  0.07322  0.51262  0.48713  1.0000
  H   H319      1.0  0.14333  0.64817  0.16578  1.0000
  H   H320      1.0  0.13064  0.67186  0.36182  1.0000
  H   H321      1.0  0.12762  0.51526  0.02023  1.0000
  H   H322      1.0  0.10186  0.57002  0.02414  1.0000
  H   H323      1.0  0.25415  0.58730  0.13364  1.0000
  H   H324      1.0  0.09040  0.57739  0.44206  1.0000
  H   H325      1.0  0.03830  0.64712  0.37198  1.0000
  H   H326      1.0  0.25322  0.68381  0.18304  1.0000
  C   C186      1.0  0.27087  0.59825  0.20137  1.0000
  C   C187      1.0  0.14755  0.62757  0.30241  1.0000
  H   H327      1.0  0.03842  0.64459  0.45757  1.0000
  H   H328      1.0  0.10563  0.71072  0.37094  1.0000
  C   C188      1.0  0.28909  0.74346  0.08534  1.0000
  C   C189      1.0  0.01005  0.53054  0.00349  1.0000
  H   H329      1.0  0.11496  0.52809  0.46369  1.0000
  C   C190      1.0  0.27250  0.53946  0.43759  1.0000
  H   H330      1.0  0.12456  0.62928  0.34928  1.0000
  S   S48       1.0  0.21732  0.54755  0.01284  1.0000
  H   H331      1.0  0.27903  0.56871  0.13987  1.0000
  H   H332      1.0  0.26373  0.61652  0.18719  1.0000
  S   S49       1.0  0.25292  0.65701  0.47648  1.0000
  C   C191      1.0  0.17241  0.66421  0.32005  1.0000
  H   H333      1.0  0.08366  0.63628  0.05565  1.0000
  C   C192      1.0  0.06481  0.54628  0.05236  1.0000
  H   H334      1.0  0.27316  0.56049  0.42541  1.0000
  H   H335      1.0  0.06667  0.67880  0.39315  1.0000
  C   C193      1.0  0.12333  0.53633  0.01057  1.0000
  H   H336      1.0  0.25273  0.66685  0.10240  1.0000
  H   H337      1.0  0.17163  0.70843  0.30527  1.0000
  C   C194      1.0  0.27398  0.70693  0.14345  1.0000
  H   H338      1.0  0.27309  0.72592  0.16039  1.0000
  H   H339      1.0  0.29122  0.70506  0.13451  1.0000
  S   S50       1.0  0.18680  0.61892  0.00466  1.0000
  C   C195      1.0  0.29378  0.97321  0.03172  1.0000
  H   H340      1.0  0.25421  0.87069  0.00424  1.0000
  H   H341      1.0  0.28523  0.52899  0.08005  1.0000
  C   C196      1.0  0.27508  0.54700  0.07193  1.0000
  H   H342      1.0  0.18389  0.73077  0.09558  1.0000
  H   H343      1.0  0.30278  0.67759  0.18942  1.0000
  C   C197      1.0  0.25961  0.57208  0.18941  1.0000
  H   H344      1.0  0.26193  0.57783  0.48833  1.0000
  S   S51       1.0  0.19767  0.61841  0.49139  1.0000
  H   H345      1.0  0.11921  0.66572  0.29184  1.0000
  H   H346      1.0  0.02938  0.58352  0.05547  1.0000
  H   H347      1.0  0.16132  0.61375  0.29426  1.0000
  C   C198      1.0  0.16176  0.65933  0.25572  1.0000
  C   C199      1.0  0.10809  0.70259  0.34256  1.0000
  H   H348      1.0  0.26856  0.64845  0.02932  1.0000
  H   H349      1.0  0.19409  0.68943  0.28534  1.0000
  H   H350      1.0  0.24176  0.75866  0.47455  1.0000
  C   C200      1.0  0.25560  0.89320  0.00780  1.0000
  H   H351      1.0  0.19675  0.74311  0.13660  1.0000
  H   H352      1.0  0.19164  0.70681  0.13159  1.0000
  C   C201      1.0  0.13015  0.68789  0.33990  1.0000
  H   H353      1.0  0.10733  0.72007  0.32255  1.0000
  H   H354      1.0  0.14560  0.62596  0.22675  1.0000
  C   C202      1.0  0.23622  0.71383  0.12596  1.0000
  H   H355      1.0  0.25647  0.75395  0.09961  1.0000
  H   H356      1.0  0.01997  0.52218  0.45630  1.0000
  H   H357      1.0  0.23041  0.69448  0.13924  1.0000
  N   N10       1.0  0.25909  0.71006  0.11075  1.0000
  H   H358      1.0  0.17093  0.64816  0.18156  1.0000
  H   H359      1.0  0.20785  0.54049  0.09509  1.0000
  C   C203      1.0  0.26338  0.51825  0.14572  1.0000
  C   C204      1.0  0.25948  0.68479  0.08697  1.0000
  H   H360      1.0  0.06591  0.53883  0.08160  1.0000
  H   H361      1.0  0.07830  0.58463  0.07262  1.0000
  C   C205      1.0  0.06463  0.57797  0.05520  1.0000
  H   H362      1.0  0.26211  0.92047  0.05377  1.0000
  C   C206      1.0  0.19850  0.70079  0.34164  1.0000
  H   H363      1.0  0.10803  0.54874  0.06233  1.0000
  H   H364      1.0  0.04885  0.62037  0.40212  1.0000
  H   H365      1.0  0.04112  0.57967  0.10099  1.0000
  C   C207      1.0  0.21088  0.52801  0.12043  1.0000
  C   C208      1.0  0.29274  0.76575  0.05581  1.0000
  C   C209      1.0  0.04348  0.58866  0.07285  1.0000
  C   C210      1.0  0.28607  0.68053  0.20088  1.0000
  H   H366      1.0  0.29572  0.54820  0.47906  1.0000
  H   H367      1.0  0.30992  0.77245  0.05606  1.0000
  H   H368      1.0  0.28204  0.78393  0.06094  1.0000
  H   H369      1.0  0.17746  0.64793  0.25227  1.0000
  C   C211      1.0  0.25972  0.69223  0.48506  1.0000
  H   H370      1.0  0.12490  0.58154  0.32548  1.0000
  H   H371      1.0  0.04408  0.61138  0.07511  1.0000
  C   C212      1.0  0.03152  0.65342  0.43157  1.0000
  H   H372      1.0  0.15458  0.67934  0.18318  1.0000
  H   H373      1.0  0.25580  0.53145  0.43489  1.0000
  H   H374      1.0  0.24266  0.56380  0.08046  1.0000
  C   C213      1.0  0.00200  0.68483  0.47908  1.0000
  C   C214      1.0  0.09021  0.63546  0.02774  1.0000
  H   H375      1.0  0.29472  0.67542  0.09044  1.0000
  S   S52       1.0  0.14263  0.65105  0.46075  1.0000
  C   C215      1.0  0.09385  0.59584  0.45713  1.0000
  N   N11       1.0  0.08240  0.53301  0.02866  1.0000
  H   H376      1.0  0.28385  0.52599  0.42166  1.0000
  H   H377      1.0  0.04863  0.54008  0.04268  1.0000
  C   C216      1.0  0.04601  0.64288  0.39905  1.0000
  H   H378      1.0  0.07875  0.64715  0.37661  1.0000
  C   C217      1.0  0.25203  0.54535  0.08976  1.0000
  H   H379      1.0  0.28855  0.59705  0.19489  1.0000
  C   C218      1.0  0.14530  0.51152  0.48285  1.0000
  C   C219      1.0  0.10263  0.64417  0.49435  1.0000
  C   C220      1.0  0.18914  0.52456  0.14082  1.0000
  H   H380      1.0  0.32887  0.99243  0.07309  1.0000
  C   C221      1.0  0.10352  0.54810  0.03257  1.0000
  S   S53       1.0  0.31304  0.91386  0.47941  1.0000
  H   H381      1.0  0.00330  0.64098  0.48844  1.0000
  C   C222      1.0  0.11850  0.63285  0.47042  1.0000
  C   C223      1.0  0.30766  0.94968  0.48465  1.0000
  H   H382      1.0  0.17728  0.51512  0.12209  1.0000
  H   H383      1.0  0.26748  0.55469  0.20435  1.0000
  C   C224      1.0  0.06830  0.65637  0.39863  1.0000
  H   H384      1.0  0.06634  0.58792  0.02788  1.0000
  H   H385      1.0  0.27567  0.88744  0.05619  1.0000
  H   H386      1.0  0.18375  0.51505  0.05169  1.0000
  H   H387      1.0  0.01381  0.61022  0.39827  1.0000
  H   H388      1.0  0.18251  0.54479  0.14978  1.0000
  C   C225      1.0  0.28172  0.67652  0.06961  1.0000
  H   H389      1.0  0.29430  0.75179  0.11226  1.0000
  C   C226      1.0  0.19277  0.50171  0.03318  1.0000
  H   H390      1.0  0.15506  0.52623  0.46601  1.0000
  C   C227      1.0  0.26029  0.89817  0.04858  1.0000
  H   H391      1.0  0.29991  0.72586  0.07854  1.0000
  C   C228      1.0  0.22392  0.73540  0.00264  1.0000
  H   H392      1.0  0.29691  0.64322  0.03884  1.0000
  C   C229      1.0  0.27912  0.53974  0.47816  1.0000
  H   H393      1.0  0.26616  0.52860  0.01953  1.0000
  H   H394      1.0  0.26143  0.51632  0.17625  1.0000
  H   H395      1.0  0.31557  0.95855  0.42748  1.0000
  H   H396      1.0  0.22646  0.53389  0.17340  1.0000
  H   H397      1.0  0.29731  0.93074  0.01510  1.0000
  C   C230      1.0  0.20940  0.51249  0.01081  1.0000
  C   C231      1.0  0.25242  0.74179  0.48245  1.0000
  H   H398      1.0  0.04021  0.49915  0.43701  1.0000
  H   H399      1.0  0.23092  0.71063  0.46188  1.0000
  H   H400      1.0  0.01321  0.60541  0.44707  1.0000
  N   N12       1.0  0.00750  0.64741  0.42948  1.0000
  H   H401      1.0  0.26448  0.56574  0.01996  1.0000
  H   H402      1.0  0.20874  0.72998  0.01606  1.0000
  C   C232      1.0  0.14340  0.55400  0.01565  1.0000
  H   H403      1.0  0.22147  0.90359  0.01565  1.0000
  H   H404      1.0  0.09407  0.50428  0.07040  1.0000
  C   C233      1.0  0.29662  0.95190  0.00581  1.0000
  H   H405      1.0  0.19112  0.51092  0.16543  1.0000
  H   H406      1.0  0.01871  0.68572  0.49028  1.0000
  H   H407      1.0  0.01215  0.55233  0.00085  1.0000
  H   H408      1.0  0.23822  0.93107  0.99979  1.0000
  H   H409      1.0  0.14040  0.57525  0.00517  1.0000
  H   H410      1.0  0.00016  0.65168  0.37128  1.0000
  H   H411      1.0  0.15745  0.54513  0.99999  1.0000
  H   H412      1.0  0.24636  0.54845  0.49841  1.0000
  H   H413      1.0  0.03137  0.71246  0.80340  1.0000
  H   H414      1.0  0.10647  0.59072  0.55622  1.0000
  H   H415      1.0  0.27000  0.71413  0.59446  1.0000
  Fe  Fe27      1.0  0.02802  0.59590  0.53195  1.0000
  C   C234      1.0  0.02368  0.71869  0.87452  1.0000
  S   S54       1.0  0.03097  0.56779  0.58113  1.0000
  Fe  Fe28      1.0  0.31451  0.87720  0.51992  1.0000
  H   H416      1.0  0.04093  0.49796  0.50524  1.0000
  H   H417      1.0  0.20932  0.87410  0.89670  1.0000
  Fe  Fe29      1.0  0.30397  0.81448  0.52908  1.0000
  H   H418      1.0  0.29918  0.99095  0.92748  1.0000
  H   H419      1.0  0.27741  0.75570  0.95122  1.0000
  Fe  Fe30      1.0  0.31201  0.84990  0.59801  1.0000
  S   S55       1.0  0.29815  0.85809  0.65639  1.0000
  H   H420      1.0  0.08146  0.58763  0.58284  1.0000
  S   S56       1.0  0.28850  0.85370  0.55058  1.0000
  H   H421      1.0  0.20855  0.82080  0.94334  1.0000
  H   H422      1.0  0.23582  0.75989  0.60484  1.0000
  C   C235      1.0  0.31918  0.83554  0.77573  1.0000
  C   C236      1.0  0.08441  0.63724  0.96139  1.0000
  Fe  Fe31      1.0  0.03209  0.62779  0.92575  1.0000
  H   H423      1.0  0.02472  0.73896  0.86023  1.0000
  S   S57       1.0  0.02485  0.59757  0.88134  1.0000
  H   H424      1.0  0.29591  0.76155  0.60021  1.0000
  Fe  Fe32      1.0  0.31442  0.83883  0.87871  1.0000
  S   S58       1.0  0.28302  0.85800  0.89947  1.0000
  N   N13       1.0  0.08573  0.51360  0.52274  1.0000
  C   C237      1.0  0.01234  0.60652  0.77602  1.0000
  Fe  Fe33      1.0  0.28479  0.82734  0.94727  1.0000
  H   H425      1.0  0.23660  0.80791  0.58774  1.0000
  Fe  Fe34      1.0  0.30387  0.88513  0.93472  1.0000
  C   C238      1.0  0.07297  0.55871  0.96705  1.0000
  S   S59       1.0  0.31460  0.80640  0.92408  1.0000
  C   C239      1.0  0.25327  0.75370  0.60315  1.0000
  H   H426      1.0  0.24707  0.80373  0.69266  1.0000
  C   C240      1.0  0.25421  0.72186  0.60579  1.0000
  H   H427      1.0  0.01828  0.59853  0.80198  1.0000
  H   H428      1.0  0.27509  0.79589  0.69892  1.0000
  C   C241      1.0  0.12106  0.63160  0.98591  1.0000
  H   H429      1.0  0.18371  0.98527  0.95252  1.0000
  H   H430      1.0  0.02867  0.65722  0.76014  1.0000
  H   H431      1.0  0.02183  0.67366  0.68956  1.0000
  H   H432      1.0  0.27303  0.91888  0.86888  1.0000
  H   H433      1.0  0.11759  0.50035  0.54145  1.0000
  H   H434      1.0  0.19910  0.91488  0.92401  1.0000
  H   H435      1.0  0.01821  0.70275  0.74577  1.0000
  H   H436      1.0  0.28169  0.59578  0.59948  1.0000
  C   C242      1.0  0.00787  0.51450  0.97197  1.0000
  N   N14       1.0  0.26621  0.76891  0.63148  1.0000
  S   S60       1.0  0.06725  0.64121  0.92283  1.0000
  C   C243      1.0  0.18342  0.96272  0.94825  1.0000
  C   C244      1.0  0.08501  0.54274  0.53638  1.0000
  H   H437      1.0  0.25881  0.95132  0.87506  1.0000
  C   C245      1.0  0.30681  0.84891  0.70191  1.0000
  H   H438      1.0  0.04926  0.68552  0.68225  1.0000
  H   H439      1.0  0.27425  0.80213  0.59363  1.0000
  H   H440      1.0  0.05641  0.54088  0.92022  1.0000
  C   C246      1.0  0.30050  0.85148  0.76917  1.0000
  C   C247      1.0  0.29435  0.85800  0.73253  1.0000
  H   H441      1.0  0.23913  0.89370  0.87868  1.0000
  C   C248      1.0  0.29623  0.98960  0.52047  1.0000
  H   H442      1.0  0.29080  0.85884  0.79230  1.0000
  H   H443      1.0  0.27991  0.87042  0.72788  1.0000
  C   C249      1.0  0.22941  0.76336  0.99776  1.0000
  H   H444      1.0  0.32884  0.59311  0.57027  1.0000
  S   S61       1.0  0.01553  0.60362  0.97090  1.0000
  H   H445      1.0  0.26984  0.90034  0.99145  1.0000
  S   S62       1.0  0.30361  0.85593  0.98344  1.0000
  H   H446      1.0  0.23727  0.71642  0.55386  1.0000
  H   H447      1.0  0.04551  0.71446  0.73911  1.0000
  H   H448      1.0  0.26382  0.74430  0.68162  1.0000
  H   H449      1.0  0.24114  0.86376  0.94401  1.0000
  S   S63       1.0  0.32649  0.81003  0.57775  1.0000
  H   H450      1.0  0.03931  0.67926  0.87479  1.0000
  C   C250      1.0  0.25372  0.77625  0.73786  1.0000
  C   C251      1.0  0.29835  0.95809  0.96798  1.0000
  C   C252      1.0  0.29788  0.98586  0.95665  1.0000
  C   C253      1.0  0.09831  0.57944  0.57933  1.0000
  H   H451      1.0  0.26002  0.90333  0.93337  1.0000
  H   H452      1.0  0.10728  0.58324  0.60517  1.0000
  C   C254      1.0  0.03471  0.69669  0.73556  1.0000
  C   C255      1.0  0.23952  0.91512  0.88866  1.0000
  S   S64       1.0  0.00247  0.65415  0.91407  1.0000
  N   N15       1.0  0.05191  0.67644  0.79519  1.0000
  C   C256      1.0  0.04283  0.67099  0.75745  1.0000
  C   C257      1.0  0.05556  0.64940  0.81525  1.0000
  C   C258      1.0  0.03471  0.69220  0.81683  1.0000
  C   C259      1.0  0.07253  0.69295  0.79354  1.0000
  C   C260      1.0  0.08775  0.68873  0.75929  1.0000
  Fe  Fe35      1.0  0.00613  0.57533  0.92553  1.0000
  H   H453      1.0  0.27468  0.53438  0.59031  1.0000
  C   C261      1.0  0.07233  0.62918  0.79787  1.0000
  C   C262      1.0  0.07276  0.60178  0.81899  1.0000
  C   C263      1.0  0.10979  0.70200  0.76497  1.0000
  H   H454      1.0  0.19142  0.86724  0.93515  1.0000
  H   H455      1.0  0.21774  0.96016  0.93794  1.0000
  Fe  Fe36      1.0  0.33330  0.83690  0.95682  1.0000
  H   H456      1.0  0.05461  0.65955  0.73975  1.0000
  H   H457      1.0  0.06157  0.65285  0.84363  1.0000
  H   H458      1.0  0.03984  0.63859  0.81890  1.0000
  C   C264      1.0  0.03305  0.69090  0.69422  1.0000
  H   H459      1.0  0.22389  0.92570  0.88268  1.0000
  H   H460      1.0  0.06869  0.71539  0.79412  1.0000
  H   H461      1.0  0.08223  0.68890  0.81891  1.0000
  H   H462      1.0  0.08051  0.69837  0.73429  1.0000
  H   H463      1.0  0.09069  0.66682  0.75302  1.0000
  C   C265      1.0  0.20585  0.91858  0.95175  1.0000
  H   H464      1.0  0.25283  0.92990  0.83621  1.0000
  H   H465      1.0  0.24037  0.60578  0.52145  1.0000
  H   H466      1.0  0.08564  0.54350  0.91427  1.0000
  H   H467      1.0  0.06866  0.62466  0.76867  1.0000
  H   H468      1.0  0.08888  0.63774  0.79968  1.0000
  H   H469      1.0  0.08573  0.58824  0.80729  1.0000
  H   H470      1.0  0.07611  0.60500  0.84877  1.0000
  H   H471      1.0  0.05700  0.59122  0.81640  1.0000
  H   H472      1.0  0.10773  0.72433  0.77020  1.0000
  H   H473      1.0  0.11827  0.69212  0.78871  1.0000
  H   H474      1.0  0.12010  0.69935  0.73975  1.0000
  H   H475      1.0  0.23366  0.50279  0.96917  1.0000
  S   S65       1.0  0.03301  0.60858  0.66906  1.0000
  H   H476      1.0  0.15946  0.50353  0.91477  1.0000
  C   C266      1.0  0.30078  0.96112  0.51825  1.0000
  C   C267      1.0  0.28943  0.75850  0.62897  1.0000
  C   C268      1.0  0.26553  0.79890  0.62057  1.0000
  H   H477      1.0  0.20949  0.95563  0.98571  1.0000
  C   C269      1.0  0.32842  0.75850  0.65107  1.0000
  C   C270      1.0  0.24916  0.57346  0.56165  1.0000
  H   H478      1.0  0.23842  0.68629  0.58310  1.0000
  C   C271      1.0  0.24474  0.60398  0.55101  1.0000
  C   C272      1.0  0.22598  0.61595  0.57415  1.0000
  H   H479      1.0  0.17077  0.95386  0.96692  1.0000
  Fe  Fe37      1.0  0.01649  0.60229  0.61437  1.0000
  H   H480      1.0  0.25088  0.57194  0.59223  1.0000
  H   H481      1.0  0.22526  0.85090  0.61862  1.0000
  S   S66       1.0  0.30061  0.93222  0.93357  1.0000
  C   C273      1.0  0.22517  0.87332  0.95166  1.0000
  H   H482      1.0  0.08700  0.57239  0.97043  1.0000
  H   H483      1.0  0.17908  0.95896  0.91901  1.0000
  H   H484      1.0  0.24907  0.93655  0.93819  1.0000
  H   H485      1.0  0.23026  0.61619  0.60389  1.0000
  H   H486      1.0  0.22253  0.63739  0.56484  1.0000
  S   S67       1.0  0.23175  0.67884  0.99389  1.0000
  H   H487      1.0  0.12522  0.54377  0.50460  1.0000
  C   C274      1.0  0.27229  0.53210  0.56006  1.0000
  C   C275      1.0  0.26256  0.75027  0.96572  1.0000
  C   C276      1.0  0.28575  0.72534  0.50968  1.0000
  H   H488      1.0  0.01899  0.68098  0.81684  1.0000
  H   H489      1.0  0.21104  0.60374  0.57074  1.0000
  H   H490      1.0  0.23706  0.76781  0.73963  1.0000
  H   H491      1.0  0.29942  0.56614  0.60134  1.0000
  H   H492      1.0  0.13836  0.62921  0.98118  1.0000
  H   H493      1.0  0.26789  0.70655  0.95987  1.0000
  H   H494      1.0  0.07047  0.63995  0.51871  1.0000
  C   C277      1.0  0.09814  0.54862  0.57164  1.0000
  H   H495      1.0  0.04334  0.53445  0.50656  1.0000
  C   C278      1.0  0.02398  0.60131  0.74299  1.0000
  C   C279      1.0  0.20806  0.86342  0.92378  1.0000
  H   H496      1.0  0.30074  0.76638  0.68521  1.0000
  C   C280      1.0  0.25709  0.72233  0.97071  1.0000
  H   H497      1.0  0.25305  0.85316  0.60295  1.0000
  H   H498      1.0  0.23892  0.75936  0.66815  1.0000
  C   C281      1.0  0.21044  0.83258  0.91698  1.0000
  H   H499      1.0  0.24699  0.84722  0.65134  1.0000
  C   C282      1.0  0.30565  0.77101  0.65621  1.0000
  H   H500      1.0  0.09038  0.55716  0.51420  1.0000
  C   C283      1.0  0.10882  0.50421  0.51510  1.0000
  C   C284      1.0  0.04008  0.69831  0.85777  1.0000
  S   S68       1.0  0.19904  0.54052  0.50565  1.0000
  H   H501      1.0  0.32843  0.73629  0.65847  1.0000
  C   C285      1.0  0.23636  0.70899  0.58300  1.0000
  C   C286      1.0  0.24196  0.84260  0.62270  1.0000
  C   C287      1.0  0.25714  0.92974  0.86595  1.0000
  S   S69       1.0  0.25467  0.80677  0.97339  1.0000
  H   H502      1.0  0.30682  0.79355  0.65222  1.0000
  H   H503      1.0  0.22006  0.71421  0.59474  1.0000
  N   N16       1.0  0.22749  0.90405  0.95645  1.0000
  H   H504      1.0  0.23052  0.80218  0.63582  1.0000
  H   H505      1.0  0.22044  0.86324  0.97842  1.0000
  H   H506      1.0  0.29027  0.73604  0.63459  1.0000
  H   H507      1.0  0.23865  0.51817  0.56939  1.0000
  H   H508      1.0  0.03904  0.58960  0.74380  1.0000
  C   C288      1.0  0.25396  0.51082  0.55602  1.0000
  H   H509      1.0  0.09064  0.53832  0.59614  1.0000
  C   C289      1.0  0.24467  0.91529  0.93043  1.0000
  H   H510      1.0  0.19777  0.82590  0.89761  1.0000
  S   S70       1.0  0.00794  0.52925  0.92762  1.0000
  H   H511      1.0  0.05942  0.50303  0.56053  1.0000
  S   S71       1.0  0.01601  0.63180  0.56572  1.0000
  H   H512      1.0  0.11355  0.63427  0.92778  1.0000
  C   C290      1.0  0.33151  0.82616  0.74510  1.0000
  H   H513      1.0  0.31918  0.60877  0.61249  1.0000
  H   H514      1.0  0.05652  0.70703  0.86037  1.0000
  C   C291      1.0  0.08258  0.63106  0.50026  1.0000
  H   H515      1.0  0.02722  0.72149  0.90429  1.0000
  H   H516      1.0  0.25871  0.75950  0.57460  1.0000
  C   C292      1.0  0.28851  0.57661  0.54505  1.0000
  H   H517      1.0  0.23388  0.56242  0.55577  1.0000
  H   H518      1.0  0.06809  0.54922  0.54274  1.0000
  H   H519      1.0  0.02664  0.70939  0.67953  1.0000
  H   H520      1.0  0.27462  0.81138  0.64025  1.0000
  C   C293      1.0  0.07078  0.55373  0.92561  1.0000
  H   H521      1.0  0.10584  0.66321  0.50828  1.0000
  H   H522      1.0  0.25235  0.71455  0.63484  1.0000
  H   H523      1.0  0.08686  0.51769  0.97301  1.0000
  H   H524      1.0  0.30273  0.56521  0.53329  1.0000
  C   C294      1.0  0.23474  0.90896  0.99560  1.0000
  C   C295      1.0  0.20553  0.50471  0.50485  1.0000
  C   C296      1.0  0.31468  0.60349  0.58380  1.0000
  C   C297      1.0  0.29501  0.58468  0.58478  1.0000
  C   C298      1.0  0.25664  0.76352  0.66968  1.0000
  C   C299      1.0  0.20575  0.95021  0.95678  1.0000
  H   H525      1.0  0.22665  0.82769  0.90457  1.0000
  C   C300      1.0  0.24873  0.77106  0.97917  1.0000
  H   H526      1.0  0.06858  0.57375  0.91095  1.0000
  H   H527      1.0  0.00688  0.71085  0.87229  1.0000
  H   H528      1.0  0.25903  0.61705  0.55552  1.0000
  H   H529      1.0  0.15398  0.50745  0.50913  1.0000
  C   C301      1.0  0.25874  0.78675  0.69870  1.0000
  H   H530      1.0  0.29850  0.94797  0.54229  1.0000
  C   C302      1.0  0.24237  0.81162  0.61627  1.0000
  H   H531      1.0  0.25481  0.79347  0.75764  1.0000
  H   H532      1.0  0.26569  0.76010  0.74612  1.0000
  C   C303      1.0  0.10696  0.63439  0.95569  1.0000
  H   H533      1.0  0.19374  0.90986  0.97174  1.0000
  H   H534      1.0  0.11527  0.54152  0.56896  1.0000
  C   C304      1.0  0.01640  0.61158  0.70902  1.0000
  H   H535      1.0  0.11995  0.53589  0.98051  1.0000
  S   S72       1.0  0.32784  0.82664  0.82136  1.0000
  S   S73       1.0  0.27910  0.78278  0.50823  1.0000
  C   C305      1.0  0.07608  0.63777  0.99754  1.0000
  C   C306      1.0  0.32544  0.83284  0.70845  1.0000
  C   C307      1.0  0.23776  0.71461  0.98918  1.0000
  H   H536      1.0  0.05942  0.52123  0.98698  1.0000
  H   H537      1.0  0.29020  0.68116  0.51029  1.0000
  H   H538      1.0  0.25072  0.50674  0.52658  1.0000
  N   N17       1.0  0.26821  0.55981  0.54214  1.0000
  H   H539      1.0  0.28721  0.59568  0.52776  1.0000
  H   H540      1.0  0.05786  0.56949  0.97616  1.0000
  H   H541      1.0  0.28773  0.52275  0.54940  1.0000
  H   H542      1.0  0.31083  0.62286  0.56851  1.0000
  H   H543      1.0  0.30105  0.72920  0.52285  1.0000
  C   C308      1.0  0.07548  0.53127  0.98880  1.0000
  C   C309      1.0  0.26285  0.55714  0.50173  1.0000
  C   C310      1.0  0.27950  0.69800  0.50250  1.0000
  C   C311      1.0  0.27230  0.74758  0.49954  1.0000
  S   S74       1.0  0.64156  0.15352  0.43259  1.0000
  H   H544      1.0  0.35959  0.04636  0.01329  1.0000
  C   C312      1.0  0.61891  0.05054  0.44564  1.0000
  H   H545      1.0  0.64446  0.06378  0.40810  1.0000
  C   C313      1.0  0.49802  0.01416  0.48167  1.0000
  H   H546      1.0  0.59742  0.01846  0.02930  1.0000
  H   H547      1.0  0.47065  0.06829  0.44792  1.0000
  H   H548      1.0  0.43017  0.02829  0.35061  1.0000
  H   H549      1.0  0.38994  0.20411  0.39297  1.0000
  H   H550      1.0  0.63638  0.12981  0.17292  1.0000
  C   C314      1.0  0.62265  0.11962  0.02019  1.0000
  H   H551      1.0  0.40426  0.05209  0.11055  1.0000
  H   H552      1.0  0.57296  0.04007  0.44147  1.0000
  H   H553      1.0  0.37108  0.03233  0.47859  1.0000
  C   C315      1.0  0.65424  0.03318  0.06517  1.0000
  H   H554      1.0  0.46015  0.09204  0.41356  1.0000
  S   S75       1.0  0.55692  0.11808  0.01299  1.0000
  C   C316      1.0  0.62778  0.12625  0.14667  1.0000
  C   C317      1.0  0.46009  0.04844  0.39688  1.0000
  Fe  Fe38      1.0  0.34717  0.11255  0.46488  1.0000
  H   H555      1.0  0.59116  0.01989  0.07805  1.0000
  H   H556      1.0  0.35480  0.02413  0.13056  1.0000
  H   H557      1.0  0.40257  0.12843  0.44459  1.0000
  H   H558      1.0  0.44265  0.13502  0.44109  1.0000
  C   C318      1.0  0.41297  0.03292  0.10222  1.0000
  C   C319      1.0  0.43023  0.01939  0.37921  1.0000
  C   C320      1.0  0.64588  0.22229  0.20720  1.0000
  H   H559      1.0  0.55082  0.07741  0.40758  1.0000
  C   C321      1.0  0.64043  0.20845  0.02660  1.0000
  C   C322      1.0  0.57097  0.05133  0.46797  1.0000
  C   C323      1.0  0.60052  0.11470  0.02749  1.0000
  H   H560      1.0  0.42284  0.01261  0.44709  1.0000
  H   H561      1.0  0.59511  0.15711  0.44145  1.0000
  C   C324      1.0  0.43555  0.02859  0.44532  1.0000
  H   H562      1.0  0.65169  0.14773  0.11301  1.0000
  H   H563      1.0  0.48975  0.02791  0.46285  1.0000
  H   H564      1.0  0.42559  0.07531  0.37354  1.0000
  H   H565      1.0  0.60664  0.05405  0.42391  1.0000
  H   H566      1.0  0.38829  0.00565  0.12231  1.0000
  C   C325      1.0  0.41245  0.12435  0.46859  1.0000
  N   N18       1.0  0.58858  0.04324  0.49485  1.0000
  C   C326      1.0  0.49287  0.07872  0.40449  1.0000
  C   C327      1.0  0.60979  0.05678  0.48491  1.0000
  C   C328      1.0  0.62413  0.14423  0.46993  1.0000
  Fe  Fe39      1.0  0.33963  0.10902  0.05096  1.0000
  C   C329      1.0  0.34244  0.00630  0.07985  1.0000
  H   H567      1.0  0.53424  0.08223  0.44888  1.0000
  H   H568      1.0  0.34824  0.08032  0.25464  1.0000
  C   C330      1.0  0.43513  0.12805  0.46669  1.0000
  H   H569      1.0  0.63485  0.11286  0.03961  1.0000
  N   N19       1.0  0.36239  0.99865  0.05729  1.0000
  H   H570      1.0  0.66363  0.00506  0.02251  1.0000
  H   H571      1.0  0.56745  0.09479  0.48357  1.0000
  H   H572      1.0  0.62461  0.02884  0.44417  1.0000
  H   H573      1.0  0.49924  0.09641  0.41996  1.0000
  C   C331      1.0  0.37083  0.18970  0.48289  1.0000
  C   C332      1.0  0.33454  0.09444  0.25336  1.0000
  H   H574      1.0  0.49313  0.08407  0.37453  1.0000
  S   S76       1.0  0.33703  0.14210  0.41961  1.0000
  C   C333      1.0  0.38278  0.20622  0.45188  1.0000
  N   N20       1.0  0.62624  0.17742  0.12503  1.0000
  C   C334      1.0  0.63371  0.14838  0.11708  1.0000
  C   C335      1.0  0.63409  0.19676  0.09466  1.0000
  C   C336      1.0  0.63670  0.18580  0.16069  1.0000
  C   C337      1.0  0.60190  0.17963  0.13031  1.0000
  C   C338      1.0  0.58783  0.16886  0.09856  1.0000
  H   H575      1.0  0.64652  0.01390  0.38519  1.0000
  S   S77       1.0  0.33960  0.07494  0.43279  1.0000
  C   C339      1.0  0.63526  0.18561  0.05459  1.0000
  H   H576      1.0  0.39108  0.02096  0.03913  1.0000
  C   C340      1.0  0.56379  0.16846  0.10971  1.0000
  H   H577      1.0  0.63341  0.09065  0.43667  1.0000
  H   H578      1.0  0.45686  0.00959  0.02751  1.0000
  C   C341      1.0  0.38030  0.19276  0.41423  1.0000
  H   H579      1.0  0.62718  0.14125  0.09064  1.0000
  H   H580      1.0  0.62400  0.21593  0.09432  1.0000
  C   C342      1.0  0.58462  0.12313  0.00209  1.0000
  H   H581      1.0  0.58366  0.08963  0.44270  1.0000
  H   H582      1.0  0.63080  0.17303  0.18437  1.0000
  H   H583      1.0  0.59682  0.16904  0.15643  1.0000
  H   H584      1.0  0.59683  0.20144  0.13404  1.0000
  H   H585      1.0  0.59243  0.14763  0.09085  1.0000
  H   H586      1.0  0.58921  0.18260  0.07399  1.0000
  H   H587      1.0  0.65248  0.09615  0.13030  1.0000
  N   N21       1.0  0.43697  0.04077  0.40661  1.0000
  H   H588      1.0  0.61561  0.22021  0.17890  1.0000
  S   S78       1.0  0.33715  0.09462  0.32950  1.0000
  H   H589      1.0  0.42426  0.02679  0.12465  1.0000
  H   H590      1.0  0.61998  0.17603  0.04625  1.0000
  H   H591      1.0  0.43973  0.06752  0.47571  1.0000
  H   H592      1.0  0.59566  0.10429  0.05283  1.0000
  C   C343      1.0  0.56912  0.08240  0.45825  1.0000
  H   H593      1.0  0.55415  0.16099  0.08615  1.0000
  H   H594      1.0  0.56112  0.15433  0.13366  1.0000
  H   H595      1.0  0.55785  0.18940  0.11690  1.0000
  H   H596      1.0  0.62753  0.22462  0.02706  1.0000
  H   H597      1.0  0.64072  0.20871  0.23056  1.0000
  H   H598      1.0  0.61002  0.12610  0.15225  1.0000
  H   H599      1.0  0.62666  0.09258  0.10731  1.0000
  H   H600      1.0  0.36844  0.05541  0.37298  1.0000
  H   H601      1.0  0.40043  0.20731  0.45729  1.0000
  H   H602      1.0  0.50365  0.06059  0.40948  1.0000
  H   H603      1.0  0.36301  0.19331  0.40583  1.0000
  C   C344      1.0  0.34887  0.03009  0.00329  1.0000
  C   C345      1.0  0.39683  0.00993  0.09579  1.0000
  C   C346      1.0  0.39643  0.11210  0.01758  1.0000
  C   C347      1.0  0.43016  0.04858  0.47744  1.0000
  H   H604      1.0  0.37619  0.22745  0.44949  1.0000
  H   H605      1.0  0.39300  0.04572  0.34904  1.0000
  H   H606      1.0  0.63838  0.23070  0.15046  1.0000
  H   H607      1.0  0.64842  0.16986  0.05227  1.0000
  C   C348      1.0  0.63454  0.09754  0.13383  1.0000
  C   C349      1.0  0.38575  0.06077  0.36856  1.0000
  H   H608      1.0  0.65637  0.21771  0.03265  1.0000
  C   C350      1.0  0.52445  0.00456  0.01514  1.0000
  H   H609      1.0  0.65103  0.20337  0.10018  1.0000
  H   H610      1.0  0.65158  0.06496  0.45636  1.0000
  H   H611      1.0  0.55779  0.99980  0.49115  1.0000
  H   H612      1.0  0.64938  0.01641  0.08454  1.0000
  H   H613      1.0  0.42618  0.08196  0.42082  1.0000
  H   H614      1.0  0.64300  0.24398  0.21531  1.0000
  H   H615      1.0  0.39392  0.04128  0.42102  1.0000
  C   C351      1.0  0.59192  0.01252  0.49353  1.0000
  C   C352      1.0  0.44815  0.12259  0.49769  1.0000
  H   H616      1.0  0.41332  0.01276  0.38511  1.0000
  C   C353      1.0  0.63828  0.06860  0.43631  1.0000
  H   H617      1.0  0.55479  0.04500  0.47910  1.0000
  H   H618      1.0  0.45094  0.01736  0.45203  1.0000
  C   C354      1.0  0.39748  0.06058  0.40567  1.0000
  H   H619      1.0  0.64328  0.05117  0.06979  1.0000
  H   H620      1.0  0.42269  0.03712  0.07668  1.0000
  H   H621      1.0  0.38630  0.08157  0.35562  1.0000
  C   C355      1.0  0.54938  0.08849  0.43421  1.0000
  C   C356      1.0  0.38084  0.01801  0.06453  1.0000
  H   H622      1.0  0.37795  0.16857  0.48334  1.0000
  C   C357      1.0  0.42232  0.06558  0.40113  1.0000
  C   C358      1.0  0.65277  0.02337  0.02530  1.0000
  H   H623      1.0  0.39016  0.07738  0.42259  1.0000
  H   H624      1.0  0.62958  0.08207  0.15502  1.0000
  H   H625      1.0  0.54826  0.11090  0.42824  1.0000
  H   H626      1.0  0.63587  0.01696  0.02086  1.0000
  H   H627      1.0  0.33665  0.02728  0.07249  1.0000
  H   H628      1.0  0.47134  0.03070  0.40179  1.0000
  H   H629      1.0  0.46150  0.05341  0.36674  1.0000
  S   S79       1.0  0.37531  0.09647  0.04366  1.0000
  H   H630      1.0  0.37421  0.03891  0.07083  1.0000
  C   C359      1.0  0.46973  0.07288  0.41793  1.0000
  C   C360      1.0  0.60163  0.14895  0.46703  1.0000
  H   H631      1.0  0.66359  0.21915  0.20191  1.0000
  C   C361      1.0  0.63302  0.21610  0.17244  1.0000
  H   H632      1.0  0.41953  0.08021  0.03208  1.0000
  H   H633      1.0  0.38624  0.17111  0.41508  1.0000
  H   H634      1.0  0.65270  0.06620  0.00627  1.0000
  C   C362      1.0  0.41702  0.09920  0.01684  1.0000
  C   C363      1.0  0.35634  0.00109  0.01693  1.0000
  H   H635      1.0  0.34060  0.20938  0.15901  1.0000
  H   H636      1.0  0.41272  0.05475  0.47697  1.0000
  H   H637      1.0  0.35385  0.18700  0.47356  1.0000
  C   C364      1.0  0.66310  0.00581  0.39100  1.0000
  H   H638      1.0  0.65457  0.18216  0.15882  1.0000
  H   H639      1.0  0.59531  0.00600  0.46458  1.0000
  H   H640      1.0  0.52763  0.01365  0.04169  1.0000
  H   H641      1.0  0.57063  0.00959  0.04624  1.0000
  H   H642      1.0  0.57036  0.14855  0.49525  1.0000
  C   C365      1.0  0.34480  0.00643  0.12243  1.0000
  C   C366      1.0  0.58829  0.00842  0.05223  1.0000
  S   S80       1.0  0.47664  0.12625  0.49407  1.0000
  H   H643      1.0  0.60842  0.07946  0.48842  1.0000
  C   C367      1.0  0.58756  0.14401  0.49742  1.0000
  Fe  Fe40      1.0  0.49806  0.11437  0.54282  1.0000
  S   S81       1.0  0.48797  0.08482  0.58770  1.0000
  S   S82       1.0  0.45319  0.15126  0.95287  1.0000
  Fe  Fe41      1.0  0.54410  0.11979  0.57303  1.0000
  S   S83       1.0  0.53703  0.09138  0.62106  1.0000
  S   S84       1.0  0.57958  0.13216  0.57156  1.0000
  Fe  Fe42      1.0  0.52079  0.06539  0.57960  1.0000
  S   S85       1.0  0.52702  0.01978  0.58017  1.0000
  Fe  Fe43      1.0  0.50500  0.11327  0.62599  1.0000
  S   S86       1.0  0.48739  0.11926  0.68075  1.0000
  S   S87       1.0  0.52976  0.09215  0.53114  1.0000
  S   S88       1.0  0.51309  0.14460  0.58161  1.0000
  Fe  Fe44      1.0  0.52175  0.12666  0.88497  1.0000
  S   S89       1.0  0.51667  0.15241  0.93578  1.0000
  S   S90       1.0  0.53496  0.14387  0.83082  1.0000
  Fe  Fe45      1.0  0.50775  0.07482  0.92482  1.0000
  H   H644      1.0  0.48501  0.01723  0.79686  1.0000
  S   S91       1.0  0.50430  0.02990  0.91410  1.0000
  Fe  Fe46      1.0  0.48546  0.12900  0.94339  1.0000
  H   H645      1.0  0.59863  0.02061  0.56646  1.0000
  Fe  Fe47      1.0  0.53254  0.11712  0.96651  1.0000
  H   H646      1.0  0.51031  0.07044  0.80796  1.0000
  S   S92       1.0  0.48970  0.10581  0.89038  1.0000
  S   S93       1.0  0.54031  0.09347  0.91505  1.0000
  H   H647      1.0  0.48334  0.23775  0.96325  1.0000
  C   C368      1.0  0.59101  0.13594  0.96897  1.0000
  C   C369      1.0  0.61309  0.14133  0.96203  1.0000
  H   H648      1.0  0.45218  0.03025  0.51780  1.0000
  H   H649      1.0  0.36574  0.03068  0.94984  1.0000
  H   H650      1.0  0.57889  0.14238  0.94915  1.0000
  H   H651      1.0  0.61788  0.15191  0.93676  1.0000
  S   S94       1.0  0.37431  0.11157  0.50679  1.0000
  C   C370      1.0  0.51800  0.04149  0.68358  1.0000
  C   C371      1.0  0.64057  0.20132  0.55247  1.0000
  H   H652      1.0  0.39941  0.22744  0.51436  1.0000
  H   H653      1.0  0.40851  0.16776  0.96343  1.0000
  H   H654      1.0  0.41190  0.17679  0.50324  1.0000
  H   H655      1.0  0.46991  0.07418  0.82361  1.0000
  H   H656      1.0  0.43039  0.06933  0.94448  1.0000
  H   H657      1.0  0.36581  0.18747  0.57747  1.0000
  C   C372      1.0  0.50192  0.12393  0.72172  1.0000
  C   C373      1.0  0.49172  0.11770  0.75564  1.0000
  C   C374      1.0  0.50214  0.12276  0.78906  1.0000
  C   C375      1.0  0.52258  0.13484  0.78900  1.0000
  C   C376      1.0  0.53300  0.14065  0.75505  1.0000
  C   C377      1.0  0.52281  0.13490  0.72142  1.0000
  H   H658      1.0  0.47560  0.10911  0.75598  1.0000
  H   H659      1.0  0.49409  0.11787  0.81487  1.0000
  H   H660      1.0  0.54887  0.14992  0.75472  1.0000
  H   H661      1.0  0.53076  0.13983  0.69532  1.0000
  C   C378      1.0  0.50979  0.04778  0.81058  1.0000
  C   C379      1.0  0.50536  0.02403  0.51528  1.0000
  C   C380      1.0  0.55373  0.07522  0.80820  1.0000
  C   C381      1.0  0.59597  0.13465  0.53112  1.0000
  H   H662      1.0  0.48399  0.04871  0.76959  1.0000
  C   C382      1.0  0.61838  0.12930  0.53372  1.0000
  H   H663      1.0  0.50931  0.06161  0.68526  1.0000
  C   C383      1.0  0.57610  0.08157  0.82349  1.0000
  H   H664      1.0  0.56477  0.04544  0.53962  1.0000
  H   H665      1.0  0.64962  0.12991  0.50577  1.0000
  C   C384      1.0  0.43826  0.11396  0.53078  1.0000
  C   C385      1.0  0.41564  0.11061  0.53280  1.0000
  H   H666      1.0  0.44803  0.10994  0.55491  1.0000
  H   H667      1.0  0.40818  0.10402  0.55865  1.0000
  N   N22       1.0  0.47109  0.20175  0.84364  1.0000
  C   C386      1.0  0.47132  0.19899  0.88529  1.0000
  C   C387      1.0  0.46381  0.17521  0.82667  1.0000
  C   C388      1.0  0.49418  0.20691  0.83066  1.0000
  C   C389      1.0  0.45714  0.22566  0.83081  1.0000
  C   C390      1.0  0.43314  0.22598  0.84415  1.0000
  C   C391      1.0  0.47971  0.22405  0.90668  1.0000
  C   C392      1.0  0.49841  0.20586  0.78812  1.0000
  C   C393      1.0  0.44649  0.15819  0.84822  1.0000
  C   C394      1.0  0.43792  0.13500  0.82459  1.0000
  C   C395      1.0  0.42183  0.25305  0.83350  1.0000
  H   H668      1.0  0.43861  0.21263  0.51823  1.0000
  C   C396      1.0  0.52202  0.21261  0.77850  1.0000
  H   H669      1.0  0.48152  0.18085  0.89338  1.0000
  H   H670      1.0  0.45494  0.19449  0.89670  1.0000
  H   H671      1.0  0.45803  0.17892  0.79793  1.0000
  H   H672      1.0  0.47788  0.16082  0.82404  1.0000
  H   H673      1.0  0.50550  0.19163  0.84371  1.0000
  H   H674      1.0  0.49964  0.22742  0.83969  1.0000
  H   H675      1.0  0.46456  0.24544  0.83859  1.0000
  H   H676      1.0  0.45655  0.22636  0.80010  1.0000
  H   H677      1.0  0.43159  0.22367  0.87460  1.0000
  H   H678      1.0  0.42420  0.20937  0.83053  1.0000
  H   H679      1.0  0.49728  0.22712  0.90096  1.0000
  H   H680      1.0  0.47061  0.24306  0.89912  1.0000
  H   H681      1.0  0.48804  0.22092  0.77311  1.0000
  H   H682      1.0  0.49522  0.18513  0.77714  1.0000
  H   H683      1.0  0.45399  0.14852  0.87298  1.0000
  H   H684      1.0  0.43248  0.17074  0.85786  1.0000
  H   H685      1.0  0.42625  0.12258  0.84122  1.0000
  H   H686      1.0  0.57750  0.07388  0.85245  1.0000
  H   H687      1.0  0.45147  0.12132  0.81530  1.0000
  H   H688      1.0  0.40452  0.25253  0.84264  1.0000
  C   C397      1.0  0.51890  0.02143  0.98489  1.0000
  H   H689      1.0  0.41821  0.02582  0.91944  1.0000
  H   H690      1.0  0.65570  0.06525  0.90647  1.0000
  H   H691      1.0  0.39347  0.21781  0.56065  1.0000
  H   H692      1.0  0.53332  0.19825  0.79295  1.0000
  H   H693      1.0  0.52484  0.21051  0.74822  1.0000
  H   H694      1.0  0.52572  0.23399  0.78643  1.0000
  H   H695      1.0  0.42978  0.04956  0.53744  1.0000
  H   H696      1.0  0.58511  0.07481  0.60348  1.0000
  H   H697      1.0  0.36349  0.24337  0.50179  1.0000
  H   H698      1.0  0.62776  0.03665  0.92115  1.0000
  H   H699      1.0  0.44337  0.02190  0.89321  1.0000
  N   N23       1.0  0.37093  0.20207  0.52103  1.0000
  H   H700      1.0  0.53487  0.04467  0.67325  1.0000
  H   H701      1.0  0.56383  0.03319  0.79675  1.0000
  H   H702      1.0  0.51089  0.04370  0.84074  1.0000
  H   H703      1.0  0.60626  0.19750  0.56643  1.0000
  C   C398      1.0  0.51647  0.00651  0.53956  1.0000
  H   H704      1.0  0.54910  0.03826  0.83905  1.0000
  H   H705      1.0  0.58050  0.07523  0.53405  1.0000
  H   H706      1.0  0.59015  0.05659  0.92704  1.0000
  C   C399      1.0  0.66490  0.00755  0.90414  1.0000
  H   H707      1.0  0.61274  0.19187  0.51838  1.0000
  N   N24       1.0  0.52889  0.03487  0.79049  1.0000
  C   C400      1.0  0.43906  0.06040  0.92021  1.0000
  H   H708      1.0  0.43727  0.02378  0.97786  1.0000
  H   H709      1.0  0.42240  0.25629  0.80301  1.0000
  H   H710      1.0  0.40705  0.17035  0.55167  1.0000
  C   C401      1.0  0.66237  0.06563  0.93491  1.0000
  H   H711      1.0  0.64392  0.21587  0.57500  1.0000
  H   H712      1.0  0.33906  0.01544  0.94920  1.0000
  H   H713      1.0  0.57073  0.04266  0.60739  1.0000
  C   C402      1.0  0.59647  0.04324  0.56528  1.0000
  H   H714      1.0  0.54705  0.04586  0.74042  1.0000
  H   H715      1.0  0.48615  0.20114  0.95776  1.0000
  C   C403      1.0  0.58687  0.05209  0.60255  1.0000
  H   H716      1.0  0.34680  0.22720  0.58001  1.0000
  C   C404      1.0  0.61570  0.05905  0.96810  1.0000
  H   H717      1.0  0.45958  0.21733  0.95616  1.0000
  H   H718      1.0  0.42941  0.14349  0.79999  1.0000
  H   H719      1.0  0.33446  0.16661  0.51780  1.0000
  H   H720      1.0  0.52710  0.00724  0.71772  1.0000
  H   H721      1.0  0.47151  0.04338  0.85197  1.0000
  H   H722      1.0  0.43235  0.07007  0.89476  1.0000
  H   H723      1.0  0.43374  0.20629  0.56722  1.0000
  C   C405      1.0  0.43597  0.02932  0.91940  1.0000
  H   H724      1.0  0.64772  0.22280  0.50130  1.0000
  H   H725      1.0  0.34172  0.05216  0.95237  1.0000
  H   H726      1.0  0.58694  0.03318  0.96602  1.0000
  C   C406      1.0  0.48696  0.03979  0.79750  1.0000
  H   H727      1.0  0.55291  0.08403  0.77980  1.0000
  H   H728      1.0  0.61268  0.05277  0.56244  1.0000
  C   C407      1.0  0.63237  0.13372  0.50315  1.0000
  H   H729      1.0  0.34040  0.22277  0.50872  1.0000
  C   C408      1.0  0.36269  0.18102  0.54861  1.0000
  H   H730      1.0  0.64316  0.18005  0.56322  1.0000
  H   H731      1.0  0.45658  0.06539  0.92163  1.0000
  H   H732      1.0  0.62502  0.12220  0.55975  1.0000
  N   N25       1.0  0.65514  0.04092  0.95732  1.0000
  H   H733      1.0  0.45029  0.10092  0.99700  1.0000
  H   H734      1.0  0.37196  0.16140  0.54560  1.0000
  C   C409      1.0  0.58155  0.05242  0.53300  1.0000
  C   C410      1.0  0.43457  0.03514  0.51506  1.0000
  S   S95       1.0  0.50076  0.09599  0.97850  1.0000
  H   H735      1.0  0.42966  0.27059  0.84717  1.0000
  H   H736      1.0  0.54160  0.08597  0.82597  1.0000
  C   C411      1.0  0.46932  0.05140  0.82335  1.0000
  C   C412      1.0  0.54939  0.04391  0.80916  1.0000
  H   H737      1.0  0.62006  0.07982  0.95788  1.0000
  C   C413      1.0  0.51827  0.02713  0.72133  1.0000
  H   H738      1.0  0.44544  0.17974  0.53854  1.0000
  C   C414      1.0  0.34888  0.03206  0.96104  1.0000
  C   C415      1.0  0.47700  0.21975  0.94847  1.0000
  C   C416      1.0  0.41091  0.14854  0.97821  1.0000
  C   C417      1.0  0.52986  0.04474  0.75051  1.0000
  C   C418      1.0  0.39355  0.21000  0.53184  1.0000
  H   H739      1.0  0.50951  0.02860  0.66331  1.0000
  H   H740      1.0  0.34128  0.28061  0.53455  1.0000
  C   C419      1.0  0.61657  0.20448  0.54272  1.0000
  H   H741      1.0  0.46328  0.02273  0.95586  1.0000
  C   C420      1.0  0.59213  0.05407  0.95740  1.0000
  H   H742      1.0  0.65556  0.08483  0.94721  1.0000
  H   H743      1.0  0.42511  0.01604  0.51863  1.0000
  H   H744      1.0  0.45306  0.04532  0.81365  1.0000
  H   H745      1.0  0.58913  0.07213  0.80606  1.0000
  H   H746      1.0  0.57835  0.10418  0.82345  1.0000
  H   H747      1.0  0.52338  0.06621  0.74810  1.0000
  C   C421      1.0  0.43152  0.13566  0.97763  1.0000
  C   C422      1.0  0.44630  0.01522  0.95362  1.0000
  H   H748      1.0  0.64792  0.00174  0.89836  1.0000
  C   C423      1.0  0.62892  0.13360  0.98785  1.0000
  C   C424      1.0  0.41090  0.18649  0.53075  1.0000
  C   C425      1.0  0.63117  0.03694  0.95131  1.0000
  C   C426      1.0  0.43350  0.19710  0.53925  1.0000
  S   S96       1.0  0.65626  0.14200  0.97878  1.0000
  H   H749      1.0  0.61248  0.22630  0.53635  1.0000
  H   H750      1.0  0.51800  0.04336  0.98828  1.0000
  H   H751      1.0  0.36793  0.02621  0.52790  1.0000
  C   C427      1.0  0.65556  0.20625  0.51813  1.0000
  H   H752      1.0  0.62275  0.05013  0.50430  1.0000
  H   H753      1.0  0.36807  0.25077  0.56809  1.0000
  C   C428      1.0  0.40266  0.11560  0.50177  1.0000
  H   H754      1.0  0.50128  0.02268  0.72938  1.0000
  C   C429      1.0  0.35654  0.22744  0.52059  1.0000
  H   H755      1.0  0.56876  0.99895  0.53708  1.0000
  H   H756      1.0  0.62594  0.01651  0.96197  1.0000
  H   H757      1.0  0.50238  0.04525  0.52232  1.0000
  H   H758      1.0  0.66536  0.25406  0.53656  1.0000
  H   H759      1.0  0.34163  0.13199  0.56759  1.0000
  C   C430      1.0  0.33832  0.17383  0.54588  1.0000
  C   C431      1.0  0.35276  0.24167  0.55840  1.0000
  H   H760      1.0  0.58125  0.06925  0.97133  1.0000
  H   H761      1.0  0.60659  0.00618  0.50921  1.0000
  C   C432      1.0  0.51409  0.00975  0.95086  1.0000
  C   C433      1.0  0.52849  0.00386  0.79267  1.0000
  H   H762      1.0  0.59781  0.04536  0.62517  1.0000
  H   H763      1.0  0.65493  0.18743  0.50084  1.0000
  H   H764      1.0  0.65669  0.49138  0.93651  1.0000
  C   C434      1.0  0.33587  0.26489  0.55509  1.0000
  C   C435      1.0  0.43448  0.11090  0.99698  1.0000
  C   C436      1.0  0.36095  0.02226  0.50032  1.0000
  H   H765      1.0  0.33547  0.15762  0.60231  1.0000
  C   C437      1.0  0.65988  0.04614  0.99746  1.0000
  H   H766      1.0  0.61643  0.05878  0.99876  1.0000
  H   H767      1.0  0.64134  0.19977  0.99831  1.0000
  C   C438      1.0  0.39339  0.13678  0.99801  1.0000
  H   H768      1.0  0.37763  0.14691  0.99845  1.0000
  H   H769      1.0  0.33353  0.27497  0.58231  1.0000
  H   H770      1.0  0.34440  0.03166  0.49967  1.0000
  Fe  Fe48      1.0  0.51279  0.90048  0.34536  1.0000
  S   S97       1.0  0.50843  0.85987  0.37432  1.0000
  S   S98       1.0  0.52242  0.91211  0.28657  1.0000
  Fe  Fe49      1.0  0.50130  0.93236  0.41492  1.0000
  S   S99       1.0  0.49651  0.89474  0.45029  1.0000
  S   S100      1.0  0.49224  0.97564  0.42958  1.0000
  Fe  Fe50      1.0  0.52681  0.87886  0.42102  1.0000
  S   S101      1.0  0.55296  0.85054  0.44481  1.0000
  Fe  Fe51      1.0  0.47866  0.87855  0.40171  1.0000
  H   H771      1.0  0.48585  0.77567  0.43741  1.0000
  S   S102      1.0  0.53309  0.91831  0.39009  1.0000
  S   S103      1.0  0.48151  0.91736  0.36838  1.0000
  C   C439      1.0  0.64720  0.95953  0.40877  1.0000
  S   S104      1.0  0.53647  0.87544  0.06766  1.0000
  C   C440      1.0  0.58786  0.91641  0.05295  1.0000
  C   C441      1.0  0.43363  0.97094  0.35443  1.0000
  S   S105      1.0  0.48638  0.90045  0.07379  1.0000
  H   H772      1.0  0.63902  0.91036  0.38241  1.0000
  Fe  Fe52      1.0  0.51786  0.91212  0.04638  1.0000
  S   S106      1.0  0.53069  0.95508  0.05016  1.0000
  Fe  Fe53      1.0  0.50407  0.86158  0.08975  1.0000
  S   S107      1.0  0.49972  0.84160  0.14614  1.0000
  H   H773      1.0  0.60169  0.89706  0.36247  1.0000
  S   S108      1.0  0.49505  0.83875  0.03817  1.0000
  H   H774      1.0  0.36103  0.89489  0.47956  1.0000
  H   H775      1.0  0.63359  0.91703  0.48121  1.0000
  C   C442      1.0  0.37156  0.90408  0.45761  1.0000
  H   H776      1.0  0.36191  0.87271  0.41934  1.0000
  C   C443      1.0  0.60939  0.84771  0.02281  1.0000
  H   H777      1.0  0.39049  0.98511  0.46765  1.0000
  H   H778      1.0  0.61538  0.85155  0.05022  1.0000
  H   H779      1.0  0.57610  0.84352  0.04158  1.0000
  C   C444      1.0  0.38565  0.95597  0.03946  1.0000
  C   C445      1.0  0.60962  0.91766  0.41380  1.0000
  H   H780      1.0  0.59437  0.82415  0.45473  1.0000
  H   H781      1.0  0.65608  0.99246  0.44627  1.0000
  H   H782      1.0  0.37904  0.94482  0.43533  1.0000
  C   C446      1.0  0.50713  0.86097  0.18477  1.0000
  C   C447      1.0  0.50680  0.84870  0.22012  1.0000
  C   C448      1.0  0.51149  0.86414  0.25164  1.0000
  C   C449      1.0  0.51685  0.89182  0.24783  1.0000
  C   C450      1.0  0.51771  0.90388  0.21237  1.0000
  C   C451      1.0  0.51273  0.88858  0.18094  1.0000
  H   H783      1.0  0.50280  0.82722  0.22313  1.0000
  H   H784      1.0  0.51127  0.85463  0.27881  1.0000
  H   H785      1.0  0.52202  0.92526  0.20924  1.0000
  H   H786      1.0  0.51317  0.89818  0.15378  1.0000
  H   H787      1.0  0.60531  0.93790  0.40139  1.0000
  C   C452      1.0  0.59413  0.84251  0.47134  1.0000
  C   C453      1.0  0.59568  0.97850  0.05724  1.0000
  H   H788      1.0  0.39717  0.85842  0.34220  1.0000
  H   H789      1.0  0.45400  0.95103  0.06005  1.0000
  C   C454      1.0  0.63454  0.91212  0.41225  1.0000
  C   C455      1.0  0.57583  0.86013  0.47064  1.0000
  H   H790      1.0  0.61672  0.79640  0.09828  1.0000
  N   N26       1.0  0.59943  0.93223  0.02236  1.0000
  C   C456      1.0  0.36804  0.96889  0.06528  1.0000
  C   C457      1.0  0.52517  0.97601  0.01140  1.0000
  C   C458      1.0  0.40475  0.83101  0.00764  1.0000
  H   H791      1.0  0.40405  0.93517  0.08308  1.0000
  H   H792      1.0  0.44693  0.91523  0.48022  1.0000
  H   H793      1.0  0.58592  0.89467  0.04506  1.0000
  H   H794      1.0  0.61305  0.97838  0.06493  1.0000
  N   N27       1.0  0.43780  0.86946  0.25192  1.0000
  C   C459      1.0  0.41904  0.87680  0.27747  1.0000
  C   C460      1.0  0.45130  0.89470  0.24462  1.0000
  C   C461      1.0  0.42851  0.86118  0.21521  1.0000
  C   C462      1.0  0.45153  0.84586  0.26662  1.0000
  C   C463      1.0  0.45435  0.84362  0.30914  1.0000
  C   C464      1.0  0.40145  0.85446  0.28240  1.0000
  C   C465      1.0  0.44536  0.85550  0.18363  1.0000
  C   C466      1.0  0.46082  0.90922  0.27850  1.0000
  C   C467      1.0  0.46948  0.93753  0.26757  1.0000
  C   C468      1.0  0.46991  0.82006  0.31930  1.0000
  C   C469      1.0  0.38723  0.85964  0.31676  1.0000
  C   C470      1.0  0.43459  0.84347  0.14972  1.0000
  H   H795      1.0  0.41068  0.89588  0.26744  1.0000
  H   H796      1.0  0.42483  0.88184  0.30548  1.0000
  H   H797      1.0  0.46570  0.88965  0.22682  1.0000
  H   H798      1.0  0.44157  0.91024  0.22880  1.0000
  H   H799      1.0  0.41694  0.87728  0.20493  1.0000
  H   H800      1.0  0.41890  0.84209  0.21852  1.0000
  H   H801      1.0  0.44484  0.82579  0.25808  1.0000
  H   H802      1.0  0.46801  0.84644  0.25390  1.0000
  H   H803      1.0  0.43863  0.83925  0.32322  1.0000
  H   H804      1.0  0.46072  0.86271  0.32083  1.0000
  H   H805      1.0  0.39067  0.85466  0.25797  1.0000
  H   H806      1.0  0.40886  0.83363  0.28500  1.0000
  H   H807      1.0  0.45813  0.84074  0.19287  1.0000
  H   H808      1.0  0.45329  0.87477  0.17429  1.0000
  H   H809      1.0  0.44877  0.91259  0.30103  1.0000
  H   H810      1.0  0.47467  0.89689  0.28931  1.0000
  H   H811      1.0  0.45600  0.95146  0.25889  1.0000
  H   H812      1.0  0.47763  0.94676  0.29156  1.0000
  H   H813      1.0  0.48158  0.93583  0.24459  1.0000
  H   H814      1.0  0.46360  0.80017  0.30963  1.0000
  H   H815      1.0  0.48626  0.82344  0.30690  1.0000
  H   H816      1.0  0.47152  0.81889  0.34982  1.0000
  H   H817      1.0  0.37921  0.88020  0.31503  1.0000
  H   H818      1.0  0.37445  0.84380  0.31898  1.0000
  H   H819      1.0  0.63739  0.89132  0.42480  1.0000
  H   H820      1.0  0.42195  0.85780  0.13882  1.0000
  H   H821      1.0  0.44708  0.84011  0.12762  1.0000
  H   H822      1.0  0.42716  0.82338  0.15669  1.0000
  H   H823      1.0  0.35442  0.94254  0.46075  1.0000
  H   H824      1.0  0.47142  0.80349  0.41491  1.0000
  H   H825      1.0  0.39861  0.97079  0.03293  1.0000
  H   H826      1.0  0.63046  0.96835  0.41028  1.0000
  H   H827      1.0  0.61353  0.90072  0.08951  1.0000
  H   H828      1.0  0.41770  0.96076  0.44733  1.0000
  H   H829      1.0  0.66605  0.79116  0.10977  1.0000
  H   H830      1.0  0.44414  0.95229  0.35338  1.0000
  C   C471      1.0  0.66235  0.98300  0.42039  1.0000
  C   C472      1.0  0.46026  0.97233  0.05911  1.0000
  C   C473      1.0  0.62376  0.92945  0.02648  1.0000
  H   H831      1.0  0.37327  0.96594  0.09429  1.0000
  C   C474      1.0  0.44433  0.99272  0.37798  1.0000
  H   H832      1.0  0.34608  0.90400  0.41629  1.0000
  C   C475      1.0  0.48589  0.79813  0.43169  1.0000
  H   H833      1.0  0.63558  0.82446  0.10139  1.0000
  H   H834      1.0  0.38804  0.89506  0.46027  1.0000
  C   C476      1.0  0.43699  0.85715  0.47821  1.0000
  C   C477      1.0  0.39610  0.93025  0.05662  1.0000
  C   C478      1.0  0.40778  0.84389  0.43846  1.0000
  H   H835      1.0  0.63759  0.77230  0.04597  1.0000
  H   H836      1.0  0.44662  0.98391  0.40609  1.0000
  H   H837      1.0  0.62921  0.93882  0.05251  1.0000
  H   H838      1.0  0.62570  0.95132  0.46985  1.0000
  C   C479      1.0  0.41971  0.94008  0.45991  1.0000
  C   C480      1.0  0.59898  0.91448  0.09128  1.0000
  H   H839      1.0  0.35226  0.98717  0.13315  1.0000
  H   H840      1.0  0.57976  0.89905  0.39591  1.0000
  H   H841      1.0  0.43838  0.83759  0.02128  1.0000
  H   H842      1.0  0.65035  0.80483  0.04346  1.0000
  H   H843      1.0  0.50664  0.78470  0.49475  1.0000
  H   H844      1.0  0.37816  0.94991  0.01304  1.0000
  H   H845      1.0  0.60439  0.93461  0.10117  1.0000
  H   H846      1.0  0.56155  0.89725  0.49241  1.0000
  H   H847      1.0  0.62836  0.90724  0.02875  1.0000
  H   H848      1.0  0.40153  0.84073  0.41105  1.0000
  H   H849      1.0  0.47833  0.97151  0.05741  1.0000
  H   H850      1.0  0.37354  0.90264  0.39735  1.0000
  H   H851      1.0  0.60338  0.91710  0.44275  1.0000
  H   H852      1.0  0.58569  0.96997  0.08034  1.0000
  C   C481      1.0  0.42907  0.85329  0.44257  1.0000
  H   H853      1.0  0.51933  0.81382  0.47535  1.0000
  H   H854      1.0  0.66603  0.96358  0.48897  1.0000
  S   S109      1.0  0.44522  0.85932  0.40238  1.0000
  H   H855      1.0  0.45330  0.86445  0.48175  1.0000
  C   C482      1.0  0.57559  0.88366  0.49246  1.0000
  C   C483      1.0  0.66208  0.93844  0.00283  1.0000
  H   H856      1.0  0.35328  0.95599  0.06297  1.0000
  H   H857      1.0  0.57100  0.92456  0.05692  1.0000
  Fe  Fe54      1.0  0.52661  0.85546  0.01501  1.0000
  H   H858      1.0  0.37813  0.83107  0.46607  1.0000
  C   C484      1.0  0.58365  0.90234  0.12065  1.0000
  H   H859      1.0  0.56880  0.91542  0.12383  1.0000
  C   C485      1.0  0.37175  0.93581  0.46100  1.0000
  H   H860      1.0  0.50072  0.80343  0.41541  1.0000
  C   C486      1.0  0.65247  0.78340  0.05413  1.0000
  H   H861      1.0  0.57885  0.88127  0.11295  1.0000
  H   H862      1.0  0.59193  0.90114  0.14773  1.0000
  H   H863      1.0  0.34318  0.98644  0.01041  1.0000
  H   H864      1.0  0.40874  0.92190  0.03743  1.0000
  C   C487      1.0  0.65099  0.78400  0.09703  1.0000
  H   H865      1.0  0.48438  0.83627  0.46032  1.0000
  Fe  Fe55      1.0  0.47941  0.87893  0.02076  1.0000
  C   C488      1.0  0.59755  0.89582  0.39246  1.0000
  H   H866      1.0  0.63100  0.80205  0.14070  1.0000
  C   C489      1.0  0.36274  0.89547  0.42025  1.0000
  H   H867      1.0  0.60168  0.87491  0.40306  1.0000
  H   H868      1.0  0.40441  0.81059  0.01979  1.0000
  C   C490      1.0  0.39446  0.83844  0.46962  1.0000
  C   C491      1.0  0.63987  0.93684  0.46985  1.0000
  H   H869      1.0  0.45294  0.93574  0.43973  1.0000
  C   C492      1.0  0.58707  0.84335  0.01795  1.0000
  C   C493      1.0  0.44395  0.93545  0.46660  1.0000
  H   H870      1.0  0.46056  0.99687  0.36547  1.0000
  H   H871      1.0  0.41766  0.96507  0.36660  1.0000
  H   H872      1.0  0.41464  0.92480  0.43929  1.0000
  C   C494      1.0  0.50159  0.98675  0.47220  1.0000
  C   C495      1.0  0.35950  0.99140  0.49359  1.0000
  H   H873      1.0  0.57429  0.96347  0.01678  1.0000
  H   H874      1.0  0.64770  0.76302  0.10801  1.0000
  H   H875      1.0  0.43310  0.98843  0.02858  1.0000
  N   N28       1.0  0.64857  0.93301  0.43083  1.0000
  H   H876      1.0  0.38372  0.91419  0.06163  1.0000
  C   C496      1.0  0.63241  0.80288  0.11004  1.0000
  C   C497      1.0  0.59201  0.96194  0.02170  1.0000
  C   C498      1.0  0.38233  0.97750  0.49328  1.0000
  N   N29       1.0  0.38276  0.94649  0.49481  1.0000
  H   H877      1.0  0.66640  0.94990  0.02803  1.0000
  H   H878      1.0  0.62597  0.83442  0.49409  1.0000
  C   C499      1.0  0.50490  0.80742  0.49206  1.0000
  H   H879      1.0  0.45536  0.98274  0.08516  1.0000
  H   H880      1.0  0.65006  0.95553  0.37882  1.0000
  H   H881      1.0  0.35184  0.98873  0.46631  1.0000
  H   H882      1.0  0.66650  0.91639  0.00675  1.0000
  C   C500      1.0  0.48488  0.81414  0.46777  1.0000
  H   H883      1.0  0.40644  0.99131  0.08835  1.0000
  H   H884      1.0  0.46939  0.80888  0.48199  1.0000
  H   H885      1.0  0.58050  0.95906  0.47412  1.0000
  C   C501      1.0  0.45103  0.98813  0.02596  1.0000
  C   C502      1.0  0.61207  0.84827  0.49358  1.0000
  S   S110      1.0  0.65137  0.85549  0.00012  1.0000
  H   H886      1.0  0.51522  0.94770  0.48928  1.0000
  H   H887      1.0  0.43136  0.97868  0.32568  1.0000
  H   H888      1.0  0.45045  0.95194  0.48414  1.0000
  C   C503      1.0  0.42398  0.84625  0.00854  1.0000
  H   H889      1.0  0.66604  0.73016  0.06019  1.0000
  C   C504      1.0  0.40620  0.93690  0.49637  1.0000
  C   C505      1.0  0.51241  0.96892  0.49663  1.0000
  H   H890      1.0  0.65669  0.74138  0.00048  1.0000
  S   S111      1.0  0.63264  0.87807  0.54765  1.0000
  H   H891      1.0  0.37102  0.76839  0.94046  1.0000
  H   H892      1.0  0.33522  0.82571  0.68530  1.0000
  H   H893      1.0  0.37931  0.98056  0.93708  1.0000
  H   H894      1.0  0.63377  0.97369  0.52888  1.0000
  C   C506      1.0  0.56489  0.90747  0.93903  1.0000
  C   C507      1.0  0.59359  0.83782  0.95237  1.0000
  C   C508      1.0  0.61593  0.84252  0.95714  1.0000
  H   H895      1.0  0.54917  0.83838  0.53154  1.0000
  H   H896      1.0  0.58751  0.83402  0.92498  1.0000
  H   H897      1.0  0.62696  0.84237  0.93353  1.0000
  C   C509      1.0  0.48435  0.81507  0.55116  1.0000
  H   H898      1.0  0.36185  0.81193  0.90765  1.0000
  H   H899      1.0  0.36982  0.94561  0.62473  1.0000
  H   H900      1.0  0.40627  0.90369  0.96333  1.0000
  H   H901      1.0  0.51460  0.99561  0.77735  1.0000
  H   H902      1.0  0.41290  0.98784  0.97341  1.0000
  H   H903      1.0  0.37111  0.91328  0.60104  1.0000
  H   H904      1.0  0.46785  0.84780  0.90340  1.0000
  H   H905      1.0  0.66285  0.94164  0.61494  1.0000
  H   H906      1.0  0.45562  0.83813  0.94736  1.0000
  C   C510      1.0  0.51975  0.97882  0.53056  1.0000
  H   H907      1.0  0.47445  0.81512  0.92466  1.0000
  C   C511      1.0  0.37701  0.94920  0.56589  1.0000
  H   H908      1.0  0.45660  0.79057  0.60319  1.0000
  H   H909      1.0  0.37039  0.90377  0.87927  1.0000
  H   H910      1.0  0.36561  0.79579  0.86395  1.0000
  H   H911      1.0  0.40696  0.82751  0.75724  1.0000
  H   H912      1.0  0.34776  0.93604  0.59552  1.0000
  H   H913      1.0  0.52828  0.96524  0.54948  1.0000
  S   S112      1.0  0.55078  0.83480  0.97561  1.0000
  H   H914      1.0  0.40738  0.88685  0.86405  1.0000
  H   H915      1.0  0.54761  0.90178  0.93595  1.0000
  C   C512      1.0  0.38771  0.96182  0.92666  1.0000
  H   H916      1.0  0.52601  0.90265  0.52997  1.0000
  H   H917      1.0  0.65680  0.96200  0.55497  1.0000
  C   C513      1.0  0.59367  0.91985  0.98561  1.0000
  H   H918      1.0  0.47624  0.97983  0.98565  1.0000
  H   H919      1.0  0.47441  0.98463  0.91817  1.0000
  C   C514      1.0  0.52404  0.80915  0.55094  1.0000
  H   H920      1.0  0.52649  0.95065  0.85873  1.0000
  H   H921      1.0  0.59907  0.93346  0.96238  1.0000
  H   H922      1.0  0.41344  0.98400  0.90010  1.0000
  C   C515      1.0  0.51079  0.86835  0.55934  1.0000
  S   S113      1.0  0.50992  0.89309  0.99244  1.0000
  H   H923      1.0  0.57520  0.88986  0.92985  1.0000
  C   C516      1.0  0.47791  0.78447  0.55500  1.0000
  C   C517      1.0  0.66643  0.76048  0.99839  1.0000
  C   C518      1.0  0.51238  0.89896  0.54983  1.0000
  C   C519      1.0  0.37091  0.93578  0.52879  1.0000
  H   H924      1.0  0.33992  0.76902  0.66941  1.0000
  H   H925      1.0  0.52325  0.78635  0.55246  1.0000
  H   H926      1.0  0.52324  0.81594  0.58024  1.0000
  C   C520      1.0  0.45865  0.97514  0.98892  1.0000
  C   C521      1.0  0.40583  0.88348  0.97592  1.0000
  H   H927      1.0  0.34859  0.98269  0.51524  1.0000
  H   H928      1.0  0.56401  0.78251  0.56327  1.0000
  C   C522      1.0  0.56922  0.91407  0.97948  1.0000
  H   H929      1.0  0.47637  0.77467  0.52765  1.0000
  H   H930      1.0  0.52619  0.86212  0.57281  1.0000
  H   H931      1.0  0.49728  0.86587  0.57969  1.0000
  C   C523      1.0  0.45596  0.78177  0.57500  1.0000
  C   C524      1.0  0.57253  0.99507  0.50748  1.0000
  C   C525      1.0  0.56490  0.80517  0.55997  1.0000
  H   H932      1.0  0.37392  0.91326  0.53215  1.0000
  H   H933      1.0  0.51977  0.85629  0.50342  1.0000
  H   H934      1.0  0.49017  0.77274  0.57120  1.0000
  H   H935      1.0  0.37194  0.97116  0.56626  1.0000
  H   H936      1.0  0.41912  0.94836  0.90778  1.0000
  C   C526      1.0  0.63789  0.94183  0.99469  1.0000
  C   C527      1.0  0.52719  0.95947  0.83025  1.0000
  C   C528      1.0  0.41193  0.96707  0.92056  1.0000
  H   H937      1.0  0.51542  0.91075  0.57531  1.0000
  S   S114      1.0  0.36246  0.82185  0.98924  1.0000
  H   H938      1.0  0.41486  0.94813  0.51825  1.0000
  H   H939      1.0  0.54331  0.99522  0.77871  1.0000
  H   H940      1.0  0.58098  0.81031  0.54751  1.0000
  H   H941      1.0  0.56365  0.81492  0.58758  1.0000
  C   C529      1.0  0.51603  0.98137  0.94656  1.0000
  H   H942      1.0  0.44295  0.79253  0.55914  1.0000
  C   C530      1.0  0.45885  0.97353  0.92150  1.0000
  C   C531      1.0  0.36674  0.76826  0.91068  1.0000
  H   H943      1.0  0.36016  0.88850  0.83753  1.0000
  H   H944      1.0  0.55886  0.93181  0.98707  1.0000
  N   N30       1.0  0.44638  0.98417  0.95477  1.0000
  C   C532      1.0  0.46455  0.94239  0.92248  1.0000
  Fe  Fe56      1.0  0.34966  0.83691  0.54464  1.0000
  C   C533      1.0  0.65057  0.77056  0.93487  1.0000
  H   H945      1.0  0.63507  0.93117  0.96824  1.0000
  C   C534      1.0  0.52682  0.99083  0.83207  1.0000
  C   C535      1.0  0.47251  0.93233  0.88473  1.0000
  H   H946      1.0  0.44922  0.80833  0.87384  1.0000
  H   H947      1.0  0.38517  0.94458  0.94654  1.0000
  H   H948      1.0  0.37212  0.87717  0.96302  1.0000
  C   C536      1.0  0.62384  0.84779  0.99241  1.0000
  H   H949      1.0  0.43010  0.85382  0.53691  1.0000
  H   H950      1.0  0.45019  0.97803  0.89544  1.0000
  C   C537      1.0  0.42347  0.97331  0.95752  1.0000
  H   H951      1.0  0.49150  0.85967  0.51208  1.0000
  H   H952      1.0  0.39477  0.94781  0.57040  1.0000
  H   H953      1.0  0.63640  0.78423  0.98582  1.0000
  H   H954      1.0  0.59262  0.90660  0.53348  1.0000
  H   H955      1.0  0.47775  0.93814  0.94252  1.0000
  H   H956      1.0  0.45026  0.93017  0.93102  1.0000
  H   H957      1.0  0.38808  0.80025  0.75014  1.0000
  C   C538      1.0  0.57759  0.96437  0.50361  1.0000
  H   H958      1.0  0.52281  0.94287  0.97297  1.0000
  H   H959      1.0  0.35296  0.93775  0.52559  1.0000
  H   H960      1.0  0.51301  0.95207  0.81474  1.0000
  H   H961      1.0  0.41495  0.79213  0.76666  1.0000
  H   H962      1.0  0.59206  0.95844  0.52003  1.0000
  C   C539      1.0  0.38654  0.86841  0.97548  1.0000
  H   H963      1.0  0.47038  0.82667  0.53901  1.0000
  S   S115      1.0  0.38666  0.83358  0.54507  1.0000
  H   H964      1.0  0.48685  0.94419  0.87528  1.0000
  H   H965      1.0  0.47730  0.91028  0.88696  1.0000
  H   H966      1.0  0.45942  0.93451  0.86402  1.0000
  H   H967      1.0  0.39783  0.87218  0.82165  1.0000
  C   C540      1.0  0.54690  0.81596  0.53478  1.0000
  H   H968      1.0  0.37939  0.91599  0.83445  1.0000
  C   C541      1.0  0.65304  0.78105  0.97426  1.0000
  H   H969      1.0  0.59947  0.97317  0.99791  1.0000
  H   H970      1.0  0.39192  0.98600  0.51627  1.0000
  H   H971      1.0  0.56820  0.92560  0.92101  1.0000
  H   H972      1.0  0.38670  0.78960  0.81640  1.0000
  H   H973      1.0  0.51295  0.97225  0.92006  1.0000
  N   N31       1.0  0.50503  0.82070  0.52959  1.0000
  H   H974      1.0  0.56384  0.89626  0.99651  1.0000
  H   H975      1.0  0.54054  0.99667  0.84972  1.0000
  H   H976      1.0  0.56357  0.95229  0.51407  1.0000
  H   H977      1.0  0.43668  0.79979  0.91777  1.0000
  H   H978      1.0  0.34916  0.76387  0.90859  1.0000
  H   H979      1.0  0.54242  0.95199  0.81663  1.0000
  C   C542      1.0  0.36570  0.93509  0.59870  1.0000
  H   H980      1.0  0.37908  0.82502  0.80716  1.0000
  N   N32       1.0  0.40419  0.82726  0.87264  1.0000
  C   C543      1.0  0.38724  0.84999  0.87222  1.0000
  C   C544      1.0  0.39604  0.80287  0.89496  1.0000
  C   C545      1.0  0.42392  0.83812  0.89190  1.0000
  C   C546      1.0  0.41106  0.81885  0.83410  1.0000
  C   C547      1.0  0.39280  0.81007  0.80783  1.0000
  C   C548      1.0  0.39352  0.87666  0.85089  1.0000
  C   C549      1.0  0.44247  0.81696  0.89990  1.0000
  C   C550      1.0  0.37154  0.79612  0.89262  1.0000
  C   C551      1.0  0.50678  0.85133  0.52409  1.0000
  C   C552      1.0  0.40134  0.80734  0.76809  1.0000
  C   C553      1.0  0.37466  0.89742  0.85061  1.0000
  C   C554      1.0  0.46118  0.83042  0.91998  1.0000
  H   H981      1.0  0.38290  0.85572  0.90114  1.0000
  H   H982      1.0  0.37178  0.84305  0.86026  1.0000
  H   H983      1.0  0.40556  0.78403  0.88769  1.0000
  H   H984      1.0  0.39873  0.80606  0.92511  1.0000
  H   H985      1.0  0.41900  0.84731  0.91890  1.0000
  H   H986      1.0  0.43152  0.85492  0.87538  1.0000
  H   H987      1.0  0.42038  0.83559  0.82025  1.0000
  H   H988      1.0  0.42261  0.80111  0.83529  1.0000
  C   C555      1.0  0.64454  0.95575  0.53462  1.0000
  H   H989      1.0  0.45787  0.95243  0.99271  1.0000
  H   H990      1.0  0.42311  0.95368  0.97377  1.0000
  S   S116      1.0  0.33498  0.86780  0.91069  1.0000
  H   H991      1.0  0.54942  0.80636  0.50732  1.0000
  H   H992      1.0  0.63480  0.93882  0.54691  1.0000
  H   H993      1.0  0.45168  0.75975  0.57764  1.0000
  H   H994      1.0  0.38024  0.95630  0.90001  1.0000
  C   C556      1.0  0.52143  0.96458  0.97679  1.0000
  H   H995      1.0  0.49700  0.90676  0.53753  1.0000
  H   H996      1.0  0.48556  0.82292  0.57983  1.0000
  H   H997      1.0  0.63441  0.96406  0.99093  1.0000
  C   C557      1.0  0.61153  0.87126  0.51637  1.0000
  H   H998      1.0  0.37600  0.75161  0.89650  1.0000
  H   H999      1.0  0.60249  0.89993  0.98165  1.0000
  H   H1000     1.0  0.66086  0.80126  0.97268  1.0000
  H   H1001     1.0  0.64173  0.75083  0.93509  1.0000
  C   C558      1.0  0.42459  0.87245  0.99243  1.0000
  H   H1002     1.0  0.34595  0.81377  0.74975  1.0000
  S   S117      1.0  0.33670  0.87634  0.56858  1.0000
  C   C559      1.0  0.38601  0.84197  0.99097  1.0000
  H   H1003     1.0  0.64117  0.78588  0.91833  1.0000
  C   C560      1.0  0.42380  0.85118  0.50941  1.0000
  C   C561      1.0  0.57898  0.83886  0.98264  1.0000
  C   C562      1.0  0.40244  0.84192  0.50526  1.0000
  C   C563      1.0  0.59324  0.88893  0.51564  1.0000
  H   H1004     1.0  0.33428  0.76092  0.62204  1.0000
  S   S118      1.0  0.44854  0.89183  0.99097  1.0000
  H   H1005     1.0  0.64883  0.94636  0.65854  1.0000
  H   H1006     1.0  0.66130  0.99715  0.96165  1.0000
  H   H1007     1.0  0.40739  0.91487  0.50504  1.0000
  H   H1008     1.0  0.51138  0.99713  0.84595  1.0000
  H   H1009     1.0  0.66400  0.91504  0.65022  1.0000
  C   C564      1.0  0.66370  0.93762  0.64517  1.0000
  H   H1010     1.0  0.37045  0.99532  0.99906  1.0000
  C   C565      1.0  0.65613  0.94639  0.49922  1.0000
  S   S119      1.0  0.78319  0.29995  0.49598  1.0000
  H   H1011     1.0  0.93279  0.43369  0.09912  1.0000
  H   H1012     1.0  0.90907  0.35210  0.41532  1.0000
  Fe  Fe57      1.0  0.71281  0.11915  0.37813  1.0000
  S   S120      1.0  0.73484  0.10828  0.42618  1.0000
  S   S121      1.0  0.72572  0.11137  0.31921  1.0000
  Fe  Fe58      1.0  0.70531  0.08913  0.45317  1.0000
  C   C566      1.0  0.90334  0.43296  0.06706  1.0000
  Fe  Fe59      1.0  0.72378  0.14905  0.44990  1.0000
  H   H1013     1.0  0.94159  0.43709  0.33166  1.0000
  H   H1014     1.0  0.90716  0.38506  0.46918  1.0000
  S   S122      1.0  0.70328  0.16063  0.40084  1.0000
  Fe  Fe60      1.0  0.98989  0.35167  0.43981  1.0000
  S   S123      1.0  0.98835  0.37811  0.38845  1.0000
  S   S124      1.0  0.96117  0.32343  0.44819  1.0000
  H   H1015     1.0  0.77185  0.28424  0.35012  1.0000
  Fe  Fe61      1.0  0.70043  0.13437  0.10023  1.0000
  S   S125      1.0  0.73344  0.11987  0.08063  1.0000
  S   S126      1.0  0.68872  0.14444  0.15941  1.0000
  H   H1016     1.0  0.79738  0.44976  0.41462  1.0000
  Fe  Fe62      1.0  0.71549  0.09053  0.04362  1.0000
  S   S127      1.0  0.71764  0.04316  0.04398  1.0000
  Fe  Fe63      1.0  0.72971  0.15198  0.03458  1.0000
  C   C567      1.0  0.76120  0.25806  0.46187  1.0000
  H   H1017     1.0  0.80283  0.39700  0.10461  1.0000
  S   S128      1.0  0.69749  0.16762  0.05609  1.0000
  H   H1018     1.0  0.76639  0.48586  0.37750  1.0000
  Fe  Fe64      1.0  0.68300  0.13511  0.02054  1.0000
  S   S129      1.0  0.97684  0.40620  0.08998  1.0000
  C   C568      1.0  0.90767  0.35510  0.03310  1.0000
  C   C569      1.0  0.92993  0.36133  0.03130  1.0000
  H   H1019     1.0  0.70995  0.25352  0.44042  1.0000
  H   H1020     1.0  0.90031  0.34944  0.05942  1.0000
  H   H1021     1.0  0.93959  0.36039  0.05607  1.0000
  C   C570      1.0  0.98875  0.47251  0.45918  1.0000
  S   S130      1.0  0.69951  0.05197  0.49186  1.0000
  C   C571      1.0  0.93763  0.42102  0.48998  1.0000
  H   H1022     1.0  0.77917  0.25751  0.38268  1.0000
  C   C572      1.0  0.79424  0.48348  0.03299  1.0000
  S   S131      1.0  0.68266  0.10368  0.06602  1.0000
  C   C573      1.0  0.75871  0.21715  0.00447  1.0000
  N   N33       1.0  0.98387  0.45809  0.30062  1.0000
  S   S132      1.0  0.98131  0.36495  0.18251  1.0000
  S   S133      1.0  0.98548  0.45451  0.41801  1.0000
  H   H1023     1.0  0.93092  0.35610  0.38228  1.0000
  S   S134      1.0  0.68429  0.09723  0.40366  1.0000
  H   H1024     1.0  0.67315  0.02294  0.40101  1.0000
  H   H1025     1.0  0.84780  0.39549  0.03536  1.0000
  H   H1026     1.0  0.67118  0.03897  0.07148  1.0000
  H   H1027     1.0  0.97293  0.34634  0.25711  1.0000
  C   C574      1.0  0.91975  0.47975  0.44953  1.0000
  C   C575      1.0  0.71463  0.11999  0.27513  1.0000
  C   C576      1.0  0.72578  0.11140  0.24286  1.0000
  C   C577      1.0  0.71811  0.11855  0.20730  1.0000
  C   C578      1.0  0.69916  0.13451  0.20350  1.0000
  C   C579      1.0  0.68803  0.14315  0.23578  1.0000
  C   C580      1.0  0.69565  0.13588  0.27134  1.0000
  H   H1028     1.0  0.74050  0.09915  0.24535  1.0000
  H   H1029     1.0  0.72688  0.11173  0.18284  1.0000
  H   H1030     1.0  0.81873  0.37552  0.07394  1.0000
  C   C581      1.0  0.97038  0.47997  0.32001  1.0000
  Fe  Fe65      1.0  0.98912  0.37991  0.04352  1.0000
  H   H1031     1.0  0.98105  0.29976  0.14981  1.0000
  H   H1032     1.0  0.83138  0.47503  0.44379  1.0000
  H   H1033     1.0  0.81628  0.48155  0.36990  1.0000
  C   C582      1.0  0.91616  0.42526  0.10163  1.0000
  H   H1034     1.0  0.94204  0.49280  0.40533  1.0000
  H   H1035     1.0  0.91216  0.42375  0.04306  1.0000
  C   C583      1.0  0.72495  0.48782  0.01151  1.0000
  H   H1036     1.0  0.95745  0.47960  0.02135  1.0000
  C   C584      1.0  0.75319  0.23112  0.45790  1.0000
  H   H1037     1.0  0.84035  0.41219  0.10297  1.0000
  C   C585      1.0  0.98257  0.46292  0.25920  1.0000
  H   H1038     1.0  0.79471  0.44125  0.01473  1.0000
  C   C586      1.0  0.82131  0.48264  0.46630  1.0000
  C   C587      1.0  0.91782  0.36722  0.39769  1.0000
  H   H1039     1.0  0.97297  0.45844  0.18416  1.0000
  H   H1040     1.0  0.79870  0.47002  0.33364  1.0000
  C   C588      1.0  0.95040  0.42684  0.30843  1.0000
  Fe  Fe66      1.0  0.67638  0.13764  0.43033  1.0000
  C   C589      1.0  0.85883  0.47441  0.08790  1.0000
  C   C590      1.0  0.98915  0.35461  0.25603  1.0000
  H   H1041     1.0  0.68679  0.14246  0.29579  1.0000
  H   H1042     1.0  0.68926  0.25094  0.40595  1.0000
  C   C591      1.0  0.81201  0.39662  0.07793  1.0000
  H   H1043     1.0  0.84978  0.46071  0.10700  1.0000
  C   C592      1.0  0.85910  0.46413  0.04735  1.0000
  H   H1044     1.0  0.87100  0.47734  0.03222  1.0000
  C   C593      1.0  0.94428  0.39654  0.30930  1.0000
  C   C594      1.0  0.87985  0.42191  0.06923  1.0000
  C   C595      1.0  0.78262  0.49581  0.37656  1.0000
  C   C596      1.0  0.68093  0.23199  0.45879  1.0000
  H   H1045     1.0  0.71992  0.46652  0.01789  1.0000
  N   N34       1.0  0.86427  0.43402  0.04131  1.0000
  H   H1046     1.0  0.69170  0.18731  0.32435  1.0000
  C   C597      1.0  0.69801  0.20851  0.32179  1.0000
  H   H1047     1.0  0.88610  0.31830  0.49569  1.0000
  H   H1048     1.0  0.95204  0.41879  0.47116  1.0000
  C   C598      1.0  0.91933  0.32026  0.47539  1.0000
  C   C599      1.0  0.94025  0.33048  0.48100  1.0000
  C   C600      1.0  0.92190  0.44916  0.43857  1.0000
  H   H1049     1.0  0.70567  0.22115  0.41759  1.0000
  H   H1050     1.0  0.79518  0.26247  0.34081  1.0000
  H   H1051     1.0  0.90626  0.37635  0.37754  1.0000
  C   C601      1.0  0.84379  0.41726  0.04216  1.0000
  H   H1052     1.0  0.80053  0.40163  0.05537  1.0000
  H   H1053     1.0  0.94963  0.43121  0.01446  1.0000
  H   H1054     1.0  0.69843  0.21782  0.34963  1.0000
  H   H1055     1.0  0.90823  0.43393  0.12678  1.0000
  H   H1056     1.0  0.99997  0.29116  0.11310  1.0000
  H   H1057     1.0  0.94457  0.43610  0.28211  1.0000
  H   H1058     1.0  0.79705  0.12387  0.35813  1.0000
  H   H1059     1.0  0.95124  0.38593  0.28471  1.0000
  H   H1060     1.0  0.95042  0.38626  0.33474  1.0000
  H   H1061     1.0  0.92633  0.39462  0.30884  1.0000
  H   H1062     1.0  0.88114  0.39917  0.06585  1.0000
  C   C602      1.0  0.83031  0.41749  0.07867  1.0000
  H   H1063     1.0  0.90333  0.45561  0.06366  1.0000
  N   N35       1.0  0.76062  0.19147  0.31567  1.0000
  C   C603      1.0  0.76421  0.19702  0.27483  1.0000
  C   C604      1.0  0.77195  0.21313  0.33755  1.0000
  C   C605      1.0  0.77149  0.16415  0.32461  1.0000
  C   C606      1.0  0.73681  0.19009  0.32654  1.0000
  C   C607      1.0  0.72065  0.20824  0.30391  1.0000
  C   C608      1.0  0.75687  0.17383  0.24880  1.0000
  C   C609      1.0  0.77206  0.15563  0.36614  1.0000
  C   C610      1.0  0.76386  0.24315  0.33238  1.0000
  C   C611      1.0  0.77844  0.26296  0.35276  1.0000
  H   H1064     1.0  0.82259  0.43803  0.08252  1.0000
  C   C612      1.0  0.75421  0.18410  0.20898  1.0000
  C   C613      1.0  0.78059  0.12617  0.37084  1.0000
  H   H1065     1.0  0.78179  0.20040  0.26882  1.0000
  H   H1066     1.0  0.75605  0.21638  0.26596  1.0000
  H   H1067     1.0  0.77009  0.20908  0.36778  1.0000
  H   H1068     1.0  0.78977  0.21235  0.33139  1.0000
  H   H1069     1.0  0.78859  0.16383  0.31397  1.0000
  H   H1070     1.0  0.76319  0.14721  0.31026  1.0000
  H   H1071     1.0  0.73081  0.16875  0.32419  1.0000
  H   H1072     1.0  0.73462  0.19509  0.35637  1.0000
  H   H1073     1.0  0.71893  0.20008  0.27559  1.0000
  H   H1074     1.0  0.72599  0.22975  0.30111  1.0000
  H   H1075     1.0  0.76919  0.15690  0.24851  1.0000
  H   H1076     1.0  0.74125  0.16505  0.25829  1.0000
  H   H1077     1.0  0.75561  0.15703  0.37906  1.0000
  H   H1078     1.0  0.78321  0.16886  0.38163  1.0000
  H   H1079     1.0  0.76380  0.24960  0.30289  1.0000
  H   H1080     1.0  0.74727  0.24553  0.34448  1.0000
  H   H1081     1.0  0.99513  0.47784  0.24990  1.0000
  H   H1082     1.0  0.87372  0.42467  0.09792  1.0000
  H   H1083     1.0  0.70829  0.21950  0.49292  1.0000
  C   C614      1.0  0.79974  0.47428  0.36357  1.0000
  H   H1084     1.0  0.74115  0.20004  0.20742  1.0000
  H   H1085     1.0  0.76969  0.19268  0.19806  1.0000
  H   H1086     1.0  0.74957  0.16672  0.19119  1.0000
  H   H1087     1.0  0.90270  0.48489  0.45736  1.0000
  S   S135      1.0  0.86715  0.34719  0.00507  1.0000
  H   H1088     1.0  0.96989  0.42451  0.23665  1.0000
  H   H1089     1.0  0.75821  0.27328  0.44044  1.0000
  C   C615      1.0  0.89848  0.43653  0.49253  1.0000
  C   C616      1.0  0.77325  0.26549  0.49307  1.0000
  C   C617      1.0  0.91069  0.40183  0.44881  1.0000
  H   H1090     1.0  0.88377  0.44042  0.47544  1.0000
  S   S136      1.0  0.75734  0.18117  0.01604  1.0000
  H   H1091     1.0  0.95338  0.48004  0.30991  1.0000
  C   C618      1.0  0.92772  0.38966  0.42110  1.0000
  H   H1092     1.0  0.72438  0.22570  0.00794  1.0000
  C   C619      1.0  0.89498  0.35560  0.00105  1.0000
  H   H1093     1.0  0.92852  0.47522  0.01806  1.0000
  H   H1094     1.0  0.91754  0.40255  0.10465  1.0000
  H   H1095     1.0  0.74449  0.22574  0.43335  1.0000
  H   H1096     1.0  0.84310  0.46958  0.03492  1.0000
  H   H1097     1.0  0.78092  0.43775  0.37728  1.0000
  H   H1098     1.0  0.93857  0.44623  0.42676  1.0000
  C   C620      1.0  0.79675  0.44693  0.38420  1.0000
  H   H1099     1.0  0.89517  0.40551  0.43383  1.0000
  H   H1100     1.0  0.67334  0.15543  0.23327  1.0000
  H   H1101     1.0  0.99633  0.26792  0.15214  1.0000
  H   H1102     1.0  0.76946  0.11146  0.35785  1.0000
  H   H1103     1.0  0.98780  0.42695  0.17592  1.0000
  H   H1104     1.0  0.68667  0.22080  0.30436  1.0000
  H   H1105     1.0  0.80994  0.43228  0.37612  1.0000
  H   H1106     1.0  0.91631  0.30798  0.45129  1.0000
  H   H1107     1.0  0.94160  0.38055  0.43649  1.0000
  H   H1108     1.0  0.93426  0.40531  0.40162  1.0000
  H   H1109     1.0  0.96679  0.47290  0.25177  1.0000
  H   H1110     1.0  0.67761  0.04843  0.00146  1.0000
  C   C621      1.0  0.98705  0.44566  0.19321  1.0000
  H   H1111     1.0  0.72425  0.01864  0.43776  1.0000
  H   H1112     1.0  0.91067  0.44673  0.41490  1.0000
  H   H1113     1.0  0.78169  0.12095  0.40077  1.0000
  H   H1114     1.0  0.93033  0.48457  0.47295  1.0000
  C   C622      1.0  0.71928  0.01573  0.01151  1.0000
  N   N36       1.0  0.91739  0.42765  0.46821  1.0000
  C   C623      1.0  0.70675  0.01648  0.48963  1.0000
  C   C624      1.0  0.69754  0.23981  0.42886  1.0000
  C   C625      1.0  0.99704  0.28985  0.14346  1.0000
  H   H1115     1.0  0.83238  0.42448  0.02054  1.0000
  C   C626      1.0  0.79774  0.46236  0.00701  1.0000
  H   H1116     1.0  0.87567  0.47567  0.09826  1.0000
  H   H1117     1.0  0.99543  0.34584  0.31375  1.0000
  H   H1118     1.0  0.74923  0.48555  0.05479  1.0000
  Fe  Fe67      1.0  0.99606  0.37790  0.12709  1.0000
  H   H1119     1.0  0.96919  0.47534  0.35023  1.0000
  C   C627      1.0  0.87471  0.43082  0.00344  1.0000
  H   H1120     1.0  0.78892  0.47829  0.06083  1.0000
  C   C628      1.0  0.94411  0.47452  0.00237  1.0000
  C   C629      1.0  0.97523  0.43051  0.31278  1.0000
  H   H1121     1.0  0.69233  0.19235  0.47820  1.0000
  C   C630      1.0  0.74022  0.23421  0.00220  1.0000
  S   S137      1.0  0.82086  0.42867  0.48980  1.0000
  C   C631      1.0  0.99745  0.36518  0.22250  1.0000
  C   C632      1.0  0.71889  0.00539  0.46024  1.0000
  H   H1122     1.0  0.98370  0.41345  0.29812  1.0000
  C   C633      1.0  0.69113  0.21353  0.48950  1.0000
  H   H1123     1.0  0.97883  0.42679  0.34258  1.0000
  C   C634      1.0  0.75677  0.21114  0.48543  1.0000
  S   S138      1.0  0.74672  0.17676  0.48256  1.0000
  H   H1124     1.0  0.91363  0.49707  0.39466  1.0000
  H   H1125     1.0  0.67386  0.25122  0.47029  1.0000
  S   S139      1.0  0.69598  0.12901  0.48077  1.0000
  S   S140      1.0  0.99827  0.38632  0.47698  1.0000
  C   C635      1.0  0.81370  0.46410  0.49362  1.0000
  C   C636      1.0  0.98459  0.43736  0.23399  1.0000
  Fe  Fe68      1.0  0.99944  0.41177  0.42484  1.0000
  H   H1126     1.0  0.88971  0.44322  0.00111  1.0000
  H   H1127     1.0  0.99865  0.42423  0.24120  1.0000
  H   H1128     1.0  0.67063  0.99805  0.36494  1.0000
  H   H1129     1.0  0.66765  0.22068  0.44532  1.0000
  H   H1130     1.0  0.87994  0.40908  0.99915  1.0000
  Fe  Fe69      1.0  0.80384  0.32868  0.53211  1.0000
  S   S141      1.0  0.82352  0.32088  0.58417  1.0000
  H   H1131     1.0  0.71546  0.44238  0.96839  1.0000
  Fe  Fe70      1.0  0.81625  0.39082  0.52808  1.0000
  S   S142      1.0  0.83548  0.38662  0.57985  1.0000
  C   C637      1.0  0.90612  0.34116  0.53229  1.0000
  Fe  Fe71      1.0  0.84909  0.34749  0.55650  1.0000
  S   S143      1.0  0.88558  0.34774  0.56587  1.0000
  Fe  Fe72      1.0  0.80892  0.36084  0.60434  1.0000
  S   S144      1.0  0.79844  0.37272  0.66354  1.0000
  S   S145      1.0  0.78797  0.36785  0.55369  1.0000
  Fe  Fe73      1.0  0.82038  0.34876  0.88397  1.0000
  S   S146      1.0  0.78875  0.36653  0.90514  1.0000
  S   S147      1.0  0.82473  0.33026  0.82601  1.0000
  Fe  Fe74      1.0  0.84094  0.35195  0.96154  1.0000
  C   C638      1.0  0.71164  0.19443  0.56372  1.0000
  Fe  Fe75      1.0  0.79283  0.33676  0.95346  1.0000
  H   H1132     1.0  0.86259  0.43756  0.54280  1.0000
  Fe  Fe76      1.0  0.80918  0.39637  0.93683  1.0000
  S   S148      1.0  0.80626  0.44351  0.93543  1.0000
  S   S149      1.0  0.82386  0.31835  0.93153  1.0000
  S   S150      1.0  0.84073  0.38036  0.91216  1.0000
  H   H1133     1.0  0.73739  0.17134  0.59083  1.0000
  H   H1134     1.0  0.68787  0.46013  0.92650  1.0000
  H   H1135     1.0  0.73782  0.03276  0.62447  1.0000
  C   C639      1.0  0.90466  0.36289  0.96715  1.0000
  H   H1136     1.0  0.93457  0.37358  0.93882  1.0000
  H   H1137     1.0  0.89506  0.36339  0.94232  1.0000
  N   N37       1.0  0.73334  0.47604  0.94278  1.0000
  H   H1138     1.0  0.86597  0.49241  0.57360  1.0000
  H   H1139     1.0  0.83240  0.47062  0.59893  1.0000
  H   H1140     1.0  0.67831  0.18827  0.57619  1.0000
  C   C640      1.0  0.72885  0.44577  0.94812  1.0000
  H   H1141     1.0  0.93460  0.43773  0.97279  1.0000
  H   H1142     1.0  0.69053  0.00721  0.54143  1.0000
  C   C641      1.0  0.87840  0.43024  0.55401  1.0000
  H   H1143     1.0  0.76095  0.42608  0.93903  1.0000
  C   C642      1.0  0.67930  0.24077  0.54530  1.0000
  H   H1144     1.0  0.69532  0.05221  0.91675  1.0000
  C   C643      1.0  0.80610  0.36047  0.70838  1.0000
  C   C644      1.0  0.80282  0.37767  0.73910  1.0000
  C   C645      1.0  0.80831  0.36883  0.77523  1.0000
  C   C646      1.0  0.81707  0.34250  0.78122  1.0000
  C   C647      1.0  0.82021  0.32520  0.75055  1.0000
  C   C648      1.0  0.81475  0.33407  0.71441  1.0000
  H   H1145     1.0  0.79595  0.39803  0.73491  1.0000
  H   H1146     1.0  0.80573  0.38239  0.79843  1.0000
  H   H1147     1.0  0.82692  0.30477  0.75476  1.0000
  H   H1148     1.0  0.81682  0.32030  0.69133  1.0000
  H   H1149     1.0  0.88213  0.39919  0.51247  1.0000
  C   C649      1.0  0.80409  0.46880  0.97065  1.0000
  C   C650      1.0  0.66714  0.01520  0.94549  1.0000
  H   H1150     1.0  0.68501  0.29647  0.55952  1.0000
  C   C651      1.0  0.86057  0.43939  0.96999  1.0000
  H   H1151     1.0  0.96541  0.44374  0.56755  1.0000
  C   C652      1.0  0.87413  0.44052  0.93424  1.0000
  C   C653      1.0  0.80069  0.47424  0.52258  1.0000
  H   H1152     1.0  0.88216  0.42030  0.92905  1.0000
  C   C654      1.0  0.72699  0.01932  0.97516  1.0000
  H   H1153     1.0  0.66939  0.02483  0.88545  1.0000
  H   H1154     1.0  0.77420  0.24575  0.74991  1.0000
  C   C655      1.0  0.74104  0.39793  0.96906  1.0000
  H   H1155     1.0  0.76660  0.46910  0.92477  1.0000
  H   H1156     1.0  0.72777  0.27525  0.99127  1.0000
  N   N38       1.0  0.77982  0.25092  0.86668  1.0000
  C   C656      1.0  0.80131  0.26225  0.87850  1.0000
  C   C657      1.0  0.76152  0.27074  0.87649  1.0000
  C   C658      1.0  0.77624  0.22451  0.88832  1.0000
  C   C659      1.0  0.77975  0.24413  0.82601  1.0000
  C   C660      1.0  0.78494  0.26783  0.79848  1.0000
  C   C661      1.0  0.82164  0.24395  0.87044  1.0000
  C   C662      1.0  0.75303  0.21237  0.88707  1.0000
  C   C663      1.0  0.76602  0.30192  0.87223  1.0000
  C   C664      1.0  0.74497  0.31884  0.87529  1.0000
  C   C665      1.0  0.78863  0.25707  0.75928  1.0000
  C   C666      1.0  0.84237  0.25775  0.88305  1.0000
  C   C667      1.0  0.75235  0.18409  0.90584  1.0000
  H   H1157     1.0  0.80072  0.26641  0.90879  1.0000
  H   H1158     1.0  0.80456  0.28245  0.86528  1.0000
  H   H1159     1.0  0.74676  0.26596  0.86045  1.0000
  H   H1160     1.0  0.75675  0.26815  0.90623  1.0000
  H   H1161     1.0  0.77991  0.22747  0.91812  1.0000
  H   H1162     1.0  0.78767  0.20810  0.87864  1.0000
  H   H1163     1.0  0.79117  0.22673  0.82019  1.0000
  H   H1164     1.0  0.76358  0.23652  0.81798  1.0000
  H   H1165     1.0  0.79975  0.27898  0.80605  1.0000
  H   H1166     1.0  0.77095  0.28240  0.79723  1.0000
  H   H1167     1.0  0.82063  0.22396  0.88533  1.0000
  H   H1168     1.0  0.82350  0.24019  0.84034  1.0000
  H   H1169     1.0  0.74746  0.20998  0.85830  1.0000
  H   H1170     1.0  0.74116  0.22579  0.90198  1.0000
  H   H1171     1.0  0.77686  0.30835  0.89473  1.0000
  H   H1172     1.0  0.77415  0.30745  0.84582  1.0000
  H   H1173     1.0  0.74865  0.34105  0.87306  1.0000
  H   H1174     1.0  0.73380  0.31364  0.85264  1.0000
  H   H1175     1.0  0.73680  0.31496  0.90244  1.0000
  S   S151      1.0  0.83094  0.35233  0.50350  1.0000
  C   C668      1.0  0.75141  0.47852  0.91425  1.0000
  H   H1176     1.0  0.79138  0.27463  0.73992  1.0000
  H   H1177     1.0  0.85669  0.24450  0.87635  1.0000
  H   H1178     1.0  0.84446  0.27789  0.86872  1.0000
  H   H1179     1.0  0.84182  0.26090  0.91345  1.0000
  H   H1180     1.0  0.76279  0.16912  0.89059  1.0000
  H   H1181     1.0  0.75802  0.18528  0.93479  1.0000
  H   H1182     1.0  0.73542  0.17647  0.90648  1.0000
  N   N39       1.0  0.88181  0.36492  0.69043  1.0000
  C   C669      1.0  0.90317  0.37978  0.68944  1.0000
  C   C670      1.0  0.87524  0.35973  0.73022  1.0000
  C   C671      1.0  0.88483  0.33833  0.66982  1.0000
  C   C672      1.0  0.86413  0.38171  0.67203  1.0000
  C   C673      1.0  0.85989  0.41077  0.68810  1.0000
  C   C674      1.0  0.91028  0.39175  0.65113  1.0000
  C   C675      1.0  0.86536  0.31848  0.67107  1.0000
  C   C676      1.0  0.89063  0.34047  0.75259  1.0000
  C   C677      1.0  0.88146  0.33486  0.79140  1.0000
  C   C678      1.0  0.84497  0.42793  0.66320  1.0000
  C   C679      1.0  0.93245  0.40533  0.65324  1.0000
  C   C680      1.0  0.87054  0.29239  0.64936  1.0000
  H   H1183     1.0  0.91654  0.36572  0.69854  1.0000
  H   H1184     1.0  0.90307  0.39675  0.70982  1.0000
  H   H1185     1.0  0.87428  0.37939  0.74556  1.0000
  H   H1186     1.0  0.85851  0.35151  0.73204  1.0000
  H   H1187     1.0  0.89954  0.32688  0.67929  1.0000
  H   H1188     1.0  0.88817  0.34263  0.64021  1.0000
  H   H1189     1.0  0.86735  0.38347  0.64170  1.0000
  H   H1190     1.0  0.84830  0.37108  0.67434  1.0000
  H   H1191     1.0  0.87507  0.42239  0.69118  1.0000
  H   H1192     1.0  0.85180  0.40904  0.71571  1.0000
  H   H1193     1.0  0.91158  0.37544  0.63002  1.0000
  H   H1194     1.0  0.89857  0.40763  0.64122  1.0000
  H   H1195     1.0  0.85088  0.32821  0.65823  1.0000
  H   H1196     1.0  0.86120  0.31221  0.69988  1.0000
  H   H1197     1.0  0.89293  0.32028  0.73915  1.0000
  H   H1198     1.0  0.90676  0.35004  0.75559  1.0000
  H   H1199     1.0  0.87769  0.35433  0.80605  1.0000
  H   H1200     1.0  0.86645  0.32262  0.78968  1.0000
  H   H1201     1.0  0.89347  0.32285  0.80785  1.0000
  H   H1202     1.0  0.85267  0.43114  0.63554  1.0000
  H   H1203     1.0  0.82917  0.41761  0.65984  1.0000
  H   H1204     1.0  0.84177  0.44829  0.67583  1.0000
  H   H1205     1.0  0.93693  0.41412  0.62572  1.0000
  H   H1206     1.0  0.93199  0.42223  0.67365  1.0000
  H   H1207     1.0  0.94514  0.39000  0.66121  1.0000
  H   H1208     1.0  0.85625  0.27871  0.65029  1.0000
  H   H1209     1.0  0.87424  0.29752  0.61989  1.0000
  H   H1210     1.0  0.88463  0.28118  0.66148  1.0000
  H   H1211     1.0  0.72279  0.20035  0.54098  1.0000
  N   N40       1.0  0.67888  0.21335  0.52603  1.0000
  H   H1212     1.0  0.68606  0.09442  0.88057  1.0000
  H   H1213     1.0  0.68948  0.47687  0.97024  1.0000
  H   H1214     1.0  0.73210  0.03943  0.96583  1.0000
  H   H1215     1.0  0.78613  0.25061  0.54465  1.0000
  H   H1216     1.0  0.93347  0.48531  0.94758  1.0000
  H   H1217     1.0  0.73416  0.38865  0.94394  1.0000
  H   H1218     1.0  0.84774  0.42405  0.96593  1.0000
  H   H1219     1.0  0.71035  0.16103  0.60457  1.0000
  C   C681      1.0  0.68731  0.06965  0.93127  1.0000
  C   C682      1.0  0.89195  0.41603  0.52388  1.0000
  H   H1220     1.0  0.67690  0.23776  0.57569  1.0000
  C   C683      1.0  0.69963  0.28338  0.56456  1.0000
  C   C684      1.0  0.69253  0.09568  0.90902  1.0000
  C   C685      1.0  0.68811  0.19073  0.55034  1.0000
  H   H1221     1.0  0.87532  0.41540  0.57694  1.0000
  H   H1222     1.0  0.86334  0.44549  0.91062  1.0000
  H   H1223     1.0  0.75529  0.38521  0.97762  1.0000
  H   H1224     1.0  0.75673  0.48042  0.98638  1.0000
  C   C686      1.0  0.72068  0.16786  0.58084  1.0000
  H   H1225     1.0  0.77177  0.20340  0.53816  1.0000
  H   H1226     1.0  0.93043  0.36206  0.56329  1.0000
  H   H1227     1.0  0.72150  0.03176  0.58354  1.0000
  H   H1228     1.0  0.68464  0.01640  0.95224  1.0000
  S   S152      1.0  0.96807  0.37348  0.99331  1.0000
  H   H1229     1.0  0.70081  0.26637  0.51027  1.0000
  C   C687      1.0  0.72298  0.02394  0.61246  1.0000
  C   C688      1.0  0.94819  0.44499  0.98986  1.0000
  H   H1230     1.0  0.75549  0.43527  0.98657  1.0000
  H   H1231     1.0  0.69979  0.27670  0.59406  1.0000
  H   H1232     1.0  0.70846  0.03103  0.62848  1.0000
  C   C689      1.0  0.92703  0.36870  0.96526  1.0000
  H   H1233     1.0  0.84330  0.49430  0.54270  1.0000
  H   H1234     1.0  0.71195  0.21055  0.58520  1.0000
  H   H1235     1.0  0.72157  0.15141  0.55977  1.0000
  H   H1236     1.0  0.80317  0.24331  0.75817  1.0000
  C   C690      1.0  0.76266  0.27414  0.98511  1.0000
  S   S153      1.0  0.80992  0.36873  0.98688  1.0000
  H   H1237     1.0  0.79465  0.46028  0.54373  1.0000
  H   H1238     1.0  0.90628  0.40666  0.53753  1.0000
  H   H1239     1.0  0.72309  0.43708  0.92164  1.0000
  C   C691      1.0  0.92718  0.35071  0.53848  1.0000
  C   C692      1.0  0.77692  0.24544  0.52051  1.0000
  H   H1240     1.0  0.71042  0.09817  0.90712  1.0000
  H   H1241     1.0  0.71432  0.29587  0.55895  1.0000
  C   C693      1.0  0.69086  0.48012  0.93997  1.0000
  H   H1242     1.0  0.88667  0.45661  0.93579  1.0000
  C   C694      1.0  0.69993  0.25849  0.53919  1.0000
  H   H1243     1.0  0.96023  0.35333  0.51762  1.0000
  H   H1244     1.0  0.95155  0.45983  0.50770  1.0000
  H   H1245     1.0  0.95348  0.41048  0.56150  1.0000
  C   C695      1.0  0.94410  0.34579  0.51266  1.0000
  H   H1246     1.0  0.85279  0.45985  0.97400  1.0000
  C   C696      1.0  0.93979  0.36765  0.99724  1.0000
  H   H1247     1.0  0.68544  0.11407  0.92281  1.0000
  H   H1248     1.0  0.72876  0.39744  0.99187  1.0000
  H   H1249     1.0  0.68715  0.17069  0.53593  1.0000
  C   C697      1.0  0.83449  0.49323  0.59993  1.0000
  H   H1250     1.0  0.74734  0.46682  0.88895  1.0000
  H   H1251     1.0  0.97532  0.42160  0.53131  1.0000
  C   C698      1.0  0.74822  0.42737  0.96099  1.0000
  C   C699      1.0  0.76873  0.21858  0.51669  1.0000
  C   C700      1.0  0.74079  0.48915  0.97795  1.0000
  S   S154      1.0  0.76409  0.31006  0.97331  1.0000
  H   H1252     1.0  0.88729  0.44776  0.56562  1.0000
  C   C701      1.0  0.96056  0.42845  0.54673  1.0000
  H   H1253     1.0  0.71514  0.24682  0.54440  1.0000
  C   C702      1.0  0.94401  0.44148  0.52045  1.0000
  H   H1254     1.0  0.93010  0.44812  0.53801  1.0000
  C   C703      1.0  0.80745  0.49653  0.96102  1.0000
  H   H1255     1.0  0.96362  0.44334  0.97362  1.0000
  H   H1256     1.0  0.69482  0.07155  0.95878  1.0000
  C   C704      1.0  0.78113  0.25704  0.98704  1.0000
  H   H1257     1.0  0.73512  0.99961  0.92336  1.0000
  H   H1258     1.0  0.79701  0.26556  0.98163  1.0000
  H   H1259     1.0  0.90171  0.45648  0.50566  1.0000
  C   C705      1.0  0.77913  0.22886  0.99664  1.0000
  H   H1260     1.0  0.79359  0.21603  0.99829  1.0000
  C   C706      1.0  0.74222  0.26240  0.99264  1.0000
  C   C707      1.0  0.70001  0.99887  0.51866  1.0000
  C   C708      1.0  0.94369  0.49485  0.96894  1.0000
  H   H1261     1.0  0.71344  0.49020  0.89691  1.0000
  H   H1262     1.0  0.78884  0.49536  0.87784  1.0000
  C   C709      1.0  0.71351  0.49098  0.92776  1.0000
  C   C710      1.0  0.90218  0.32610  0.50047  1.0000
  H   H1263     1.0  0.96048  0.49532  0.95686  1.0000
  H   H1264     1.0  0.93620  0.40048  0.50330  1.0000
  S   S155      1.0  0.71499  0.12101  0.99623  1.0000
  Fe  Fe77      1.0  0.80627  0.59291  0.46373  1.0000
  S   S156      1.0  0.82572  0.58825  0.41157  1.0000
  C   C711      1.0  0.97882  0.49832  0.46387  1.0000
  Fe  Fe78      1.0  0.80496  0.65669  0.45656  1.0000
  S   S157      1.0  0.82541  0.65569  0.40372  1.0000
  C   C712      1.0  0.76340  0.53982  0.37220  1.0000
  Fe  Fe79      1.0  0.80417  0.62097  0.38675  1.0000
  S   S158      1.0  0.78765  0.61508  0.33097  1.0000
  Fe  Fe80      1.0  0.84556  0.62301  0.43259  1.0000
  S   S159      1.0  0.88161  0.61341  0.42597  1.0000
  S   S160      1.0  0.78273  0.62339  0.43809  1.0000
  S   S161      1.0  0.96167  0.64079  0.00089  1.0000
  Fe  Fe81      1.0  0.81422  0.62738  0.10805  1.0000
  S   S162      1.0  0.78097  0.61575  0.08865  1.0000
  S   S163      1.0  0.82502  0.63799  0.16688  1.0000
  Fe  Fe82      1.0  0.83378  0.62326  0.02945  1.0000
  C   C713      1.0  0.70017  0.80206  0.06782  1.0000
  Fe  Fe83      1.0  0.78704  0.64535  0.04043  1.0000
  C   C714      1.0  0.81594  0.51089  0.46778  1.0000
  Fe  Fe84      1.0  0.79880  0.58305  0.05499  1.0000
  H   H1265     1.0  0.80729  0.71082  0.41287  1.0000
  S   S164      1.0  0.81935  0.65862  0.06161  1.0000
  S   S165      1.0  0.83164  0.59333  0.07702  1.0000
  H   H1266     1.0  0.92170  0.58675  0.44552  1.0000
  H   H1267     1.0  0.73446  0.79864  0.05250  1.0000
  H   H1268     1.0  0.84138  0.73485  0.42082  1.0000
  H   H1269     1.0  0.78441  0.72433  0.03608  1.0000
  C   C715      1.0  0.77164  0.73053  0.01735  1.0000
  N   N41       1.0  0.78125  0.52241  0.35469  1.0000
  H   H1270     1.0  0.70755  0.88865  0.41696  1.0000
  H   H1271     1.0  0.92635  0.64336  0.05391  1.0000
  H   H1272     1.0  0.88650  0.63638  0.04861  1.0000
  H   H1273     1.0  0.75094  0.57191  0.45622  1.0000
  C   C716      1.0  0.94493  0.56457  0.01980  1.0000
  H   H1274     1.0  0.83971  0.74983  0.37504  1.0000
  H   H1275     1.0  0.76447  0.52800  0.43153  1.0000
  H   H1276     1.0  0.77792  0.76321  0.36559  1.0000
  C   C717      1.0  0.79863  0.62078  0.28558  1.0000
  C   C718      1.0  0.78633  0.61367  0.25463  1.0000
  C   C719      1.0  0.79423  0.61824  0.21816  1.0000
  C   C720      1.0  0.81446  0.63043  0.21214  1.0000
  C   C721      1.0  0.82670  0.63763  0.24315  1.0000
  C   C722      1.0  0.81894  0.63271  0.27959  1.0000
  H   H1277     1.0  0.77049  0.60473  0.25882  1.0000
  H   H1278     1.0  0.78454  0.61275  0.19470  1.0000
  H   H1279     1.0  0.84234  0.64713  0.23890  1.0000
  H   H1280     1.0  0.82861  0.63841  0.30297  1.0000
  C   C723      1.0  0.90045  0.62042  0.46093  1.0000
  H   H1281     1.0  0.85284  0.54194  0.31013  1.0000
  H   H1282     1.0  0.97450  0.70080  0.35380  1.0000
  H   H1283     1.0  0.75995  0.50290  0.31610  1.0000
  H   H1284     1.0  0.71981  0.73086  0.46378  1.0000
  H   H1285     1.0  0.81020  0.53423  0.38330  1.0000
  C   C724      1.0  0.79694  0.51132  0.02302  1.0000
  H   H1286     1.0  0.96486  0.56742  0.41633  1.0000
  H   H1287     1.0  0.97816  0.57477  0.03385  1.0000
  H   H1288     1.0  0.70744  0.98600  0.05134  1.0000
  H   H1289     1.0  0.77992  0.55909  0.29617  1.0000
  H   H1290     1.0  0.75195  0.54943  0.29865  1.0000
  H   H1291     1.0  0.74735  0.52981  0.36919  1.0000
  S   S166      1.0  0.68856  0.85823  0.49494  1.0000
  H   H1292     1.0  0.74704  0.76464  0.32670  1.0000
  H   H1293     1.0  0.96301  0.65528  0.41023  1.0000
  H   H1294     1.0  0.96264  0.55939  0.07155  1.0000
  C   C725      1.0  0.96189  0.57372  0.04744  1.0000
  H   H1295     1.0  0.74591  0.79511  0.38215  1.0000
  H   H1296     1.0  0.87547  0.72493  0.06518  1.0000
  H   H1297     1.0  0.92884  0.56618  0.03391  1.0000
  C   C726      1.0  0.84669  0.72237  0.00608  1.0000
  H   H1298     1.0  0.75067  0.64284  0.37286  1.0000
  C   C727      1.0  0.76602  0.54662  0.41376  1.0000
  C   C728      1.0  0.74829  0.56674  0.42676  1.0000
  H   H1299     1.0  0.76206  0.56006  0.35763  1.0000
  H   H1300     1.0  0.79925  0.56037  0.35454  1.0000
  H   H1301     1.0  0.78203  0.55598  0.41870  1.0000
  H   H1302     1.0  0.71448  0.74356  0.04419  1.0000
  H   H1303     1.0  0.92632  0.52021  0.42618  1.0000
  C   C729      1.0  0.84845  0.50306  0.09062  1.0000
  H   H1304     1.0  0.74867  0.58602  0.41003  1.0000
  C   C730      1.0  0.76841  0.75870  0.00824  1.0000
  H   H1305     1.0  0.84922  0.51042  0.11953  1.0000
  S   S167      1.0  0.71533  0.78414  0.49685  1.0000
  C   C731      1.0  0.71315  0.98918  0.02317  1.0000
  H   H1306     1.0  0.81382  0.53933  0.29793  1.0000
  C   C732      1.0  0.72431  0.97709  0.46011  1.0000
  H   H1307     1.0  0.96559  0.66654  0.34278  1.0000
  H   H1308     1.0  0.88648  0.54109  0.41326  1.0000
  H   H1309     1.0  0.87173  0.51254  0.43334  1.0000
  C   C733      1.0  0.77446  0.51636  0.31567  1.0000
  H   H1310     1.0  0.77891  0.77382  0.02003  1.0000
  H   H1311     1.0  0.67366  0.89761  0.38003  1.0000
  H   H1312     1.0  0.78005  0.67600  0.36290  1.0000
  H   H1313     1.0  0.75699  0.69419  0.24674  1.0000
  H   H1314     1.0  0.94633  0.52928  0.31725  1.0000
  C   C734      1.0  0.77281  0.72120  0.48835  1.0000
  H   H1315     1.0  0.88303  0.65543  0.48272  1.0000
  S   S168      1.0  0.80175  0.61125  0.00574  1.0000
  H   H1316     1.0  0.97057  0.50825  0.44112  1.0000
  H   H1317     1.0  0.73382  0.96881  0.43733  1.0000
  H   H1318     1.0  0.78200  0.67660  0.23481  1.0000
  C   C735      1.0  0.89746  0.64257  0.48480  1.0000
  H   H1319     1.0  0.82193  0.52483  0.44666  1.0000
  H   H1320     1.0  0.68920  0.81845  0.07884  1.0000
  H   H1321     1.0  0.71042  0.50089  0.00603  1.0000
  H   H1322     1.0  0.71025  0.94627  0.00876  1.0000
  H   H1323     1.0  0.96684  0.53303  0.99938  1.0000
  C   C736      1.0  0.68204  0.91485  0.39335  1.0000
  C   C737      1.0  0.72244  0.81471  0.06093  1.0000
  C   C738      1.0  0.88200  0.54333  0.47281  1.0000
  H   H1324     1.0  0.73293  0.73870  0.35260  1.0000
  H   H1325     1.0  0.70249  0.78601  0.08934  1.0000
  C   C739      1.0  0.70561  0.70480  0.06787  1.0000
  H   H1326     1.0  0.72333  0.49950  0.06933  1.0000
  H   H1327     1.0  0.69207  0.68996  0.06787  1.0000
  N   N42       1.0  0.67244  0.77021  0.03653  1.0000
  S   S169      1.0  0.79543  0.69756  0.48530  1.0000
  H   H1328     1.0  0.71924  0.78508  0.36796  1.0000
  H   H1329     1.0  0.80355  0.74703  0.40594  1.0000
  H   H1330     1.0  0.76553  0.74220  0.40016  1.0000
  C   C740      1.0  0.96491  0.68298  0.36385  1.0000
  H   H1331     1.0  0.76423  0.55394  0.23402  1.0000
  H   H1332     1.0  0.68489  0.80897  0.01564  1.0000
  H   H1333     1.0  0.83803  0.56920  0.33285  1.0000
  S   S170      1.0  0.82709  0.62626  0.48636  1.0000
  C   C741      1.0  0.97357  0.67223  0.40079  1.0000
  H   H1334     1.0  0.70401  0.78198  0.01451  1.0000
  H   H1335     1.0  0.94754  0.52210  0.03331  1.0000
  H   H1336     1.0  0.87995  0.68842  0.07030  1.0000
  H   H1337     1.0  0.69790  0.72266  0.01525  1.0000
  H   H1338     1.0  0.88428  0.56572  0.47203  1.0000
  H   H1339     1.0  0.67932  0.97590  0.42445  1.0000
  H   H1340     1.0  0.85321  0.70277  0.07843  1.0000
  H   H1341     1.0  0.67166  0.90193  0.44824  1.0000
  C   C742      1.0  0.77494  0.69465  0.24943  1.0000
  H   H1342     1.0  0.87868  0.70196  0.00466  1.0000
  C   C743      1.0  0.75837  0.71051  0.00230  1.0000
  H   H1343     1.0  0.85876  0.54587  0.42810  1.0000
  H   H1344     1.0  0.97949  0.65217  0.46667  1.0000
  H   H1345     1.0  0.98950  0.56492  0.44238  1.0000
  N   N43       1.0  0.77733  0.71983  0.35212  1.0000
  H   H1346     1.0  0.85709  0.51790  0.07234  1.0000
  H   H1347     1.0  0.84358  0.71308  0.38097  1.0000
  C   C744      1.0  0.69052  0.79070  0.03180  1.0000
  H   H1348     1.0  0.80777  0.73856  0.33568  1.0000
  C   C745      1.0  0.89702  0.63426  0.02454  1.0000
  C   C746      1.0  0.94943  0.53466  0.00762  1.0000
  C   C747      1.0  0.98187  0.57461  0.41775  1.0000
  C   C748      1.0  0.74603  0.68737  0.37153  1.0000
  H   H1349     1.0  0.73201  0.55740  0.42452  1.0000
  H   H1350     1.0  0.70890  0.71096  0.09673  1.0000
  H   H1351     1.0  0.95751  0.59454  0.05764  1.0000
  H   H1352     1.0  0.97451  0.61406  0.39450  1.0000
  H   H1353     1.0  0.91065  0.51824  0.01907  1.0000
  C   C749      1.0  0.73479  0.77747  0.37974  1.0000
  C   C750      1.0  0.80175  0.72209  0.35478  1.0000
  H   H1354     1.0  0.73993  0.68743  0.34286  1.0000
  H   H1355     1.0  0.97148  0.68899  0.42114  1.0000
  C   C751      1.0  0.81961  0.53183  0.32521  1.0000
  H   H1356     1.0  0.87760  0.54802  0.03055  1.0000
  C   C752      1.0  0.91957  0.63823  0.02745  1.0000
  H   H1357     1.0  0.75426  0.71867  0.30701  1.0000
  S   S171      1.0  0.76157  0.67443  0.01270  1.0000
  H   H1358     1.0  0.75775  0.51860  0.24421  1.0000
  H   H1359     1.0  0.97167  0.61191  0.44430  1.0000
  H   H1360     1.0  0.85550  0.74201  0.00830  1.0000
  H   H1361     1.0  0.71266  0.90001  0.36997  1.0000
  C   C753      1.0  0.80237  0.53782  0.35607  1.0000
  C   C754      1.0  0.91932  0.60398  0.46382  1.0000
  S   S172      1.0  0.72467  0.92397  0.48745  1.0000
  C   C755      1.0  0.96209  0.53048  0.33169  1.0000
  H   H1362     1.0  0.79932  0.69253  0.29076  1.0000
  C   C756      1.0  0.77050  0.69416  0.37276  1.0000
  H   H1363     1.0  0.72041  0.69435  0.05661  1.0000
  H   H1364     1.0  0.83280  0.72356  0.02624  1.0000
  C   C757      1.0  0.76863  0.54198  0.29149  1.0000
  H   H1365     1.0  0.99390  0.51245  0.33096  1.0000
  C   C758      1.0  0.78133  0.69343  0.29014  1.0000
  C   C759      1.0  0.71755  0.95951  0.48913  1.0000
  H   H1366     1.0  0.68267  0.93495  0.44605  1.0000
  C   C760      1.0  0.99733  0.65513  0.46629  1.0000
  C   C761      1.0  0.77203  0.71863  0.31145  1.0000
  H   H1367     1.0  0.85678  0.67931  0.01751  1.0000
  H   H1368     1.0  0.99084  0.56773  0.39255  1.0000
  C   C762      1.0  0.73784  0.76034  0.49456  1.0000
  H   H1369     1.0  0.78129  0.71352  0.23579  1.0000
  C   C763      1.0  0.74481  0.75538  0.35476  1.0000
  H   H1370     1.0  0.77791  0.73756  0.29705  1.0000
  C   C764      1.0  0.70587  0.90625  0.39729  1.0000
  C   C765      1.0  0.87423  0.53505  0.43460  1.0000
  H   H1371     1.0  0.77490  0.67401  0.30201  1.0000
  C   C766      1.0  0.76712  0.74518  0.36957  1.0000
  C   C767      1.0  0.83537  0.73167  0.39237  1.0000
  H   H1372     1.0  0.94770  0.68974  0.36744  1.0000
  S   S173      1.0  0.78978  0.53725  0.05563  1.0000
  C   C768      1.0  0.81074  0.72810  0.39378  1.0000
  H   H1373     1.0  0.73656  0.70242  0.38829  1.0000
  C   C769      1.0  0.74143  0.65901  0.38809  1.0000
  H   H1374     1.0  0.80996  0.70272  0.34583  1.0000
  H   H1375     1.0  0.77450  0.69561  0.40258  1.0000
  C   C770      1.0  0.98192  0.60598  0.42030  1.0000
  H   H1376     1.0  0.71551  0.92370  0.40734  1.0000
  H   H1377     1.0  0.78584  0.52929  0.24120  1.0000
  H   H1378     1.0  0.75014  0.69671  0.45903  1.0000
  C   C771      1.0  0.87557  0.54676  0.00014  1.0000
  H   H1379     1.0  0.73134  0.76893  0.40784  1.0000
  H   H1380     1.0  0.78717  0.50434  0.30072  1.0000
  H   H1381     1.0  0.72820  0.82429  0.08666  1.0000
  C   C772      1.0  0.75259  0.71591  0.47288  1.0000
  H   H1382     1.0  0.84778  0.53976  0.35934  1.0000
  H   H1383     1.0  0.74582  0.65824  0.41775  1.0000
  H   H1384     1.0  0.72384  0.65463  0.38608  1.0000
  C   C773      1.0  0.70017  0.72995  0.04387  1.0000
  H   H1385     1.0  0.72163  0.83075  0.03899  1.0000
  C   C774      1.0  0.86816  0.70449  0.06103  1.0000
  H   H1386     1.0  0.68154  0.93304  0.37463  1.0000
  C   C775      1.0  0.86306  0.70033  0.02021  1.0000
  C   C776      1.0  0.67143  0.92130  0.43156  1.0000
  C   C777      1.0  0.84084  0.54659  0.33252  1.0000
  C   C778      1.0  0.76915  0.53540  0.25024  1.0000
  H   H1387     1.0  0.74140  0.52016  0.04135  1.0000
  C   C779      1.0  0.99794  0.66346  0.39733  1.0000
  C   C780      1.0  0.97928  0.51113  0.49841  1.0000
  H   H1388     1.0  0.98145  0.51521  0.28606  1.0000
  C   C781      1.0  0.67954  0.74518  0.05860  1.0000
  C   C782      1.0  0.93504  0.60956  0.49049  1.0000
  H   H1389     1.0  0.95948  0.52649  0.36174  1.0000
  H   H1390     1.0  0.96835  0.55165  0.32809  1.0000
  H   H1391     1.0  0.89788  0.53295  0.47752  1.0000
  C   C783      1.0  0.92582  0.49856  0.41689  1.0000
  H   H1392     1.0  0.82334  0.50966  0.32270  1.0000
  H   H1393     1.0  0.68278  0.75020  0.08778  1.0000
  C   C784      1.0  0.80301  0.52105  0.49684  1.0000
  C   C785      1.0  0.73532  0.73532  0.47589  1.0000
  H   H1394     1.0  0.84907  0.54175  0.49432  1.0000
  H   H1395     1.0  0.94923  0.59642  0.49311  1.0000
  C   C786      1.0  0.73543  0.49897  0.04625  1.0000
  H   H1396     1.0  0.78686  0.49971  0.40579  1.0000
  H   H1397     1.0  0.83109  0.50257  0.08264  1.0000
  C   C787      1.0  0.97856  0.50986  0.31566  1.0000
  S   S174      1.0  0.98078  0.63423  0.81675  1.0000
  C   C788      1.0  0.88815  0.62794  0.99032  1.0000
  Fe  Fe85      1.0  0.70736  0.85948  0.59751  1.0000
  S   S175      1.0  0.73077  0.85541  0.54889  1.0000
  S   S176      1.0  0.72327  0.86367  0.65431  1.0000
  Fe  Fe86      1.0  0.71044  0.88863  0.52161  1.0000
  H   H1398     1.0  0.77917  0.52876  0.86295  1.0000
  Fe  Fe87      1.0  0.70724  0.82514  0.52632  1.0000
  H   H1399     1.0  0.73480  0.94444  0.57879  1.0000
  S   S177      1.0  0.68891  0.89454  0.57111  1.0000
  S   S178      1.0  0.68462  0.82744  0.57657  1.0000
  H   H1400     1.0  0.84111  0.49854  0.62732  1.0000
  H   H1401     1.0  0.88898  0.62332  0.56751  1.0000
  H   H1402     1.0  0.76449  0.94427  0.76996  1.0000
  Fe  Fe88      1.0  0.98238  0.61506  0.55654  1.0000
  S   S179      1.0  0.95302  0.64208  0.54405  1.0000
  H   H1403     1.0  0.74337  0.52039  0.89292  1.0000
  H   H1404     1.0  0.67639  0.97665  0.86532  1.0000
  Fe  Fe89      1.0  0.67835  0.85727  0.95629  1.0000
  H   H1405     1.0  0.67443  0.52008  0.94231  1.0000
  Fe  Fe90      1.0  0.69801  0.85387  0.87777  1.0000
  S   S180      1.0  0.73147  0.86398  0.89777  1.0000
  S   S181      1.0  0.68621  0.84437  0.81917  1.0000
  Fe  Fe91      1.0  0.72467  0.83406  0.94534  1.0000
  H   H1406     1.0  0.81825  0.50319  0.59672  1.0000
  Fe  Fe92      1.0  0.71437  0.89690  0.93216  1.0000
  S   S182      1.0  0.72502  0.94222  0.93092  1.0000
  S   S183      1.0  0.69228  0.82213  0.92321  1.0000
  S   S184      1.0  0.68130  0.88799  0.90972  1.0000
  H   H1407     1.0  0.86088  0.63122  0.55689  1.0000
  H   H1408     1.0  0.77501  0.93705  0.57668  1.0000
  Fe  Fe93      1.0  0.98498  0.62694  0.95529  1.0000
  H   H1409     1.0  0.85185  0.58255  0.52721  1.0000
  S   S185      1.0  0.97465  0.59682  0.91293  1.0000
  C   C789      1.0  0.82316  0.74291  0.95918  1.0000
  H   H1410     1.0  0.82449  0.81468  0.95112  1.0000
  H   H1411     1.0  0.92161  0.54252  0.85071  1.0000
  C   C790      1.0  0.87186  0.62060  0.57677  1.0000
  C   C791      1.0  0.73830  0.74755  0.96954  1.0000
  H   H1412     1.0  0.74407  0.77600  0.76041  1.0000
  H   H1413     1.0  0.89068  0.53272  0.58672  1.0000
  H   H1414     1.0  0.74932  0.91620  0.65111  1.0000
  C   C792      1.0  0.90198  0.62526  0.95929  1.0000
  C   C793      1.0  0.92450  0.62897  0.96227  1.0000
  H   H1415     1.0  0.95726  0.54298  0.93715  1.0000
  H   H1416     1.0  0.89523  0.62050  0.93268  1.0000
  H   H1417     1.0  0.93489  0.62720  0.93803  1.0000
  H   H1418     1.0  0.66734  0.92913  0.50663  1.0000
  H   H1419     1.0  0.73586  0.95240  0.77200  1.0000
  Fe  Fe94      1.0  0.66778  0.86252  0.54614  1.0000
  C   C794      1.0  0.92969  0.52938  0.90653  1.0000
  C   C795      1.0  0.93945  0.54084  0.94249  1.0000
  H   H1420     1.0  0.70947  0.98517  0.59952  1.0000
  H   H1421     1.0  0.94506  0.55899  0.86911  1.0000
  C   C796      1.0  0.86554  0.53489  0.50335  1.0000
  H   H1422     1.0  0.85383  0.54100  0.59564  1.0000
  H   H1423     1.0  0.71503  0.95484  0.71342  1.0000
  C   C797      1.0  0.71227  0.85926  0.69988  1.0000
  C   C798      1.0  0.69132  0.84943  0.70642  1.0000
  C   C799      1.0  0.68365  0.84526  0.74306  1.0000
  C   C800      1.0  0.69665  0.85114  0.77369  1.0000
  C   C801      1.0  0.71757  0.86120  0.76709  1.0000
  C   C802      1.0  0.72536  0.86496  0.73042  1.0000
  H   H1424     1.0  0.75357  0.97056  0.71447  1.0000
  H   H1425     1.0  0.66749  0.83736  0.74778  1.0000
  H   H1426     1.0  0.72785  0.86558  0.79027  1.0000
  H   H1427     1.0  0.74171  0.87220  0.72575  1.0000
  C   C803      1.0  0.67948  0.98302  0.89415  1.0000
  H   H1428     1.0  0.91803  0.56893  0.88491  1.0000
  C   C804      1.0  0.75182  0.76753  0.98412  1.0000
  H   H1429     1.0  0.93328  0.56219  0.94596  1.0000
  C   C805      1.0  0.93341  0.63563  0.99633  1.0000
  H   H1430     1.0  0.88020  0.58597  0.52429  1.0000
  C   C806      1.0  0.74859  0.94028  0.75707  1.0000
  S   S186      1.0  0.98215  0.58847  0.60788  1.0000
  H   H1431     1.0  0.67905  0.76319  0.59090  1.0000
  H   H1432     1.0  0.84882  0.77349  0.94885  1.0000
  H   H1433     1.0  0.86975  0.63029  0.60428  1.0000
  N   N44       1.0  0.86952  0.54533  0.54180  1.0000
  H   H1434     1.0  0.86566  0.51210  0.50291  1.0000
  C   C807      1.0  0.69203  0.74781  0.58447  1.0000
  H   H1435     1.0  0.91314  0.52129  0.91149  1.0000
  H   H1436     1.0  0.80136  0.79333  0.96057  1.0000
  C   C808      1.0  0.83280  0.77199  0.96315  1.0000
  C   C809      1.0  0.92854  0.55138  0.87606  1.0000
  C   C810      1.0  0.93247  0.53957  0.55847  1.0000
  C   C811      1.0  0.72685  0.77929  0.75249  1.0000
  C   C812      1.0  0.99678  0.62642  0.70814  1.0000
  C   C813      1.0  0.85167  0.53411  0.56670  1.0000
  C   C814      1.0  0.91121  0.55405  0.54797  1.0000
  H   H1437     1.0  0.72365  0.92088  0.70204  1.0000
  C   C815      1.0  0.86665  0.59006  0.57974  1.0000
  H   H1438     1.0  0.67633  0.96523  0.91292  1.0000
  H   H1439     1.0  0.76294  0.93647  0.70306  1.0000
  H   H1440     1.0  0.71504  0.99103  0.67057  1.0000
  H   H1441     1.0  0.89491  0.67308  0.89999  1.0000
  C   C816      1.0  0.89131  0.53543  0.55605  1.0000
  C   C817      1.0  0.76372  0.91945  0.57763  1.0000
  H   H1442     1.0  0.73876  0.98694  0.59496  1.0000
  C   C818      1.0  0.72254  0.97005  0.96278  1.0000
  C   C819      1.0  0.91198  0.52273  0.98882  1.0000
  H   H1443     1.0  0.81570  0.79101  0.91662  1.0000
  H   H1444     1.0  0.71635  0.76753  0.77207  1.0000
  C   C820      1.0  0.79539  0.50253  0.52410  1.0000
  H   H1445     1.0  0.83480  0.67450  0.97143  1.0000
  H   H1446     1.0  0.85011  0.58827  0.59228  1.0000
  H   H1447     1.0  0.87837  0.58015  0.59892  1.0000
  H   H1448     1.0  0.70013  0.95736  0.54100  1.0000
  H   H1449     1.0  0.79348  0.83806  0.60929  1.0000
  H   H1450     1.0  0.73133  0.90986  0.59473  1.0000
  C   C821      1.0  0.74212  0.92785  0.59584  1.0000
  H   H1451     1.0  0.91159  0.66661  0.52785  1.0000
  H   H1452     1.0  0.86968  0.73259  0.94799  1.0000
  H   H1453     1.0  0.98827  0.68099  0.53472  1.0000
  C   C822      1.0  0.70488  0.93900  0.64287  1.0000
  H   H1454     1.0  0.73113  0.70423  0.96671  1.0000
  H   H1455     1.0  0.72551  0.75376  0.95089  1.0000
  H   H1456     1.0  0.93240  0.53390  0.58835  1.0000
  C   C823      1.0  0.81763  0.79401  0.94682  1.0000
  C   C824      1.0  0.91367  0.64888  0.51030  1.0000
  C   C825      1.0  0.72724  0.98082  0.65210  1.0000
  C   C826      1.0  0.85658  0.71865  0.93912  1.0000
  C   C827      1.0  0.86723  0.69033  0.92992  1.0000
  C   C828      1.0  0.81155  0.68919  0.93081  1.0000
  H   H1457     1.0  0.76041  0.78475  0.52432  1.0000
  H   H1458     1.0  0.77132  0.90199  0.59299  1.0000
  C   C829      1.0  0.88805  0.69367  0.90684  1.0000
  C   C830      1.0  0.80359  0.65977  0.92762  1.0000
  H   H1459     1.0  0.94629  0.55359  0.55314  1.0000
  H   H1460     1.0  0.68107  0.84475  0.68332  1.0000
  H   H1461     1.0  0.75991  0.94882  0.63854  1.0000
  H   H1462     1.0  0.90532  0.56783  0.98897  1.0000
  S   S187      1.0  0.71047  0.86812  0.98075  1.0000
  H   H1463     1.0  0.97106  0.53065  0.50233  1.0000
  H   H1464     1.0  0.81710  0.74179  0.93038  1.0000
  H   H1465     1.0  0.85104  0.72731  0.91212  1.0000
  S   S188      1.0  0.74925  0.80352  0.97271  1.0000
  H   H1466     1.0  0.85601  0.67763  0.91382  1.0000
  C   C831      1.0  0.67269  0.50002  0.92839  1.0000
  H   H1467     1.0  0.79692  0.70288  0.93115  1.0000
  H   H1468     1.0  0.82134  0.69423  0.90572  1.0000
  H   H1469     1.0  0.70557  0.77224  0.70738  1.0000
  H   H1470     1.0  0.68337  0.94633  0.69145  1.0000
  S   S189      1.0  0.79629  0.55661  0.50081  1.0000
  H   H1471     1.0  0.96924  0.69343  0.50036  1.0000
  C   C832      1.0  0.98634  0.69421  0.50970  1.0000
  H   H1472     1.0  0.67183  0.94651  0.97911  1.0000
  H   H1473     1.0  0.69684  0.98863  0.89593  1.0000
  H   H1474     1.0  0.81748  0.64492  0.92793  1.0000
  H   H1475     1.0  0.79222  0.65496  0.95084  1.0000
  H   H1476     1.0  0.79476  0.65749  0.90129  1.0000
  H   H1477     1.0  0.83550  0.54247  0.55797  1.0000
  H   H1478     1.0  0.76085  0.91291  0.54877  1.0000
  S   S190      1.0  0.99434  0.58188  0.51882  1.0000
  N   N45       1.0  0.73875  0.77482  0.64622  1.0000
  C   C833      1.0  0.73656  0.78685  0.68445  1.0000
  C   C834      1.0  0.74799  0.79628  0.62009  1.0000
  C   C835      1.0  0.71613  0.76850  0.63328  1.0000
  C   C836      1.0  0.75237  0.74871  0.64525  1.0000
  C   C837      1.0  0.77116  0.74605  0.67336  1.0000
  C   C838      1.0  0.72320  0.76971  0.71297  1.0000
  C   C839      1.0  0.71439  0.75940  0.59246  1.0000
  C   C840      1.0  0.77080  0.80722  0.62896  1.0000
  C   C841      1.0  0.77670  0.83138  0.60354  1.0000
  C   C842      1.0  0.78593  0.72140  0.66453  1.0000
  H   H1479     1.0  0.91253  0.56015  0.51853  1.0000
  C   C843      1.0  0.77530  0.74617  0.50717  1.0000
  H   H1480     1.0  0.72852  0.80743  0.68282  1.0000
  H   H1481     1.0  0.75263  0.79082  0.69655  1.0000
  H   H1482     1.0  0.74957  0.78816  0.59154  1.0000
  H   H1483     1.0  0.73653  0.81415  0.61818  1.0000
  H   H1484     1.0  0.70516  0.78678  0.63689  1.0000
  H   H1485     1.0  0.70890  0.75179  0.65053  1.0000
  H   H1486     1.0  0.74206  0.73036  0.65031  1.0000
  H   H1487     1.0  0.75940  0.74571  0.61694  1.0000
  H   H1488     1.0  0.76455  0.74293  0.70181  1.0000
  H   H1489     1.0  0.78138  0.76451  0.67371  1.0000
  H   H1490     1.0  0.80848  0.74205  0.97741  1.0000
  H   H1491     1.0  0.72743  0.74753  0.71139  1.0000
  H   H1492     1.0  0.72682  0.74353  0.58527  1.0000
  H   H1493     1.0  0.71666  0.77741  0.57390  1.0000
  H   H1494     1.0  0.77180  0.81461  0.65774  1.0000
  H   H1495     1.0  0.78323  0.79088  0.62413  1.0000
  C   C844      1.0  0.70544  0.97060  0.51853  1.0000
  H   H1496     1.0  0.76544  0.84903  0.60857  1.0000
  C   C845      1.0  0.89766  0.54857  0.98042  1.0000
  H   H1497     1.0  0.79890  0.71956  0.68550  1.0000
  H   H1498     1.0  0.77649  0.70211  0.66501  1.0000
  H   H1499     1.0  0.79376  0.72404  0.63682  1.0000
  C   C846      1.0  0.82470  0.69319  0.96667  1.0000
  C   C847      1.0  0.74161  0.71936  0.97851  1.0000
  H   H1500     1.0  0.97092  0.64498  0.74063  1.0000
  H   H1501     1.0  0.88466  0.70493  0.88060  1.0000
  C   C848      1.0  0.99354  0.62299  0.77545  1.0000
  C   C849      1.0  0.98555  0.63241  0.74132  1.0000
  C   C850      1.0  0.68385  0.95073  0.66128  1.0000
  H   H1502     1.0  0.70468  0.91630  0.64678  1.0000
  H   H1503     1.0  0.74507  0.91807  0.76043  1.0000
  H   H1504     1.0  0.89523  0.51462  0.54509  1.0000
  H   H1505     1.0  0.99082  0.63444  0.68208  1.0000
  H   H1506     1.0  0.76536  0.51901  0.92526  1.0000
  H   H1507     1.0  0.68130  0.75497  0.98201  1.0000
  H   H1508     1.0  0.89459  0.55046  0.95031  1.0000
  H   H1509     1.0  0.70313  0.94245  0.61273  1.0000
  H   H1510     1.0  0.90371  0.50534  0.97533  1.0000
  H   H1511     1.0  0.87149  0.67841  0.95495  1.0000
  C   C851      1.0  0.84992  0.50231  0.56875  1.0000
  N   N46       1.0  0.72611  0.95001  0.65647  1.0000
  H   H1512     1.0  0.68920  0.72879  0.60099  1.0000
  C   C852      1.0  0.74511  0.93601  0.63687  1.0000
  C   C853      1.0  0.72743  0.94300  0.69729  1.0000
  C   C854      1.0  0.75801  0.76558  0.51026  1.0000
  H   H1513     1.0  0.72256  0.80143  0.75506  1.0000
  H   H1514     1.0  0.94015  0.51230  0.89598  1.0000
  C   C855      1.0  0.74948  0.94847  0.71608  1.0000
  C   C856      1.0  0.93256  0.63250  0.51314  1.0000
  H   H1515     1.0  0.77592  0.82541  0.57400  1.0000
  H   H1516     1.0  0.90999  0.57320  0.56428  1.0000
  C   C857      1.0  0.86718  0.57625  0.54123  1.0000
  H   H1517     1.0  0.90039  0.70486  0.92269  1.0000
  H   H1518     1.0  0.71410  0.51325  0.93449  1.0000
  Fe  Fe95      1.0  0.99431  0.62194  0.87254  1.0000
  H   H1519     1.0  0.74321  0.98827  0.66143  1.0000
  S   S191      1.0  0.85991  0.62410  0.98433  1.0000
  H   H1520     1.0  0.78530  0.51011  0.54664  1.0000
  N   N47       1.0  0.93565  0.52373  0.97702  1.0000
  H   H1521     1.0  0.81245  0.50183  0.93305  1.0000
  S   S192      1.0  0.98833  0.51205  0.57247  1.0000
  H   H1522     1.0  0.69113  0.74274  0.55463  1.0000
  C   C858      1.0  0.80398  0.51765  0.98699  1.0000
  N   N48       1.0  0.83821  0.71883  0.96742  1.0000
  H   H1523     1.0  0.93516  0.52078  0.54178  1.0000
  H   H1524     1.0  0.67300  0.50333  0.89790  1.0000
  H   H1525     1.0  0.83473  0.77697  0.99282  1.0000
  H   H1526     1.0  0.79082  0.75062  0.51927  1.0000
  H   H1527     1.0  0.98992  0.71567  0.51737  1.0000
  H   H1528     1.0  0.74391  0.51137  0.97326  1.0000
  H   H1529     1.0  0.68249  0.97325  0.65660  1.0000
  H   H1530     1.0  0.80619  0.53890  0.97884  1.0000
  Fe  Fe96      1.0  0.99666  0.55657  0.57053  1.0000
  C   C859      1.0  0.72445  0.99257  0.61243  1.0000
  C   C860      1.0  0.72875  0.99661  0.95114  1.0000
  H   H1531     1.0  0.81266  0.69317  0.99007  1.0000
  C   C861      1.0  0.75766  0.50813  0.90213  1.0000
  C   C862      1.0  0.77413  0.50751  0.87006  1.0000
  H   H1532     1.0  0.66673  0.76756  0.92129  1.0000
  H   H1533     1.0  0.76688  0.49829  0.84521  1.0000
  C   C863      1.0  0.98956  0.49801  0.52821  1.0000
  H   H1534     1.0  0.86728  0.52740  0.99325  1.0000
  C   C864      1.0  0.71467  0.96655  0.99903  1.0000
  H   H1535     1.0  0.86502  0.56425  0.99127  1.0000
  H   H1536     1.0  0.94559  0.57916  0.99613  1.0000
