data_image0
_chemical_formula_structural       SFeSH4FeSHSC3HCHCH4C7H4CH7CH4C2HCH2CH2CH4CHCHC3H9CHC5H3CH3CH4CH3NH3CH4CH2CH2C3H2C2HCSCHCHCNH3CH3CHCH3CHCH2C2H4S2CHCH4S2NSFeH2CHCHCHCH8NH3S2CH4CSCFeSFeSH3CH2C2HSH4SC2H3C3HC6H2NC11H16C2H4CH4C2NSH3CH2Fe2CHSHCH3SH2CH3CH2SHFeCH2CSH2CFeH3CH2C3H8CHFeH8C3H2CH2SH4CH3CH2CSCH5CH2CHC2SHSCSFeSH4CHC2HNHFeH2C3H7C8H2C6H2C6H2CH3FeCH2CSHCH3FeH3CHCHSH2Fe2H3S2H2CNSH2C2H2CHCH4C2H7CHSHC2H7NC3HC5HCH8CH3CH2CHCH4CH3SH6FeH3CH2SCFeCHSCHSHC3H3CFeHNCFeH6CFeSHCHSHFeS2FeSHSH4C2H4C6H4SH3NC8H14CH10C2HSCHCHCH2CHFeH2CHCHC2H5C2HCH2CHNH2CH3CSH3C2H4CHCH2SH2SCFeSCHSFeCSCFeHCH2CH2SCSCH2SH4C2HCH2C3HFeC5H4C4H3C2HCHCH2SHCHNHCH6CH2C2HCH3C4SHCS2HCH2C3H3C3HNH2CH2NHCH7C2H4CH2CHC3HC4FeCH6CHSH2CHCH3CH4SCHNH3CFeH2CHCSH4CH3NH3SCH3SFeC3HCHC2H3FeS2H2C2HCHCSNCHSH3C2H2C5H2C6H2CHC6H2C3H4C2H2C2H2Fe2CH4FeH4C2H4C2H2CH2S2H2C2H3SCHSHCH2CH2FeH3C3H6NCH2CHCFeHNH3C2H4CH5C3HSH2SH3SC2H3S2HCH2CHCH4CHFeSH5FeH2NCHCH2C2H3CH2C3H2FeH10SHSHFeS2FeS2H4CS2H2CHCH2C7H11CFeH2CH2C2FeC3HC2H11CNH2C2SHCH2CH3CH2CH3FeC4H8NHCHC2HS2CSHCSCHSH2SH4CSHS2C3H5CHCH2C2H5C3H2C4H3C3HC3HC2HC3H2CHNC12H16CHCH2CH6NC2H5SCH5FeH2SHSH4CHCH2CHC2H4C2HCH2FeHCFeH6FeCHSFeH3CH4CHNHFeNSH2C2H3SH3CH3C3HC2HCH6CHCH2CS2HCHFeSCSH3NHCHC2H6C8H4C3SHCH3SHC3HFeSH3SHCHC2H3CHCH3CH4CSCHFeH3CH2C2H2CH4CHCH3CH2CHC4HNCHS2H2CH4CH2SCH3FeH2FeSH2CH4C3H2NH10SFeSCH3SC3SHFe2SHC2HC2H2C2HC3H4C3H3C7H6NFeCHSCH9CH2SHCH6SH2CH4C2SH8SH4CFeHCH2CH2CHFeHCNC8H4C2SHC3H9CSCH6C2H3C5FeHSH2FeCH2
_chemical_formula_sum              "S128 Fe64 H1024 C576 N32"
_cell_length_a       42.7266
_cell_length_b       41.5331
_cell_length_c       47.3765
_cell_angle_alpha    89.5891
_cell_angle_beta     90.1406
_cell_angle_gamma    113.854

_space_group_name_H-M_alt    "P 1"
_space_group_IT_number       1

loop_
  _space_group_symop_operation_xyz
  'x, y, z'

loop_
  _atom_site_type_symbol
  _atom_site_label
  _atom_site_symmetry_multiplicity
  _atom_site_fract_x
  _atom_site_fract_y
  _atom_site_fract_z
  _atom_site_occupancy
  S   S1        1.0  0.44256  0.46445  0.23347  1.0000
  Fe  Fe1       1.0  0.43886  0.45655  0.18652  1.0000
  S   S2        1.0  0.38695  0.42091  0.16885  1.0000
  H   H1        1.0  0.33260  0.36888  0.13736  1.0000
  H   H2        1.0  0.21309  0.14270  0.02108  1.0000
  H   H3        1.0  0.40655  0.25091  0.11808  1.0000
  H   H4        1.0  0.25950  0.40982  0.16020  1.0000
  Fe  Fe2       1.0  0.33024  0.33395  0.01837  1.0000
  S   S3        1.0  0.37555  0.37675  0.03983  1.0000
  H   H5        1.0  0.13440  0.36490  0.17720  1.0000
  S   S4        1.0  0.28057  0.29474  0.03571  1.0000
  C   C1        1.0  0.42313  0.35688  0.20440  1.0000
  C   C2        1.0  0.99700  0.39787  0.09585  1.0000
  C   C3        1.0  0.10945  0.39945  0.16483  1.0000
  H   H6        1.0  0.45587  0.24599  0.09352  1.0000
  C   C4        1.0  0.26242  0.99587  0.09648  1.0000
  H   H7        1.0  0.45069  0.36650  0.20999  1.0000
  C   C5        1.0  0.45382  0.24467  0.11691  1.0000
  H   H8        1.0  0.37902  0.28502  0.13156  1.0000
  H   H9        1.0  0.41705  0.30268  0.16937  1.0000
  H   H10       1.0  0.21435  0.23857  0.02243  1.0000
  H   H11       1.0  0.36684  0.45814  0.21510  1.0000
  C   C6        1.0  0.44926  0.30370  0.11865  1.0000
  C   C7        1.0  0.38297  0.41034  0.13261  1.0000
  C   C8        1.0  0.40924  0.42846  0.11357  1.0000
  C   C9        1.0  0.40625  0.41818  0.08510  1.0000
  C   C10       1.0  0.37686  0.39003  0.07536  1.0000
  C   C11       1.0  0.35007  0.37266  0.09423  1.0000
  C   C12       1.0  0.35317  0.38277  0.12278  1.0000
  H   H12       1.0  0.43206  0.45008  0.12086  1.0000
  H   H13       1.0  0.42699  0.43194  0.07061  1.0000
  H   H14       1.0  0.32713  0.35131  0.08685  1.0000
  H   H15       1.0  0.36320  0.41905  0.25555  1.0000
  C   C13       1.0  0.09938  0.40591  0.19514  1.0000
  H   H16       1.0  0.31366  0.43539  0.24971  1.0000
  H   H17       1.0  0.08566  0.43755  0.29580  1.0000
  H   H18       1.0  0.09381  0.40929  0.25213  1.0000
  H   H19       1.0  0.39966  0.28420  0.07931  1.0000
  H   H20       1.0  0.12087  0.43033  0.20251  1.0000
  H   H21       1.0  0.05153  0.33722  0.18029  1.0000
  H   H22       1.0  0.20843  0.18788  0.04965  1.0000
  C   C14       1.0  0.14046  0.38993  0.16539  1.0000
  H   H23       1.0  0.14762  0.38639  0.14346  1.0000
  H   H24       1.0  0.40152  0.21741  0.01471  1.0000
  H   H25       1.0  0.36634  0.48510  0.17127  1.0000
  H   H26       1.0  0.48216  0.43519  0.11600  1.0000
  C   C15       1.0  0.36703  0.00388  0.12796  1.0000
  C   C16       1.0  0.07551  0.47370  0.13586  1.0000
  H   H27       1.0  0.46446  0.99291  0.00428  1.0000
  C   C17       1.0  0.19039  0.22570  0.03475  1.0000
  H   H28       1.0  0.48064  0.01848  0.30758  1.0000
  H   H29       1.0  0.08847  0.37817  0.15380  1.0000
  C   C18       1.0  0.14331  0.31197  0.00622  1.0000
  H   H30       1.0  0.10024  0.38466  0.20920  1.0000
  H   H31       1.0  0.21609  0.24504  0.07486  1.0000
  C   C19       1.0  0.19460  0.24612  0.06220  1.0000
  H   H32       1.0  0.17987  0.07102  0.07459  1.0000
  H   H33       1.0  0.37027  0.23182  0.02909  1.0000
  H   H34       1.0  0.43041  0.26119  0.15055  1.0000
  H   H35       1.0  0.16269  0.41124  0.17542  1.0000
  C   C20       1.0  0.41839  0.35469  0.17237  1.0000
  H   H36       1.0  0.09128  0.30764  0.01026  1.0000
  C   C21       1.0  0.36003  0.43918  0.26921  1.0000
  H   H37       1.0  0.12227  0.13301  0.03284  1.0000
  C   C22       1.0  0.27341  0.39911  0.17476  1.0000
  C   C23       1.0  0.30819  0.42772  0.18267  1.0000
  C   C24       1.0  0.34813  0.27963  0.08155  1.0000
  H   H38       1.0  0.11642  0.42358  0.15170  1.0000
  H   H39       1.0  0.28622  0.44715  0.21548  1.0000
  H   H40       1.0  0.35449  0.01647  0.14092  1.0000
  H   H41       1.0  0.10666  0.46922  0.17021  1.0000
  H   H42       1.0  0.18056  0.06567  0.03689  1.0000
  H   H43       1.0  0.16972  0.22868  0.02252  1.0000
  H   H44       1.0  0.33329  0.29481  0.08839  1.0000
  H   H45       1.0  0.45335  0.30543  0.09538  1.0000
  H   H46       1.0  0.29364  0.08847  0.02702  1.0000
  C   C25       1.0  0.18465  0.13223  0.02175  1.0000
  H   H47       1.0  0.15396  0.33546  0.01896  1.0000
  C   C26       1.0  0.45821  0.00333  0.32094  1.0000
  C   C27       1.0  0.03705  0.37350  0.20495  1.0000
  C   C28       1.0  0.36150  0.00158  0.09854  1.0000
  C   C29       1.0  0.17313  0.11236  0.05030  1.0000
  C   C30       1.0  0.07329  0.41918  0.25269  1.0000
  H   H48       1.0  0.38566  0.45918  0.27503  1.0000
  H   H49       1.0  0.04455  0.43829  0.22453  1.0000
  H   H50       1.0  0.10774  0.47014  0.26934  1.0000
  C   C31       1.0  0.37443  0.21410  0.01347  1.0000
  H   H51       1.0  0.25769  0.38817  0.19394  1.0000
  H   H52       1.0  0.34667  0.42609  0.28887  1.0000
  H   H53       1.0  0.17065  0.23522  0.07481  1.0000
  C   C32       1.0  0.38631  0.30036  0.08710  1.0000
  H   H54       1.0  0.40891  0.33077  0.21445  1.0000
  H   H55       1.0  0.34378  0.27440  0.05861  1.0000
  H   H56       1.0  0.99343  0.29115  0.17378  1.0000
  H   H57       1.0  0.21703  0.09842  0.05456  1.0000
  C   C33       1.0  0.98863  0.36495  0.08321  1.0000
  H   H58       1.0  0.41321  0.37577  0.21302  1.0000
  H   H59       1.0  0.29359  0.14180  0.05074  1.0000
  H   H60       1.0  0.44712  0.35862  0.09026  1.0000
  N   N1        1.0  0.43037  0.32574  0.12763  1.0000
  H   H61       1.0  0.28729  0.01119  0.08599  1.0000
  H   H62       1.0  0.32114  0.41536  0.19663  1.0000
  H   H63       1.0  0.06578  0.13369  0.01488  1.0000
  C   C34       1.0  0.13467  0.14528  0.01261  1.0000
  H   H64       1.0  0.43145  0.37687  0.11723  1.0000
  H   H65       1.0  0.34530  0.01288  0.08887  1.0000
  H   H66       1.0  0.39068  0.34619  0.16798  1.0000
  H   H67       1.0  0.01175  0.47576  0.06622  1.0000
  C   C35       1.0  0.18862  0.08523  0.05423  1.0000
  H   H68       1.0  0.07253  0.48119  0.18031  1.0000
  H   H69       1.0  0.43209  0.38164  0.16383  1.0000
  C   C36       1.0  0.08298  0.44821  0.27481  1.0000
  H   H70       1.0  0.25734  0.01341  0.11169  1.0000
  H   H71       1.0  0.05403  0.40888  0.15375  1.0000
  C   C37       1.0  0.28814  0.10784  0.01503  1.0000
  C   C38       1.0  0.18380  0.18663  0.04060  1.0000
  C   C39       1.0  0.05567  0.42463  0.17291  1.0000
  H   H72       1.0  0.44135  0.21654  0.12337  1.0000
  H   H73       1.0  0.42828  0.03463  0.28227  1.0000
  C   C40       1.0  0.30405  0.45890  0.19766  1.0000
  C   C41       1.0  0.07936  0.46365  0.16636  1.0000
  H   H74       1.0  0.08298  0.45756  0.12090  1.0000
  C   C42       1.0  0.43996  0.05054  0.30122  1.0000
  S   S5        1.0  0.99720  0.47670  0.17885  1.0000
  C   C43       1.0  0.10775  0.29634  0.00125  1.0000
  H   H75       1.0  0.16467  0.17669  0.05797  1.0000
  C   C44       1.0  0.28207  0.16409  0.01292  1.0000
  H   H76       1.0  0.27727  0.37738  0.16387  1.0000
  C   C45       1.0  0.43209  0.32871  0.15941  1.0000
  N   N2        1.0  0.06547  0.40895  0.19852  1.0000
  H   H77       1.0  0.29008  0.46953  0.18295  1.0000
  H   H78       1.0  0.39485  0.32488  0.07426  1.0000
  H   H79       1.0  0.08955  0.45893  0.22008  1.0000
  C   C46       1.0  0.35726  0.47553  0.22673  1.0000
  H   H80       1.0  0.11852  0.18795  0.02156  1.0000
  H   H81       1.0  0.01156  0.42158  0.08406  1.0000
  H   H82       1.0  0.02932  0.42344  0.17557  1.0000
  C   C47       1.0  0.11762  0.17037  0.00378  1.0000
  H   H83       1.0  0.38049  0.32722  0.12386  1.0000
  C   C48       1.0  0.33915  0.45646  0.25404  1.0000
  H   H84       1.0  0.04918  0.39765  0.26003  1.0000
  H   H85       1.0  0.06280  0.45859  0.27629  1.0000
  H   H86       1.0  0.32298  0.43636  0.16280  1.0000
  C   C49       1.0  0.38921  0.99057  0.14063  1.0000
  H   H87       1.0  0.33637  0.47579  0.26879  1.0000
  C   C50       1.0  0.06796  0.43277  0.22321  1.0000
  H   H88       1.0  0.20035  0.27415  0.05725  1.0000
  H   H89       1.0  0.04284  0.36184  0.22440  1.0000
  C   C51       1.0  0.28820  0.13817  0.02838  1.0000
  C   C52       1.0  0.39323  0.30926  0.11892  1.0000
  H   H90       1.0  0.46695  0.06828  0.29651  1.0000
  H   H91       1.0  0.17535  0.11172  0.00513  1.0000
  H   H92       1.0  0.00384  0.30002  0.21064  1.0000
  H   H93       1.0  0.33853  0.25393  0.09287  1.0000
  S   S6        1.0  0.28233  0.20184  0.03051  1.0000
  S   S7        1.0  0.39526  0.99350  0.17764  1.0000
  C   C53       1.0  0.44693  0.36138  0.11360  1.0000
  H   H94       1.0  0.18148  0.13056  0.06848  1.0000
  C   C54       1.0  0.43250  0.26422  0.12726  1.0000
  H   H95       1.0  0.14489  0.09805  0.05109  1.0000
  H   H96       1.0  0.45876  0.33612  0.16705  1.0000
  H   H97       1.0  0.02374  0.35332  0.16148  1.0000
  H   H98       1.0  0.41073  0.00957  0.33030  1.0000
  S   S8        1.0  0.20978  0.31880  0.00209  1.0000
  S   S9        1.0  0.28031  0.99042  0.02507  1.0000
  N   N3        1.0  0.17308  0.16156  0.01586  1.0000
  S   S10       1.0  0.00114  0.36365  0.04792  1.0000
  Fe  Fe3       1.0  0.28966  0.25413  0.00950  1.0000
  H   H99       1.0  0.04868  0.46982  0.13167  1.0000
  H   H100      1.0  0.42572  0.06703  0.30609  1.0000
  C   C55       1.0  0.98587  0.40032  0.12333  1.0000
  H   H101      1.0  0.99139  0.42576  0.13249  1.0000
  C   C56       1.0  0.99868  0.31111  0.19063  1.0000
  H   H102      1.0  0.35751  0.18653  0.01912  1.0000
  C   C57       1.0  0.43814  0.02666  0.32641  1.0000
  H   H103      1.0  0.01284  0.37674  0.20937  1.0000
  C   C58       1.0  0.02947  0.34464  0.18228  1.0000
  H   H104      1.0  0.47548  0.31442  0.12782  1.0000
  H   H105      1.0  0.47990  0.25614  0.12625  1.0000
  H   H106      1.0  0.29123  0.48476  0.25369  1.0000
  H   H107      1.0  0.24165  0.98726  0.08047  1.0000
  H   H108      1.0  0.42574  0.98837  0.37171  1.0000
  H   H109      1.0  0.00170  0.45671  0.66056  1.0000
  H   H110      1.0  0.44796  0.04351  0.34522  1.0000
  H   H111      1.0  0.14723  0.47254  0.36219  1.0000
  N   N4        1.0  0.46870  0.98916  0.34703  1.0000
  H   H112      1.0  0.47437  0.33445  0.65178  1.0000
  H   H113      1.0  0.48088  0.02758  0.38074  1.0000
  H   H114      1.0  0.46470  0.27991  0.67717  1.0000
  S   S11       1.0  0.40737  0.44739  0.84597  1.0000
  S   S12       1.0  0.44350  0.44184  0.76591  1.0000
  C   C59       1.0  0.09360  0.26603  0.98483  1.0000
  H   H115      1.0  0.33880  0.37406  0.92324  1.0000
  H   H116      1.0  0.36513  0.42895  0.89497  1.0000
  H   H117      1.0  0.10476  0.22826  0.96053  1.0000
  H   H118      1.0  0.21930  0.19122  0.99279  1.0000
  C   C60       1.0  0.32252  0.21343  0.89570  1.0000
  S   S13       1.0  0.26241  0.26215  0.97110  1.0000
  C   C61       1.0  0.18351  0.15753  0.96218  1.0000
  Fe  Fe4       1.0  0.31412  0.30381  0.95877  1.0000
  S   S14       1.0  0.33926  0.30462  0.91639  1.0000
  Fe  Fe5       1.0  0.99796  0.46286  0.80740  1.0000
  S   S15       1.0  0.30594  0.34759  0.98057  1.0000
  H   H119      1.0  0.26911  0.17811  0.97218  1.0000
  H   H120      1.0  0.38199  0.01740  0.77730  1.0000
  H   H121      1.0  0.12936  0.39148  0.94039  1.0000
  C   C62       1.0  0.10643  0.48452  0.89835  1.0000
  H   H122      1.0  0.08264  0.39637  0.97013  1.0000
  H   H123      1.0  0.39216  0.19298  0.96542  1.0000
  C   C63       1.0  0.44933  0.17367  0.72861  1.0000
  C   C64       1.0  0.99958  0.40485  0.86331  1.0000
  H   H124      1.0  0.44439  0.29448  0.87058  1.0000
  S   S16       1.0  0.01139  0.31956  0.98031  1.0000
  H   H125      1.0  0.13001  0.18637  0.98497  1.0000
  H   H126      1.0  0.19318  0.13652  0.96411  1.0000
  H   H127      1.0  0.45600  0.29588  0.90734  1.0000
  H   H128      1.0  0.38434  0.25069  0.97917  1.0000
  S   S17       1.0  0.45040  0.99324  0.75055  1.0000
  C   C65       1.0  0.39427  0.24239  0.92571  1.0000
  C   C66       1.0  0.40984  0.25040  0.89556  1.0000
  H   H129      1.0  0.46148  0.44080  0.89313  1.0000
  H   H130      1.0  0.32533  0.19421  0.88094  1.0000
  H   H131      1.0  0.04284  0.41297  0.89027  1.0000
  C   C67       1.0  0.36808  0.19679  0.96171  1.0000
  C   C68       1.0  0.11546  0.25157  0.97345  1.0000
  C   C69       1.0  0.28553  0.20979  0.89360  1.0000
  H   H132      1.0  0.39284  0.04507  0.86455  1.0000
  C   C70       1.0  0.38974  0.40752  0.86541  1.0000
  C   C71       1.0  0.39482  0.37752  0.85777  1.0000
  C   C72       1.0  0.37913  0.34607  0.87349  1.0000
  C   C73       1.0  0.35899  0.34464  0.89730  1.0000
  C   C74       1.0  0.35444  0.37484  0.90514  1.0000
  C   C75       1.0  0.36946  0.40597  0.88909  1.0000
  H   H133      1.0  0.41014  0.37832  0.83941  1.0000
  H   H134      1.0  0.38232  0.32270  0.86696  1.0000
  N   N5        1.0  0.09227  0.32786  0.90987  1.0000
  C   C76       1.0  0.12714  0.32688  0.91230  1.0000
  C   C77       1.0  0.08339  0.34082  0.93724  1.0000
  C   C78       1.0  0.06647  0.29052  0.90522  1.0000
  C   C79       1.0  0.08979  0.34981  0.88513  1.0000
  C   C80       1.0  0.11512  0.38891  0.88464  1.0000
  C   C81       1.0  0.13934  0.31197  0.88669  1.0000
  C   C82       1.0  0.02811  0.28457  0.90585  1.0000
  C   C83       1.0  0.36619  0.22330  0.98386  1.0000
  C   C84       1.0  0.20121  0.18000  0.93654  1.0000
  C   C85       1.0  0.11252  0.40661  0.85683  1.0000
  C   C86       1.0  0.17563  0.31437  0.89150  1.0000
  H   H135      1.0  0.31084  0.18268  0.93421  1.0000
  H   H136      1.0  0.12768  0.31084  0.93117  1.0000
  H   H137      1.0  0.14734  0.35345  0.91619  1.0000
  H   H138      1.0  0.42565  0.17291  0.71830  1.0000
  H   H139      1.0  0.48167  0.24297  0.72222  1.0000
  H   H140      1.0  0.07008  0.27255  0.92128  1.0000
  H   H141      1.0  0.07045  0.28072  0.88434  1.0000
  H   H142      1.0  0.09216  0.33754  0.86490  1.0000
  H   H143      1.0  0.06397  0.35032  0.88436  1.0000
  H   H144      1.0  0.14198  0.39197  0.88699  1.0000
  H   H145      1.0  0.10857  0.40328  0.90168  1.0000
  H   H146      1.0  0.12270  0.28374  0.88347  1.0000
  H   H147      1.0  0.13956  0.32690  0.86713  1.0000
  H   H148      1.0  0.02195  0.29921  0.88859  1.0000
  H   H149      1.0  0.02115  0.29293  0.92615  1.0000
  H   H150      1.0  0.01164  0.36133  0.92126  1.0000
  C   C87       1.0  0.27454  0.15875  0.98418  1.0000
  C   C88       1.0  0.27380  0.12814  0.97097  1.0000
  H   H151      1.0  0.34680  0.17130  0.96729  1.0000
  H   H152      1.0  0.15567  0.14535  0.95766  1.0000
  H   H153      1.0  0.19437  0.48113  0.73525  1.0000
  H   H154      1.0  0.08613  0.40504  0.85369  1.0000
  C   C89       1.0  0.09973  0.38410  0.97815  1.0000
  H   H155      1.0  0.19399  0.34224  0.89389  1.0000
  H   H156      1.0  0.17662  0.29935  0.91077  1.0000
  H   H157      1.0  0.18375  0.30309  0.87316  1.0000
  H   H158      1.0  0.45284  0.18740  0.74917  1.0000
  C   C90       1.0  0.34406  0.14024  0.91738  1.0000
  C   C91       1.0  0.28118  0.10281  0.98614  1.0000
  N   N6        1.0  0.36593  0.20637  0.93112  1.0000
  S   S18       1.0  0.02238  0.44248  0.84229  1.0000
  H   H159      1.0  0.12155  0.40443  0.98939  1.0000
  H   H160      1.0  0.01222  0.46052  0.90341  1.0000
  H   H161      1.0  0.37094  0.18479  0.89050  1.0000
  C   C92       1.0  0.07985  0.14989  0.99656  1.0000
  H   H162      1.0  0.42318  0.47433  0.91584  1.0000
  H   H163      1.0  0.28000  0.21519  0.87157  1.0000
  Fe  Fe6       1.0  0.25628  0.30522  0.99625  1.0000
  Fe  Fe7       1.0  0.00743  0.26481  0.98937  1.0000
  C   C93       1.0  0.43418  0.28917  0.89245  1.0000
  H   H164      1.0  0.42052  0.30642  0.89674  1.0000
  S   S19       1.0  0.28223  0.06623  0.96756  1.0000
  H   H165      1.0  0.13041  0.43483  0.85716  1.0000
  C   C94       1.0  0.15107  0.26711  0.97855  1.0000
  H   H166      1.0  0.32891  0.22864  0.93907  1.0000
  H   H167      1.0  0.12995  0.35734  0.96320  1.0000
  H   H168      1.0  0.07703  0.13255  0.97812  1.0000
  S   S20       1.0  0.04899  0.24549  0.97774  1.0000
  H   H169      1.0  0.31772  0.13817  0.91346  1.0000
  H   H170      1.0  0.33904  0.24053  0.88873  1.0000
  C   C95       1.0  0.33139  0.20731  0.92638  1.0000
  H   H171      1.0  0.44620  0.14615  0.73274  1.0000
  H   H172      1.0  0.46248  0.22750  0.68927  1.0000
  H   H173      1.0  0.34527  0.13029  0.93897  1.0000
  C   C96       1.0  0.44279  0.47706  0.93235  1.0000
  H   H174      1.0  0.37642  0.11561  0.90035  1.0000
  H   H175      1.0  0.26748  0.18270  0.89952  1.0000
  S   S21       1.0  0.43485  0.02748  0.82571  1.0000
  H   H176      1.0  0.35193  0.01083  0.90197  1.0000
  Fe  Fe8       1.0  0.44657  0.46220  0.81035  1.0000
  C   C97       1.0  0.37087  0.17871  0.91333  1.0000
  H   H177      1.0  0.34811  0.12260  0.87474  1.0000
  H   H178      1.0  0.01008  0.23590  0.88161  1.0000
  C   C98       1.0  0.99873  0.36734  0.90367  1.0000
  S   S22       1.0  0.34031  0.01252  0.97615  1.0000
  H   H179      1.0  0.33134  0.08793  0.90075  1.0000
  H   H180      1.0  0.19212  0.20128  0.93299  1.0000
  C   C99       1.0  0.38919  0.01819  0.86893  1.0000
  Fe  Fe9       1.0  0.46329  0.00514  0.79657  1.0000
  H   H181      1.0  0.16760  0.25588  0.96955  1.0000
  H   H182      1.0  0.26769  0.12408  0.94875  1.0000
  H   H183      1.0  0.11315  0.46755  0.91326  1.0000
  C   C100      1.0  0.19109  0.18015  0.98931  1.0000
  H   H184      1.0  0.47866  0.43601  0.92612  1.0000
  H   H185      1.0  0.41655  0.24680  0.93982  1.0000
  C   C101      1.0  0.00487  0.24566  0.90207  1.0000
  C   C102      1.0  0.11315  0.36921  0.95387  1.0000
  C   C103      1.0  0.39553  0.43760  0.96530  1.0000
  H   H186      1.0  0.19542  0.16328  0.91741  1.0000
  H   H187      1.0  0.11941  0.39389  0.83873  1.0000
  H   H188      1.0  0.18519  0.20319  0.98427  1.0000
  H   H189      1.0  0.00873  0.22969  0.91958  1.0000
  H   H190      1.0  0.06320  0.35089  0.93352  1.0000
  H   H191      1.0  0.28141  0.22909  0.90761  1.0000
  H   H192      1.0  0.39002  0.24437  0.87902  1.0000
  H   H193      1.0  0.40156  0.45837  0.98158  1.0000
  C   C104      1.0  0.35054  0.11525  0.89697  1.0000
  H   H194      1.0  0.09221  0.46815  0.88028  1.0000
  Fe  Fe10      1.0  0.28980  0.01702  0.98234  1.0000
  H   H195      1.0  0.22937  0.19192  0.93961  1.0000
  H   H196      1.0  0.37574  0.43907  0.95072  1.0000
  H   H197      1.0  0.38547  0.26348  0.93120  1.0000
  H   H198      1.0  0.39658  0.17881  0.91764  1.0000
  H   H199      1.0  0.07220  0.31851  0.95250  1.0000
  H   H200      1.0  0.42484  0.23445  0.89137  1.0000
  H   H201      1.0  0.33993  0.22247  0.98442  1.0000
  H   H202      1.0  0.42050  0.41923  0.93414  1.0000
  C   C105      1.0  0.36602  0.99886  0.89015  1.0000
  C   C106      1.0  0.40728  0.00281  0.85312  1.0000
  C   C107      1.0  0.01631  0.39655  0.88606  1.0000
  H   H203      1.0  0.99751  0.47814  0.93288  1.0000
  H   H204      1.0  0.44621  0.43909  0.96433  1.0000
  C   C108      1.0  0.42777  0.44166  0.94903  1.0000
  H   H205      1.0  0.06814  0.16866  0.99111  1.0000
  H   H206      1.0  0.13092  0.45500  0.74089  1.0000
  S   S23       1.0  0.99195  0.44705  0.76177  1.0000
  H   H207      1.0  0.38484  0.41155  0.97613  1.0000
  H   H208      1.0  0.08546  0.36297  0.99354  1.0000
  H   H209      1.0  0.28914  0.46089  0.73774  1.0000
  H   H210      1.0  0.24373  0.47654  0.71785  1.0000
  C   C109      1.0  0.16518  0.29741  0.99508  1.0000
  H   H211      1.0  0.06200  0.47846  0.92249  1.0000
  H   H212      1.0  0.24289  0.47624  0.75564  1.0000
  H   H213      1.0  0.13651  0.47853  0.77392  1.0000
  C   C110      1.0  0.13341  0.48011  0.75074  1.0000
  H   H214      1.0  0.99544  0.39757  0.67998  1.0000
  H   H215      1.0  0.47575  0.17656  0.68987  1.0000
  C   C111      1.0  0.48039  0.19212  0.70956  1.0000
  S   S24       1.0  0.34144  0.29269  0.99552  1.0000
  C   C112      1.0  0.99749  0.47590  0.90959  1.0000
  H   H216      1.0  0.12677  0.12313  0.99737  1.0000
  H   H217      1.0  0.10941  0.48379  0.74669  1.0000
  H   H218      1.0  0.19842  0.48454  0.69001  1.0000
  H   H219      1.0  0.48097  0.99197  0.95308  1.0000
  H   H220      1.0  0.34109  0.99175  0.76146  1.0000
  C   C113      1.0  0.36623  0.99171  0.76742  1.0000
  H   H221      1.0  0.37953  0.98899  0.74807  1.0000
  H   H222      1.0  0.98596  0.46142  0.69422  1.0000
  C   C114      1.0  0.48203  0.45507  0.90871  1.0000
  H   H223      1.0  0.32212  0.93164  0.11693  1.0000
  C   C115      1.0  0.46985  0.81867  0.23906  1.0000
  C   C116      1.0  0.32881  0.51708  0.22164  1.0000
  S   S25       1.0  0.28963  0.62787  0.29912  1.0000
  H   H224      1.0  0.39804  0.68774  0.29192  1.0000
  S   S26       1.0  0.45816  0.56713  0.23957  1.0000
  C   C117      1.0  0.40538  0.69275  0.24707  1.0000
  S   S27       1.0  0.44049  0.92822  0.19677  1.0000
  Fe  Fe11      1.0  0.44855  0.93298  0.24389  1.0000
  S   S28       1.0  0.42952  0.89267  0.28049  1.0000
  H   H225      1.0  0.33556  0.87138  0.16986  1.0000
  H   H226      1.0  0.33109  0.91212  0.17589  1.0000
  H   H227      1.0  0.42807  0.76810  0.23692  1.0000
  H   H228      1.0  0.35285  0.65541  0.25525  1.0000
  C   C118      1.0  0.11557  0.65494  0.04914  1.0000
  H   H229      1.0  0.30609  0.86461  0.12375  1.0000
  C   C119      1.0  0.08853  0.61957  0.05921  1.0000
  C   C120      1.0  0.10368  0.68519  0.05401  1.0000
  H   H230      1.0  0.41172  0.95883  0.08161  1.0000
  N   N7        1.0  0.44601  0.73351  0.28561  1.0000
  H   H231      1.0  0.26692  0.52799  0.26444  1.0000
  Fe  Fe12      1.0  0.32855  0.98208  0.01715  1.0000
  H   H232      1.0  0.27946  0.86583  0.15277  1.0000
  H   H233      1.0  0.06614  0.71929  0.07766  1.0000
  C   C121      1.0  0.41004  0.70993  0.27666  1.0000
  C   C122      1.0  0.37494  0.79290  0.31082  1.0000
  C   C123      1.0  0.03340  0.52570  0.08702  1.0000
  H   H234      1.0  0.00416  0.56384  0.15116  1.0000
  H   H235      1.0  0.16929  0.87324  0.13728  1.0000
  H   H236      1.0  0.14708  0.71371  0.09183  1.0000
  H   H237      1.0  0.10408  0.73903  0.09851  1.0000
  H   H238      1.0  0.47012  0.76793  0.23264  1.0000
  H   H239      1.0  0.41875  0.71201  0.23031  1.0000
  H   H240      1.0  0.41244  0.53512  0.14488  1.0000
  C   C124      1.0  0.15511  0.56659  0.29848  1.0000
  C   C125      1.0  0.16264  0.56623  0.26975  1.0000
  C   C126      1.0  0.13595  0.55150  0.24977  1.0000
  C   C127      1.0  0.10124  0.53696  0.25801  1.0000
  C   C128      1.0  0.09370  0.53728  0.28675  1.0000
  C   C129      1.0  0.12039  0.55191  0.30674  1.0000
  C   C130      1.0  0.33334  0.89434  0.15933  1.0000
  C   C131      1.0  0.11348  0.81347  0.00992  1.0000
  H   H241      1.0  0.06729  0.52628  0.29360  1.0000
  H   H242      1.0  0.36996  0.78015  0.33130  1.0000
  C   C132      1.0  0.37454  0.57128  0.29986  1.0000
  C   C133      1.0  0.38845  0.59654  0.27852  1.0000
  C   C134      1.0  0.41327  0.59432  0.25983  1.0000
  C   C135      1.0  0.42446  0.56679  0.26204  1.0000
  C   C136      1.0  0.40988  0.54106  0.28291  1.0000
  C   C137      1.0  0.38511  0.54328  0.30161  1.0000
  H   H243      1.0  0.42410  0.61421  0.24365  1.0000
  H   H244      1.0  0.41863  0.52015  0.28530  1.0000
  C   C138      1.0  0.47266  0.72196  0.27395  1.0000
  C   C139      1.0  0.35966  0.77340  0.28679  1.0000
  C   C140      1.0  0.36631  0.79075  0.26040  1.0000
  C   C141      1.0  0.38749  0.82706  0.25800  1.0000
  C   C142      1.0  0.40257  0.84664  0.28204  1.0000
  C   C143      1.0  0.39628  0.82919  0.30841  1.0000
  H   H245      1.0  0.35470  0.77603  0.24164  1.0000
  H   H246      1.0  0.39201  0.83992  0.23756  1.0000
  C   C144      1.0  0.39949  0.97178  0.09443  1.0000
  H   H247      1.0  0.16878  0.83184  0.12485  1.0000
  H   H248      1.0  0.46770  0.82364  0.21622  1.0000
  H   H249      1.0  0.20203  0.86213  0.08244  1.0000
  Fe  Fe13      1.0  0.00088  0.66484  0.03329  1.0000
  C   C145      1.0  0.37768  0.98539  0.08166  1.0000
  H   H250      1.0  0.28882  0.86296  0.02950  1.0000
  H   H251      1.0  0.05858  0.53166  0.07693  1.0000
  C   C146      1.0  0.14003  0.84366  0.02120  1.0000
  S   S29       1.0  0.46514  0.51389  0.17599  1.0000
  H   H252      1.0  0.45452  0.94739  0.00716  1.0000
  C   C147      1.0  0.09071  0.74271  0.07948  1.0000
  H   H253      1.0  0.14748  0.85435  0.10501  1.0000
  H   H254      1.0  0.46235  0.94027  0.32708  1.0000
  H   H255      1.0  0.13682  0.85310  0.04174  1.0000
  Fe  Fe14      1.0  0.43694  0.98084  0.19873  1.0000
  H   H256      1.0  0.40998  0.53029  0.19776  1.0000
  H   H257      1.0  0.14230  0.55154  0.22769  1.0000
  H   H258      1.0  0.06406  0.61327  0.04772  1.0000
  C   C148      1.0  0.44810  0.73263  0.31748  1.0000
  H   H259      1.0  0.16610  0.78299  0.01544  1.0000
  C   C149      1.0  0.17372  0.76079  0.01231  1.0000
  H   H260      1.0  0.22731  0.76639  0.08761  1.0000
  S   S30       1.0  0.00782  0.72112  0.02610  1.0000
  H   H261      1.0  0.38701  0.55808  0.19872  1.0000
  H   H262      1.0  0.09311  0.68146  0.07583  1.0000
  Fe  Fe15      1.0  0.47137  0.52183  0.22320  1.0000
  Fe  Fe16      1.0  0.31783  0.61128  0.33245  1.0000
  H   H263      1.0  0.09007  0.80013  0.02163  1.0000
  H   H264      1.0  0.22057  0.79935  0.10817  1.0000
  H   H265      1.0  0.32923  0.89924  0.08239  1.0000
  S   S31       1.0  0.33239  0.72746  0.28819  1.0000
  S   S32       1.0  0.01890  0.64716  0.07334  1.0000
  H   H266      1.0  0.38033  0.61793  0.27671  1.0000
  H   H267      1.0  0.10547  0.79905  0.08537  1.0000
  C   C150      1.0  0.45481  0.77900  0.24488  1.0000
  N   N8        1.0  0.13039  0.72230  0.05015  1.0000
  S   S33       1.0  0.06880  0.51799  0.23157  1.0000
  H   H268      1.0  0.08158  0.68051  0.03970  1.0000
  H   H269      1.0  0.47151  0.72055  0.25060  1.0000
  C   C151      1.0  0.15794  0.72925  0.07225  1.0000
  C   C152      1.0  0.17726  0.76798  0.08214  1.0000
  H   H270      1.0  0.02948  0.55051  0.08826  1.0000
  H   H271      1.0  0.45586  0.83157  0.25107  1.0000
  C   C153      1.0  0.00494  0.49854  0.06954  1.0000
  H   H272      1.0  0.27259  0.49558  0.22294  1.0000
  C   C154      1.0  0.20825  0.77200  0.10026  1.0000
  H   H273      1.0  0.39074  0.56457  0.14670  1.0000
  H   H274      1.0  0.03740  0.61476  0.12022  1.0000
  H   H275      1.0  0.13061  0.77464  0.05045  1.0000
  H   H276      1.0  0.44417  0.66627  0.28670  1.0000
  C   C155      1.0  0.29191  0.53670  0.25335  1.0000
  C   C156      1.0  0.08189  0.77445  0.08402  1.0000
  H   H277      1.0  0.43248  0.57689  0.16239  1.0000
  H   H278      1.0  0.09445  0.74262  0.03412  1.0000
  H   H279      1.0  0.17726  0.71959  0.06473  1.0000
  H   H280      1.0  0.16026  0.77614  0.09519  1.0000
  H   H281      1.0  0.48028  0.78865  0.28567  1.0000
  H   H282      1.0  0.13975  0.65984  0.06058  1.0000
  H   H283      1.0  0.41561  0.67211  0.24691  1.0000
  C   C157      1.0  0.40760  0.55450  0.15827  1.0000
  H   H284      1.0  0.42236  0.96397  0.13326  1.0000
  S   S34       1.0  0.34390  0.57316  0.32475  1.0000
  H   H285      1.0  0.44171  0.98112  0.30735  1.0000
  C   C158      1.0  0.99145  0.57179  0.13442  1.0000
  C   C159      1.0  0.45482  0.77128  0.27689  1.0000
  H   H286      1.0  0.36465  0.66179  0.21846  1.0000
  H   H287      1.0  0.20031  0.75383  0.11873  1.0000
  H   H288      1.0  0.44062  0.70507  0.32510  1.0000
  H   H289      1.0  0.23877  0.95104  0.12322  1.0000
  H   H290      1.0  0.15620  0.70565  0.01763  1.0000
  H   H291      1.0  0.20164  0.90311  0.09403  1.0000
  H   H292      1.0  0.08383  0.62018  0.08222  1.0000
  N   N9        1.0  0.26894  0.90474  0.10473  1.0000
  C   C160      1.0  0.27273  0.88178  0.08158  1.0000
  C   C161      1.0  0.23516  0.88497  0.11936  1.0000
  C   C162      1.0  0.27043  0.93859  0.09167  1.0000
  H   H293      1.0  0.29605  0.95366  0.08222  1.0000
  C   C163      1.0  0.30214  0.88183  0.13986  1.0000
  C   C164      1.0  0.30827  0.89504  0.06712  1.0000
  C   C165      1.0  0.36753  0.67525  0.23907  1.0000
  C   C166      1.0  0.20271  0.87812  0.10129  1.0000
  C   C167      1.0  0.17016  0.85810  0.11827  1.0000
  H   H294      1.0  0.18905  0.57737  0.26291  1.0000
  C   C168      1.0  0.30952  0.86857  0.04538  1.0000
  H   H295      1.0  0.29401  0.55811  0.23830  1.0000
  H   H296      1.0  0.25398  0.87891  0.06436  1.0000
  H   H297      1.0  0.26636  0.85459  0.08949  1.0000
  H   H298      1.0  0.23332  0.85877  0.12666  1.0000
  H   H299      1.0  0.23341  0.89864  0.13903  1.0000
  H   H300      1.0  0.25246  0.93310  0.07349  1.0000
  H   H301      1.0  0.32797  0.53665  0.20574  1.0000
  H   H302      1.0  0.40768  0.84395  0.32719  1.0000
  C   C169      1.0  0.11230  0.74677  0.05231  1.0000
  H   H303      1.0  0.43611  0.78085  0.28583  1.0000
  H   H304      1.0  0.09745  0.59836  0.05517  1.0000
  H   H305      1.0  0.31358  0.92019  0.05598  1.0000
  C   C170      1.0  0.29729  0.91358  0.12622  1.0000
  H   H306      1.0  0.35713  0.90863  0.14705  1.0000
  H   H307      1.0  0.11949  0.65215  0.02628  1.0000
  C   C171      1.0  0.42513  0.74705  0.33390  1.0000
  H   H308      1.0  0.29293  0.92859  0.14402  1.0000
  C   C172      1.0  0.39127  0.53768  0.18630  1.0000
  H   H309      1.0  0.18634  0.78690  0.06437  1.0000
  H   H310      1.0  0.34981  0.53237  0.23648  1.0000
  H   H311      1.0  0.35652  0.69528  0.23721  1.0000
  H   H312      1.0  0.33451  0.87971  0.03418  1.0000
  C   C173      1.0  0.01022  0.60053  0.11679  1.0000
  H   H313      1.0  0.37457  0.52353  0.31797  1.0000
  H   H314      1.0  0.48076  0.66666  0.24506  1.0000
  H   H315      1.0  0.30681  0.84361  0.05591  1.0000
  S   S35       1.0  0.20414  0.89846  0.02209  1.0000
  H   H316      1.0  0.00472  0.51077  0.04873  1.0000
  H   H317      1.0  0.06568  0.77682  0.06645  1.0000
  H   H318      1.0  0.47383  0.90583  0.00690  1.0000
  H   H319      1.0  0.39370  0.72490  0.27740  1.0000
  H   H320      1.0  0.06726  0.77095  0.10398  1.0000
  H   H321      1.0  0.12378  0.71873  0.00486  1.0000
  Fe  Fe17      1.0  0.31278  0.68136  0.32013  1.0000
  H   H322      1.0  0.19710  0.76538  0.02483  1.0000
  H   H323      1.0  0.11401  0.55205  0.32879  1.0000
  H   H324      1.0  0.48207  0.68949  0.30692  1.0000
  C   C174      1.0  0.14482  0.72511  0.02072  1.0000
  H   H325      1.0  0.31248  0.54721  0.26934  1.0000
  H   H326      1.0  0.43464  0.77604  0.33140  1.0000
  S   S36       1.0  0.37295  0.98282  0.04450  1.0000
  C   C175      1.0  0.29443  0.50564  0.23792  1.0000
  Fe  Fe18      1.0  0.24640  0.61420  0.33039  1.0000
  C   C176      1.0  0.47094  0.68611  0.28535  1.0000
  H   H327      1.0  0.34228  0.51100  0.16542  1.0000
  S   S37       1.0  0.44071  0.98348  0.24629  1.0000
  C   C177      1.0  0.40545  0.97453  0.12371  1.0000
  H   H328      1.0  0.47003  0.93663  0.05122  1.0000
  S   S38       1.0  0.18761  0.58429  0.32506  1.0000
  H   H329      1.0  0.39827  0.73479  0.32639  1.0000
  C   C178      1.0  0.35792  0.50433  0.18146  1.0000
  C   C179      1.0  0.26358  0.96411  0.11215  1.0000
  C   C180      1.0  0.99406  0.61097  0.09487  1.0000
  H   H330      1.0  0.47499  0.74759  0.32462  1.0000
  H   H331      1.0  0.38088  0.49785  0.23380  1.0000
  H   H332      1.0  0.28422  0.97433  0.12816  1.0000
  C   C181      1.0  0.17057  0.86183  0.00606  1.0000
  Fe  Fe19      1.0  0.25263  0.93957  0.00122  1.0000
  H   H333      1.0  0.03383  0.51570  0.10876  1.0000
  N   N10       1.0  0.33663  0.48851  0.20745  1.0000
  C   C182      1.0  0.48100  0.96489  0.05661  1.0000
  Fe  Fe20      1.0  0.01005  0.48997  0.22503  1.0000
  H   H334      1.0  0.46722  0.95285  0.10074  1.0000
  H   H335      1.0  0.09226  0.50190  0.13222  1.0000
  H   H336      1.0  0.46062  0.97477  0.05360  1.0000
  H   H337      1.0  0.40931  0.80630  0.55142  1.0000
  H   H338      1.0  0.47594  0.80771  0.63089  1.0000
  H   H339      1.0  0.44781  0.75649  0.60036  1.0000
  C   C183      1.0  0.23442  0.55923  0.48692  1.0000
  Fe  Fe21      1.0  0.29659  0.64879  0.38072  1.0000
  S   S39       1.0  0.29336  0.66337  0.42798  1.0000
  H   H340      1.0  0.20177  0.62350  0.37786  1.0000
  C   C184      1.0  0.19571  0.61000  0.42281  1.0000
  H   H341      1.0  0.16576  0.56856  0.65737  1.0000
  S   S40       1.0  0.28182  0.60710  0.64216  1.0000
  H   H342      1.0  0.41557  0.83385  0.50204  1.0000
  Fe  Fe22      1.0  0.33163  0.70878  0.65264  1.0000
  S   S41       1.0  0.35567  0.67435  0.63355  1.0000
  S   S42       1.0  0.34326  0.66523  0.35209  1.0000
  Fe  Fe23      1.0  0.30635  0.64926  0.60847  1.0000
  S   S43       1.0  0.31049  0.63580  0.56111  1.0000
  H   H343      1.0  0.43133  0.80321  0.48697  1.0000
  S   S44       1.0  0.28317  0.68499  0.62656  1.0000
  H   H344      1.0  0.39091  0.59047  0.66182  1.0000
  H   H345      1.0  0.13551  0.50207  0.40353  1.0000
  H   H346      1.0  0.41217  0.92219  0.42757  1.0000
  H   H347      1.0  0.44401  0.92533  0.38407  1.0000
  C   C185      1.0  0.05009  0.56312  0.64876  1.0000
  C   C186      1.0  0.21230  0.57474  0.47133  1.0000
  H   H348      1.0  0.19764  0.68035  0.38057  1.0000
  H   H349      1.0  0.21982  0.53063  0.49088  1.0000
  H   H350      1.0  0.06179  0.55206  0.42705  1.0000
  H   H351      1.0  0.39306  0.80582  0.47324  1.0000
  C   C187      1.0  0.29820  0.65489  0.46486  1.0000
  C   C188      1.0  0.31296  0.63204  0.47412  1.0000
  C   C189      1.0  0.31600  0.62625  0.50341  1.0000
  C   C190      1.0  0.30436  0.64304  0.52419  1.0000
  C   C191      1.0  0.28936  0.66567  0.51491  1.0000
  C   C192      1.0  0.28653  0.67165  0.48564  1.0000
  H   H352      1.0  0.32215  0.61882  0.45872  1.0000
  H   H353      1.0  0.32766  0.60866  0.51001  1.0000
  H   H354      1.0  0.27988  0.67860  0.53029  1.0000
  H   H355      1.0  0.27495  0.68931  0.47903  1.0000
  S   S45       1.0  0.27300  0.59391  0.36292  1.0000
  H   H356      1.0  0.08334  0.55568  0.46038  1.0000
  H   H357      1.0  0.24259  0.57256  0.50757  1.0000
  H   H358      1.0  0.14729  0.57082  0.45970  1.0000
  N   N11       1.0  0.38967  0.75078  0.56253  1.0000
  C   C193      1.0  0.35105  0.73540  0.56186  1.0000
  C   C194      1.0  0.40143  0.72154  0.55743  1.0000
  C   C195      1.0  0.40066  0.76441  0.59203  1.0000
  C   C196      1.0  0.33429  0.76041  0.57157  1.0000
  C   C197      1.0  0.43957  0.77856  0.59850  1.0000
  C   C198      1.0  0.39460  0.70479  0.52775  1.0000
  C   C199      1.0  0.40234  0.67195  0.52695  1.0000
  C   C200      1.0  0.29729  0.74780  0.56143  1.0000
  H   H359      1.0  0.46309  0.96602  0.40338  1.0000
  H   H360      1.0  0.34043  0.71162  0.57574  1.0000
  H   H361      1.0  0.34120  0.72553  0.54059  1.0000
  H   H362      1.0  0.42952  0.73103  0.56019  1.0000
  H   H363      1.0  0.38964  0.70013  0.57341  1.0000
  H   H364      1.0  0.38729  0.74350  0.60790  1.0000
  H   H365      1.0  0.39286  0.78634  0.59676  1.0000
  H   H366      1.0  0.33394  0.76115  0.59500  1.0000
  H   H367      1.0  0.34868  0.78772  0.56384  1.0000
  H   H368      1.0  0.38537  0.65159  0.54183  1.0000
  H   H369      1.0  0.36773  0.69682  0.52117  1.0000
  H   H370      1.0  0.41152  0.72375  0.51200  1.0000
  H   H371      1.0  0.39756  0.66073  0.50535  1.0000
  H   H372      1.0  0.42947  0.67850  0.53258  1.0000
  C   C201      1.0  0.20193  0.55791  0.44167  1.0000
  H   H373      1.0  0.28195  0.72069  0.56929  1.0000
  H   H374      1.0  0.28576  0.76549  0.56967  1.0000
  H   H375      1.0  0.29623  0.74807  0.53800  1.0000
  H   H376      1.0  0.13895  0.51008  0.35152  1.0000
  H   H377      1.0  0.12197  0.59302  0.42303  1.0000
  H   H378      1.0  0.44093  0.82094  0.62627  1.0000
  H   H379      1.0  0.18955  0.52898  0.44530  1.0000
  H   H380      1.0  0.18960  0.62169  0.44201  1.0000
  H   H381      1.0  0.22407  0.61921  0.42279  1.0000
  H   H382      1.0  0.25771  0.56321  0.47446  1.0000
  C   C202      1.0  0.11605  0.56445  0.42325  1.0000
  C   C203      1.0  0.38615  0.77885  0.51361  1.0000
  H   H383      1.0  0.18768  0.67421  0.41774  1.0000
  S   S46       1.0  0.26782  0.66856  0.34949  1.0000
  C   C204      1.0  0.44806  0.79800  0.62667  1.0000
  H   H384      1.0  0.13511  0.52914  0.44400  1.0000
  C   C205      1.0  0.02598  0.52419  0.64668  1.0000
  H   H385      1.0  0.16056  0.56352  0.38104  1.0000
  C   C206      1.0  0.40800  0.80725  0.49277  1.0000
  H   H386      1.0  0.16083  0.61806  0.39110  1.0000
  H   H387      1.0  0.22614  0.56310  0.42989  1.0000
  C   C207      1.0  0.40889  0.93745  0.40929  1.0000
  H   H388      1.0  0.17831  0.50337  0.40399  1.0000
  Fe  Fe24      1.0  0.26189  0.64443  0.66174  1.0000
  H   H389      1.0  0.45490  0.79700  0.58180  1.0000
  H   H390      1.0  0.20237  0.49075  0.63844  1.0000
  C   C208      1.0  0.43659  0.96973  0.36410  1.0000
  H   H391      1.0  0.43412  0.78007  0.64422  1.0000
  C   C209      1.0  0.16115  0.51395  0.39355  1.0000
  H   H392      1.0  0.38585  0.92031  0.39729  1.0000
  C   C210      1.0  0.08170  0.54616  0.43834  1.0000
  C   C211      1.0  0.42534  0.73970  0.36555  1.0000
  H   H393      1.0  0.11251  0.55447  0.40134  1.0000
  H   H394      1.0  0.45156  0.75327  0.37427  1.0000
  H   H395      1.0  0.22551  0.53765  0.64130  1.0000
  H   H396      1.0  0.22726  0.60359  0.46968  1.0000
  H   H397      1.0  0.37829  0.75312  0.50306  1.0000
  C   C212      1.0  0.20160  0.66793  0.40033  1.0000
  C   C213      1.0  0.17624  0.55472  0.39523  1.0000
  H   H398      1.0  0.41637  0.95035  0.35056  1.0000
  C   C214      1.0  0.18832  0.62813  0.39638  1.0000
  H   H399      1.0  0.18957  0.56985  0.48470  1.0000
  H   H400      1.0  0.07470  0.56776  0.63812  1.0000
  C   C215      1.0  0.40579  0.78070  0.54168  1.0000
  H   H401      1.0  0.43212  0.78345  0.53629  1.0000
  N   N12       1.0  0.17898  0.57019  0.42435  1.0000
  H   H402      1.0  0.22944  0.67926  0.40516  1.0000
  H   H403      1.0  0.36257  0.78317  0.51759  1.0000
  C   C216      1.0  0.14469  0.55773  0.43893  1.0000
  H   H404      1.0  0.20201  0.56489  0.38516  1.0000
  H   H405      1.0  0.02137  0.51756  0.62399  1.0000
  H   H406      1.0  0.40807  0.74954  0.37660  1.0000
  C   C217      1.0  0.44070  0.94943  0.39052  1.0000
  S   S47       1.0  0.36014  0.76938  0.65411  1.0000
  H   H407      1.0  0.40490  0.96052  0.41747  1.0000
  H   H408      1.0  0.03867  0.57993  0.63846  1.0000
  H   H409      1.0  0.41610  0.71099  0.36977  1.0000
  C   C218      1.0  0.20631  0.51395  0.65178  1.0000
  C   C219      1.0  0.15720  0.50170  0.36289  1.0000
  H   H410      1.0  0.18162  0.51681  0.65333  1.0000
  H   H411      1.0  0.03985  0.50910  0.65582  1.0000
  H   H412      1.0  0.39538  0.84479  0.65102  1.0000
  H   H413      1.0  0.07373  0.51716  0.43854  1.0000
  C   C220      1.0  0.99189  0.51642  0.66265  1.0000
  H   H414      1.0  0.18230  0.51288  0.35184  1.0000
  C   C221      1.0  0.48257  0.96248  0.33840  1.0000
  H   H415      1.0  0.42775  0.55723  0.66720  1.0000
  H   H416      1.0  0.24763  0.64223  0.74725  1.0000
  S   S48       1.0  0.30903  0.67132  0.68841  1.0000
  H   H417      1.0  0.99424  0.52476  0.89847  1.0000
  H   H418      1.0  0.44132  0.64731  0.78806  1.0000
  S   S49       1.0  0.44192  0.52011  0.71356  1.0000
  C   C222      1.0  0.02698  0.55852  0.94824  1.0000
  Fe  Fe25      1.0  0.46464  0.94678  0.75718  1.0000
  S   S50       1.0  0.43281  0.88760  0.74826  1.0000
  C   C223      1.0  0.25741  0.49068  0.73679  1.0000
  H   H419      1.0  0.09681  0.62536  0.85089  1.0000
  S   S51       1.0  0.06057  0.51522  0.71462  1.0000
  Fe  Fe26      1.0  0.30951  0.96083  0.95570  1.0000
  C   C224      1.0  0.32998  0.85889  0.74648  1.0000
  S   S52       1.0  0.32936  0.93752  0.92013  1.0000
  C   C225      1.0  0.26111  0.52942  0.73752  1.0000
  Fe  Fe27      1.0  0.32941  0.63475  0.66810  1.0000
  H   H420      1.0  0.46551  0.60321  0.81077  1.0000
  C   C226      1.0  0.07414  0.52390  0.89305  1.0000
  H   H421      1.0  0.46156  0.49384  0.87665  1.0000
  H   H422      1.0  0.42056  0.97970  0.96562  1.0000
  C   C227      1.0  0.40253  0.96813  0.85907  1.0000
  H   H423      1.0  0.20328  0.78721  0.97545  1.0000
  H   H424      1.0  0.19387  0.74080  0.97740  1.0000
  S   S53       1.0  0.45990  0.51785  0.79584  1.0000
  C   C228      1.0  0.47268  0.97200  0.99707  1.0000
  S   S54       1.0  0.03092  0.51945  0.79680  1.0000
  C   C229      1.0  0.46652  0.65160  0.73000  1.0000
  H   H425      1.0  0.05567  0.57093  0.67123  1.0000
  H   H426      1.0  0.42376  0.66510  0.74400  1.0000
  S   S55       1.0  0.34600  0.60512  0.70239  1.0000
  H   H427      1.0  0.28234  0.54526  0.72295  1.0000
  H   H428      1.0  0.27076  0.53860  0.75917  1.0000
  H   H429      1.0  0.27161  0.60846  0.71781  1.0000
  H   H430      1.0  0.09875  0.54640  0.88778  1.0000
  C   C230      1.0  0.36034  0.96375  0.89539  1.0000
  C   C231      1.0  0.19794  0.50731  0.74340  1.0000
  H   H431      1.0  0.99978  0.54180  0.94355  1.0000
  C   C232      1.0  0.37875  0.94850  0.87979  1.0000
  H   H432      1.0  0.41718  0.95652  0.84765  1.0000
  H   H433      1.0  0.37472  0.92146  0.88390  1.0000
  C   C233      1.0  0.10312  0.54732  0.70820  1.0000
  C   C234      1.0  0.12047  0.57451  0.72709  1.0000
  C   C235      1.0  0.05119  0.54319  0.93491  1.0000
  H   H434      1.0  0.10802  0.57657  0.74643  1.0000
  Fe  Fe28      1.0  0.03530  0.71881  0.98632  1.0000
  C   C236      1.0  0.37216  0.58084  0.70448  1.0000
  C   C237      1.0  0.37367  0.56434  0.73023  1.0000
  C   C238      1.0  0.39462  0.54553  0.73338  1.0000
  C   C239      1.0  0.41443  0.54292  0.71074  1.0000
  C   C240      1.0  0.41270  0.55918  0.68492  1.0000
  H   H435      1.0  0.42790  0.87949  0.81064  1.0000
  H   H436      1.0  0.35857  0.56619  0.74793  1.0000
  H   H437      1.0  0.39522  0.53276  0.75323  1.0000
  H   H438      1.0  0.42412  0.89138  0.68651  1.0000
  C   C241      1.0  0.41345  0.85524  0.72149  1.0000
  C   C242      1.0  0.41241  0.86405  0.69302  1.0000
  C   C243      1.0  0.38153  0.79278  0.70922  1.0000
  C   C244      1.0  0.39781  0.81939  0.72937  1.0000
  H   H439      1.0  0.36972  0.76547  0.71575  1.0000
  H   H440      1.0  0.39832  0.81212  0.75127  1.0000
  H   H441      1.0  0.26456  0.62999  0.77874  1.0000
  C   C245      1.0  0.39177  0.57805  0.68178  1.0000
  C   C246      1.0  0.36139  0.96192  0.78840  1.0000
  H   H442      1.0  0.01122  0.50712  0.87184  1.0000
  C   C247      1.0  0.44491  0.62587  0.77636  1.0000
  H   H443      1.0  0.03032  0.55822  0.84827  1.0000
  C   C248      1.0  0.31506  0.86129  0.77589  1.0000
  H   H444      1.0  0.47192  0.94575  0.95655  1.0000
  H   H445      1.0  0.16690  0.62039  0.73557  1.0000
  S   S56       1.0  0.21332  0.62970  0.68937  1.0000
  H   H446      1.0  0.37169  0.84442  0.78809  1.0000
  C   C249      1.0  0.17077  0.59752  0.69572  1.0000
  H   H447      1.0  0.44969  0.62773  0.71809  1.0000
  N   N13       1.0  0.04798  0.53718  0.90342  1.0000
  H   H448      1.0  0.38755  0.58007  0.80517  1.0000
  C   C250      1.0  0.44768  0.67670  0.73143  1.0000
  H   H449      1.0  0.32419  0.87606  0.73110  1.0000
  H   H450      1.0  0.43807  0.57210  0.78597  1.0000
  H   H451      1.0  0.31091  0.83675  0.78764  1.0000
  H   H452      1.0  0.40667  0.87638  0.84421  1.0000
  H   H453      1.0  0.16082  0.75545  0.96746  1.0000
  H   H454      1.0  0.20663  0.55187  0.69584  1.0000
  C   C251      1.0  0.06961  0.61033  0.84496  1.0000
  H   H455      1.0  0.29191  0.89366  0.87265  1.0000
  H   H456      1.0  0.16384  0.53534  0.74788  1.0000
  C   C252      1.0  0.46970  0.56055  0.87017  1.0000
  C   C253      1.0  0.39603  0.83746  0.67289  1.0000
  H   H457      1.0  0.34746  0.96627  0.80667  1.0000
  C   C254      1.0  0.21860  0.50865  0.68108  1.0000
  H   H458      1.0  0.99251  0.64504  0.90086  1.0000
  H   H459      1.0  0.40943  0.56556  0.83157  1.0000
  H   H460      1.0  0.25606  0.86470  0.85200  1.0000
  C   C255      1.0  0.31546  0.89541  0.81828  1.0000
  C   C256      1.0  0.22629  0.54128  0.69993  1.0000
  C   C257      1.0  0.44221  0.59643  0.79774  1.0000
  C   C258      1.0  0.37222  0.85838  0.80810  1.0000
  S   S57       1.0  0.03107  0.66371  0.99486  1.0000
  H   H461      1.0  0.39003  0.90728  0.78524  1.0000
  C   C259      1.0  0.38046  0.80162  0.68075  1.0000
  S   S58       1.0  0.25930  0.96659  0.95885  1.0000
  S   S59       1.0  0.08702  0.75956  0.97010  1.0000
  H   H462      1.0  0.40615  0.83731  0.82739  1.0000
  C   C260      1.0  0.17398  0.84954  0.97930  1.0000
  H   H463      1.0  0.42040  0.65959  0.69157  1.0000
  H   H464      1.0  0.15873  0.51186  0.71516  1.0000
  C   C261      1.0  0.31460  0.82142  0.73495  1.0000
  C   C262      1.0  0.47168  0.54297  0.89818  1.0000
  C   C263      1.0  0.15345  0.57025  0.67687  1.0000
  H   H465      1.0  0.23071  0.56591  0.76904  1.0000
  H   H466      1.0  0.29315  0.65734  0.75206  1.0000
  H   H467      1.0  0.29004  0.59751  0.74852  1.0000
  C   C264      1.0  0.41164  0.58788  0.81750  1.0000
  C   C265      1.0  0.05651  0.57277  0.85663  1.0000
  C   C266      1.0  0.40527  0.86333  0.82356  1.0000
  H   H468      1.0  0.05407  0.62416  0.85306  1.0000
  N   N14       1.0  0.33598  0.89350  0.79289  1.0000
  H   H469      1.0  0.08043  0.59242  0.89711  1.0000
  H   H470      1.0  0.25029  0.56190  0.69147  1.0000
  C   C267      1.0  0.23356  0.57005  0.74576  1.0000
  H   H471      1.0  0.44887  0.54202  0.85682  1.0000
  H   H472      1.0  0.27534  0.84682  0.87826  1.0000
  N   N15       1.0  0.22956  0.53627  0.73123  1.0000
  H   H473      1.0  0.35813  0.86776  0.74735  1.0000
  C   C268      1.0  0.16368  0.51111  0.73810  1.0000
  H   H474      1.0  0.07793  0.56151  0.94012  1.0000
  H   H475      1.0  0.46981  0.58986  0.74187  1.0000
  H   H476      1.0  0.29262  0.83870  0.82984  1.0000
  H   H477      1.0  0.32163  0.80354  0.74862  1.0000
  H   H478      1.0  0.20102  0.50539  0.76664  1.0000
  H   H479      1.0  0.35066  0.84077  0.82118  1.0000
  H   H480      1.0  0.15094  0.80952  0.94776  1.0000
  C   C269      1.0  0.26783  0.60229  0.74059  1.0000
  C   C270      1.0  0.11748  0.80030  0.98369  1.0000
  H   H481      1.0  0.28885  0.86014  0.77222  1.0000
  H   H482      1.0  0.32999  0.91921  0.83098  1.0000
  H   H483      1.0  0.44695  0.53626  0.90920  1.0000
  H   H484      1.0  0.21306  0.57852  0.73900  1.0000
  C   C271      1.0  0.14764  0.81903  0.96826  1.0000
  H   H485      1.0  0.09976  0.51640  0.93122  1.0000
  H   H486      1.0  0.28629  0.81152  0.73359  1.0000
  C   C272      1.0  0.46575  0.96741  0.96483  1.0000
  H   H487      1.0  0.02291  0.53438  0.98993  1.0000
  C   C273      1.0  0.05554  0.57239  0.88938  1.0000
  C   C274      1.0  0.11994  0.54541  0.68309  1.0000
  C   C275      1.0  0.26816  0.63486  0.75566  1.0000
  H   H488      1.0  0.32486  0.82120  0.71345  1.0000
  C   C276      1.0  0.43769  0.68436  0.70192  1.0000
  C   C277      1.0  0.08442  0.50036  0.91344  1.0000
  C   C278      1.0  0.01238  0.51235  0.89494  1.0000
  C   C279      1.0  0.28065  0.86774  0.86197  1.0000
  Fe  Fe29      1.0  0.02198  0.50437  0.75122  1.0000
  C   C280      1.0  0.30538  0.86477  0.83990  1.0000
  H   H489      1.0  0.37974  0.91122  0.82061  1.0000
  H   H490      1.0  0.07329  0.56061  0.84817  1.0000
  H   H491      1.0  0.35689  0.92548  0.75556  1.0000
  H   H492      1.0  0.19716  0.86320  0.96727  1.0000
  H   H493      1.0  0.06763  0.60956  0.82156  1.0000
  H   H494      1.0  0.30702  0.50198  0.75649  1.0000
  C   C281      1.0  0.34167  0.92543  0.77463  1.0000
  H   H495      1.0  0.03578  0.58237  0.89491  1.0000
  S   S60       1.0  0.47384  0.95711  0.80411  1.0000
  H   H496      1.0  0.06539  0.50928  0.87287  1.0000
  H   H497      1.0  0.38703  0.96445  0.79551  1.0000
  C   C282      1.0  0.15394  0.59940  0.72083  1.0000
  H   H498      1.0  0.31671  0.92457  0.76678  1.0000
  C   C283      1.0  0.37031  0.89432  0.80175  1.0000
  H   H499      1.0  0.03296  0.58559  0.94036  1.0000
  H   H500      1.0  0.29165  0.89801  0.81125  1.0000
  H   H501      1.0  0.32852  0.86604  0.85142  1.0000
  C   C284      1.0  0.03098  0.56101  0.98034  1.0000
  H   H502      1.0  0.04675  0.51847  0.94654  1.0000
  H   H503      1.0  0.42158  0.61373  0.76308  1.0000
  H   H504      1.0  0.46437  0.58415  0.87415  1.0000
  H   H505      1.0  0.42390  0.70194  0.70348  1.0000
  S   S61       1.0  0.30031  0.92998  0.99622  1.0000
  C   C285      1.0  0.42805  0.95844  0.95829  1.0000
  H   H506      1.0  0.01463  0.57367  0.98904  1.0000
  N   N16       1.0  0.47770  0.48744  0.91885  1.0000
  H   H507      1.0  0.99823  0.52259  0.68539  1.0000
  H   H508      1.0  0.42369  0.95557  0.93513  1.0000
  H   H509      1.0  0.41129  0.93328  0.96864  1.0000
  C   C286      1.0  0.18345  0.76091  0.98126  1.0000
  Fe  Fe30      1.0  0.46080  0.49880  0.75205  1.0000
  H   H510      1.0  0.41501  0.61099  0.83078  1.0000
  H   H511      1.0  0.05793  0.57739  0.98623  1.0000
  C   C287      1.0  0.98543  0.61416  0.86285  1.0000
  H   H512      1.0  0.24239  0.50433  0.67817  1.0000
  C   C288      1.0  0.47940  0.50996  0.89318  1.0000
  S   S62       1.0  0.98708  0.69881  0.95979  1.0000
  H   H513      1.0  0.30748  0.50170  0.71829  1.0000
  H   H514      1.0  0.13044  0.50565  0.89039  1.0000
  H   H515      1.0  0.10690  0.52461  0.66823  1.0000
  H   H516      1.0  0.46431  0.70226  0.74094  1.0000
  C   C289      1.0  0.29243  0.48882  0.73739  1.0000
  H   H517      1.0  0.46078  0.69756  0.68858  1.0000
  H   H518      1.0  0.44286  0.49825  0.94666  1.0000
  H   H519      1.0  0.99852  0.63686  0.84946  1.0000
  N   N17       1.0  0.47662  0.64078  0.75797  1.0000
  H   H520      1.0  0.71083  0.31914  0.20993  1.0000
  H   H521      1.0  0.92373  0.44684  0.12758  1.0000
  H   H522      1.0  0.57392  0.46529  0.26684  1.0000
  S   S63       1.0  0.65091  0.30899  0.29756  1.0000
  C   C290      1.0  0.72265  0.38761  0.25727  1.0000
  H   H523      1.0  0.62892  0.02973  0.24826  1.0000
  H   H524      1.0  0.52447  0.43608  0.11469  1.0000
  H   H525      1.0  0.97224  0.47232  0.10430  1.0000
  S   S64       1.0  0.53466  0.05525  0.26908  1.0000
  Fe  Fe31      1.0  0.49734  0.01312  0.23960  1.0000
  C   C291      1.0  0.56320  0.12399  0.17912  1.0000
  C   C292      1.0  0.71571  0.33198  0.23090  1.0000
  C   C293      1.0  0.56912  0.03313  0.00280  1.0000
  H   H526      1.0  0.81605  0.23691  0.08042  1.0000
  C   C294      1.0  0.87526  0.27512  0.11466  1.0000
  H   H527      1.0  0.68094  0.20522  0.26350  1.0000
  C   C295      1.0  0.72898  0.43898  0.28677  1.0000
  C   C296      1.0  0.57313  0.09689  0.19531  1.0000
  H   H528      1.0  0.58314  0.13914  0.16353  1.0000
  H   H529      1.0  0.64277  0.14701  0.17459  1.0000
  H   H530      1.0  0.83508  0.23148  0.01713  1.0000
  Fe  Fe32      1.0  0.65088  0.00983  0.03365  1.0000
  S   S65       1.0  0.70118  0.00404  0.03280  1.0000
  S   S66       1.0  0.62846  0.03371  0.06690  1.0000
  H   H531      1.0  0.89278  0.34842  0.03032  1.0000
  H   H532      1.0  0.53071  0.08693  0.14792  1.0000
  C   C297      1.0  0.83876  0.25741  0.02616  1.0000
  C   C298      1.0  0.61346  0.08394  0.22587  1.0000
  H   H533      1.0  0.55504  0.08703  0.21342  1.0000
  C   C299      1.0  0.49737  0.42061  0.10864  1.0000
  H   H534      1.0  0.59897  0.08271  0.24559  1.0000
  C   C300      1.0  0.58388  0.15264  0.30419  1.0000
  S   S67       1.0  0.88503  0.19509  0.02817  1.0000
  N   N18       1.0  0.72673  0.42546  0.25693  1.0000
  C   C301      1.0  0.60241  0.04572  0.21511  1.0000
  H   H535      1.0  0.88492  0.26404  0.04793  1.0000
  S   S68       1.0  0.57723  0.21723  0.30300  1.0000
  H   H536      1.0  0.86419  0.29096  0.06060  1.0000
  H   H537      1.0  0.88390  0.44600  0.07248  1.0000
  H   H538      1.0  0.63565  0.43631  0.23463  1.0000
  C   C302      1.0  0.58227  0.02279  0.10993  1.0000
  C   C303      1.0  0.60001  0.00779  0.09329  1.0000
  H   H539      1.0  0.54731  0.01531  0.14482  1.0000
  H   H540      1.0  0.58519  0.04946  0.10566  1.0000
  C   C304      1.0  0.56631  0.17224  0.29366  1.0000
  C   C305      1.0  0.53869  0.15558  0.27506  1.0000
  C   C306      1.0  0.52867  0.12000  0.26716  1.0000
  C   C307      1.0  0.54597  0.10034  0.27800  1.0000
  C   C308      1.0  0.57371  0.11699  0.29644  1.0000
  H   H541      1.0  0.52485  0.17036  0.26676  1.0000
  H   H542      1.0  0.50738  0.10779  0.25289  1.0000
  C   C309      1.0  0.59432  0.39926  0.29399  1.0000
  C   C310      1.0  0.56225  0.37134  0.29103  1.0000
  C   C311      1.0  0.53438  0.37743  0.27986  1.0000
  C   C312      1.0  0.53827  0.41126  0.27078  1.0000
  C   C313      1.0  0.57051  0.43906  0.27334  1.0000
  C   C314      1.0  0.59815  0.43313  0.28518  1.0000
  H   H543      1.0  0.55878  0.34514  0.29766  1.0000
  H   H544      1.0  0.50957  0.35573  0.27821  1.0000
  C   C315      1.0  0.91023  0.40186  0.04610  1.0000
  H   H545      1.0  0.62060  0.04469  0.19888  1.0000
  C   C316      1.0  0.78568  0.35687  0.29661  1.0000
  C   C317      1.0  0.80401  0.35484  0.27245  1.0000
  C   C318      1.0  0.83698  0.38092  0.26639  1.0000
  C   C319      1.0  0.85252  0.40926  0.28473  1.0000
  C   C320      1.0  0.83442  0.41100  0.30911  1.0000
  C   C321      1.0  0.80138  0.38500  0.31508  1.0000
  H   H546      1.0  0.85054  0.37888  0.24771  1.0000
  H   H547      1.0  0.64889  0.14178  0.25774  1.0000
  C   C322      1.0  0.90747  0.45770  0.08554  1.0000
  C   C323      1.0  0.86905  0.42835  0.12731  1.0000
  C   C324      1.0  0.65556  0.10372  0.13575  1.0000
  H   H548      1.0  0.64713  0.08783  0.11625  1.0000
  H   H549      1.0  0.66744  0.13197  0.12958  1.0000
  H   H550      1.0  0.67493  0.09630  0.14634  1.0000
  H   H551      1.0  0.50068  0.99587  0.09468  1.0000
  C   C325      1.0  0.89005  0.22780  0.09701  1.0000
  C   C326      1.0  0.86772  0.33032  0.12855  1.0000
  H   H552      1.0  0.88072  0.20230  0.08567  1.0000
  H   H553      1.0  0.50162  0.37149  0.11562  1.0000
  C   C327      1.0  0.84124  0.23592  0.07612  1.0000
  C   C328      1.0  0.91101  0.22448  0.12281  1.0000
  H   H554      1.0  0.48694  0.38799  0.14553  1.0000
  H   H555      1.0  0.81180  0.45076  0.20486  1.0000
  Fe  Fe33      1.0  0.96130  0.42352  0.19421  1.0000
  Fe  Fe34      1.0  0.63742  0.34480  0.32554  1.0000
  C   C329      1.0  0.93998  0.21432  0.11339  1.0000
  H   H556      1.0  0.58446  0.02014  0.25588  1.0000
  H   H557      1.0  0.86632  0.41180  0.14643  1.0000
  H   H558      1.0  0.90172  0.40805  0.10709  1.0000
  H   H559      1.0  0.95452  0.21171  0.13209  1.0000
  Fe  Fe35      1.0  0.93302  0.45336  0.24205  1.0000
  H   H560      1.0  0.78803  0.12376  0.13535  1.0000
  H   H561      1.0  0.53718  0.99471  0.33178  1.0000
  H   H562      1.0  0.52272  0.12603  0.15233  1.0000
  H   H563      1.0  0.84888  0.34213  0.13177  1.0000
  C   C330      1.0  0.83671  0.21390  0.12476  1.0000
  C   C331      1.0  0.84981  0.16094  0.01153  1.0000
  H   H564      1.0  0.92288  0.24972  0.13423  1.0000
  H   H565      1.0  0.89471  0.20394  0.13778  1.0000
  H   H566      1.0  0.50827  0.09191  0.17888  1.0000
  H   H567      1.0  0.94713  0.41782  0.08034  1.0000
  C   C332      1.0  0.60288  0.02102  0.23905  1.0000
  C   C333      1.0  0.90261  0.43431  0.11232  1.0000
  H   H568      1.0  0.88666  0.39478  0.05888  1.0000
  H   H569      1.0  0.56010  0.14289  0.19421  1.0000
  C   C334      1.0  0.94174  0.42994  0.06102  1.0000
  H   H570      1.0  0.84913  0.21784  0.14590  1.0000
  H   H571      1.0  0.88775  0.27588  0.13540  1.0000
  S   S69       1.0  0.97619  0.43492  0.23994  1.0000
  S   S70       1.0  0.95447  0.37169  0.17388  1.0000
  H   H572      1.0  0.92957  0.18877  0.10208  1.0000
  H   H573      1.0  0.80226  0.46572  0.26686  1.0000
  C   C335      1.0  0.80223  0.03279  0.02546  1.0000
  C   C336      1.0  0.81913  0.46646  0.22453  1.0000
  H   H574      1.0  0.90600  0.41163  0.02520  1.0000
  H   H575      1.0  0.74471  0.38474  0.26747  1.0000
  H   H576      1.0  0.91914  0.35655  0.06149  1.0000
  S   S71       1.0  0.98220  0.26087  0.03184  1.0000
  C   C337      1.0  0.69477  0.42611  0.24356  1.0000
  H   H577      1.0  0.58750  0.10222  0.30487  1.0000
  S   S72       1.0  0.74358  0.32348  0.30262  1.0000
  H   H578      1.0  0.77596  0.15957  0.14320  1.0000
  C   C338      1.0  0.52916  0.10599  0.16363  1.0000
  H   H579      1.0  0.81414  0.22050  0.12760  1.0000
  H   H580      1.0  0.85248  0.27810  0.01028  1.0000
  C   C339      1.0  0.75713  0.44874  0.23946  1.0000
  H   H581      1.0  0.94754  0.31328  0.13909  1.0000
  H   H582      1.0  0.96446  0.30885  0.08940  1.0000
  Fe  Fe36      1.0  0.93186  0.23889  0.00804  1.0000
  H   H583      1.0  0.70035  0.37162  0.27072  1.0000
  H   H584      1.0  0.65982  0.11880  0.19004  1.0000
  H   H585      1.0  0.77215  0.09530  0.02905  1.0000
  C   C340      1.0  0.79349  0.11163  0.01600  1.0000
  C   C341      1.0  0.82168  0.13946  0.02811  1.0000
  C   C342      1.0  0.84922  0.29180  0.11991  1.0000
  H   H586      1.0  0.59517  0.13911  0.23780  1.0000
  H   H587      1.0  0.88193  0.33242  0.14863  1.0000
  H   H588      1.0  0.74018  0.33240  0.23914  1.0000
  H   H589      1.0  0.64058  0.09248  0.23262  1.0000
  H   H590      1.0  0.67147  0.40484  0.25283  1.0000
  H   H591      1.0  0.63579  0.19492  0.26399  1.0000
  N   N19       1.0  0.93895  0.46403  0.06805  1.0000
  C   C343      1.0  0.65913  0.45969  0.22879  1.0000
  H   H592      1.0  0.83493  0.20994  0.06594  1.0000
  H   H593      1.0  0.89592  0.29298  0.10058  1.0000
  C   C344      1.0  0.71770  0.36942  0.22810  1.0000
  H   H594      1.0  0.95792  0.23488  0.09914  1.0000
  C   C345      1.0  0.96999  0.48654  0.08493  1.0000
  Fe  Fe37      1.0  0.49337  0.45942  0.23070  1.0000
  H   H595      1.0  0.51142  0.98867  0.30023  1.0000
  N   N20       1.0  0.60959  0.11054  0.20577  1.0000
  H   H596      1.0  0.83144  0.27777  0.13728  1.0000
  H   H597      1.0  0.86885  0.45383  0.13405  1.0000
  H   H598      1.0  0.84687  0.41465  0.11323  1.0000
  C   C346      1.0  0.51239  0.98710  0.03806  1.0000
  C   C347      1.0  0.68965  0.46093  0.24640  1.0000
  H   H599      1.0  0.75260  0.44169  0.21676  1.0000
  H   H600      1.0  0.57608  0.03477  0.20645  1.0000
  H   H601      1.0  0.67225  0.16087  0.22581  1.0000
  H   H602      1.0  0.82175  0.14419  0.05051  1.0000
  C   C348      1.0  0.65729  0.19559  0.25050  1.0000
  H   H603      1.0  0.66085  0.21451  0.23286  1.0000
  H   H604      1.0  0.69408  0.42051  0.22058  1.0000
  H   H605      1.0  0.62267  0.45504  0.28759  1.0000
  H   H606      1.0  0.61353  0.06796  0.16007  1.0000
  H   H607      1.0  0.77494  0.43137  0.30076  1.0000
  C   C349      1.0  0.63552  0.11943  0.18211  1.0000
  C   C350      1.0  0.62486  0.09640  0.15517  1.0000
  C   C351      1.0  0.65028  0.15888  0.23922  1.0000
  H   H608      1.0  0.80753  0.16854  0.09770  1.0000
  S   S73       1.0  0.48691  0.44737  0.18436  1.0000
  H   H609      1.0  0.60552  0.10227  0.14304  1.0000
  H   H610      1.0  0.69346  0.36735  0.21810  1.0000
  S   S74       1.0  0.49327  0.01391  0.19207  1.0000
  H   H611      1.0  0.84295  0.16458  0.11570  1.0000
  H   H612      1.0  0.70287  0.43002  0.29613  1.0000
  H   H613      1.0  0.96407  0.43489  0.04694  1.0000
  S   S75       1.0  0.63017  0.39371  0.30915  1.0000
  C   C352      1.0  0.61623  0.14367  0.22241  1.0000
  C   C353      1.0  0.79825  0.99594  0.01704  1.0000
  H   H614      1.0  0.60513  0.16490  0.31850  1.0000
  H   H615      1.0  0.79269  0.33284  0.25830  1.0000
  H   H616      1.0  0.56709  0.07373  0.18148  1.0000
  S   S76       1.0  0.91627  0.43794  0.19754  1.0000
  S   S77       1.0  0.89436  0.44290  0.27851  1.0000
  H   H617      1.0  0.79191  0.42288  0.25153  1.0000
  C   C354      1.0  0.79258  0.44946  0.24770  1.0000
  H   H618      1.0  0.81338  0.25789  0.03026  1.0000
  H   H619      1.0  0.69468  0.31603  0.24540  1.0000
  C   C355      1.0  0.79803  0.15211  0.14092  1.0000
  H   H620      1.0  0.95595  0.48172  0.02533  1.0000
  C   C356      1.0  0.82223  0.17405  0.11773  1.0000
  H   H621      1.0  0.59518  0.99395  0.23071  1.0000
  H   H622      1.0  0.73936  0.38412  0.21378  1.0000
  H   H623      1.0  0.61621  0.16512  0.20820  1.0000
  H   H624      1.0  0.51675  0.01485  0.04282  1.0000
  C   C357      1.0  0.96063  0.33686  0.12675  1.0000
  H   H625      1.0  0.65437  0.48368  0.23269  1.0000
  Fe  Fe38      1.0  0.69468  0.31705  0.32729  1.0000
  S   S78       1.0  0.50153  0.41758  0.25847  1.0000
  H   H626      1.0  0.68440  0.46522  0.26869  1.0000
  H   H627      1.0  0.90865  0.24707  0.08230  1.0000
  H   H628      1.0  0.82417  0.99691  0.01293  1.0000
  H   H629      1.0  0.73971  0.46829  0.28673  1.0000
  H   H630      1.0  0.81173  0.15583  0.16141  1.0000
  Fe  Fe39      1.0  0.61882  0.26419  0.32603  1.0000
  H   H631      1.0  0.56978  0.04248  0.02477  1.0000
  H   H632      1.0  0.81554  0.05202  0.00849  1.0000
  N   N21       1.0  0.86078  0.23822  0.10318  1.0000
  C   C358      1.0  0.74930  0.42697  0.30849  1.0000
  H   H633      1.0  0.93823  0.37342  0.02751  1.0000
  C   C359      1.0  0.85982  0.26419  0.05331  1.0000
  H   H634      1.0  0.83384  0.29099  0.10087  1.0000
  H   H635      1.0  0.73545  0.39842  0.31311  1.0000
  C   C360      1.0  0.97046  0.33433  0.09878  1.0000
  C   C361      1.0  0.56079  0.00352  0.13210  1.0000
  H   H636      1.0  0.88609  0.34557  0.11190  1.0000
  H   H637      1.0  0.84620  0.43252  0.32365  1.0000
  H   H638      1.0  0.97549  0.31657  0.19338  1.0000
  C   C362      1.0  0.93651  0.48201  0.04083  1.0000
  H   H639      1.0  0.49576  0.41857  0.08528  1.0000
  H   H640      1.0  0.91143  0.46709  0.03045  1.0000
  C   C363      1.0  0.96777  0.36980  0.13893  1.0000
  C   C364      1.0  0.91550  0.36805  0.04114  1.0000
  C   C365      1.0  0.48443  0.38410  0.12239  1.0000
  H   H641      1.0  0.84438  0.46746  0.23154  1.0000
  H   H642      1.0  0.76016  0.47656  0.24034  1.0000
  Fe  Fe40      1.0  0.98293  0.31411  0.02124  1.0000
  H   H643      1.0  0.53282  0.04492  0.33166  1.0000
  H   H644      1.0  0.66425  0.45854  0.20593  1.0000
  H   H645      1.0  0.81771  0.04094  0.04504  1.0000
  H   H646      1.0  0.77687  0.03334  0.02938  1.0000
  H   H647      1.0  0.90776  0.48317  0.09305  1.0000
  H   H648      1.0  0.52472  0.43939  0.32561  1.0000
  H   H649      1.0  0.71246  0.48401  0.23919  1.0000
  H   H650      1.0  0.76922  0.47521  0.33317  1.0000
  H   H651      1.0  0.58266  0.01535  0.00248  1.0000
  H   H652      1.0  0.97377  0.46337  0.61849  1.0000
  S   S79       1.0  0.68313  0.35570  0.35387  1.0000
  H   H653      1.0  0.51276  0.35493  0.43104  1.0000
  S   S80       1.0  0.60270  0.30005  0.35250  1.0000
  H   H654      1.0  0.54133  0.22003  0.60870  1.0000
  Fe  Fe41      1.0  0.64878  0.30908  0.38032  1.0000
  S   S81       1.0  0.63908  0.31738  0.42790  1.0000
  S   S82       1.0  0.66298  0.27017  0.35513  1.0000
  Fe  Fe42      1.0  0.66252  0.31453  0.60771  1.0000
  S   S83       1.0  0.68948  0.29673  0.64237  1.0000
  S   S84       1.0  0.67193  0.30394  0.56076  1.0000
  H   H655      1.0  0.95186  0.40549  0.64854  1.0000
  H   H656      1.0  0.61489  0.43763  0.39630  1.0000
  H   H657      1.0  0.72845  0.44259  0.34530  1.0000
  H   H658      1.0  0.67647  0.44924  0.40115  1.0000
  C   C366      1.0  0.76256  0.27922  0.66671  1.0000
  S   S85       1.0  0.67919  0.36857  0.62696  1.0000
  S   S86       1.0  0.61146  0.29275  0.63071  1.0000
  H   H659      1.0  0.66207  0.44412  0.63595  1.0000
  H   H660      1.0  0.61073  0.41437  0.36412  1.0000
  C   C367      1.0  0.95541  0.47255  0.62870  1.0000
  H   H661      1.0  0.53148  0.39964  0.44277  1.0000
  C   C368      1.0  0.52268  0.32789  0.38029  1.0000
  H   H662      1.0  0.78128  0.29139  0.62368  1.0000
  H   H663      1.0  0.49759  0.41530  0.35423  1.0000
  C   C369      1.0  0.91521  0.43675  0.59005  1.0000
  C   C370      1.0  0.64880  0.31345  0.46473  1.0000
  C   C371      1.0  0.63294  0.32552  0.48588  1.0000
  C   C372      1.0  0.63961  0.32300  0.51508  1.0000
  C   C373      1.0  0.66234  0.30822  0.52393  1.0000
  C   C374      1.0  0.67818  0.29617  0.50276  1.0000
  C   C375      1.0  0.67159  0.29877  0.47358  1.0000
  H   H664      1.0  0.61527  0.33693  0.47965  1.0000
  H   H665      1.0  0.62708  0.33248  0.53074  1.0000
  H   H666      1.0  0.69580  0.28467  0.50898  1.0000
  H   H667      1.0  0.68414  0.28929  0.45794  1.0000
  H   H668      1.0  0.58877  0.40435  0.43760  1.0000
  H   H669      1.0  0.69850  0.48622  0.63741  1.0000
  H   H670      1.0  0.48745  0.27952  0.36095  1.0000
  H   H671      1.0  0.55713  0.38151  0.48421  1.0000
  H   H672      1.0  0.49278  0.22846  0.64898  1.0000
  H   H673      1.0  0.76719  0.43638  0.35175  1.0000
  H   H674      1.0  0.58892  0.17908  0.65578  1.0000
  C   C376      1.0  0.56091  0.35350  0.37914  1.0000
  Fe  Fe43      1.0  0.63915  0.27758  0.66576  1.0000
  H   H675      1.0  0.70341  0.44822  0.62372  1.0000
  H   H676      1.0  0.73650  0.26305  0.62610  1.0000
  C   C377      1.0  0.54940  0.40746  0.38664  1.0000
  H   H677      1.0  0.67344  0.42907  0.36686  1.0000
  H   H678      1.0  0.56906  0.42987  0.66529  1.0000
  C   C378      1.0  0.52997  0.19850  0.62448  1.0000
  C   C379      1.0  0.60758  0.41077  0.38739  1.0000
  Fe  Fe44      1.0  0.62987  0.34596  0.65183  1.0000
  C   C380      1.0  0.54711  0.07523  0.36957  1.0000
  C   C381      1.0  0.53519  0.37467  0.44184  1.0000
  C   C382      1.0  0.56935  0.38121  0.42657  1.0000
  H   H679      1.0  0.53795  0.33630  0.47238  1.0000
  C   C383      1.0  0.51518  0.29688  0.36034  1.0000
  C   C384      1.0  0.53550  0.36196  0.47217  1.0000
  H   H680      1.0  0.63400  0.39228  0.42015  1.0000
  H   H681      1.0  0.55200  0.11512  0.65966  1.0000
  H   H682      1.0  0.56296  0.06165  0.37781  1.0000
  H   H683      1.0  0.57456  0.43439  0.34726  1.0000
  H   H684      1.0  0.52233  0.39293  0.39302  1.0000
  H   H685      1.0  0.76833  0.24579  0.63350  1.0000
  H   H686      1.0  0.51994  0.34721  0.65193  1.0000
  H   H687      1.0  0.93238  0.42363  0.58438  1.0000
  H   H688      1.0  0.57528  0.33838  0.38751  1.0000
  H   H689      1.0  0.56871  0.35871  0.35656  1.0000
  H   H690      1.0  0.68995  0.41371  0.39679  1.0000
  C   C385      1.0  0.51970  0.05130  0.34944  1.0000
  N   N22       1.0  0.57092  0.38765  0.39495  1.0000
  H   H691      1.0  0.88844  0.41843  0.58530  1.0000
  H   H692      1.0  0.55828  0.43285  0.39827  1.0000
  C   C386      1.0  0.67088  0.42409  0.38998  1.0000
  C   C387      1.0  0.54893  0.41593  0.35469  1.0000
  S   S87       1.0  0.59950  0.38012  0.65772  1.0000
  H   H693      1.0  0.63104  0.37239  0.38614  1.0000
  C   C388      1.0  0.63488  0.39722  0.39706  1.0000
  H   H694      1.0  0.53519  0.08324  0.38749  1.0000
  H   H695      1.0  0.57651  0.35878  0.43169  1.0000
  C   C389      1.0  0.51897  0.24018  0.65822  1.0000
  H   H696      1.0  0.50564  0.34092  0.37400  1.0000
  H   H697      1.0  0.54258  0.17993  0.62223  1.0000
  H   H698      1.0  0.56350  0.22655  0.65788  1.0000
  C   C390      1.0  0.69007  0.45731  0.63987  1.0000
  H   H699      1.0  0.51596  0.31666  0.40182  1.0000
  H   H700      1.0  0.53165  0.45827  0.36039  1.0000
  C   C391      1.0  0.49588  0.33244  0.66376  1.0000
  H   H701      1.0  0.50225  0.18397  0.62006  1.0000
  H   H702      1.0  0.54054  0.39160  0.34198  1.0000
  H   H703      1.0  0.51121  0.35837  0.48289  1.0000
  Fe  Fe45      1.0  0.70272  0.34965  0.66278  1.0000
  C   C392      1.0  0.76201  0.26911  0.63566  1.0000
  C   C393      1.0  0.91850  0.44595  0.62140  1.0000
  C   C394      1.0  0.53546  0.21332  0.65439  1.0000
  C   C395      1.0  0.52417  0.43329  0.34853  1.0000
  H   H704      1.0  0.56416  0.09942  0.35815  1.0000
  H   H705      1.0  0.52960  0.28104  0.36689  1.0000
  H   H706      1.0  0.91062  0.42110  0.63355  1.0000
  H   H707      1.0  0.50619  0.06698  0.34063  1.0000
  H   H708      1.0  0.52214  0.30627  0.33827  1.0000
  H   H709      1.0  0.92168  0.46084  0.57688  1.0000
  H   H710      1.0  0.53396  0.26261  0.64394  1.0000
  H   H711      1.0  0.89972  0.45742  0.62609  1.0000
  N   N23       1.0  0.96419  0.47969  0.65961  1.0000
  H   H712      1.0  0.48912  0.28306  0.64552  1.0000
  C   C396      1.0  0.49428  0.01782  0.36499  1.0000
  H   H713      1.0  0.50962  0.00689  0.37783  1.0000
  C   C397      1.0  0.49007  0.29378  0.66703  1.0000
  C   C398      1.0  0.75374  0.44661  0.33635  1.0000
  H   H714      1.0  0.78820  0.38660  0.33412  1.0000
  S   S88       1.0  0.65377  0.32951  0.68780  1.0000
  S   S89       1.0  0.74730  0.38727  0.69042  1.0000
  C   C399      1.0  0.95442  0.41476  0.67069  1.0000
  S   S90       1.0  0.52430  0.41423  0.76324  1.0000
  H   H715      1.0  0.86608  0.47148  0.67515  1.0000
  C   C400      1.0  0.81009  0.38023  0.68969  1.0000
  S   S91       1.0  0.52653  0.06709  0.70640  1.0000
  C   C401      1.0  0.68144  0.46170  0.69238  1.0000
  H   H716      1.0  0.62293  0.43626  0.75140  1.0000
  S   S92       1.0  0.51825  0.04075  0.78802  1.0000
  H   H717      1.0  0.59209  0.05682  0.96273  1.0000
  H   H718      1.0  0.70119  0.18009  0.70038  1.0000
  S   S93       1.0  0.90010  0.41926  0.73425  1.0000
  H   H719      1.0  0.77673  0.24508  0.72104  1.0000
  H   H720      1.0  0.58465  0.35111  0.71517  1.0000
  H   H721      1.0  0.69986  0.28351  0.70344  1.0000
  H   H722      1.0  0.95270  0.36451  0.68555  1.0000
  C   C402      1.0  0.55075  0.26839  0.73553  1.0000
  S   S94       1.0  0.94129  0.30832  0.91933  1.0000
  H   H723      1.0  0.68419  0.27619  0.75129  1.0000
  S   S95       1.0  0.95692  0.23859  0.96656  1.0000
  S   S96       1.0  0.66112  0.03921  0.99230  1.0000
  C   C403      1.0  0.66950  0.41527  0.72804  1.0000
  C   C404      1.0  0.71163  0.29349  0.74764  1.0000
  C   C405      1.0  0.70247  0.22418  0.72655  1.0000
  H   H724      1.0  0.69663  0.40436  0.76379  1.0000
  H   H725      1.0  0.57706  0.08397  0.98389  1.0000
  H   H726      1.0  0.91228  0.45150  0.67522  1.0000
  H   H727      1.0  0.52522  0.19094  0.66935  1.0000
  H   H728      1.0  0.75819  0.25098  0.75275  1.0000
  C   C406      1.0  0.72201  0.28710  0.71745  1.0000
  H   H729      1.0  0.81141  0.01488  0.93926  1.0000
  C   C407      1.0  0.82537  0.30044  0.74500  1.0000
  H   H730      1.0  0.87079  0.17041  0.96955  1.0000
  H   H731      1.0  0.94389  0.46824  0.90693  1.0000
  C   C408      1.0  0.96520  0.38351  0.85816  1.0000
  C   C409      1.0  0.94777  0.35404  0.87553  1.0000
  H   H732      1.0  0.65149  0.15686  0.73318  1.0000
  H   H733      1.0  0.82164  0.12088  0.94824  1.0000
  H   H734      1.0  0.79704  0.31389  0.71324  1.0000
  H   H735      1.0  0.95205  0.38962  0.84075  1.0000
  H   H736      1.0  0.92120  0.33750  0.87130  1.0000
  C   C410      1.0  0.67065  0.40291  0.75890  1.0000
  C   C411      1.0  0.56161  0.13032  0.67863  1.0000
  C   C412      1.0  0.79332  0.10453  0.98713  1.0000
  H   H737      1.0  0.52127  0.03231  0.88012  1.0000
  H   H738      1.0  0.66426  0.41908  0.77445  1.0000
  C   C413      1.0  0.96437  0.34587  0.89838  1.0000
  C   C414      1.0  0.58683  0.16987  0.72713  1.0000
  C   C415      1.0  0.56614  0.13337  0.72941  1.0000
  C   C416      1.0  0.55322  0.11326  0.70511  1.0000
  H   H739      1.0  0.87207  0.04386  0.92589  1.0000
  H   H740      1.0  0.59643  0.18501  0.74609  1.0000
  H   H741      1.0  0.55998  0.12078  0.74992  1.0000
  C   C417      1.0  0.84349  0.38770  0.69989  1.0000
  C   C418      1.0  0.54502  0.40532  0.73347  1.0000
  C   C419      1.0  0.54935  0.42365  0.70788  1.0000
  H   H742      1.0  0.50291  0.19122  0.72061  1.0000
  C   C420      1.0  0.57905  0.38947  0.68743  1.0000
  C   C421      1.0  0.57479  0.37120  0.71302  1.0000
  C   C422      1.0  0.55783  0.37901  0.73583  1.0000
  H   H743      1.0  0.53963  0.44388  0.70564  1.0000
  C   C423      1.0  0.79158  0.29958  0.73356  1.0000
  C   C424      1.0  0.59503  0.18687  0.70061  1.0000
  H   H744      1.0  0.55468  0.36468  0.75551  1.0000
  C   C425      1.0  0.85785  0.41163  0.72210  1.0000
  C   C426      1.0  0.83811  0.42805  0.73393  1.0000
  C   C427      1.0  0.80459  0.42033  0.72388  1.0000
  H   H745      1.0  0.84856  0.44646  0.75102  1.0000
  H   H746      1.0  0.78965  0.43300  0.73350  1.0000
  C   C428      1.0  0.79014  0.39620  0.70181  1.0000
  H   H747      1.0  0.54271  0.43182  0.87519  1.0000
  N   N24       1.0  0.61586  0.10360  0.84703  1.0000
  C   C429      1.0  0.61643  0.13802  0.83608  1.0000
  C   C430      1.0  0.57906  0.07794  0.85021  1.0000
  C   C431      1.0  0.63443  0.11001  0.87493  1.0000
  C   C432      1.0  0.63329  0.08814  0.82681  1.0000
  C   C433      1.0  0.62170  0.08564  0.79549  1.0000
  C   C434      1.0  0.65227  0.16664  0.82852  1.0000
  C   C435      1.0  0.63300  0.07660  0.89078  1.0000
  C   C436      1.0  0.55774  0.08659  0.87309  1.0000
  C   C437      1.0  0.52120  0.05822  0.87425  1.0000
  C   C438      1.0  0.64172  0.07047  0.77710  1.0000
  C   C439      1.0  0.64921  0.19788  0.81338  1.0000
  C   C440      1.0  0.65202  0.08597  0.91891  1.0000
  H   H748      1.0  0.60550  0.15009  0.85203  1.0000
  H   H749      1.0  0.59933  0.13349  0.81736  1.0000
  H   H750      1.0  0.56527  0.07580  0.83002  1.0000
  H   H751      1.0  0.57735  0.05099  0.85442  1.0000
  H   H752      1.0  0.62481  0.12502  0.88935  1.0000
  H   H753      1.0  0.66204  0.12706  0.87183  1.0000
  H   H754      1.0  0.66158  0.10282  0.82758  1.0000
  H   H755      1.0  0.62884  0.06087  0.83343  1.0000
  H   H756      1.0  0.62574  0.11174  0.78654  1.0000
  H   H757      1.0  0.59420  0.06815  0.79348  1.0000
  H   H758      1.0  0.66754  0.17661  0.84800  1.0000
  H   H759      1.0  0.66679  0.15647  0.81445  1.0000
  H   H760      1.0  0.64528  0.06259  0.87808  1.0000
  H   H761      1.0  0.60628  0.05816  0.89542  1.0000
  H   H762      1.0  0.56904  0.08800  0.89438  1.0000
  H   H763      1.0  0.55598  0.11199  0.86840  1.0000
  C   C441      1.0  0.58246  0.16673  0.67635  1.0000
  H   H764      1.0  0.66946  0.08779  0.77741  1.0000
  C   C442      1.0  0.82994  0.00708  0.95059  1.0000
  H   H765      1.0  0.94069  0.47923  0.69998  1.0000
  H   H766      1.0  0.72986  0.46044  0.75076  1.0000
  C   C443      1.0  0.97815  0.45444  0.67180  1.0000
  H   H767      1.0  0.63545  0.20975  0.82682  1.0000
  H   H768      1.0  0.67514  0.21830  0.80872  1.0000
  H   H769      1.0  0.63526  0.18937  0.79308  1.0000
  H   H770      1.0  0.64079  0.10002  0.93273  1.0000
  H   H771      1.0  0.64988  0.06141  0.92988  1.0000
  H   H772      1.0  0.67960  0.10269  0.91546  1.0000
  N   N25       1.0  0.73179  0.25614  0.71477  1.0000
  C   C444      1.0  0.96049  0.45480  0.90039  1.0000
  C   C445      1.0  0.58963  0.06523  0.98453  1.0000
  H   H773      1.0  0.68050  0.40040  0.71481  1.0000
  H   H774      1.0  0.64791  0.35610  0.78515  1.0000
  H   H775      1.0  0.83871  0.02431  0.96932  1.0000
  H   H776      1.0  0.65349  0.44965  0.68775  1.0000
  H   H777      1.0  0.48923  0.48574  0.98035  1.0000
  S   S97       1.0  0.57602  0.99308  0.81397  1.0000
  C   C446      1.0  0.76420  0.26120  0.73073  1.0000
  H   H778      1.0  0.58415  0.27887  0.77205  1.0000
  H   H779      1.0  0.82157  0.28745  0.76605  1.0000
  H   H780      1.0  0.73041  0.18965  0.72986  1.0000
  H   H781      1.0  0.95073  0.42820  0.91030  1.0000
  H   H782      1.0  0.85335  0.00006  0.91156  1.0000
  Fe  Fe46      1.0  0.49996  0.45392  0.77114  1.0000
  H   H783      1.0  0.77615  0.00459  0.97761  1.0000
  H   H784      1.0  0.70176  0.33917  0.73544  1.0000
  S   S98       1.0  0.75961  0.06833  0.97094  1.0000
  H   H785      1.0  0.53396  0.00976  0.96881  1.0000
  S   S99       1.0  0.50152  0.47099  0.81674  1.0000
  H   H786      1.0  0.61858  0.36255  0.76072  1.0000
  H   H787      1.0  0.62521  0.46361  0.72120  1.0000
  H   H788      1.0  0.67793  0.22158  0.71665  1.0000
  H   H789      1.0  0.63237  0.06822  0.75499  1.0000
  C   C447      1.0  0.82142  0.12608  0.97057  1.0000
  H   H790      1.0  0.74373  0.34968  0.75015  1.0000
  C   C448      1.0  0.71624  0.33160  0.75171  1.0000
  H   H791      1.0  0.72683  0.28719  0.76411  1.0000
  H   H792      1.0  0.63795  0.04375  0.78462  1.0000
  C   C449      1.0  0.53178  0.01463  0.99168  1.0000
  H   H793      1.0  0.78277  0.31476  0.74837  1.0000
  C   C450      1.0  0.58271  0.26867  0.75027  1.0000
  C   C451      1.0  0.84938  0.15423  0.98260  1.0000
  H   H794      1.0  0.64243  0.40584  0.72117  1.0000
  H   H795      1.0  0.69936  0.22722  0.74955  1.0000
  H   H796      1.0  0.97079  0.39977  0.71040  1.0000
  H   H797      1.0  0.65004  0.34715  0.74824  1.0000
  C   C452      1.0  0.96941  0.39293  0.68768  1.0000
  C   C453      1.0  0.64522  0.36482  0.76340  1.0000
  H   H798      1.0  0.50611  0.06518  0.89030  1.0000
  C   C454      1.0  0.67733  0.15923  0.73976  1.0000
  H   H799      1.0  0.74270  0.31181  0.70971  1.0000
  H   H800      1.0  0.55185  0.29543  0.73679  1.0000
  Fe  Fe47      1.0  0.70899  0.02935  0.98982  1.0000
  H   H801      1.0  0.70670  0.33467  0.77286  1.0000
  C   C455      1.0  0.56615  0.41566  0.68502  1.0000
  Fe  Fe48      1.0  0.95970  0.29348  0.96042  1.0000
  H   H802      1.0  0.73494  0.44702  0.71648  1.0000
  H   H803      1.0  0.61567  0.07902  0.99352  1.0000
  H   H804      1.0  0.88094  0.00914  0.94229  1.0000
  H   H805      1.0  0.67899  0.13364  0.73584  1.0000
  H   H806      1.0  0.52017  0.03429  0.99285  1.0000
  H   H807      1.0  0.85838  0.37486  0.69042  1.0000
  Fe  Fe49      1.0  0.94426  0.45831  0.76150  1.0000
  C   C456      1.0  0.51868  0.28999  0.68529  1.0000
  H   H808      1.0  0.83638  0.28711  0.73024  1.0000
  S   S100      1.0  0.62119  0.23314  0.69924  1.0000
  Fe  Fe50      1.0  0.50680  0.02632  0.74264  1.0000
  H   H809      1.0  0.79993  0.36230  0.67232  1.0000
  H   H810      1.0  0.53814  0.47327  0.91042  1.0000
  H   H811      1.0  0.55140  0.23055  0.70541  1.0000
  C   C457      1.0  0.69870  0.44810  0.66936  1.0000
  H   H812      1.0  0.57259  0.27436  0.69341  1.0000
  H   H813      1.0  0.68443  0.47563  0.76364  1.0000
  H   H814      1.0  0.63640  0.98945  0.90140  1.0000
  H   H815      1.0  0.58182  0.24159  0.75150  1.0000
  C   C458      1.0  0.54897  0.25610  0.70445  1.0000
  H   H816      1.0  0.52828  0.25045  0.74775  1.0000
  N   N26       1.0  0.51775  0.25328  0.68782  1.0000
  H   H817      1.0  0.60613  0.28583  0.73864  1.0000
  Fe  Fe51      1.0  0.52791  0.99163  0.79230  1.0000
  N   N27       1.0  0.68796  0.45426  0.72259  1.0000
  S   S101      1.0  0.94821  0.46979  0.80856  1.0000
  H   H818      1.0  0.70997  0.24228  0.67308  1.0000
  H   H819      1.0  0.84403  0.32825  0.74725  1.0000
  C   C459      1.0  0.70510  0.18826  0.72284  1.0000
  C   C460      1.0  0.86098  0.01538  0.93141  1.0000
  H   H820      1.0  0.50827  0.05584  0.85350  1.0000
  H   H821      1.0  0.51654  0.30055  0.70634  1.0000
  H   H822      1.0  0.68069  0.16482  0.76270  1.0000
  S   S102      1.0  0.93129  0.29229  0.00052  1.0000
  H   H823      1.0  0.72696  0.45990  0.67133  1.0000
  H   H824      1.0  0.54381  0.30833  0.67638  1.0000
  H   H825      1.0  0.95899  0.45148  0.87710  1.0000
  C   C461      1.0  0.93399  0.47752  0.67722  1.0000
  H   H826      1.0  0.97769  0.24223  0.90227  1.0000
  H   H827      1.0  0.74750  0.98740  0.93783  1.0000
  H   H828      1.0  0.92872  0.40899  0.67946  1.0000
  C   C462      1.0  0.63566  0.46327  0.74259  1.0000
  C   C463      1.0  0.72554  0.46461  0.72811  1.0000
  C   C464      1.0  0.51697  0.46128  0.89509  1.0000
  H   H829      1.0  0.52205  0.47862  0.87637  1.0000
  C   C465      1.0  0.73512  0.24928  0.68387  1.0000
  C   C466      1.0  0.51762  0.42661  0.88519  1.0000
  H   H830      1.0  0.51247  0.46522  0.96071  1.0000
  C   C467      1.0  0.67512  0.47529  0.74164  1.0000
  H   H831      1.0  0.51394  0.40830  0.90330  1.0000
  H   H832      1.0  0.49737  0.34482  0.68473  1.0000
  H   H833      1.0  0.63117  0.99477  0.84940  1.0000
  H   H834      1.0  0.59720  0.47804  0.76145  1.0000
  H   H835      1.0  0.74185  0.22626  0.68129  1.0000
  H   H836      1.0  0.68970  0.41914  0.67084  1.0000
  C   C468      1.0  0.48493  0.23022  0.70250  1.0000
  H   H837      1.0  0.78849  0.28420  0.67470  1.0000
  C   C469      1.0  0.60915  0.98950  0.86280  1.0000
  H   H838      1.0  0.49720  0.41395  0.86929  1.0000
  H   H839      1.0  0.75824  0.30375  0.66743  1.0000
  C   C470      1.0  0.49131  0.67147  0.26682  1.0000
  S   S103      1.0  0.55323  0.51880  0.14163  1.0000
  S   S104      1.0  0.52315  0.51801  0.22379  1.0000
  H   H840      1.0  0.58154  0.72183  0.07823  1.0000
  C   C471      1.0  0.52394  0.66626  0.05913  1.0000
  H   H841      1.0  0.90922  0.52031  0.00651  1.0000
  Fe  Fe52      1.0  0.64539  0.66505  0.02670  1.0000
  S   S105      1.0  0.61427  0.65868  0.06691  1.0000
  C   C472      1.0  0.59547  0.97302  0.09850  1.0000
  S   S106      1.0  0.69788  0.70914  0.02237  1.0000
  H   H842      1.0  0.68778  0.65542  0.06778  1.0000
  H   H843      1.0  0.69712  0.80589  0.07359  1.0000
  H   H844      1.0  0.75870  0.61665  0.06377  1.0000
  N   N28       1.0  0.59537  0.76060  0.04423  1.0000
  H   H845      1.0  0.63783  0.73277  0.07563  1.0000
  C   C473      1.0  0.68251  0.77947  0.08291  1.0000
  H   H846      1.0  0.67471  0.56545  0.17329  1.0000
  C   C474      1.0  0.50169  0.91576  0.01099  1.0000
  C   C475      1.0  0.69248  0.59158  0.06912  1.0000
  H   H847      1.0  0.68037  0.70176  0.09535  1.0000
  H   H848      1.0  0.61315  0.83585  0.05007  1.0000
  H   H849      1.0  0.70731  0.69746  0.12306  1.0000
  H   H850      1.0  0.53542  0.98377  0.04629  1.0000
  H   H851      1.0  0.80697  0.62477  0.02075  1.0000
  H   H852      1.0  0.82143  0.63709  0.07383  1.0000
  C   C476      1.0  0.72388  0.64618  0.09618  1.0000
  C   C477      1.0  0.57397  0.95372  0.12062  1.0000
  C   C478      1.0  0.59559  0.61896  0.08654  1.0000
  C   C479      1.0  0.57864  0.61877  0.11198  1.0000
  C   C480      1.0  0.56455  0.58800  0.12869  1.0000
  C   C481      1.0  0.56759  0.55722  0.12019  1.0000
  C   C482      1.0  0.58409  0.55730  0.09452  1.0000
  C   C483      1.0  0.59784  0.58794  0.07767  1.0000
  H   H853      1.0  0.57668  0.64262  0.11897  1.0000
  H   H854      1.0  0.55199  0.58830  0.14844  1.0000
  H   H855      1.0  0.58639  0.53354  0.08772  1.0000
  H   H856      1.0  0.61023  0.58763  0.05788  1.0000
  C   C484      1.0  0.53750  0.70557  0.05210  1.0000
  C   C485      1.0  0.68353  0.86899  0.00551  1.0000
  C   C486      1.0  0.52460  0.94569  0.31106  1.0000
  S   S107      1.0  0.62145  0.95698  0.01451  1.0000
  H   H857      1.0  0.62032  0.78330  0.08353  1.0000
  C   C487      1.0  0.81405  0.62289  0.09433  1.0000
  H   H858      1.0  0.60898  0.96119  0.08583  1.0000
  H   H859      1.0  0.66809  0.59447  0.07224  1.0000
  H   H860      1.0  0.64965  0.57469  0.11423  1.0000
  S   S108      1.0  0.93163  0.51672  0.15139  1.0000
  H   H861      1.0  0.70327  0.60622  0.04920  1.0000
  C   C488      1.0  0.87369  0.70127  0.00238  1.0000
  C   C489      1.0  0.82018  0.65170  0.01360  1.0000
  C   C490      1.0  0.70232  0.69475  0.10000  1.0000
  H   H862      1.0  0.93942  0.56324  0.01713  1.0000
  Fe  Fe53      1.0  0.51402  0.50587  0.17725  1.0000
  S   S109      1.0  0.53006  0.94345  0.16512  1.0000
  H   H863      1.0  0.74403  0.66253  0.08090  1.0000
  H   H864      1.0  0.81063  0.59513  0.09153  1.0000
  H   H865      1.0  0.77627  0.61212  0.12675  1.0000
  S   S110      1.0  0.50557  0.96279  0.23975  1.0000
  H   H866      1.0  0.63126  0.55597  0.16283  1.0000
  C   C491      1.0  0.68261  0.55192  0.06353  1.0000
  H   H867      1.0  0.66808  0.55354  0.01950  1.0000
  C   C492      1.0  0.51510  0.97597  0.31980  1.0000
  C   C493      1.0  0.57352  0.78123  0.04795  1.0000
  H   H868      1.0  0.56651  0.78088  0.07064  1.0000
  H   H869      1.0  0.62255  0.78789  0.00689  1.0000
  H   H870      1.0  0.62249  0.74588  0.01159  1.0000
  C   C494      1.0  0.70480  0.58792  0.12055  1.0000
  H   H871      1.0  0.50357  0.92589  0.29868  1.0000
  C   C495      1.0  0.57702  0.72327  0.05514  1.0000
  H   H872      1.0  0.67062  0.60952  0.13920  1.0000
  H   H873      1.0  0.48961  0.64596  0.27570  1.0000
  H   H874      1.0  0.67468  0.78249  0.10474  1.0000
  C   C496      1.0  0.69356  0.65694  0.09071  1.0000
  H   H875      1.0  0.66031  0.75386  0.04423  1.0000
  H   H876      1.0  0.54835  0.96059  0.00446  1.0000
  H   H877      1.0  0.65018  0.51047  0.03567  1.0000
  H   H878      1.0  0.52877  0.70834  0.03059  1.0000
  C   C497      1.0  0.62731  0.77843  0.06179  1.0000
  S   S111      1.0  0.96797  0.50964  0.23018  1.0000
  C   C498      1.0  0.93993  0.52052  0.04347  1.0000
  H   H879      1.0  0.67055  0.53584  0.08245  1.0000
  Fe  Fe54      1.0  0.49719  0.96153  0.19296  1.0000
  H   H880      1.0  0.65289  0.53073  0.14816  1.0000
  H   H881      1.0  0.74767  0.57780  0.08455  1.0000
  H   H882      1.0  0.73429  0.65565  0.11756  1.0000
  C   C499      1.0  0.85621  0.66641  0.01140  1.0000
  H   H883      1.0  0.49559  0.65422  0.05764  1.0000
  H   H884      1.0  0.66990  0.63974  0.10174  1.0000
  C   C500      1.0  0.65645  0.55740  0.15534  1.0000
  C   C501      1.0  0.58965  0.82034  0.03798  1.0000
  H   H885      1.0  0.64338  0.80468  0.05285  1.0000
  H   H886      1.0  0.78643  0.65292  0.10787  1.0000
  C   C502      1.0  0.95621  0.55370  0.13054  1.0000
  H   H887      1.0  0.53141  0.66209  0.08090  1.0000
  H   H888      1.0  0.52552  0.71773  0.06707  1.0000
  H   H889      1.0  0.78737  0.97801  0.03537  1.0000
  H   H890      1.0  0.69970  0.76538  0.08390  1.0000
  C   C503      1.0  0.65114  0.75853  0.06498  1.0000
  H   H891      1.0  0.50644  0.91631  0.03406  1.0000
  C   C504      1.0  0.55669  0.96889  0.13760  1.0000
  H   H892      1.0  0.72281  0.60117  0.13794  1.0000
  H   H893      1.0  0.52993  0.93266  0.32990  1.0000
  H   H894      1.0  0.83528  0.63567  0.10951  1.0000
  C   C505      1.0  0.94000  0.56428  0.10874  1.0000
  H   H895      1.0  0.57083  0.92693  0.12471  1.0000
  H   H896      1.0  0.63308  0.54230  0.04438  1.0000
  C   C506      1.0  0.78126  0.62465  0.10554  1.0000
  H   H897      1.0  0.92015  0.52202  0.05785  1.0000
  C   C507      1.0  0.49030  0.96794  0.08790  1.0000
  C   C508      1.0  0.69538  0.84624  0.01963  1.0000
  C   C509      1.0  0.75062  0.60560  0.08538  1.0000
  C   C510      1.0  0.56487  0.83808  0.04222  1.0000
  H   H898      1.0  0.70495  0.56123  0.11926  1.0000
  N   N29       1.0  0.71713  0.60765  0.09310  1.0000
  C   C511      1.0  0.78631  0.86842  0.00325  1.0000
  H   H899      1.0  0.70527  0.79911  0.01738  1.0000
  S   S112      1.0  0.68326  0.90588  0.02410  1.0000
  S   S113      1.0  0.95011  0.64154  0.01126  1.0000
  H   H900      1.0  0.94616  0.60063  0.07411  1.0000
  H   H901      1.0  0.91269  0.55044  0.10571  1.0000
  C   C512      1.0  0.66914  0.58397  0.13106  1.0000
  H   H902      1.0  0.82189  0.49378  0.22011  1.0000
  H   H903      1.0  0.70450  0.85211  0.04108  1.0000
  H   H904      1.0  0.72510  0.71333  0.08839  1.0000
  H   H905      1.0  0.54122  0.82470  0.02961  1.0000
  C   C513      1.0  0.65692  0.53889  0.03929  1.0000
  H   H906      1.0  0.87052  0.65098  0.01699  1.0000
  H   H907      1.0  0.70527  0.54691  0.05743  1.0000
  S   S114      1.0  0.75592  0.65191  0.01139  1.0000
  C   C514      1.0  0.95887  0.59264  0.09079  1.0000
  H   H908      1.0  0.57724  0.86600  0.03514  1.0000
  H   H909      1.0  0.54883  0.76876  0.03665  1.0000
  H   H910      1.0  0.59615  0.82245  0.01519  1.0000
  Fe  Fe55      1.0  0.95339  0.49248  0.18527  1.0000
  H   H911      1.0  0.58782  0.70588  0.04500  1.0000
  H   H912      1.0  0.96709  0.51028  0.09289  1.0000
  Fe  Fe56      1.0  0.67222  0.95298  0.00973  1.0000
  S   S115      1.0  0.66143  0.62522  0.00756  1.0000
  H   H913      1.0  0.51867  0.69003  0.26599  1.0000
  H   H914      1.0  0.53435  0.65264  0.04408  1.0000
  C   C515      1.0  0.60608  0.76072  0.01388  1.0000
  H   H915      1.0  0.55806  0.83765  0.06488  1.0000
  H   H916      1.0  0.49732  0.83085  0.24504  1.0000
  H   H917      1.0  0.49884  0.74202  0.27869  1.0000
  H   H918      1.0  0.54788  0.95606  0.29760  1.0000
  C   C516      1.0  0.69574  0.81616  0.00630  1.0000
  C   C517      1.0  0.80115  0.67160  0.00689  1.0000
  C   C518      1.0  0.93543  0.53525  0.01482  1.0000
  H   H919      1.0  0.54223  0.89788  0.00234  1.0000
  H   H920      1.0  0.50051  0.86310  0.00813  1.0000
  N   N30       1.0  0.50908  0.98089  0.00651  1.0000
  H   H921      1.0  0.96550  0.53805  0.05163  1.0000
  H   H922      1.0  0.50955  0.95682  0.09200  1.0000
  H   H923      1.0  0.76832  0.86238  0.02135  1.0000
  H   H924      1.0  0.79902  0.93458  0.01009  1.0000
  H   H925      1.0  0.81293  0.88215  0.01111  1.0000
  H   H926      1.0  0.75382  0.91665  0.00757  1.0000
  H   H927      1.0  0.91879  0.51090  0.64841  1.0000
  H   H928      1.0  0.48950  0.95074  0.35726  1.0000
  H   H929      1.0  0.95881  0.49738  0.61738  1.0000
  H   H930      1.0  0.98277  0.53634  0.65465  1.0000
  S   S116      1.0  0.51707  0.50928  0.75425  1.0000
  Fe  Fe57      1.0  0.51461  0.52524  0.79928  1.0000
  S   S117      1.0  0.54955  0.57851  0.81719  1.0000
  C   C519      1.0  0.50589  0.50923  0.93866  1.0000
  H   H931      1.0  0.93362  0.64409  0.85318  1.0000
  H   H932      1.0  0.85630  0.62577  0.85696  1.0000
  H   H933      1.0  0.74407  0.52142  0.73595  1.0000
  S   S118      1.0  0.68506  0.77139  0.96061  1.0000
  C   C520      1.0  0.86966  0.57916  0.97988  1.0000
  C   C521      1.0  0.50344  0.67302  0.77137  1.0000
  C   C522      1.0  0.95560  0.55118  0.86851  1.0000
  S   S119      1.0  0.69787  0.68170  0.95684  1.0000
  H   H934      1.0  0.90019  0.60062  0.84834  1.0000
  Fe  Fe58      1.0  0.67911  0.71841  0.97985  1.0000
  Fe  Fe59      1.0  0.64541  0.63971  0.96579  1.0000
  S   S120      1.0  0.61565  0.59086  0.93958  1.0000
  H   H935      1.0  0.77240  0.97130  0.91569  1.0000
  C   C523      1.0  0.52006  0.66676  0.79880  1.0000
  C   C524      1.0  0.51078  0.49051  0.96556  1.0000
  H   H936      1.0  0.53091  0.64684  0.79597  1.0000
  C   C525      1.0  0.78523  0.66209  0.91409  1.0000
  C   C526      1.0  0.97296  0.58025  0.85109  1.0000
  H   H937      1.0  0.55753  0.75575  0.99379  1.0000
  H   H938      1.0  0.90956  0.74896  0.93888  1.0000
  C   C527      1.0  0.54369  0.51354  0.98095  1.0000
  C   C528      1.0  0.92665  0.74299  0.92412  1.0000
  H   H939      1.0  0.69434  0.93460  0.92263  1.0000
  C   C529      1.0  0.68472  0.80876  0.97838  1.0000
  C   C530      1.0  0.67382  0.83213  0.96389  1.0000
  C   C531      1.0  0.67279  0.86186  0.97746  1.0000
  H   H940      1.0  0.66562  0.82688  0.94214  1.0000
  H   H941      1.0  0.66372  0.87919  0.96622  1.0000
  H   H942      1.0  0.93793  0.53326  0.91073  1.0000
  H   H943      1.0  0.76708  0.63572  0.90691  1.0000
  C   C532      1.0  0.52220  0.62476  0.73253  1.0000
  C   C533      1.0  0.54933  0.70063  0.80846  1.0000
  C   C534      1.0  0.57791  0.98608  0.85066  1.0000
  H   H944      1.0  0.80725  0.64228  0.94668  1.0000
  H   H945      1.0  0.86367  0.59330  0.99745  1.0000
  H   H946      1.0  0.63440  0.48719  0.78322  1.0000
  C   C535      1.0  0.74943  0.96347  0.92934  1.0000
  C   C536      1.0  0.56860  0.58209  0.85095  1.0000
  C   C537      1.0  0.58121  0.61462  0.86498  1.0000
  C   C538      1.0  0.59616  0.61803  0.89200  1.0000
  C   C539      1.0  0.59866  0.58888  0.90514  1.0000
  C   C540      1.0  0.58646  0.55654  0.89090  1.0000
  C   C541      1.0  0.57162  0.55318  0.86393  1.0000
  H   H947      1.0  0.57928  0.63723  0.85497  1.0000
  H   H948      1.0  0.60555  0.64309  0.90271  1.0000
  H   H949      1.0  0.58876  0.53401  0.90072  1.0000
  H   H950      1.0  0.56291  0.52837  0.85294  1.0000
  H   H951      1.0  0.49237  0.69221  0.77690  1.0000
  H   H952      1.0  0.56043  0.69546  0.82834  1.0000
  N   N31       1.0  0.77987  0.95402  0.97431  1.0000
  Fe  Fe60      1.0  0.95898  0.69740  0.00044  1.0000
  C   C542      1.0  0.78690  0.50960  0.72456  1.0000
  H   H953      1.0  0.74750  0.97158  0.99937  1.0000
  S   S121      1.0  0.68226  0.97792  0.96660  1.0000
  C   C543      1.0  0.62554  0.48743  0.76119  1.0000
  H   H954      1.0  0.79215  0.50313  0.74638  1.0000
  H   H955      1.0  0.51599  0.63042  0.71081  1.0000
  H   H956      1.0  0.77180  0.67195  0.92965  1.0000
  H   H957      1.0  0.79293  0.68058  0.89583  1.0000
  H   H958      1.0  0.84197  0.66325  0.88831  1.0000
  H   H959      1.0  0.90706  0.62584  0.96097  1.0000
  H   H960      1.0  0.50148  0.53234  0.94620  1.0000
  H   H961      1.0  0.83347  0.59269  0.93688  1.0000
  H   H962      1.0  0.84629  0.55577  0.97413  1.0000
  C   C544      1.0  0.53546  0.59584  0.73022  1.0000
  H   H963      1.0  0.93759  0.53151  0.68112  1.0000
  H   H964      1.0  0.91113  0.63421  0.90211  1.0000
  S   S122      1.0  0.58633  0.97705  0.94672  1.0000
  H   H965      1.0  0.83321  0.68665  0.93535  1.0000
  C   C545      1.0  0.81435  0.96763  0.95974  1.0000
  H   H966      1.0  0.54342  0.64840  0.74094  1.0000
  H   H967      1.0  0.52416  0.68735  0.75601  1.0000
  H   H968      1.0  0.79762  0.89755  0.96424  1.0000
  H   H969      1.0  0.49673  0.60253  0.77156  1.0000
  H   H970      1.0  0.49431  0.56898  0.85858  1.0000
  H   H971      1.0  0.51547  0.57168  0.72111  1.0000
  S   S123      1.0  0.96155  0.59353  0.94639  1.0000
  H   H972      1.0  0.88939  0.57003  0.98729  1.0000
  H   H973      1.0  0.87098  0.59875  0.89596  1.0000
  C   C546      1.0  0.90689  0.70837  0.90880  1.0000
  H   H974      1.0  0.81308  0.95143  0.94077  1.0000
  H   H975      1.0  0.53995  0.72153  0.81248  1.0000
  H   H976      1.0  0.81765  0.61961  0.89942  1.0000
  H   H977      1.0  0.55820  0.60471  0.71617  1.0000
  C   C547      1.0  0.96514  0.58969  0.90943  1.0000
  C   C548      1.0  0.81658  0.65982  0.92801  1.0000
  S   S124      1.0  0.62556  0.67683  0.98566  1.0000
  H   H978      1.0  0.50093  0.65822  0.81607  1.0000
  H   H979      1.0  0.75264  0.91586  0.94219  1.0000
  H   H980      1.0  0.84852  0.62810  0.96126  1.0000
  H   H981      1.0  0.89013  0.66802  0.86286  1.0000
  H   H982      1.0  0.90395  0.63589  0.82433  1.0000
  H   H983      1.0  0.60942  0.73907  0.95869  1.0000
  H   H984      1.0  0.80344  0.53769  0.72017  1.0000
  H   H985      1.0  0.53076  0.52083  0.92725  1.0000
  S   S125      1.0  0.91907  0.72120  0.99898  1.0000
  H   H986      1.0  0.75274  0.87479  0.97222  1.0000
  H   H987      1.0  0.89033  0.58839  0.93817  1.0000
  H   H988      1.0  0.88604  0.71167  0.89693  1.0000
  H   H989      1.0  0.94540  0.52500  0.85966  1.0000
  C   C549      1.0  0.92028  0.50629  0.67137  1.0000
  Fe  Fe61      1.0  0.71295  0.66960  0.99998  1.0000
  H   H990      1.0  0.83400  0.96426  0.97353  1.0000
  C   C550      1.0  0.52121  0.95285  0.99821  1.0000
  H   H991      1.0  0.88241  0.68529  0.94832  1.0000
  H   H992      1.0  0.91616  0.67415  0.93826  1.0000
  C   C551      1.0  0.75110  0.93866  0.95327  1.0000
  H   H993      1.0  0.92497  0.70442  0.89385  1.0000
  H   H994      1.0  0.56924  0.73865  0.94683  1.0000
  C   C552      1.0  0.88485  0.49637  0.68435  1.0000
  H   H995      1.0  0.56642  0.51821  0.96749  1.0000
  Fe  Fe62      1.0  0.98087  0.64418  0.97196  1.0000
  H   H996      1.0  0.72604  0.92826  0.96453  1.0000
  C   C553      1.0  0.77759  0.92489  0.99465  1.0000
  N   N32       1.0  0.86770  0.64254  0.91858  1.0000
  C   C554      1.0  0.83605  0.64576  0.90709  1.0000
  C   C555      1.0  0.88393  0.62806  0.89644  1.0000
  C   C556      1.0  0.85643  0.61656  0.94293  1.0000
  C   C557      1.0  0.89321  0.67710  0.92984  1.0000
  C   C558      1.0  0.95133  0.55597  0.89744  1.0000
  C   C559      1.0  0.77823  0.89111  0.98128  1.0000
  C   C560      1.0  0.88341  0.60352  0.95437  1.0000
  C   C561      1.0  0.88273  0.63941  0.86530  1.0000
  H   H997      1.0  0.93706  0.76487  0.90855  1.0000
  H   H998      1.0  0.60307  0.77959  0.95727  1.0000
  H   H999      1.0  0.68928  0.49043  0.68877  1.0000
  H   H1000     1.0  0.94836  0.74162  0.93626  1.0000
  C   C562      1.0  0.81858  0.70632  0.99751  1.0000
  C   C563      1.0  0.90655  0.62931  0.84673  1.0000
  S   S126      1.0  0.52009  0.97882  0.74599  1.0000
  H   H1001     1.0  0.79367  0.49312  0.70939  1.0000
  C   C564      1.0  0.59062  0.75093  0.96195  1.0000
  C   C565      1.0  0.85463  0.72104  0.99535  1.0000
  C   C566      1.0  0.74928  0.50343  0.72129  1.0000
  H   H1002     1.0  0.50517  0.52010  0.88339  1.0000
  H   H1003     1.0  0.78365  0.84317  0.99354  1.0000
  H   H1004     1.0  0.54310  0.58964  0.75132  1.0000
  H   H1005     1.0  0.54340  0.53937  0.98653  1.0000
  H   H1006     1.0  0.71681  0.96358  0.89411  1.0000
  H   H1007     1.0  0.74572  0.51087  0.69939  1.0000
  H   H1008     1.0  0.80437  0.72199  0.99225  1.0000
  H   H1009     1.0  0.63652  0.51481  0.75281  1.0000
  H   H1010     1.0  0.68605  0.50346  0.73498  1.0000
  C   C567      1.0  0.57690  0.74446  0.99215  1.0000
  S   S127      1.0  0.97423  0.51506  0.74879  1.0000
  C   C568      1.0  0.77425  0.98196  0.99114  1.0000
  H   H1011     1.0  0.56990  0.71003  0.79227  1.0000
  H   H1012     1.0  0.56448  0.71550  0.99527  1.0000
  H   H1013     1.0  0.87586  0.51757  0.68012  1.0000
  H   H1014     1.0  0.72097  0.92242  0.89924  1.0000
  H   H1015     1.0  0.52122  0.95037  0.97486  1.0000
  H   H1016     1.0  0.48939  0.66524  0.71647  1.0000
  C   C569      1.0  0.98195  0.61888  0.89196  1.0000
  C   C570      1.0  0.58393  0.98013  0.90966  1.0000
  H   H1017     1.0  0.49233  0.56273  0.91087  1.0000
  H   H1018     1.0  0.88597  0.49306  0.70757  1.0000
  H   H1019     1.0  0.50981  0.88722  0.97519  1.0000
  C   C571      1.0  0.51439  0.88944  0.99834  1.0000
  C   C572      1.0  0.49018  0.61308  0.75189  1.0000
  C   C573      1.0  0.71848  0.94480  0.91025  1.0000
  C   C574      1.0  0.55262  0.97637  0.89748  1.0000
  C   C575      1.0  0.54958  0.97927  0.86810  1.0000
  Fe  Fe63      1.0  0.98104  0.52572  0.79569  1.0000
  H   H1020     1.0  0.53060  0.97125  0.91084  1.0000
  S   S128      1.0  0.97919  0.57534  0.81463  1.0000
  H   H1021     1.0  0.52542  0.97655  0.85896  1.0000
  H   H1022     1.0  0.86788  0.74803  0.98829  1.0000
  Fe  Fe64      1.0  0.63372  0.98606  0.97292  1.0000
  C   C576      1.0  0.61221  0.98657  0.89222  1.0000
  H   H1023     1.0  0.95436  0.53404  0.99931  1.0000
  H   H1024     1.0  0.54618  0.50022  0.00071  1.0000
