data_image0
_chemical_formula_structural       HSH2SH4NFeSHFeSHFeHFeSCSFeS2FeS2FeSFeS3HCH3C3H4SH2C2H3SC6H4CHNC3H2SC3H4CHCHC2H9CHCHSCHCSH4CHCHSH2CHC2HC2FeCHCHCHNC12H19CH3C2H3CH4CH2C2HC3H4CFeNSH2CHCH3CHNC2H4CH2C2H2CHC2H2C2HCH2FeHCNHSC2H3CH8CH3C2HCH2CHCH2CH2CH5C5H2C2H5CHC4HSCHSCH2C2FeS2FeS2FeSFeS3FeS2FeS2FeSFeS3H3CH2CHCHCHCH2C2H3NC6H8CNC7H3CHC3H4CHC2HCH3CHC2H6C4H14C2SH3FeH4CH6CNC2HC3FeHCHC3HCH2CHC2H3CH3CHCH2C3H3C2H2CH4CHNCHC2H2CHC2H4CH4CH15CH2C2H6C2H4SCH3SH3C2H2CH2C3HCFeS2FeS2FeSFeS2FeHSHSFeS2HS2FeSFeCSH2SFeSH2FeS2FeSHFeS2FeSFeS3H2CH3C7H4CH2CH3CH2C6H9C6H4C6H4C6H4C2SH2C3H16CH3CH6CHCH3SC2HC2H4C3H4CH9CH3FeH4CHCHNC10HCH24CH3NC4HC3H2C2H18C2HCHCH2CH2CHSH4C2HC2HSHC2H5C2HCH4CH6CSC2HCHFeC5H5CH2CH3CH5CHCHCH4SNHCH3NH7C2HCH2CH2FeSHC3HCHCH2FeS2FeS2FeSFeS2FeS2HSFeS2CS2FeSFeS2CHSCSHFe2SHFeSHFeS2CHFeS3H7C6H8CHC10H4CH3SC6H4C6H4C6H4C2H7N2H3C2HCHC2HC2HCH6CSC2H3CHCH7CH7NC12H28C2HCHSC2HC2H2CH2CNH2SHFeNC12H29NCHC6H3CHCH12CH3FeH3CHCH4C2H2CH3NC9HC2H19CH11C2H2CHNH2CHC2H6CFeH2CNHCHCH8C4H3CHC2SH2CHSCH8NC2HCH2CHCH2CH3SHFeCHCHCHCH2CHCNH3SH2C2H9CH2CH6FeHCHCH2C2H2CH3CHCHCHCSFeS2FeSHSFeHS2FeS2FeS2FeSFeS3C4H3C6H4C6H4C6H5NC12H20CH7NC11H19CH7SH3CH11CH7CH2NH6C2H3C2FeH3CHCNH2CHCHC2H2CH2CH2CH5C5H7C3H3CH3SFeS2FeH2SFe2S2FeS2FeS2FeSFeS3C4NH2C6H4C6H4C6H4C3H5C3H4CH2CH3CH5C3H4CH5NC12H31CHNCHCH2C2SH12C2H3CH4CH5CH6NHCH2C4H3SCH3CHCH2CH3CHC3FeS2FeS2FeSFeS3FeS2FeS2FeSFeS3FeHSFeS2HSFeS3C6H4CH4C2HCH3C7H4CNC4H4C2HC4NCHCHNCH3C2H3C2SC3H4C2H2C2H2CHC2H12NC2H3CHFeHCH3CHCHC3H6CH3C2H4CH3CHCH11C2H3CH6CH3C2HNC4HC4HCH9NH2C2H3C3HCH8CH4C2H3C2HCH4CH9C2H4NH4C3H2CH2CHCH2C2HCH2CH4C3H2CH2CHC2H4CH5NCH2C3H3CHC2H14CH8CH2SCHC2HC3HFeS2FeS2FeSFeS3FeS2FeSCFeSFeS3FeCSFeS2CHFeS3C6H5CH3CH3CH3C6H4C6SH6C2HCH3CH3CHC2HCH3CH5CHCH5CH5CH3C2NC2H4CHC2H2C2H3CHCH4CHCH4CH2CH2CH2CHC2H4CH2CHCH2CSHCHCHC2NH5CHCHCHCH2CH4CH3CHCH2CHCH2CHC2H4SC3H5CH2NH3FeH7NCH8CHCHCH4CH2C5H3CHCH4CH5C2H2CNH3C3H3SHC2H2CH2C2H5CHC2HC5HNH2CH2NH2CHCH2C2HCH4C2HCH9C2HFeSHFeS2FeSFeS3FeS2FeS2FeSFeS3FeHSFeS2CSFeS3C2HC6H4C6H4C3HC7H4CHC4H2SC2H5C2HC2H6CHCNC11H30C7HC4HCH6CH7NC7H3CH16CH4CHCH2NHCH6CHC2H6C2H2CH4CHC2NC12H27CH8CHC2H3CH5C2NH3C3H5CHCH4CHSCH6CH4C2H6CH2FeSCFeS2FeSFeS3FeS2FeS2FeSFeS3FeHSFeS2HSFeS3C2HC6H4C6H5C3HC6H4CHC3H10C7H3CH2NHCH7CH8CH2CH8CHNHC8H2C2H7CHC2H7C2H2CH4CH3CH2CH2FeHCH4CNC12H28NC6H3C2H8CH5CH2CH2CH2CH5C2HCHCH2C2H2C4HCH2NC2H8CH3NHCH6SHC2H2CH5C2SHCHC3H3CH5CFeHCH4C3SHCH3CH4SFeS2FeS2FeSFeS4FeS2FeSFeS2CFeS2FeH2SFeS3C2HC2H2C3H2C7H4C6H4C6H4C6H8CHCH3C5HCH5NC11H16NH7CH2SH4CNCHCH9NH2CHCH4CHCH6CHC2HCH2C3H6C2H3NH3CHCH3CH3CH4C2H7C2H5CH4SH5CHCH3C2HCH2CHCH7C7H4CH6NCHC4H2C2H4CH6CHCHC2H2CH4C2H5SHC2H2CNHSFeS2FeS2FeSFeS4FeS2FeSFeS2HFeS2FeC2SFeS3C5HCHCFeC9H4C6H4C6H4C6H5NC4H19C2HC2H3CH2SNC11H26SH4CH3CH6CH5C2H3CNHNCHCHC3H2CH4CH5CH3CH4CH3CNC8H2C2H18CH10CHCH5FeHCH2CH4C2H3C2H3C3HC2H2CHCH4CH4CHFeHCH5FeS2FeS2FeSHS2FeS2FeS2FeSFeS3FeS2FeHFeC2S3HSC6H4C6H4C6H5C3H4C6H4NCH7CH3SCH2CNH4C3H4CHCH2CH7CHC2H2CHCHC2H2CH6NFeH3CHFeCH5C3H3CHCHCH2NCHC4HC2HCH4CH10CH8CH5C2HCH2CH5CH2NCH6CH4CHCH4CH3NHCH2CH2NC12H18CH4CH2CHSHCH3CHFeCHCHCHCH4CH2C2HCH5CHCH9C2HCHCHC2H3C2HFeS2FeS2FeS4FeS2FeS2FeSFeS3FeS2H2FeSCSCSCSC6H4C6H4C6H12C6H5CFeNH2C3HC2HCH3NSHCH3C2H2CH2NH3CH2C3H2CHCH4C3HCHCH5CH2CHCH2CH5C2HCH2CHCH9CFeH4C2H7CH6CH2CNC12H28NC9H10FeH2CH6C3HFeS2FeS2FeSFeS3H3CH7CHCH4CH2FeH2FeS2FeSHS3FeS2FeS2FeSFeS3C5H6C6H4C6H4CHC6H2CHCH4CH4CHNH2CH3CH2CHCH4C3HCHCH10NH3CH2C7H2SHC2H2C2H2CH2CH2FeH3C3H3CH2NC9HC2H13CH7CH3CH2NC9H17CHCHCH4C2NH4CHC2HCHCH4C3H2CH2CH4CHC2NCHC2H4CH8CH4C2H7SH6CHC2HC2H2NSHCH2CFeHSFeS2FeSCS3FeS2FeS2FeSFeS3FeS2FeS2FeHFeS3CH4CH3CH2NC2H2NC6H7C6H4C6H6C5HCHCH5CSH3CHCHCH6SH2CH4FeHCHC4NC11H20CH3NC12H29SC2HC2H4C2HC2H4CH5NC9HC2H8CH7CH4CH6CH11CHCH3CHCHCH2CH2CH2C2NH3CH3CH4CH4CHC2HC2H3CH2CH2CH3C2HFeS2FeS2FeCFeS3FeS2FeCSHSFeS3FeS2FeS2FeSFeS3CH2CHCHCHC2H2C2H3C4H2C6H4C6H4C6H4CH2CHCH3CH6CHC2H2CHC3HCSCH4C2H5CH2CH3CNH2SNH3CH7C3HCH2C2H3CHCH3C5H3NC2HNC11H34CH2C2H3CHCH3CH2FeHCH14CH6C3HCHCHCHC2H2CH2CH7CHCHCNH4CH5C2H4CHC2HNCH2C2H3CHCHCH2C2H5CHCFeCFeS2FeS2FeSFeS3FeS2FeCSHSFeS3FeS2FeS2FeSFeS3C2HCHC4HCH2C3H2CH2CH2C6H4C8H2C6H4C2H6CHCH3CH2CHCHNC10H31CHCH4CH3C2H2CHCH4CH11C2H3CH2NHCHC2HC2HC2NHCH9CH2CHC3H4NHSH2CH3CH6CH3CH4C2H2C4H9C3HCH7CHCH3C2HCH2C2HC2H2CHN2H3CH3NHCNCHCHCH3C2H2CH4C2H3C2H4C2HCH7C2H2CH2C3HCH2CHCHC3HCH2CH5FeS2FeS2FeSFeS3CS2FeSHFeCFeSHSHNH2C6H4C6H4C6H5C2HNC12H17CH10NC2H2CHCH3C2H11CHCH3CHCH2CH7C3SC2H3C3H2CHCH7CHCH6C2HCH3NH2C2H4CHSH2C2H2C2H3CH8CHSHFeCH4CSHCH2CH2FeS2FeS2FeSFeS3HSHFeS2FeHFeSHSH2CHC6H4C6H4C6H5SCH4CH5C2H2C2HSH4C3H5CH5C4HCH3NHCH3CHCSH4C2HC2H5CHCHC2H10CHCHC2H2CHCHCH2CHCH2NHCHNCHCH2CH5C2HCH3CH6CHSCH4CHNC4H3CH8CFeH5CHCS2FeS2FeSFeHSHFeSFeS2FeSFeSFeS3HS2FeS2FeSFeSCSH2FeSC7H7CH4C2H3CHCHCHC4HSH2C6H4C6H4C6H5CHCH3CH4CH9C3H4CNC12H36CH3C2H2SC2NCH2CH6CFeSFeH3CH2C3H4NC9HC2H24CH7SHCH9CHNC4HC3HCH14CH6C2NH2CHCSC4H2C2H5CHCHC2H14CSCHC2H3CSC2HCH3CHSHC2HSNCH3C2H7CH7CSH7CH4C2NH2CHCHC3H2C2H2C2HCH14CSFeS2FeSFeHSHFeSFeS2FeSFeSFeS3CS2FeS2FeSFeH2S3FeS2C6H3CH2C2HCHCH3CH4C6H4C7H4C6H4C6H6C5H3CHCH4CH3CHC2NH6CH4CH2CHCH10CH3C2H2CH4CH3CH8NH2CH3CH4CHCNC2HC2HC3H2CH2C2HCHCH3CH3C2H2FeH3CSCH2SH3CH4C2H3CH3CH2C3H2CH3CHCHCFeH2CHNCHC3HC2H5SH3NH2CH4CNC6HCSC2H3CSH9CH6NH2CH4CH2C2H3SCH3CH4FeCHCH2SCH5CH3SCH2CH7CH9CH2C2N2HC2H3C3H5C2H2CH3CH2CH2CH2C3FeH3C2H5FeC2H2SH2CH2SHC2HCH3NFeS2FeS2FeSFeS3FeS2FeSHFeSFeS3CHCHC2FeH2CH2FeH2C6H4CH5C2H2FeH2C6H2CH2CSC2H5CHCH7NCH3CHCH3FeH4SH10SH7CFeCHCHC2H2CH4CH5C2H3CHCHCHC4H5C2H8C2HNH2CHCNCH2C2H2CH4CHCSCHC2SHCH3C4H2CH4CHC2HCH4C3H2CSC2HC3HC2HCHC2HCH2CH2C3HCH2CH3NHSHSFeH5CH3CS2FeS2FeS2FeSFeS3FeS2FeS2FeSFeHS2C3HCHCH3C4HC6H9C3H4C8H2CH5SH5CH4NCHC2HC2H2SC2HC3H4C2H3CH2CH2CH5CHCNH2C2SHCH4CH3CH4C2H6CH6FeHCH2FeH2CH2CSC2H6CH2CHCFeN2C9HC2H28C2SHNHCHC2HCH2CH2CH2CHC2HCH4C3H2C2H4CHC3H4CH3C3H5CH5
_chemical_formula_sum              "H4608 S576 N144 Fe288 C2592"
_cell_length_a       88.5215
_cell_length_b       89.3298
_cell_length_c       45.1036
_cell_angle_alpha    90.951
_cell_angle_beta     92.7183
_cell_angle_gamma    113.752

_space_group_name_H-M_alt    "P 1"
_space_group_IT_number       1

loop_
  _space_group_symop_operation_xyz
  'x, y, z'

loop_
  _atom_site_type_symbol
  _atom_site_label
  _atom_site_symmetry_multiplicity
  _atom_site_fract_x
  _atom_site_fract_y
  _atom_site_fract_z
  _atom_site_occupancy
  H   H1        1.0  0.27910  0.09018  0.10929  1.0000
  S   S1        1.0  0.02294  0.21609  0.35710  1.0000
  H   H2        1.0  0.26120  0.07497  0.01370  1.0000
  H   H3        1.0  0.12473  0.18596  0.31901  1.0000
  S   S2        1.0  0.99629  0.20418  0.42903  1.0000
  H   H4        1.0  0.17541  0.19045  0.34915  1.0000
  H   H5        1.0  0.20426  0.18275  0.33685  1.0000
  H   H6        1.0  0.09303  0.20644  0.21397  1.0000
  H   H7        1.0  0.21191  0.18917  0.27679  1.0000
  N   N1        1.0  0.28483  0.11127  0.08222  1.0000
  Fe  Fe1       1.0  0.24064  0.20535  0.13217  1.0000
  S   S3        1.0  0.21971  0.18308  0.11095  1.0000
  H   H8        1.0  0.18833  0.06743  0.26221  1.0000
  Fe  Fe2       1.0  0.26550  0.20257  0.08824  1.0000
  S   S4        1.0  0.24597  0.18032  0.06462  1.0000
  H   H9        1.0  0.28074  0.01536  0.19306  1.0000
  Fe  Fe3       1.0  0.22947  0.19401  0.06693  1.0000
  H   H10       1.0  0.28444  0.10695  0.03469  1.0000
  Fe  Fe4       1.0  0.23805  0.17120  0.10971  1.0000
  S   S5        1.0  0.23635  0.14670  0.12843  1.0000
  C   C1        1.0  0.28306  0.15428  0.09308  1.0000
  S   S6        1.0  0.25840  0.19291  0.13343  1.0000
  Fe  Fe5       1.0  0.22880  0.05482  0.08954  1.0000
  S   S7        1.0  0.24614  0.05790  0.12902  1.0000
  S   S8        1.0  0.21985  0.07454  0.07538  1.0000
  Fe  Fe6       1.0  0.22817  0.02123  0.07169  1.0000
  S   S9        1.0  0.24610  0.02262  0.11018  1.0000
  S   S10       1.0  0.21807  0.99686  0.04441  1.0000
  Fe  Fe7       1.0  0.23073  0.03142  0.13817  1.0000
  S   S11       1.0  0.22749  0.02495  0.18755  1.0000
  Fe  Fe8       1.0  0.26016  0.04881  0.09840  1.0000
  S   S12       1.0  0.28811  0.06241  0.10593  1.0000
  S   S13       1.0  0.21204  0.02889  0.10049  1.0000
  S   S14       1.0  0.24353  0.04687  0.05794  1.0000
  H   H11       1.0  0.21642  0.01769  0.99542  1.0000
  C   C2        1.0  0.27647  0.10137  0.10810  1.0000
  H   H12       1.0  0.25295  0.22841  0.30390  1.0000
  H   H13       1.0  0.25448  0.10128  0.04895  1.0000
  H   H14       1.0  0.25148  0.20751  0.01691  1.0000
  C   C3        1.0  0.13299  0.19808  0.32924  1.0000
  C   C4        1.0  0.21469  0.00830  0.20889  1.0000
  C   C5        1.0  0.21995  0.00697  0.23836  1.0000
  H   H15       1.0  0.20586  0.19797  0.36426  1.0000
  H   H16       1.0  0.23769  0.17477  0.41452  1.0000
  H   H17       1.0  0.25998  0.09223  0.16057  1.0000
  H   H18       1.0  0.23165  0.01600  0.24758  1.0000
  S   S15       1.0  0.21269  0.19279  0.02534  1.0000
  H   H19       1.0  0.22654  0.21015  0.27472  1.0000
  H   H20       1.0  0.29141  0.16611  0.10426  1.0000
  C   C6        1.0  0.26858  0.01231  0.18097  1.0000
  C   C7        1.0  0.29865  0.06868  0.04854  1.0000
  H   H21       1.0  0.99633  0.20374  0.28232  1.0000
  H   H22       1.0  0.29375  0.14051  0.11834  1.0000
  H   H23       1.0  0.28597  0.06144  0.04077  1.0000
  S   S16       1.0  0.20381  0.22304  0.40822  1.0000
  C   C8        1.0  0.23341  0.12737  0.11184  1.0000
  C   C9        1.0  0.23694  0.11607  0.12923  1.0000
  C   C10       1.0  0.23362  0.10015  0.11792  1.0000
  C   C11       1.0  0.22649  0.09519  0.08916  1.0000
  C   C12       1.0  0.22327  0.10657  0.07156  1.0000
  C   C13       1.0  0.22685  0.12260  0.08268  1.0000
  H   H24       1.0  0.24198  0.11960  0.15183  1.0000
  H   H25       1.0  0.23600  0.09152  0.13180  1.0000
  H   H26       1.0  0.21763  0.10286  0.04935  1.0000
  H   H27       1.0  0.22397  0.13107  0.06905  1.0000
  C   C14       1.0  0.29116  0.14205  0.09465  1.0000
  H   H28       1.0  0.30751  0.07370  0.00447  1.0000
  N   N2        1.0  0.22677  0.20486  0.33632  1.0000
  C   C15       1.0  0.30871  0.22586  0.06730  1.0000
  C   C16       1.0  0.27897  0.10014  0.05465  1.0000
  C   C17       1.0  0.25578  0.08414  0.01630  1.0000
  H   H29       1.0  0.99102  0.18656  0.16749  1.0000
  H   H30       1.0  0.25831  0.23274  0.34311  1.0000
  S   S17       1.0  0.24948  0.21685  0.08806  1.0000
  C   C18       1.0  0.20024  0.21187  0.22267  1.0000
  C   C19       1.0  0.21078  0.21050  0.20110  1.0000
  C   C20       1.0  0.15027  0.20195  0.22212  1.0000
  H   H31       1.0  0.19826  0.21417  0.32975  1.0000
  H   H32       1.0  0.24753  0.20089  0.25734  1.0000
  H   H33       1.0  0.18786  0.20250  0.22318  1.0000
  H   H34       1.0  0.20640  0.20024  0.18519  1.0000
  C   C21       1.0  0.00141  0.19988  0.12692  1.0000
  H   H35       1.0  0.28326  0.09002  0.05623  1.0000
  C   C22       1.0  0.25173  0.18864  0.98742  1.0000
  H   H36       1.0  0.24212  0.07780  0.01259  1.0000
  C   C23       1.0  0.14242  0.21052  0.27946  1.0000
  C   C24       1.0  0.28083  0.11024  0.13908  1.0000
  H   H37       1.0  0.30968  0.13228  0.04853  1.0000
  H   H38       1.0  0.98557  0.21628  0.15478  1.0000
  H   H39       1.0  0.16343  0.22759  0.23008  1.0000
  H   H40       1.0  0.14131  0.22355  0.32061  1.0000
  H   H41       1.0  0.28105  0.21314  0.00967  1.0000
  H   H42       1.0  0.12129  0.21082  0.30382  1.0000
  H   H43       1.0  0.25908  0.18428  0.00295  1.0000
  H   H44       1.0  0.17042  0.19472  0.31187  1.0000
  H   H45       1.0  0.25451  0.19309  0.40402  1.0000
  C   C25       1.0  0.21286  0.20743  0.99863  1.0000
  H   H46       1.0  0.27538  0.11945  0.14030  1.0000
  C   C26       1.0  0.22515  0.19761  0.27978  1.0000
  H   H47       1.0  0.22398  0.22459  0.31200  1.0000
  S   S18       1.0  0.29090  0.20759  0.07094  1.0000
  C   C27       1.0  0.27366  0.09822  0.16363  1.0000
  H   H48       1.0  0.13709  0.19743  0.27212  1.0000
  C   C28       1.0  0.21068  0.23516  0.46716  1.0000
  S   S19       1.0  0.19122  0.22675  0.26893  1.0000
  H   H49       1.0  0.25411  0.08245  0.06329  1.0000
  H   H50       1.0  0.23382  0.21147  0.38293  1.0000
  H   H51       1.0  0.21555  0.99416  0.13727  1.0000
  H   H52       1.0  0.26283  0.09690  0.10490  1.0000
  C   C29       1.0  0.20554  0.22523  0.24342  1.0000
  H   H53       1.0  0.24896  0.07919  0.22240  1.0000
  C   C30       1.0  0.21008  0.22308  0.44644  1.0000
  H   H54       1.0  0.19882  0.20196  0.29822  1.0000
  S   S20       1.0  0.24091  0.22161  0.17308  1.0000
  H   H55       1.0  0.23506  0.05827  0.22760  1.0000
  H   H56       1.0  0.27696  0.10488  0.18559  1.0000
  C   C31       1.0  0.17849  0.19036  0.32556  1.0000
  H   H57       1.0  0.98961  0.22214  0.11795  1.0000
  C   C32       1.0  0.30290  0.07097  0.07904  1.0000
  C   C33       1.0  0.19951  0.99652  0.19750  1.0000
  H   H58       1.0  0.17601  0.17767  0.31788  1.0000
  C   C34       1.0  0.31088  0.07565  0.02802  1.0000
  C   C35       1.0  0.23594  0.20390  0.36492  1.0000
  Fe  Fe9       1.0  0.02019  0.23800  0.33765  1.0000
  C   C36       1.0  0.24974  0.23302  0.32465  1.0000
  H   H59       1.0  0.28053  0.15661  0.06963  1.0000
  C   C37       1.0  0.98375  0.20652  0.45709  1.0000
  H   H60       1.0  0.11165  0.19191  0.25568  1.0000
  C   C38       1.0  0.20844  0.19620  0.34075  1.0000
  H   H61       1.0  0.13785  0.19192  0.22274  1.0000
  N   N3        1.0  0.19521  0.05780  0.17393  1.0000
  C   C39       1.0  0.21144  0.05664  0.18208  1.0000
  C   C40       1.0  0.18354  0.04243  0.15671  1.0000
  C   C41       1.0  0.19877  0.07199  0.15364  1.0000
  C   C42       1.0  0.18727  0.06107  0.20077  1.0000
  C   C43       1.0  0.18479  0.04927  0.22662  1.0000
  C   C44       1.0  0.22491  0.07182  0.19889  1.0000
  C   C45       1.0  0.18346  0.07494  0.14172  1.0000
  C   C46       1.0  0.18435  0.02594  0.16501  1.0000
  C   C47       1.0  0.17020  0.01148  0.14899  1.0000
  C   C48       1.0  0.17889  0.05537  0.25377  1.0000
  C   C49       1.0  0.23934  0.06804  0.21118  1.0000
  C   C50       1.0  0.18816  0.08814  0.11864  1.0000
  H   H62       1.0  0.21683  0.05424  0.16165  1.0000
  H   H63       1.0  0.20960  0.04597  0.19592  1.0000
  H   H64       1.0  0.17050  0.04098  0.15812  1.0000
  H   H65       1.0  0.18587  0.04344  0.13254  1.0000
  H   H66       1.0  0.20532  0.07031  0.13417  1.0000
  H   H67       1.0  0.20724  0.08371  0.16505  1.0000
  H   H68       1.0  0.19434  0.07381  0.20977  1.0000
  H   H69       1.0  0.17476  0.06051  0.19431  1.0000
  H   H70       1.0  0.19636  0.04805  0.23385  1.0000
  H   H71       1.0  0.17510  0.03705  0.21992  1.0000
  H   H72       1.0  0.23002  0.08210  0.18372  1.0000
  H   H73       1.0  0.21994  0.07595  0.21797  1.0000
  H   H74       1.0  0.17806  0.07918  0.16009  1.0000
  H   H75       1.0  0.17376  0.06369  0.13102  1.0000
  H   H76       1.0  0.19611  0.02566  0.15811  1.0000
  H   H77       1.0  0.18379  0.02396  0.18911  1.0000
  H   H78       1.0  0.17103  0.99984  0.15508  1.0000
  H   H79       1.0  0.15806  0.01099  0.15548  1.0000
  H   H80       1.0  0.17089  0.01251  0.12452  1.0000
  C   C51       1.0  0.23148  0.18650  0.37687  1.0000
  H   H81       1.0  0.16705  0.05652  0.24816  1.0000
  H   H82       1.0  0.17685  0.04653  0.27174  1.0000
  H   H83       1.0  0.08568  0.18570  0.22607  1.0000
  C   C52       1.0  0.09390  0.19862  0.23231  1.0000
  C   C53       1.0  0.01490  0.21589  0.17258  1.0000
  H   H84       1.0  0.19215  0.08384  0.09841  1.0000
  H   H85       1.0  0.17729  0.09084  0.11210  1.0000
  H   H86       1.0  0.19828  0.09965  0.12770  1.0000
  C   C54       1.0  0.99457  0.22514  0.26428  1.0000
  H   H87       1.0  0.24502  0.06396  0.19305  1.0000
  H   H88       1.0  0.26123  0.23392  0.02817  1.0000
  H   H89       1.0  0.27984  0.12854  0.05418  1.0000
  H   H90       1.0  0.22880  0.19272  0.23395  1.0000
  C   C55       1.0  0.23140  0.22279  0.33104  1.0000
  H   H91       1.0  0.24950  0.20910  0.36244  1.0000
  H   H92       1.0  0.27908  0.23220  0.04404  1.0000
  C   C56       1.0  0.11168  0.20022  0.23769  1.0000
  C   C57       1.0  0.23187  0.19654  0.31170  1.0000
  H   H93       1.0  0.99579  0.19983  0.10429  1.0000
  C   C58       1.0  0.99564  0.21484  0.00767  1.0000
  C   C59       1.0  0.19657  0.20169  0.32208  1.0000
  C   C60       1.0  0.28005  0.12562  0.07809  1.0000
  H   H94       1.0  0.25557  0.21665  0.46150  1.0000
  H   H95       1.0  0.15568  0.21343  0.28566  1.0000
  H   H96       1.0  0.99295  0.16598  0.13190  1.0000
  H   H97       1.0  0.22774  0.18325  0.31552  1.0000
  C   C61       1.0  0.99078  0.20835  0.26484  1.0000
  Fe  Fe10      1.0  0.01427  0.22332  0.39941  1.0000
  N   N4        1.0  0.14120  0.22122  0.25465  1.0000
  S   S21       1.0  0.17560  0.22927  0.34601  1.0000
  H   H98       1.0  0.22914  0.01113  0.45096  1.0000
  H   H99       1.0  0.24560  0.20132  0.31188  1.0000
  C   C62       1.0  0.22694  0.22242  0.20006  1.0000
  H   H100      1.0  0.11522  0.19605  0.21688  1.0000
  C   C63       1.0  0.98740  0.23086  0.24095  1.0000
  H   H101      1.0  0.01862  0.20538  0.17440  1.0000
  H   H102      1.0  0.14541  0.19820  0.33448  1.0000
  H   H103      1.0  0.01120  0.19519  0.12405  1.0000
  C   C64       1.0  0.21815  0.00181  0.45922  1.0000
  H   H104      1.0  0.03254  0.22149  0.12328  1.0000
  N   N5        1.0  0.27952  0.23565  0.99660  1.0000
  C   C65       1.0  0.12352  0.21816  0.24576  1.0000
  C   C66       1.0  0.01886  0.22883  0.08965  1.0000
  H   H105      1.0  0.27073  0.01527  0.15729  1.0000
  H   H106      1.0  0.27125  0.14960  0.10447  1.0000
  H   H107      1.0  0.00461  0.21318  0.18778  1.0000
  H   H108      1.0  0.21453  0.99325  0.27866  1.0000
  C   C67       1.0  0.24096  0.18733  0.40653  1.0000
  H   H109      1.0  0.04387  0.23543  0.07532  1.0000
  H   H110      1.0  0.23474  0.17876  0.36110  1.0000
  C   C68       1.0  0.23426  0.19238  0.25650  1.0000
  C   C69       1.0  0.10280  0.22811  0.37875  1.0000
  H   H111      1.0  0.09829  0.21820  0.39390  1.0000
  H   H112      1.0  0.21381  0.20083  0.44059  1.0000
  C   C70       1.0  0.15009  0.21905  0.22802  1.0000
  H   H113      1.0  0.26710  0.12227  0.08452  1.0000
  C   C71       1.0  0.30326  0.11623  0.08687  1.0000
  C   C72       1.0  0.26002  0.09218  0.04749  1.0000
  H   H114      1.0  0.31178  0.11320  0.04313  1.0000
  H   H115      1.0  0.21812  0.18029  0.38071  1.0000
  C   C73       1.0  0.98248  0.16980  0.12977  1.0000
  C   C74       1.0  0.03280  0.22910  0.21947  1.0000
  H   H116      1.0  0.27873  0.08868  0.16360  1.0000
  C   C75       1.0  0.11958  0.23442  0.37181  1.0000
  H   H117      1.0  0.23317  0.17971  0.26003  1.0000
  H   H118      1.0  0.30860  0.12525  0.10570  1.0000
  Fe  Fe11      1.0  0.04887  0.23373  0.37248  1.0000
  H   H119      1.0  0.98509  0.18684  0.48255  1.0000
  C   C76       1.0  0.24033  0.98974  0.16799  1.0000
  N   N6        1.0  0.00892  0.21698  0.14093  1.0000
  H   H120      1.0  0.30584  0.10546  0.09345  1.0000
  S   S22       1.0  0.07094  0.22639  0.37710  1.0000
  C   C77       1.0  0.23236  0.23557  0.22131  1.0000
  C   C78       1.0  0.98673  0.17816  0.34671  1.0000
  H   H121      1.0  0.00560  0.21771  0.02446  1.0000
  H   H122      1.0  0.26047  0.09350  0.99927  1.0000
  H   H123      1.0  0.26273  0.02005  0.19069  1.0000
  C   C79       1.0  0.21128  0.99279  0.00607  1.0000
  H   H124      1.0  0.22837  0.22861  0.35063  1.0000
  H   H125      1.0  0.23766  0.19446  0.42352  1.0000
  H   H126      1.0  0.08948  0.20222  0.25280  1.0000
  H   H127      1.0  0.23326  0.22780  0.01959  1.0000
  H   H128      1.0  0.11809  0.22295  0.26345  1.0000
  H   H129      1.0  0.12784  0.19988  0.35036  1.0000
  H   H130      1.0  0.15854  0.19979  0.23927  1.0000
  H   H131      1.0  0.99618  0.17879  0.36437  1.0000
  C   C80       1.0  0.21026  0.99404  0.25609  1.0000
  H   H132      1.0  0.29435  0.11630  0.14415  1.0000
  H   H133      1.0  0.14509  0.22250  0.20734  1.0000
  H   H134      1.0  0.01416  0.21686  0.07725  1.0000
  C   C81       1.0  0.21183  0.00515  0.98695  1.0000
  C   C82       1.0  0.99572  0.22363  0.14061  1.0000
  H   H135      1.0  0.00941  0.23402  0.08741  1.0000
  C   C83       1.0  0.09185  0.23459  0.36663  1.0000
  H   H136      1.0  0.12783  0.22942  0.38166  1.0000
  H   H137      1.0  0.30322  0.14766  0.08429  1.0000
  C   C84       1.0  0.13405  0.21175  0.30840  1.0000
  H   H138      1.0  0.19530  0.99725  0.17493  1.0000
  C   C85       1.0  0.21446  0.21038  0.45627  1.0000
  H   H139      1.0  0.99308  0.18249  0.32588  1.0000
  H   H140      1.0  0.23481  0.99740  0.17891  1.0000
  C   C86       1.0  0.02324  0.22698  0.12277  1.0000
  H   H141      1.0  0.01867  0.23655  0.46357  1.0000
  H   H142      1.0  0.24251  0.99423  0.14521  1.0000
  C   C87       1.0  0.22177  0.23701  0.24272  1.0000
  H   H143      1.0  0.12301  0.22525  0.22596  1.0000
  H   H144      1.0  0.98735  0.20162  0.35981  1.0000
  H   H145      1.0  0.15793  0.18896  0.18892  1.0000
  H   H146      1.0  0.03447  0.21763  0.22371  1.0000
  H   H147      1.0  0.23839  0.18117  0.99010  1.0000
  C   C88       1.0  0.27429  0.21739  0.99256  1.0000
  C   C89       1.0  0.03006  0.23083  0.18621  1.0000
  C   C90       1.0  0.15686  0.20086  0.19178  1.0000
  C   C91       1.0  0.25556  0.20666  0.99430  1.0000
  C   C92       1.0  0.98744  0.18696  0.14371  1.0000
  H   H148      1.0  0.27195  0.08081  0.47854  1.0000
  H   H149      1.0  0.25661  0.99189  0.20786  1.0000
  C   C93       1.0  0.25761  0.99415  0.18377  1.0000
  C   C94       1.0  0.31353  0.12327  0.05957  1.0000
  H   H150      1.0  0.02211  0.22900  0.23149  1.0000
  H   H151      1.0  0.16930  0.21085  0.18991  1.0000
  H   H152      1.0  0.04142  0.23170  0.17545  1.0000
  H   H153      1.0  0.14834  0.20175  0.17367  1.0000
  H   H154      1.0  0.03467  0.22141  0.48140  1.0000
  C   C95       1.0  0.22449  0.22367  0.00066  1.0000
  H   H155      1.0  0.27371  0.21854  0.48401  1.0000
  C   C96       1.0  0.27487  0.23887  0.02716  1.0000
  C   C97       1.0  0.20732  0.98913  0.43957  1.0000
  C   C98       1.0  0.26218  0.22067  0.48365  1.0000
  C   C99       1.0  0.14993  0.23879  0.26600  1.0000
  H   H156      1.0  0.00639  0.19516  0.76548  1.0000
  S   S23       1.0  0.02593  0.22009  0.85810  1.0000
  C   C100      1.0  0.17892  0.02171  0.63735  1.0000
  H   H157      1.0  0.19490  0.18988  0.55909  1.0000
  S   S24       1.0  0.99052  0.21538  0.91670  1.0000
  C   C101      1.0  0.20107  0.20250  0.97433  1.0000
  H   H158      1.0  0.27030  0.12072  0.54195  1.0000
  H   H159      1.0  0.21725  0.22682  0.65141  1.0000
  C   C102      1.0  0.28000  0.11082  0.59984  1.0000
  C   C103      1.0  0.21482  0.00269  0.48931  1.0000
  Fe  Fe12      1.0  0.23247  0.19683  0.64070  1.0000
  S   S25       1.0  0.21982  0.18343  0.59730  1.0000
  S   S26       1.0  0.21684  0.19553  0.68111  1.0000
  Fe  Fe13      1.0  0.26642  0.21007  0.61352  1.0000
  S   S27       1.0  0.25623  0.19806  0.56876  1.0000
  S   S28       1.0  0.29332  0.22666  0.62553  1.0000
  Fe  Fe14      1.0  0.23567  0.20640  0.57459  1.0000
  S   S29       1.0  0.22777  0.22292  0.54462  1.0000
  Fe  Fe15      1.0  0.24126  0.17576  0.59455  1.0000
  S   S30       1.0  0.24046  0.15131  0.57497  1.0000
  S   S31       1.0  0.24698  0.21996  0.61817  1.0000
  S   S32       1.0  0.25282  0.18759  0.63924  1.0000
  Fe  Fe16      1.0  0.23377  0.05787  0.60250  1.0000
  S   S33       1.0  0.25034  0.05267  0.63610  1.0000
  S   S34       1.0  0.22737  0.07908  0.61916  1.0000
  Fe  Fe17      1.0  0.23326  0.02956  0.56115  1.0000
  S   S35       1.0  0.25010  0.02323  0.59315  1.0000
  S   S36       1.0  0.22901  0.01920  0.51277  1.0000
  Fe  Fe18      1.0  0.23421  0.02586  0.62911  1.0000
  S   S37       1.0  0.23106  0.01212  0.67314  1.0000
  Fe  Fe19      1.0  0.26483  0.05044  0.59828  1.0000
  S   S38       1.0  0.29271  0.06388  0.60772  1.0000
  S   S39       1.0  0.21648  0.03092  0.59695  1.0000
  S   S40       1.0  0.24911  0.05689  0.56483  1.0000
  H   H160      1.0  0.22296  0.20006  0.49337  1.0000
  H   H161      1.0  0.30660  0.10523  0.57685  1.0000
  H   H162      1.0  0.00141  0.17378  0.75852  1.0000
  C   C104      1.0  0.23377  0.23686  0.83451  1.0000
  H   H163      1.0  0.19776  0.99096  0.52257  1.0000
  H   H164      1.0  0.27899  0.10668  0.50649  1.0000
  C   C105      1.0  0.30690  0.23709  0.97422  1.0000
  H   H165      1.0  0.18409  0.03404  0.62782  1.0000
  C   C106      1.0  0.98665  0.21324  0.95529  1.0000
  H   H166      1.0  0.23111  0.05599  0.68291  1.0000
  C   C107      1.0  0.30385  0.23090  0.56822  1.0000
  H   H167      1.0  0.17211  0.22712  0.61543  1.0000
  C   C108      1.0  0.27630  0.09742  0.64970  1.0000
  H   H168      1.0  0.24808  0.23710  0.92509  1.0000
  H   H169      1.0  0.17205  0.20446  0.63955  1.0000
  C   C109      1.0  0.22043  0.22211  0.50685  1.0000
  C   C110      1.0  0.30296  0.07076  0.55051  1.0000
  H   H170      1.0  0.27255  0.13647  0.58730  1.0000
  H   H171      1.0  0.22667  0.20835  0.90951  1.0000
  H   H172      1.0  0.29041  0.06295  0.54285  1.0000
  N   N7        1.0  0.19470  0.22382  0.62669  1.0000
  C   C111      1.0  0.23698  0.13139  0.58806  1.0000
  C   C112      1.0  0.23345  0.12708  0.61745  1.0000
  C   C113      1.0  0.23066  0.11111  0.62649  1.0000
  C   C114      1.0  0.23156  0.09922  0.60651  1.0000
  C   C115      1.0  0.23524  0.10357  0.57718  1.0000
  C   C116      1.0  0.23786  0.11948  0.56807  1.0000
  H   H173      1.0  0.23267  0.13599  0.63315  1.0000
  H   H174      1.0  0.22771  0.10794  0.64916  1.0000
  H   H175      1.0  0.23569  0.09456  0.56135  1.0000
  H   H176      1.0  0.24041  0.12254  0.54523  1.0000
  H   H177      1.0  0.30743  0.22595  0.98406  1.0000
  H   H178      1.0  0.23732  0.23056  0.69500  1.0000
  H   H179      1.0  0.25729  0.23737  0.97826  1.0000
  H   H180      1.0  0.01505  0.21393  0.49810  1.0000
  C   C117      1.0  0.21298  0.22966  0.95385  1.0000
  N   N8        1.0  0.28643  0.11278  0.56907  1.0000
  C   C118      1.0  0.98224  0.18114  0.86012  1.0000
  C   C119      1.0  0.30711  0.19367  0.60298  1.0000
  C   C120      1.0  0.28198  0.09718  0.61828  1.0000
  C   C121      1.0  0.20261  0.21582  0.75103  1.0000
  C   C122      1.0  0.20401  0.20474  0.72960  1.0000
  C   C123      1.0  0.21636  0.20994  0.70884  1.0000
  C   C124      1.0  0.18432  0.00997  0.78202  1.0000
  H   H181      1.0  0.27779  0.08745  0.66223  1.0000
  H   H182      1.0  0.19286  0.21162  0.76639  1.0000
  H   H183      1.0  0.19528  0.19208  0.72881  1.0000
  C   C125      1.0  0.21961  0.20988  0.48626  1.0000
  H   H184      1.0  0.20571  0.19447  0.89892  1.0000
  C   C126      1.0  0.19894  0.06316  0.69721  1.0000
  C   C127      1.0  0.19089  0.18742  0.83217  1.0000
  C   C128      1.0  0.22390  0.19430  0.86714  1.0000
  H   H185      1.0  0.16555  0.01569  0.63044  1.0000
  H   H186      1.0  0.30648  0.03606  0.63479  1.0000
  H   H187      1.0  0.00032  0.23394  0.50256  1.0000
  H   H188      1.0  0.18515  0.01418  0.62831  1.0000
  C   C129      1.0  0.17362  0.18736  0.83284  1.0000
  H   H189      1.0  0.24570  0.22401  0.86054  1.0000
  C   C130      1.0  0.28071  0.09664  0.51829  1.0000
  C   C131      1.0  0.99600  0.22345  0.75219  1.0000
  H   H190      1.0  0.18768  0.20418  0.54227  1.0000
  C   C132      1.0  0.99618  0.21744  0.72314  1.0000
  H   H191      1.0  0.15583  0.20411  0.68282  1.0000
  H   H192      1.0  0.19026  0.20424  0.65738  1.0000
  H   H193      1.0  0.19240  0.18412  0.80902  1.0000
  C   C133      1.0  0.21567  0.23456  0.49717  1.0000
  H   H194      1.0  0.29460  0.14656  0.58677  1.0000
  C   C134      1.0  0.22537  0.18513  0.80618  1.0000
  C   C135      1.0  0.22902  0.18362  0.77372  1.0000
  H   H195      1.0  0.24116  0.21034  0.81337  1.0000
  H   H196      1.0  0.23413  0.18176  0.82014  1.0000
  H   H197      1.0  0.21271  0.17604  0.80937  1.0000
  H   H198      1.0  0.22799  0.17104  0.76853  1.0000
  H   H199      1.0  0.22001  0.18600  0.75864  1.0000
  H   H200      1.0  0.24172  0.19242  0.76934  1.0000
  C   C136      1.0  0.22111  0.04217  0.72280  1.0000
  C   C137      1.0  0.19683  0.02443  0.76646  1.0000
  C   C138      1.0  0.23340  0.05712  0.70730  1.0000
  C   C139      1.0  0.25121  0.05913  0.71417  1.0000
  H   H201      1.0  0.22383  0.04554  0.74686  1.0000
  H   H202      1.0  0.20456  0.05769  0.74223  1.0000
  H   H203      1.0  0.21106  0.06782  0.68720  1.0000
  H   H204      1.0  0.19615  0.03584  0.77506  1.0000
  H   H205      1.0  0.20923  0.02473  0.77275  1.0000
  H   H206      1.0  0.23249  0.06847  0.71564  1.0000
  H   H207      1.0  0.25298  0.04823  0.70562  1.0000
  H   H208      1.0  0.25982  0.07006  0.70317  1.0000
  H   H209      1.0  0.25435  0.06075  0.73848  1.0000
  H   H210      1.0  0.21762  0.18535  0.94213  1.0000
  H   H211      1.0  0.17388  0.02961  0.67974  1.0000
  H   H212      1.0  0.23704  0.19579  0.86890  1.0000
  H   H213      1.0  0.98220  0.16609  0.79835  1.0000
  H   H214      1.0  0.99494  0.18210  0.91836  1.0000
  C   C140      1.0  0.20632  0.00128  0.95675  1.0000
  C   C141      1.0  0.21884  0.19619  0.89907  1.0000
  S   S41       1.0  0.18290  0.23027  0.84978  1.0000
  H   H215      1.0  0.00743  0.21690  0.71591  1.0000
  H   H216      1.0  0.24801  0.21033  0.97805  1.0000
  H   H217      1.0  0.19697  0.08635  0.69121  1.0000
  Fe  Fe20      1.0  0.02232  0.23775  0.82589  1.0000
  H   H218      1.0  0.26354  0.09302  0.55317  1.0000
  H   H219      1.0  0.27785  0.21412  0.97098  1.0000
  H   H220      1.0  0.18732  0.01146  0.80638  1.0000
  H   H221      1.0  0.17119  0.19849  0.70169  1.0000
  C   C142      1.0  0.99101  0.17908  0.79795  1.0000
  H   H222      1.0  0.31319  0.05989  0.84213  1.0000
  H   H223      1.0  0.17992  0.01856  0.72797  1.0000
  H   H224      1.0  0.19531  0.99049  0.66622  1.0000
  H   H225      1.0  0.28592  0.12233  0.61355  1.0000
  H   H226      1.0  0.26886  0.22570  0.93584  1.0000
  H   H227      1.0  0.27421  0.08496  0.60803  1.0000
  C   C143      1.0  0.28107  0.15368  0.55309  1.0000
  N   N9        1.0  0.20296  0.03710  0.71440  1.0000
  C   C144      1.0  0.30772  0.23553  0.59832  1.0000
  C   C145      1.0  0.19347  0.02237  0.73223  1.0000
  H   H228      1.0  0.98589  0.18169  0.75084  1.0000
  C   C146      1.0  0.22765  0.20287  0.81471  1.0000
  C   C147      1.0  0.18136  0.22108  0.67762  1.0000
  C   C148      1.0  0.22464  0.23463  0.97829  1.0000
  Fe  Fe21      1.0  0.01349  0.23006  0.89119  1.0000
  H   H229      1.0  0.31019  0.05985  0.88137  1.0000
  C   C149      1.0  0.22252  0.99522  0.72493  1.0000
  H   H230      1.0  0.19195  0.20948  0.93365  1.0000
  C   C150      1.0  0.30458  0.11617  0.56964  1.0000
  C   C151      1.0  0.16795  0.20889  0.69566  1.0000
  C   C152      1.0  0.30728  0.07311  0.58095  1.0000
  H   H231      1.0  0.20326  0.21286  0.82429  1.0000
  C   C153      1.0  0.99646  0.18268  0.76625  1.0000
  H   H232      1.0  0.17225  0.19624  0.81711  1.0000
  H   H233      1.0  0.30799  0.02123  0.60877  1.0000
  C   C154      1.0  0.19754  0.05070  0.72178  1.0000
  H   H234      1.0  0.23386  0.18466  0.92035  1.0000
  C   C155      1.0  0.22756  0.22637  0.71033  1.0000
  C   C156      1.0  0.10810  0.23615  0.83446  1.0000
  H   H235      1.0  0.08374  0.23654  0.82973  1.0000
  H   H236      1.0  0.29673  0.19681  0.59488  1.0000
  H   H237      1.0  0.17124  0.19052  0.85558  1.0000
  C   C157      1.0  0.21679  0.99763  0.69645  1.0000
  H   H238      1.0  0.23543  0.00185  0.73187  1.0000
  H   H239      1.0  0.20539  0.02295  0.67695  1.0000
  H   H240      1.0  0.17159  0.00924  0.77769  1.0000
  C   C158      1.0  0.19967  0.03167  0.68195  1.0000
  H   H241      1.0  0.28001  0.08683  0.56140  1.0000
  C   C159      1.0  0.28307  0.14068  0.57258  1.0000
  H   H242      1.0  0.26304  0.09537  0.64895  1.0000
  H   H243      1.0  0.03362  0.22722  0.51950  1.0000
  C   C160      1.0  0.27712  0.09680  0.55170  1.0000
  C   C161      1.0  0.23287  0.22302  0.85561  1.0000
  C   C162      1.0  0.20105  0.21353  0.95217  1.0000
  H   H244      1.0  0.27091  0.07004  0.51222  1.0000
  H   H245      1.0  0.27976  0.16331  0.56729  1.0000
  H   H246      1.0  0.22861  0.22619  0.87672  1.0000
  C   C163      1.0  0.26917  0.08057  0.50232  1.0000
  C   C164      1.0  0.19627  0.07791  0.70943  1.0000
  H   H247      1.0  0.18940  0.05734  0.67889  1.0000
  H   H248      1.0  0.00216  0.18062  0.81227  1.0000
  C   C165      1.0  0.18445  0.21259  0.64960  1.0000
  H   H249      1.0  0.19129  0.17788  0.84720  1.0000
  H   H250      1.0  0.25275  0.98957  0.53119  1.0000
  H   H251      1.0  0.20098  0.20881  0.86240  1.0000
  H   H252      1.0  0.29504  0.09868  0.62024  1.0000
  C   C166      1.0  0.22087  0.18346  0.91927  1.0000
  H   H253      1.0  0.16417  0.17498  0.82611  1.0000
  N   N10       1.0  0.22189  0.20579  0.84458  1.0000
  C   C167      1.0  0.21119  0.23460  0.64194  1.0000
  H   H254      1.0  0.18435  0.04558  0.72746  1.0000
  C   C168      1.0  0.18115  0.02303  0.67121  1.0000
  C   C169      1.0  0.20437  0.20449  0.84146  1.0000
  H   H255      1.0  0.26658  0.10824  0.59832  1.0000
  H   H256      1.0  0.19607  0.01171  0.72506  1.0000
  C   C170      1.0  0.99936  0.21711  0.97748  1.0000
  H   H257      1.0  0.30324  0.18027  0.59982  1.0000
  C   C171      1.0  0.28292  0.12601  0.55334  1.0000
  C   C172      1.0  0.19752  0.21323  0.60308  1.0000
  H   H258      1.0  0.20665  0.01094  0.94230  1.0000
  H   H259      1.0  0.28383  0.10927  0.66161  1.0000
  H   H260      1.0  0.01203  0.22151  0.97131  1.0000
  H   H261      1.0  0.20601  0.08469  0.72696  1.0000
  C   C173      1.0  0.18167  0.19941  0.58853  1.0000
  H   H262      1.0  0.22160  0.20717  0.79649  1.0000
  H   H263      1.0  0.21667  0.18133  0.85992  1.0000
  H   H264      1.0  0.16681  0.21508  0.71649  1.0000
  H   H265      1.0  0.18391  0.07394  0.71873  1.0000
  C   C174      1.0  0.18460  0.19397  0.55779  1.0000
  H   H266      1.0  0.98904  0.16164  0.90233  1.0000
  H   H267      1.0  0.20545  0.20723  0.61249  1.0000
  H   H268      1.0  0.20469  0.22073  0.58530  1.0000
  H   H269      1.0  0.20575  0.04198  0.66731  1.0000
  H   H270      1.0  0.31263  0.13076  0.61196  1.0000
  H   H271      1.0  0.29161  0.13103  0.53540  1.0000
  H   H272      1.0  0.21254  0.17089  0.91111  1.0000
  H   H273      1.0  0.29197  0.15943  0.53959  1.0000
  H   H274      1.0  0.18479  0.99830  0.77420  1.0000
  H   H275      1.0  0.23649  0.23449  0.81159  1.0000
  H   H276      1.0  0.17327  0.18361  0.54865  1.0000
  H   H277      1.0  0.17778  0.18860  0.60278  1.0000
  H   H278      1.0  0.17126  0.20328  0.58615  1.0000
  H   H279      1.0  0.26970  0.14820  0.53813  1.0000
  H   H280      1.0  0.22458  0.03162  0.71895  1.0000
  C   C175      1.0  0.98339  0.19083  0.80956  1.0000
  H   H281      1.0  0.31256  0.23453  0.52393  1.0000
  H   H282      1.0  0.17585  0.01035  0.67926  1.0000
  C   C176      1.0  0.12138  0.23706  0.85401  1.0000
  C   C177      1.0  0.22608  0.23746  0.73155  1.0000
  H   H283      1.0  0.30966  0.19710  0.62706  1.0000
  H   H284      1.0  0.29356  0.09785  0.51580  1.0000
  H   H285      1.0  0.29182  0.22165  0.56120  1.0000
  H   H286      1.0  0.25456  0.18682  0.96427  1.0000
  H   H287      1.0  0.98713  0.17218  0.85243  1.0000
  H   H288      1.0  0.99329  0.19244  0.86732  1.0000
  C   C178      1.0  0.21358  0.23234  0.75199  1.0000
  C   C179      1.0  0.31114  0.03447  0.61303  1.0000
  H   H289      1.0  0.18240  0.22874  0.56619  1.0000
  H   H290      1.0  0.25411  0.21316  0.50071  1.0000
  H   H291      1.0  0.17747  0.23104  0.67164  1.0000
  H   H292      1.0  0.30048  0.23351  0.95198  1.0000
  S   S42       1.0  0.13877  0.23468  0.83933  1.0000
  C   C180      1.0  0.27241  0.23888  0.94118  1.0000
  H   H293      1.0  0.30472  0.03872  0.59549  1.0000
  H   H294      1.0  0.30909  0.11819  0.54683  1.0000
  H   H295      1.0  0.19190  0.19002  0.97262  1.0000
  S   S43       1.0  0.01437  0.22978  0.77648  1.0000
  H   H296      1.0  0.99394  0.20269  0.81592  1.0000
  H   H297      1.0  0.10879  0.23434  0.81087  1.0000
  H   H298      1.0  0.25604  0.07876  0.50365  1.0000
  C   C181      1.0  0.98432  0.17047  0.91137  1.0000
  C   C182      1.0  0.18575  0.23393  0.61460  1.0000
  H   H299      1.0  0.19276  0.22635  0.69246  1.0000
  H   H300      1.0  0.26443  0.23740  0.53646  1.0000
  C   C183      1.0  0.02707  0.22462  0.49717  1.0000
  H   H301      1.0  0.31154  0.07634  0.50636  1.0000
  H   H302      1.0  0.98238  0.20746  0.68117  1.0000
  C   C184      1.0  0.20053  0.99052  0.49956  1.0000
  C   C185      1.0  0.09383  0.23736  0.84511  1.0000
  C   C186      1.0  0.26617  0.23882  0.48951  1.0000
  H   H303      1.0  0.22183  0.23814  0.83364  1.0000
  C   C187      1.0  0.98194  0.21205  0.70329  1.0000
  Fe  Fe22      1.0  0.03501  0.44318  0.18748  1.0000
  S   S44       1.0  0.04923  0.45575  0.22990  1.0000
  S   S45       1.0  0.00688  0.43151  0.18059  1.0000
  Fe  Fe23      1.0  0.06626  0.45253  0.15201  1.0000
  S   S46       1.0  0.08243  0.46636  0.19221  1.0000
  S   S47       1.0  0.07973  0.45265  0.10922  1.0000
  Fe  Fe24      1.0  0.06721  0.44476  0.21838  1.0000
  S   S48       1.0  0.08043  0.43155  0.24551  1.0000
  Fe  Fe25      1.0  0.06337  0.47657  0.20054  1.0000
  S   S49       1.0  0.05185  0.43053  0.17783  1.0000
  S   S50       1.0  0.04831  0.46445  0.15859  1.0000
  Fe  Fe26      1.0  0.03679  0.25972  0.39349  1.0000
  H   H304      1.0  0.27823  0.25177  0.08517  1.0000
  S   S51       1.0  0.04490  0.28223  0.42482  1.0000
  H   H305      1.0  0.00186  0.46827  0.24303  1.0000
  S   S52       1.0  0.04677  0.25538  0.35064  1.0000
  Fe  Fe27      1.0  0.09840  0.37969  0.41905  1.0000
  S   S53       1.0  0.11995  0.39816  0.39658  1.0000
  S   S54       1.0  0.08441  0.35628  0.39064  1.0000
  H   H306      1.0  0.04100  0.28110  0.00293  1.0000
  S   S55       1.0  0.12496  0.42315  0.45442  1.0000
  S   S56       1.0  0.08580  0.40085  0.01418  1.0000
  Fe  Fe28      1.0  0.10970  0.41643  0.41038  1.0000
  S   S57       1.0  0.10487  0.43553  0.38232  1.0000
  Fe  Fe29      1.0  0.13350  0.40320  0.44176  1.0000
  C   C188      1.0  0.25298  0.25099  0.32059  1.0000
  S   S58       1.0  0.08736  0.39764  0.43013  1.0000
  H   H307      1.0  0.31312  0.25512  0.16129  1.0000
  H   H308      1.0  0.07702  0.28188  0.41856  1.0000
  S   S59       1.0  0.21520  0.25315  0.34545  1.0000
  Fe  Fe30      1.0  0.17058  0.25192  0.35176  1.0000
  S   S60       1.0  0.18741  0.26411  0.31551  1.0000
  H   H309      1.0  0.05489  0.38980  0.29246  1.0000
  H   H310      1.0  0.07357  0.25385  0.46327  1.0000
  Fe  Fe31      1.0  0.20748  0.27412  0.35177  1.0000
  S   S61       1.0  0.22420  0.30086  0.34603  1.0000
  S   S62       1.0  0.19066  0.26288  0.38862  1.0000
  Fe  Fe32      1.0  0.28652  0.41559  0.40052  1.0000
  S   S63       1.0  0.28938  0.40358  0.44322  1.0000
  H   H311      1.0  0.03846  0.40275  0.26458  1.0000
  Fe  Fe33      1.0  0.25197  0.41339  0.41646  1.0000
  S   S64       1.0  0.25317  0.40170  0.45932  1.0000
  S   S65       1.0  0.22928  0.41844  0.40135  1.0000
  Fe  Fe34      1.0  0.27959  0.42003  0.46616  1.0000
  S   S66       1.0  0.29293  0.43708  0.00901  1.0000
  Fe  Fe35      1.0  0.26284  0.38623  0.43311  1.0000
  S   S67       1.0  0.25167  0.35928  0.44370  1.0000
  S   S68       1.0  0.27799  0.43303  0.42424  1.0000
  S   S69       1.0  0.26045  0.39696  0.38943  1.0000
  H   H312      1.0  0.02765  0.29686  0.99777  1.0000
  H   H313      1.0  0.25092  0.25654  0.34141  1.0000
  C   C189      1.0  0.10835  0.48733  0.32497  1.0000
  H   H314      1.0  0.13788  0.25166  0.23915  1.0000
  H   H315      1.0  0.15780  0.27151  0.27791  1.0000
  H   H316      1.0  0.27059  0.46297  0.44814  1.0000
  C   C190      1.0  0.10937  0.47439  0.26450  1.0000
  C   C191      1.0  0.23132  0.31687  0.37363  1.0000
  C   C192      1.0  0.22900  0.31392  0.40378  1.0000
  C   C193      1.0  0.23531  0.32705  0.42500  1.0000
  C   C194      1.0  0.24382  0.34321  0.41624  1.0000
  C   C195      1.0  0.24581  0.34619  0.38605  1.0000
  C   C196      1.0  0.23968  0.33306  0.36489  1.0000
  H   H317      1.0  0.22259  0.30153  0.41075  1.0000
  H   H318      1.0  0.23369  0.32467  0.44832  1.0000
  H   H319      1.0  0.25236  0.35856  0.37903  1.0000
  H   H320      1.0  0.24154  0.33543  0.34160  1.0000
  C   C197      1.0  0.27479  0.25881  0.06806  1.0000
  H   H321      1.0  0.10460  0.39245  0.33043  1.0000
  H   H322      1.0  0.04590  0.35519  0.37331  1.0000
  C   C198      1.0  0.20127  0.35643  0.44673  1.0000
  H   H323      1.0  0.22641  0.39921  0.00486  1.0000
  H   H324      1.0  0.12114  0.34164  0.44088  1.0000
  H   H325      1.0  0.99684  0.28681  0.42319  1.0000
  C   C199      1.0  0.11759  0.27195  0.42017  1.0000
  H   H326      1.0  0.08538  0.26703  0.41710  1.0000
  H   H327      1.0  0.06208  0.40672  0.31784  1.0000
  C   C200      1.0  0.17775  0.40584  0.43847  1.0000
  C   C201      1.0  0.18882  0.39984  0.45184  1.0000
  C   C202      1.0  0.20452  0.40343  0.44071  1.0000
  C   C203      1.0  0.20953  0.41332  0.41624  1.0000
  C   C204      1.0  0.19843  0.41922  0.40273  1.0000
  C   C205      1.0  0.18264  0.41548  0.41366  1.0000
  H   H328      1.0  0.98605  0.25058  0.33494  1.0000
  H   H329      1.0  0.21267  0.39842  0.45082  1.0000
  H   H330      1.0  0.20208  0.42679  0.38367  1.0000
  H   H331      1.0  0.17436  0.42024  0.40311  1.0000
  H   H332      1.0  0.30872  0.44796  0.46100  1.0000
  H   H333      1.0  0.11919  0.26365  0.32501  1.0000
  H   H334      1.0  0.11338  0.26655  0.39754  1.0000
  H   H335      1.0  0.20500  0.36223  0.00353  1.0000
  H   H336      1.0  0.30282  0.47247  0.45066  1.0000
  C   C206      1.0  0.07366  0.33580  0.40097  1.0000
  C   C207      1.0  0.06668  0.32352  0.37840  1.0000
  C   C208      1.0  0.05789  0.30706  0.38533  1.0000
  C   C209      1.0  0.05603  0.30272  0.41497  1.0000
  C   C210      1.0  0.06306  0.31497  0.43758  1.0000
  C   C211      1.0  0.07190  0.33145  0.43064  1.0000
  H   H337      1.0  0.06800  0.32679  0.35538  1.0000
  H   H338      1.0  0.05241  0.29778  0.36773  1.0000
  H   H339      1.0  0.06163  0.31172  0.46059  1.0000
  H   H340      1.0  0.07721  0.34080  0.44819  1.0000
  C   C212      1.0  0.08663  0.43259  0.28384  1.0000
  C   C213      1.0  0.09754  0.42541  0.29271  1.0000
  C   C214      1.0  0.10299  0.42597  0.32276  1.0000
  C   C215      1.0  0.09740  0.43354  0.34448  1.0000
  C   C216      1.0  0.08634  0.44059  0.33566  1.0000
  C   C217      1.0  0.08093  0.44009  0.30553  1.0000
  H   H341      1.0  0.10195  0.41950  0.27619  1.0000
  H   H342      1.0  0.11184  0.42091  0.32909  1.0000
  H   H343      1.0  0.08186  0.44640  0.35228  1.0000
  H   H344      1.0  0.07218  0.44526  0.29919  1.0000
  C   C218      1.0  0.08410  0.41564  0.03975  1.0000
  C   C219      1.0  0.09506  0.43217  0.04102  1.0000
  C   C220      1.0  0.09344  0.44322  0.06224  1.0000
  C   C221      1.0  0.08083  0.43803  0.08251  1.0000
  C   C222      1.0  0.06974  0.42155  0.08097  1.0000
  C   C223      1.0  0.07147  0.41046  0.05998  1.0000
  H   H345      1.0  0.10485  0.43643  0.02576  1.0000
  H   H346      1.0  0.10205  0.45593  0.06293  1.0000
  H   H347      1.0  0.05972  0.41735  0.09577  1.0000
  H   H348      1.0  0.06284  0.39776  0.05924  1.0000
  C   C224      1.0  0.99260  0.42007  0.20649  1.0000
  C   C225      1.0  0.99778  0.41602  0.23384  1.0000
  S   S70       1.0  0.01016  0.24427  0.37923  1.0000
  H   H349      1.0  0.01083  0.41978  0.23947  1.0000
  H   H350      1.0  0.00179  0.45905  0.27860  1.0000
  C   C226      1.0  0.10093  0.28916  0.37867  1.0000
  C   C227      1.0  0.08749  0.29379  0.36307  1.0000
  C   C228      1.0  0.08605  0.29006  0.32962  1.0000
  H   H351      1.0  0.11275  0.29580  0.36793  1.0000
  H   H352      1.0  0.09745  0.27603  0.37268  1.0000
  H   H353      1.0  0.09040  0.30702  0.36632  1.0000
  H   H354      1.0  0.07522  0.28674  0.37172  1.0000
  H   H355      1.0  0.11816  0.32212  0.38236  1.0000
  H   H356      1.0  0.09792  0.29724  0.31956  1.0000
  H   H357      1.0  0.08259  0.27680  0.32493  1.0000
  H   H358      1.0  0.07628  0.29339  0.31910  1.0000
  H   H359      1.0  0.11690  0.46342  0.12008  1.0000
  H   H360      1.0  0.08837  0.29147  0.46897  1.0000
  H   H361      1.0  0.16063  0.27839  0.24039  1.0000
  H   H362      1.0  0.98440  0.24714  0.12160  1.0000
  H   H363      1.0  0.29525  0.26252  0.04118  1.0000
  H   H364      1.0  0.01700  0.28756  0.46333  1.0000
  H   H365      1.0  0.02271  0.40659  0.28314  1.0000
  H   H366      1.0  0.01236  0.24996  0.14097  1.0000
  C   C229      1.0  0.99974  0.27154  0.99960  1.0000
  H   H367      1.0  0.11113  0.47112  0.15306  1.0000
  H   H368      1.0  0.30429  0.24490  0.01743  1.0000
  H   H369      1.0  0.00718  0.27383  0.41377  1.0000
  C   C230      1.0  0.04581  0.35260  0.34916  1.0000
  H   H370      1.0  0.05285  0.38114  0.38615  1.0000
  H   H371      1.0  0.19401  0.43807  0.47162  1.0000
  H   H372      1.0  0.06217  0.26672  0.46310  1.0000
  H   H373      1.0  0.12273  0.48252  0.37803  1.0000
  H   H374      1.0  0.10039  0.47402  0.32529  1.0000
  H   H375      1.0  0.14338  0.27834  0.41084  1.0000
  C   C231      1.0  0.30875  0.44583  0.06513  1.0000
  H   H376      1.0  0.13009  0.34974  0.40650  1.0000
  C   C232      1.0  0.08486  0.48626  0.29103  1.0000
  H   H377      1.0  0.11784  0.46059  0.23475  1.0000
  H   H378      1.0  0.25442  0.44844  0.42342  1.0000
  H   H379      1.0  0.18518  0.39232  0.47097  1.0000
  S   S71       1.0  0.15836  0.40137  0.45444  1.0000
  C   C233      1.0  0.30945  0.44230  0.32408  1.0000
  C   C234      1.0  0.16644  0.37576  0.36713  1.0000
  H   H380      1.0  0.12249  0.29437  0.44582  1.0000
  C   C235      1.0  0.11943  0.32315  0.40696  1.0000
  C   C236      1.0  0.15045  0.25197  0.24352  1.0000
  H   H381      1.0  0.09997  0.27890  0.46968  1.0000
  H   H382      1.0  0.13160  0.32320  0.41427  1.0000
  H   H383      1.0  0.16289  0.24126  0.27380  1.0000
  H   H384      1.0  0.03173  0.39898  0.33102  1.0000
  C   C237      1.0  0.03522  0.40654  0.28613  1.0000
  C   C238      1.0  0.05541  0.48103  0.30203  1.0000
  C   C239      1.0  0.99835  0.27542  0.42891  1.0000
  H   H385      1.0  0.15521  0.25009  0.22209  1.0000
  H   H386      1.0  0.26599  0.25790  0.31494  1.0000
  H   H387      1.0  0.31339  0.27595  0.45985  1.0000
  H   H388      1.0  0.22422  0.37046  0.47287  1.0000
  C   C240      1.0  0.08871  0.27995  0.46007  1.0000
  H   H389      1.0  0.13260  0.47798  0.14511  1.0000
  H   H390      1.0  0.25731  0.46950  0.42516  1.0000
  H   H391      1.0  0.19180  0.34371  0.44635  1.0000
  H   H392      1.0  0.19057  0.30094  0.38720  1.0000
  H   H393      1.0  0.13315  0.25856  0.42613  1.0000
  H   H394      1.0  0.08115  0.47288  0.28780  1.0000
  H   H395      1.0  0.10884  0.26400  0.43586  1.0000
  H   H396      1.0  0.05779  0.35212  0.34445  1.0000
  H   H397      1.0  0.29825  0.44846  0.07034  1.0000
  C   C241      1.0  0.00494  0.27679  0.46123  1.0000
  H   H398      1.0  0.05121  0.46776  0.29641  1.0000
  H   H399      1.0  0.14254  0.42093  0.22939  1.0000
  H   H400      1.0  0.24474  0.25219  0.30229  1.0000
  Fe  Fe36      1.0  0.10289  0.40340  0.47338  1.0000
  H   H401      1.0  0.20717  0.24489  0.46010  1.0000
  H   H402      1.0  0.17572  0.38860  0.36642  1.0000
  H   H403      1.0  0.02565  0.38249  0.30352  1.0000
  H   H404      1.0  0.10774  0.31108  0.44552  1.0000
  C   C242      1.0  0.24564  0.45581  0.46306  1.0000
  H   H405      1.0  0.15710  0.37349  0.34839  1.0000
  C   C243      1.0  0.11865  0.28972  0.42242  1.0000
  H   H406      1.0  0.03607  0.38407  0.36841  1.0000
  N   N11       1.0  0.10584  0.42246  0.16969  1.0000
  C   C244      1.0  0.10491  0.43844  0.16187  1.0000
  C   C245      1.0  0.08870  0.40998  0.17502  1.0000
  C   C246      1.0  0.11602  0.42542  0.19877  1.0000
  C   C247      1.0  0.11375  0.41611  0.14630  1.0000
  C   C248      1.0  0.11148  0.42036  0.11351  1.0000
  C   C249      1.0  0.12184  0.45333  0.16126  1.0000
  C   C250      1.0  0.11662  0.41000  0.21322  1.0000
  C   C251      1.0  0.07542  0.40612  0.14920  1.0000
  C   C252      1.0  0.05868  0.39368  0.15812  1.0000
  C   C253      1.0  0.11702  0.41049  0.09188  1.0000
  H   H407      1.0  0.25939  0.26648  0.48093  1.0000
  C   C254      1.0  0.13013  0.41467  0.23829  1.0000
  H   H408      1.0  0.09744  0.44172  0.17798  1.0000
  H   H409      1.0  0.09814  0.43732  0.14012  1.0000
  H   H410      1.0  0.08902  0.39802  0.18047  1.0000
  H   H411      1.0  0.08389  0.41400  0.19465  1.0000
  H   H412      1.0  0.11133  0.43157  0.21554  1.0000
  H   H413      1.0  0.12906  0.43393  0.19584  1.0000
  H   H414      1.0  0.12737  0.42079  0.15109  1.0000
  H   H415      1.0  0.10927  0.40255  0.14710  1.0000
  H   H416      1.0  0.11895  0.43350  0.11007  1.0000
  H   H417      1.0  0.09854  0.41799  0.10696  1.0000
  H   H418      1.0  0.29863  0.44313  0.33280  1.0000
  H   H419      1.0  0.13126  0.44989  0.15128  1.0000
  H   H420      1.0  0.11904  0.40203  0.19665  1.0000
  H   H421      1.0  0.10466  0.40284  0.22309  1.0000
  H   H422      1.0  0.07375  0.41730  0.14283  1.0000
  H   H423      1.0  0.07874  0.40057  0.12980  1.0000
  H   H424      1.0  0.05471  0.39817  0.17817  1.0000
  H   H425      1.0  0.04921  0.39171  0.13968  1.0000
  H   H426      1.0  0.05932  0.38177  0.16274  1.0000
  H   H427      1.0  0.10916  0.39720  0.09292  1.0000
  H   H428      1.0  0.11575  0.41421  0.06882  1.0000
  H   H429      1.0  0.13017  0.41272  0.09697  1.0000
  H   H430      1.0  0.22194  0.38602  0.03595  1.0000
  H   H431      1.0  0.05856  0.42261  0.41450  1.0000
  C   C255      1.0  0.28156  0.25711  0.03820  1.0000
  H   H432      1.0  0.19744  0.37817  0.00139  1.0000
  H   H433      1.0  0.12835  0.42289  0.25524  1.0000
  H   H434      1.0  0.18291  0.44888  0.98830  1.0000
  N   N12       1.0  0.19787  0.35661  0.38930  1.0000
  C   C256      1.0  0.18684  0.33856  0.38698  1.0000
  C   C257      1.0  0.18723  0.36615  0.39126  1.0000
  C   C258      1.0  0.20803  0.36089  0.36227  1.0000
  C   C259      1.0  0.20954  0.36084  0.41663  1.0000
  H   H435      1.0  0.04741  0.48256  0.31902  1.0000
  C   C260      1.0  0.19580  0.32683  0.39012  1.0000
  C   C261      1.0  0.21724  0.37941  0.35685  1.0000
  C   C262      1.0  0.17482  0.36385  0.36437  1.0000
  H   H436      1.0  0.26110  0.25432  0.06591  1.0000
  H   H437      1.0  0.03486  0.32644  0.35533  1.0000
  C   C263      1.0  0.18373  0.30895  0.38479  1.0000
  C   C264      1.0  0.22819  0.38217  0.33052  1.0000
  H   H438      1.0  0.17976  0.33539  0.36506  1.0000
  H   H439      1.0  0.17723  0.33532  0.40358  1.0000
  H   H440      1.0  0.17964  0.36266  0.41098  1.0000
  H   H441      1.0  0.19507  0.37943  0.39502  1.0000
  H   H442      1.0  0.20028  0.35505  0.34169  1.0000
  H   H443      1.0  0.21761  0.35576  0.36372  1.0000
  H   H444      1.0  0.21855  0.35512  0.41486  1.0000
  H   H445      1.0  0.21734  0.37421  0.41841  1.0000
  H   H446      1.0  0.98615  0.26491  0.42540  1.0000
  H   H447      1.0  0.99020  0.24380  0.24019  1.0000
  H   H448      1.0  0.20541  0.32949  0.37376  1.0000
  H   H449      1.0  0.20176  0.32801  0.41274  1.0000
  H   H450      1.0  0.22522  0.38594  0.37657  1.0000
  H   H451      1.0  0.20846  0.38518  0.35186  1.0000
  H   H452      1.0  0.18096  0.36596  0.34306  1.0000
  H   H453      1.0  0.16499  0.35124  0.36340  1.0000
  H   H454      1.0  0.27785  0.26457  0.02246  1.0000
  H   H455      1.0  0.12967  0.40346  0.24926  1.0000
  C   C265      1.0  0.12049  0.47360  0.24020  1.0000
  C   C266      1.0  0.11964  0.33977  0.41632  1.0000
  H   H456      1.0  0.99062  0.25165  0.04977  1.0000
  C   C267      1.0  0.03529  0.39474  0.31029  1.0000
  H   H457      1.0  0.00222  0.44839  0.24472  1.0000
  C   C268      1.0  0.04366  0.25898  0.99219  1.0000
  H   H458      1.0  0.17784  0.30686  0.36192  1.0000
  H   H459      1.0  0.22059  0.37649  0.30980  1.0000
  C   C269      1.0  0.05190  0.40949  0.40749  1.0000
  H   H460      1.0  0.03213  0.33214  0.31794  1.0000
  H   H461      1.0  0.00798  0.27523  0.02022  1.0000
  C   C270      1.0  0.98780  0.24791  0.14579  1.0000
  H   H462      1.0  0.05426  0.40203  0.42513  1.0000
  S   S72       1.0  0.11223  0.38373  0.46345  1.0000
  H   H463      1.0  0.07407  0.48148  0.33430  1.0000
  H   H464      1.0  0.11212  0.46830  0.28399  1.0000
  H   H465      1.0  0.17466  0.27069  0.25757  1.0000
  H   H466      1.0  0.23309  0.45229  0.45214  1.0000
  C   C271      1.0  0.99718  0.45665  0.25493  1.0000
  C   C272      1.0  0.08814  0.27972  0.42560  1.0000
  H   H467      1.0  0.12648  0.45811  0.18428  1.0000
  C   C273      1.0  0.04293  0.36577  0.33045  1.0000
  C   C274      1.0  0.12048  0.46729  0.14383  1.0000
  H   H468      1.0  0.22605  0.24745  0.25817  1.0000
  S   S73       1.0  0.14691  0.25663  0.34429  1.0000
  H   H469      1.0  0.24479  0.24489  0.22084  1.0000
  C   C275      1.0  0.04969  0.38792  0.36810  1.0000
  C   C276      1.0  0.24576  0.44170  0.48249  1.0000
  H   H470      1.0  0.12922  0.29730  0.40931  1.0000
  H   H471      1.0  0.16013  0.37423  0.38831  1.0000
  H   H472      1.0  0.99208  0.27876  0.00086  1.0000
  H   H473      1.0  0.29938  0.24189  0.08825  1.0000
  H   H474      1.0  0.30151  0.25757  0.98993  1.0000
  C   C277      1.0  0.22345  0.38648  0.01163  1.0000
  C   C278      1.0  0.98601  0.40715  0.25398  1.0000
  H   H475      1.0  0.99530  0.25043  0.46389  1.0000
  C   C279      1.0  0.21398  0.35809  0.47204  1.0000
  H   H476      1.0  0.09641  0.46717  0.25621  1.0000
  H   H477      1.0  0.02872  0.24250  0.18326  1.0000
  H   H478      1.0  0.11812  0.47929  0.21977  1.0000
  H   H479      1.0  0.03900  0.25273  0.08489  1.0000
  C   C280      1.0  0.11466  0.25369  0.34003  1.0000
  H   H480      1.0  0.27445  0.24567  0.47225  1.0000
  H   H481      1.0  0.02691  0.32401  0.00523  1.0000
  H   H482      1.0  0.05199  0.26027  0.01216  1.0000
  H   H483      1.0  0.24480  0.28464  0.48230  1.0000
  H   H484      1.0  0.99616  0.27919  0.47532  1.0000
  H   H485      1.0  0.99350  0.24498  0.99775  1.0000
  C   C281      1.0  0.25777  0.45934  0.43852  1.0000
  S   S74       1.0  0.30856  0.42145  0.37059  1.0000
  C   C282      1.0  0.98753  0.25349  0.00184  1.0000
  C   C283      1.0  0.16156  0.26917  0.25572  1.0000
  H   H486      1.0  0.27999  0.27188  0.07571  1.0000
  C   C284      1.0  0.07378  0.26579  0.47117  1.0000
  H   H487      1.0  0.13933  0.27669  0.45001  1.0000
  Fe  Fe37      1.0  0.19374  0.24225  0.31187  1.0000
  C   C285      1.0  0.00711  0.26100  0.47003  1.0000
  C   C286      1.0  0.13443  0.27146  0.42731  1.0000
  C   C287      1.0  0.03408  0.24023  0.07431  1.0000
  C   C288      1.0  0.07887  0.38072  0.31317  1.0000
  C   C289      1.0  0.09593  0.38065  0.31972  1.0000
  H   H488      1.0  0.08036  0.39840  0.34720  1.0000
  H   H489      1.0  0.08013  0.38972  0.29578  1.0000
  H   H490      1.0  0.09506  0.37061  0.33460  1.0000
  H   H491      1.0  0.10103  0.37868  0.29870  1.0000
  H   H492      1.0  0.03061  0.24104  0.05060  1.0000
  C   C290      1.0  0.03233  0.33555  0.34180  1.0000
  H   H493      1.0  0.18956  0.32287  0.99125  1.0000
  H   H494      1.0  0.21915  0.34875  0.46902  1.0000
  C   C291      1.0  0.30973  0.47185  0.47148  1.0000
  H   H495      1.0  0.07062  0.36841  0.30389  1.0000
  H   H496      1.0  0.04420  0.41918  0.29245  1.0000
  H   H497      1.0  0.02563  0.26293  0.01757  1.0000
  C   C292      1.0  0.07213  0.38545  0.34141  1.0000
  H   H498      1.0  0.23486  0.39552  0.32753  1.0000
  H   H499      1.0  0.07423  0.37864  0.36045  1.0000
  H   H500      1.0  0.23392  0.38310  0.00699  1.0000
  H   H501      1.0  0.12117  0.48812  0.32310  1.0000
  H   H502      1.0  0.02002  0.33510  0.34704  1.0000
  C   C293      1.0  0.11114  0.48432  0.38069  1.0000
  H   H503      1.0  0.23751  0.37691  0.33451  1.0000
  C   C294      1.0  0.05249  0.39404  0.31437  1.0000
  H   H504      1.0  0.07164  0.41027  0.38119  1.0000
  C   C295      1.0  0.10521  0.30898  0.42107  1.0000
  H   H505      1.0  0.01632  0.25994  0.45512  1.0000
  H   H506      1.0  0.19212  0.47101  0.99113  1.0000
  H   H507      1.0  0.05561  0.41422  0.36153  1.0000
  H   H508      1.0  0.10059  0.47215  0.38007  1.0000
  S   S75       1.0  0.00803  0.23950  0.29202  1.0000
  N   N13       1.0  0.05432  0.38332  0.33854  1.0000
  H   H509      1.0  0.19532  0.36487  0.45225  1.0000
  C   C296      1.0  0.05810  0.40631  0.37798  1.0000
  H   H510      1.0  0.17403  0.30541  0.40117  1.0000
  H   H511      1.0  0.99009  0.40408  0.27510  1.0000
  H   H512      1.0  0.99231  0.26090  0.15370  1.0000
  N   N14       1.0  0.10324  0.29192  0.41200  1.0000
  H   H513      1.0  0.04362  0.36275  0.30664  1.0000
  H   H514      1.0  0.09343  0.31049  0.41646  1.0000
  H   H515      1.0  0.19449  0.41922  0.98881  1.0000
  H   H516      1.0  0.03845  0.40656  0.40516  1.0000
  H   H517      1.0  0.02982  0.36393  0.33258  1.0000
  H   H518      1.0  0.24916  0.46745  0.47601  1.0000
  H   H519      1.0  0.10799  0.34066  0.40833  1.0000
  C   C297      1.0  0.30922  0.43950  0.03645  1.0000
  C   C298      1.0  0.29810  0.24452  0.99527  1.0000
  H   H520      1.0  0.23921  0.43026  0.46864  1.0000
  C   C299      1.0  0.30952  0.24114  0.07686  1.0000
  H   H521      1.0  0.08954  0.25216  0.33681  1.0000
  H   H522      1.0  0.00398  0.24256  0.17630  1.0000
  C   C300      1.0  0.09785  0.24728  0.34681  1.0000
  H   H523      1.0  0.13372  0.47996  0.24791  1.0000
  H   H524      1.0  0.31090  0.45861  0.28837  1.0000
  Fe  Fe38      1.0  0.19702  0.24096  0.38008  1.0000
  S   S76       1.0  0.04032  0.23903  0.41597  1.0000
  H   H525      1.0  0.03607  0.24576  0.98742  1.0000
  C   C301      1.0  0.12567  0.24740  0.35263  1.0000
  C   C302      1.0  0.20753  0.37458  0.99522  1.0000
  C   C303      1.0  0.03266  0.26813  0.99779  1.0000
  H   H526      1.0  0.05393  0.48740  0.28182  1.0000
  C   C304      1.0  0.00131  0.24164  0.15189  1.0000
  H   H527      1.0  0.14397  0.24119  0.28560  1.0000
  C   C305      1.0  0.07343  0.48824  0.31421  1.0000
  H   H528      1.0  0.02996  0.23954  0.13249  1.0000
  H   H529      1.0  0.04402  0.23963  0.22847  1.0000
  Fe  Fe39      1.0  0.03433  0.44190  0.68537  1.0000
  S   S77       1.0  0.04789  0.45486  0.72767  1.0000
  S   S78       1.0  0.00703  0.42485  0.68050  1.0000
  Fe  Fe40      1.0  0.06596  0.45348  0.65061  1.0000
  S   S79       1.0  0.08173  0.46766  0.69117  1.0000
  S   S80       1.0  0.07784  0.45408  0.60578  1.0000
  Fe  Fe41      1.0  0.06716  0.44549  0.71703  1.0000
  S   S81       1.0  0.07706  0.42999  0.74582  1.0000
  Fe  Fe42      1.0  0.06123  0.47624  0.69883  1.0000
  S   S82       1.0  0.05263  0.43106  0.67606  1.0000
  S   S83       1.0  0.04644  0.46353  0.65682  1.0000
  Fe  Fe43      1.0  0.03350  0.26542  0.87455  1.0000
  S   S84       1.0  0.03754  0.24950  0.90913  1.0000
  S   S85       1.0  0.03484  0.29014  0.89135  1.0000
  H   H530      1.0  0.98444  0.26281  0.88701  1.0000
  S   S86       1.0  0.04716  0.25839  0.83976  1.0000
  Fe  Fe44      1.0  0.10465  0.37997  0.92301  1.0000
  S   S87       1.0  0.12461  0.40107  0.90210  1.0000
  S   S88       1.0  0.10051  0.35540  0.90087  1.0000
  C   C306      1.0  0.18794  0.46072  0.94570  1.0000
  S   S89       1.0  0.12122  0.42437  0.95626  1.0000
  S   S90       1.0  0.09166  0.40348  0.51882  1.0000
  Fe  Fe45      1.0  0.10883  0.41495  0.91058  1.0000
  S   S91       1.0  0.10479  0.43367  0.88065  1.0000
  Fe  Fe46      1.0  0.13542  0.40861  0.94869  1.0000
  S   S92       1.0  0.16256  0.41579  0.96462  1.0000
  S   S93       1.0  0.08795  0.39331  0.92792  1.0000
  C   C307      1.0  0.20689  0.37863  0.86282  1.0000
  H   H531      1.0  0.17469  0.44303  0.89216  1.0000
  S   S94       1.0  0.21462  0.26604  0.85605  1.0000
  C   C308      1.0  0.18729  0.34666  0.95305  1.0000
  S   S95       1.0  0.18143  0.26243  0.81836  1.0000
  H   H532      1.0  0.14892  0.45853  0.67434  1.0000
  Fe  Fe47      1.0  0.16676  0.24469  0.85174  1.0000
  Fe  Fe48      1.0  0.19656  0.27772  0.85782  1.0000
  S   S96       1.0  0.20173  0.30489  0.85580  1.0000
  H   H533      1.0  0.98818  0.27607  0.94838  1.0000
  Fe  Fe49      1.0  0.28420  0.41784  0.89564  1.0000
  S   S97       1.0  0.28893  0.40613  0.93729  1.0000
  H   H534      1.0  0.01893  0.38308  0.73131  1.0000
  Fe  Fe50      1.0  0.25190  0.41848  0.91957  1.0000
  S   S98       1.0  0.25483  0.40683  0.96190  1.0000
  S   S99       1.0  0.22893  0.42281  0.90344  1.0000
  C   C309      1.0  0.18988  0.47274  0.87576  1.0000
  H   H535      1.0  0.30082  0.46725  0.48911  1.0000
  Fe  Fe51      1.0  0.26166  0.38998  0.93323  1.0000
  S   S100      1.0  0.25202  0.36264  0.94146  1.0000
  S   S101      1.0  0.27867  0.43683  0.92169  1.0000
  S   S102      1.0  0.25720  0.40047  0.89082  1.0000
  H   H536      1.0  0.21997  0.37209  0.95608  1.0000
  H   H537      1.0  0.03888  0.44551  0.83802  1.0000
  H   H538      1.0  0.26409  0.25761  0.92618  1.0000
  H   H539      1.0  0.00578  0.28110  0.92683  1.0000
  H   H540      1.0  0.05373  0.30043  0.54018  1.0000
  H   H541      1.0  0.14134  0.36394  0.91434  1.0000
  H   H542      1.0  0.21440  0.42721  0.48906  1.0000
  C   C310      1.0  0.21621  0.32069  0.87944  1.0000
  C   C311      1.0  0.22382  0.31738  0.90486  1.0000
  C   C312      1.0  0.23487  0.33036  0.92355  1.0000
  C   C313      1.0  0.23859  0.34673  0.91680  1.0000
  C   C314      1.0  0.23126  0.35002  0.89106  1.0000
  C   C315      1.0  0.21997  0.33707  0.87267  1.0000
  H   H543      1.0  0.22102  0.30482  0.91036  1.0000
  H   H544      1.0  0.24050  0.32769  0.94346  1.0000
  H   H545      1.0  0.23408  0.36258  0.88573  1.0000
  H   H546      1.0  0.21416  0.33975  0.85302  1.0000
  H   H547      1.0  0.24063  0.38457  0.82216  1.0000
  H   H548      1.0  0.05142  0.26412  0.97315  1.0000
  H   H549      1.0  0.00729  0.25624  0.56510  1.0000
  H   H550      1.0  0.06280  0.40755  0.84461  1.0000
  C   C316      1.0  0.01949  0.39488  0.72285  1.0000
  H   H551      1.0  0.02757  0.28618  0.50857  1.0000
  C   C317      1.0  0.00981  0.41404  0.82165  1.0000
  C   C318      1.0  0.27296  0.47726  0.55686  1.0000
  C   C319      1.0  0.26652  0.26812  0.52905  1.0000
  C   C320      1.0  0.03368  0.44712  0.81617  1.0000
  C   C321      1.0  0.18047  0.41641  0.94712  1.0000
  C   C322      1.0  0.19477  0.41853  0.96488  1.0000
  C   C323      1.0  0.20953  0.41999  0.95201  1.0000
  C   C324      1.0  0.21034  0.41984  0.92110  1.0000
  C   C325      1.0  0.19602  0.41766  0.90335  1.0000
  C   C326      1.0  0.18110  0.41561  0.91622  1.0000
  H   H552      1.0  0.18505  0.46447  0.85574  1.0000
  H   H553      1.0  0.98684  0.25700  0.50850  1.0000
  H   H554      1.0  0.19646  0.41746  0.87942  1.0000
  H   H555      1.0  0.17020  0.41372  0.90226  1.0000
  C   C327      1.0  0.24076  0.42674  0.52850  1.0000
  H   H556      1.0  0.28737  0.27632  0.61876  1.0000
  H   H557      1.0  0.04460  0.43589  0.78505  1.0000
  H   H558      1.0  0.13985  0.44321  0.62983  1.0000
  S   S103      1.0  0.11618  0.38693  0.96936  1.0000
  C   C328      1.0  0.08268  0.33687  0.90124  1.0000
  C   C329      1.0  0.08240  0.32301  0.88558  1.0000
  C   C330      1.0  0.06807  0.30834  0.88354  1.0000
  C   C331      1.0  0.05374  0.30756  0.89647  1.0000
  C   C332      1.0  0.05410  0.32132  0.91252  1.0000
  C   C333      1.0  0.06861  0.33583  0.91542  1.0000
  H   H559      1.0  0.09327  0.32368  0.87471  1.0000
  H   H560      1.0  0.06792  0.29780  0.87115  1.0000
  H   H561      1.0  0.04304  0.32082  0.92239  1.0000
  H   H562      1.0  0.06881  0.34630  0.92811  1.0000
  C   C334      1.0  0.08451  0.43126  0.78353  1.0000
  C   C335      1.0  0.08557  0.44388  0.80338  1.0000
  C   C336      1.0  0.09177  0.44437  0.83298  1.0000
  C   C337      1.0  0.09674  0.43215  0.84327  1.0000
  C   C338      1.0  0.09552  0.41943  0.82349  1.0000
  C   C339      1.0  0.08957  0.41909  0.79377  1.0000
  H   H563      1.0  0.08182  0.45338  0.79585  1.0000
  H   H564      1.0  0.09272  0.45431  0.84805  1.0000
  H   H565      1.0  0.09944  0.41005  0.83096  1.0000
  H   H566      1.0  0.08903  0.40940  0.77850  1.0000
  C   C340      1.0  0.08709  0.41771  0.54143  1.0000
  C   C341      1.0  0.07755  0.41199  0.56629  1.0000
  C   C342      1.0  0.07420  0.42278  0.58567  1.0000
  C   C343      1.0  0.08050  0.43958  0.58074  1.0000
  C   C344      1.0  0.08995  0.44529  0.55580  1.0000
  C   C345      1.0  0.09319  0.43448  0.53626  1.0000
  H   H567      1.0  0.07271  0.39907  0.57060  1.0000
  H   H568      1.0  0.06681  0.41811  0.60450  1.0000
  H   H569      1.0  0.09492  0.45823  0.55162  1.0000
  H   H570      1.0  0.10057  0.43917  0.51740  1.0000
  C   C346      1.0  0.99335  0.42065  0.70958  1.0000
  C   C347      1.0  0.99721  0.43067  0.73539  1.0000
  H   H571      1.0  0.16878  0.36629  0.90026  1.0000
  H   H572      1.0  0.00850  0.44166  0.73721  1.0000
  H   H573      1.0  0.12703  0.42479  0.55359  1.0000
  H   H574      1.0  0.14680  0.44036  0.73243  1.0000
  H   H575      1.0  0.11719  0.43917  0.58965  1.0000
  H   H576      1.0  0.28664  0.37213  0.92851  1.0000
  H   H577      1.0  0.01863  0.33197  0.97511  1.0000
  N   N15       1.0  0.02365  0.41589  0.80169  1.0000
  N   N16       1.0  0.23826  0.44036  0.51227  1.0000
  H   H578      1.0  0.20801  0.35615  0.49356  1.0000
  H   H579      1.0  0.06278  0.41783  0.87926  1.0000
  H   H580      1.0  0.15659  0.28619  0.95392  1.0000
  C   C348      1.0  0.14442  0.44712  0.68670  1.0000
  C   C349      1.0  0.04551  0.41939  0.84484  1.0000
  H   H581      1.0  0.21898  0.25657  0.61559  1.0000
  C   C350      1.0  0.03207  0.43348  0.79281  1.0000
  H   H582      1.0  0.20119  0.31572  0.96725  1.0000
  C   C351      1.0  0.04471  0.46406  0.80584  1.0000
  C   C352      1.0  0.21415  0.45022  0.50503  1.0000
  H   H583      1.0  0.16988  0.43016  0.84235  1.0000
  C   C353      1.0  0.26237  0.27529  0.50013  1.0000
  C   C354      1.0  0.17046  0.46052  0.94011  1.0000
  H   H584      1.0  0.15243  0.41466  0.85889  1.0000
  C   C355      1.0  0.29345  0.27252  0.50796  1.0000
  H   H585      1.0  0.26883  0.45225  0.54873  1.0000
  H   H586      1.0  0.21353  0.42951  0.52811  1.0000
  H   H587      1.0  0.13622  0.41725  0.58299  1.0000
  H   H588      1.0  0.04588  0.39861  0.86871  1.0000
  H   H589      1.0  0.29812  0.26284  0.61805  1.0000
  H   H590      1.0  0.15723  0.38301  0.92844  1.0000
  C   C356      1.0  0.01289  0.24384  0.50658  1.0000
  S   S104      1.0  0.00865  0.24641  0.85792  1.0000
  C   C357      1.0  0.98642  0.42645  0.75875  1.0000
  C   C358      1.0  0.24672  0.45580  0.53150  1.0000
  H   H591      1.0  0.24465  0.46625  0.52220  1.0000
  H   H592      1.0  0.18072  0.31354  0.95499  1.0000
  H   H593      1.0  0.23662  0.26920  0.50919  1.0000
  C   C359      1.0  0.03813  0.27422  0.53864  1.0000
  H   H594      1.0  0.27513  0.25563  0.97716  1.0000
  C   C360      1.0  0.99886  0.27285  0.94433  1.0000
  H   H595      1.0  0.06153  0.28840  0.56291  1.0000
  H   H596      1.0  0.15025  0.43917  0.67784  1.0000
  H   H597      1.0  0.25437  0.24038  0.48703  1.0000
  H   H598      1.0  0.24520  0.38069  0.78471  1.0000
  H   H599      1.0  0.98675  0.44078  0.83162  1.0000
  H   H600      1.0  0.30636  0.36104  0.77615  1.0000
  H   H601      1.0  0.21281  0.39099  0.85363  1.0000
  C   C361      1.0  0.15323  0.43935  0.86270  1.0000
  H   H602      1.0  0.04032  0.26290  0.54070  1.0000
  H   H603      1.0  0.03107  0.29675  0.95925  1.0000
  H   H604      1.0  0.19184  0.45401  0.49357  1.0000
  H   H605      1.0  0.23472  0.25016  0.73210  1.0000
  H   H606      1.0  0.21574  0.24375  0.51309  1.0000
  H   H607      1.0  0.03927  0.46683  0.78502  1.0000
  H   H608      1.0  0.14947  0.42309  0.82422  1.0000
  N   N17       1.0  0.14478  0.29278  0.86449  1.0000
  C   C362      1.0  0.15043  0.31031  0.85536  1.0000
  C   C363      1.0  0.12659  0.28584  0.87082  1.0000
  C   C364      1.0  0.15463  0.29285  0.89286  1.0000
  C   C365      1.0  0.14809  0.28217  0.84149  1.0000
  C   C366      1.0  0.13985  0.28113  0.81006  1.0000
  C   C367      1.0  0.16902  0.31925  0.84937  1.0000
  C   C368      1.0  0.14930  0.27629  0.90848  1.0000
  C   C369      1.0  0.11521  0.29220  0.85249  1.0000
  C   C370      1.0  0.09697  0.28226  0.85767  1.0000
  C   C371      1.0  0.14607  0.27209  0.78793  1.0000
  C   C372      1.0  0.17273  0.33611  0.83701  1.0000
  C   C373      1.0  0.15930  0.27816  0.93791  1.0000
  H   H609      1.0  0.14770  0.31767  0.87287  1.0000
  H   H610      1.0  0.14341  0.31127  0.83503  1.0000
  H   H611      1.0  0.12116  0.27223  0.86823  1.0000
  H   H612      1.0  0.12499  0.28856  0.89440  1.0000
  H   H613      1.0  0.15411  0.30207  0.90930  1.0000
  H   H614      1.0  0.16793  0.29653  0.88863  1.0000
  H   H615      1.0  0.16161  0.28589  0.83970  1.0000
  H   H616      1.0  0.14361  0.26935  0.84860  1.0000
  H   H617      1.0  0.14250  0.29339  0.80134  1.0000
  H   H618      1.0  0.12628  0.27413  0.81057  1.0000
  H   H619      1.0  0.17690  0.32113  0.87017  1.0000
  H   H620      1.0  0.17277  0.31229  0.83282  1.0000
  H   H621      1.0  0.15139  0.26714  0.89432  1.0000
  H   H622      1.0  0.13607  0.27130  0.91349  1.0000
  H   H623      1.0  0.11812  0.30512  0.85941  1.0000
  H   H624      1.0  0.11673  0.29170  0.82835  1.0000
  H   H625      1.0  0.08924  0.28778  0.84602  1.0000
  H   H626      1.0  0.09299  0.26951  0.84875  1.0000
  H   H627      1.0  0.09472  0.28202  0.88174  1.0000
  H   H628      1.0  0.13974  0.27123  0.76573  1.0000
  H   H629      1.0  0.15961  0.27872  0.78594  1.0000
  H   H630      1.0  0.14339  0.25948  0.79504  1.0000
  H   H631      1.0  0.18621  0.34245  0.83409  1.0000
  H   H632      1.0  0.16606  0.33490  0.81501  1.0000
  H   H633      1.0  0.16899  0.34366  0.85241  1.0000
  H   H634      1.0  0.00685  0.39354  0.71537  1.0000
  H   H635      1.0  0.30890  0.41240  0.79673  1.0000
  H   H636      1.0  0.03965  0.40976  0.75305  1.0000
  C   C374      1.0  0.24008  0.25697  0.64089  1.0000
  C   C375      1.0  0.28884  0.26547  0.55973  1.0000
  H   H637      1.0  0.25067  0.28970  0.52121  1.0000
  C   C376      1.0  0.20916  0.37491  0.96109  1.0000
  H   H638      1.0  0.06282  0.28776  0.52316  1.0000
  S   S105      1.0  0.18128  0.26064  0.89138  1.0000
  C   C377      1.0  0.01600  0.40520  0.77395  1.0000
  C   C378      1.0  0.05480  0.41023  0.86020  1.0000
  H   H639      1.0  0.21653  0.40571  0.52239  1.0000
  C   C379      1.0  0.22961  0.40898  0.51736  1.0000
  C   C380      1.0  0.99584  0.25308  0.55085  1.0000
  H   H640      1.0  0.13262  0.47125  0.66516  1.0000
  H   H641      1.0  0.25868  0.44262  0.48534  1.0000
  C   C381      1.0  0.02697  0.40855  0.74681  1.0000
  H   H642      1.0  0.22663  0.24166  0.60318  1.0000
  H   H643      1.0  0.01216  0.39204  0.77888  1.0000
  C   C382      1.0  0.12685  0.46637  0.64273  1.0000
  N   N18       1.0  0.01221  0.26029  0.50226  1.0000
  H   H644      1.0  0.01451  0.42152  0.84256  1.0000
  H   H645      1.0  0.16820  0.47782  0.87431  1.0000
  S   S106      1.0  0.21216  0.24723  0.77752  1.0000
  H   H646      1.0  0.02997  0.39685  0.82035  1.0000
  Fe  Fe52      1.0  0.10110  0.40214  0.97337  1.0000
  N   N19       1.0  0.05711  0.35616  0.82782  1.0000
  C   C383      1.0  0.05268  0.35986  0.79686  1.0000
  C   C384      1.0  0.05148  0.33785  0.82988  1.0000
  C   C385      1.0  0.04738  0.36154  0.84911  1.0000
  C   C386      1.0  0.07534  0.36498  0.83678  1.0000
  C   C387      1.0  0.08767  0.36824  0.81183  1.0000
  C   C388      1.0  0.05468  0.37775  0.79254  1.0000
  C   C389      1.0  0.04885  0.35734  0.88206  1.0000
  C   C390      1.0  0.05965  0.32944  0.80961  1.0000
  C   C391      1.0  0.05023  0.31083  0.80871  1.0000
  C   C392      1.0  0.10553  0.37498  0.82475  1.0000
  C   C393      1.0  0.05530  0.38184  0.75972  1.0000
  C   C394      1.0  0.04161  0.36621  0.90257  1.0000
  H   H647      1.0  0.03957  0.35179  0.79016  1.0000
  H   H648      1.0  0.05997  0.35692  0.78020  1.0000
  H   H649      1.0  0.05403  0.33461  0.85271  1.0000
  H   H650      1.0  0.03779  0.33169  0.82553  1.0000
  H   H651      1.0  0.03398  0.35616  0.84186  1.0000
  H   H652      1.0  0.05145  0.37505  0.84909  1.0000
  H   H653      1.0  0.07808  0.37719  0.84758  1.0000
  H   H654      1.0  0.07893  0.35813  0.85415  1.0000
  H   H655      1.0  0.08660  0.37748  0.79669  1.0000
  H   H656      1.0  0.08545  0.35703  0.79835  1.0000
  H   H657      1.0  0.04396  0.37949  0.80133  1.0000
  H   H658      1.0  0.06605  0.38662  0.80462  1.0000
  H   H659      1.0  0.06197  0.36094  0.88966  1.0000
  H   H660      1.0  0.04189  0.34402  0.88488  1.0000
  H   H661      1.0  0.05998  0.33325  0.78636  1.0000
  H   H662      1.0  0.07248  0.33232  0.81855  1.0000
  H   H663      1.0  0.03770  0.30720  0.79769  1.0000
  H   H664      1.0  0.05701  0.30500  0.79602  1.0000
  H   H665      1.0  0.04890  0.30607  0.83143  1.0000
  H   H666      1.0  0.10764  0.36574  0.83857  1.0000
  H   H667      1.0  0.11412  0.37795  0.80646  1.0000
  H   H668      1.0  0.10841  0.38629  0.83860  1.0000
  H   H669      1.0  0.05648  0.39460  0.75745  1.0000
  H   H670      1.0  0.06620  0.38088  0.75002  1.0000
  H   H671      1.0  0.04384  0.37350  0.74703  1.0000
  H   H672      1.0  0.02857  0.36351  0.89538  1.0000
  H   H673      1.0  0.04196  0.36206  0.92560  1.0000
  H   H674      1.0  0.04907  0.37962  0.90293  1.0000
  H   H675      1.0  0.00128  0.41888  0.81056  1.0000
  N   N20       1.0  0.11700  0.43534  0.65284  1.0000
  C   C395      1.0  0.12779  0.43259  0.63022  1.0000
  H   H676      1.0  0.21286  0.38791  0.95505  1.0000
  C   C396      1.0  0.10118  0.42000  0.65240  1.0000
  C   C397      1.0  0.11246  0.44945  0.64524  1.0000
  C   C398      1.0  0.02884  0.27428  0.50877  1.0000
  C   C399      1.0  0.12044  0.42911  0.59761  1.0000
  C   C400      1.0  0.08934  0.41894  0.67743  1.0000
  C   C401      1.0  0.14719  0.45976  0.90780  1.0000
  H   H677      1.0  0.04586  0.47353  0.82311  1.0000
  H   H678      1.0  0.19740  0.47227  0.93800  1.0000
  H   H679      1.0  0.99181  0.40346  0.87247  1.0000
  C   C402      1.0  0.07373  0.40306  0.67412  1.0000
  H   H680      1.0  0.02793  0.42004  0.73647  1.0000
  C   C403      1.0  0.30453  0.43777  0.53775  1.0000
  H   H681      1.0  0.20191  0.24466  0.57722  1.0000
  H   H682      1.0  0.23452  0.39751  0.55690  1.0000
  H   H683      1.0  0.10404  0.40895  0.65353  1.0000
  H   H684      1.0  0.09378  0.41860  0.63114  1.0000
  H   H685      1.0  0.10470  0.44656  0.62423  1.0000
  H   H686      1.0  0.10452  0.45126  0.66206  1.0000
  H   H687      1.0  0.04570  0.41107  0.80039  1.0000
  H   H688      1.0  0.29544  0.44957  0.57026  1.0000
  H   H689      1.0  0.10927  0.41746  0.59541  1.0000
  H   H690      1.0  0.03721  0.42094  0.86108  1.0000
  H   H691      1.0  0.08538  0.42921  0.67680  1.0000
  H   H692      1.0  0.09530  0.41918  0.69973  1.0000
  C   C404      1.0  0.99214  0.25553  0.92903  1.0000
  H   H693      1.0  0.11874  0.46304  0.92530  1.0000
  H   H694      1.0  0.00663  0.39078  0.84226  1.0000
  H   H695      1.0  0.21721  0.38833  0.90632  1.0000
  Fe  Fe53      1.0  0.28197  0.42397  0.96321  1.0000
  H   H696      1.0  0.24900  0.26592  0.62662  1.0000
  H   H697      1.0  0.16157  0.45007  0.95209  1.0000
  H   H698      1.0  0.02724  0.39795  0.70334  1.0000
  C   C405      1.0  0.31119  0.43166  0.82840  1.0000
  H   H699      1.0  0.24797  0.39890  0.52712  1.0000
  C   C406      1.0  0.21987  0.43599  0.50840  1.0000
  H   H700      1.0  0.07692  0.39226  0.67521  1.0000
  H   H701      1.0  0.06560  0.40258  0.69244  1.0000
  H   H702      1.0  0.06677  0.40252  0.65268  1.0000
  H   H703      1.0  0.03726  0.27503  0.49070  1.0000
  C   C407      1.0  0.24771  0.27996  0.50354  1.0000
  C   C408      1.0  0.29601  0.36388  0.76683  1.0000
  H   H704      1.0  0.13633  0.46583  0.62810  1.0000
  H   H705      1.0  0.25378  0.42806  0.52747  1.0000
  C   C409      1.0  0.30874  0.26832  0.50550  1.0000
  H   H706      1.0  0.03112  0.27557  0.55743  1.0000
  H   H707      1.0  0.00242  0.25352  0.91901  1.0000
  H   H708      1.0  0.25559  0.40075  0.80249  1.0000
  N   N21       1.0  0.27045  0.35837  0.83745  1.0000
  C   C410      1.0  0.25784  0.36436  0.82499  1.0000
  C   C411      1.0  0.26227  0.34019  0.84266  1.0000
  C   C412      1.0  0.27725  0.36719  0.86726  1.0000
  C   C413      1.0  0.28485  0.36236  0.81788  1.0000
  C   C414      1.0  0.28077  0.35620  0.78502  1.0000
  C   C415      1.0  0.26439  0.38284  0.81880  1.0000
  C   C416      1.0  0.28794  0.36040  0.88662  1.0000
  C   C417      1.0  0.24811  0.32933  0.82009  1.0000
  C   C418      1.0  0.24304  0.31114  0.82562  1.0000
  H   H709      1.0  0.29297  0.35891  0.74353  1.0000
  C   C419      1.0  0.25053  0.38739  0.80623  1.0000
  C   C420      1.0  0.29615  0.37153  0.91396  1.0000
  H   H710      1.0  0.24771  0.36158  0.84041  1.0000
  H   H711      1.0  0.25169  0.35775  0.80384  1.0000
  H   H712      1.0  0.27171  0.33491  0.84438  1.0000
  H   H713      1.0  0.25638  0.33812  0.86443  1.0000
  H   H714      1.0  0.26700  0.36695  0.88094  1.0000
  H   H715      1.0  0.28502  0.38039  0.86440  1.0000
  H   H716      1.0  0.29229  0.37584  0.81838  1.0000
  H   H717      1.0  0.29354  0.35715  0.82670  1.0000
  H   H718      1.0  0.27092  0.35931  0.77441  1.0000
  H   H719      1.0  0.27696  0.34275  0.78350  1.0000
  H   H720      1.0  0.26946  0.39027  0.83954  1.0000
  H   H721      1.0  0.27417  0.38635  0.80260  1.0000
  H   H722      1.0  0.20281  0.33623  0.93121  1.0000
  H   H723      1.0  0.28019  0.34814  0.89466  1.0000
  H   H724      1.0  0.23700  0.33199  0.82259  1.0000
  H   H725      1.0  0.25153  0.33141  0.79681  1.0000
  H   H726      1.0  0.25338  0.30746  0.82167  1.0000
  H   H727      1.0  0.23930  0.30841  0.84877  1.0000
  H   H728      1.0  0.23231  0.30369  0.81032  1.0000
  C   C421      1.0  0.15061  0.45155  0.71921  1.0000
  H   H729      1.0  0.26913  0.27795  0.54655  1.0000
  H   H730      1.0  0.15589  0.26595  0.94762  1.0000
  H   H731      1.0  0.18910  0.45018  0.93441  1.0000
  H   H732      1.0  0.03639  0.32737  0.96995  1.0000
  H   H733      1.0  0.02505  0.43572  0.77359  1.0000
  H   H734      1.0  0.20829  0.35932  0.90939  1.0000
  H   H735      1.0  0.24561  0.24859  0.64930  1.0000
  H   H736      1.0  0.14235  0.45987  0.88459  1.0000
  H   H737      1.0  0.21133  0.34575  0.96711  1.0000
  H   H738      1.0  0.14407  0.43904  0.57674  1.0000
  H   H739      1.0  0.27513  0.24335  0.58366  1.0000
  C   C422      1.0  0.27754  0.25655  0.58486  1.0000
  C   C423      1.0  0.02065  0.26634  0.97046  1.0000
  H   H740      1.0  0.00973  0.30627  0.94607  1.0000
  H   H741      1.0  0.17608  0.36868  0.96823  1.0000
  C   C424      1.0  0.16534  0.36307  0.92337  1.0000
  H   H742      1.0  0.12787  0.48497  0.93103  1.0000
  N   N22       1.0  0.28060  0.26250  0.52879  1.0000
  H   H743      1.0  0.15687  0.45023  0.84880  1.0000
  H   H744      1.0  0.13085  0.42210  0.63665  1.0000
  C   C425      1.0  0.15650  0.42600  0.84611  1.0000
  H   H745      1.0  0.28651  0.48103  0.56067  1.0000
  C   C426      1.0  0.18169  0.25206  0.57478  1.0000
  C   C427      1.0  0.03600  0.41010  0.81596  1.0000
  H   H746      1.0  0.99236  0.38855  0.81078  1.0000
  H   H747      1.0  0.14687  0.47290  0.94934  1.0000
  H   H748      1.0  0.05484  0.43160  0.83943  1.0000
  H   H749      1.0  0.98864  0.27059  0.57419  1.0000
  H   H750      1.0  0.05729  0.46479  0.80196  1.0000
  H   H751      1.0  0.15524  0.48612  0.91894  1.0000
  C   C428      1.0  0.19226  0.32159  0.96777  1.0000
  Fe  Fe54      1.0  0.19840  0.24925  0.81880  1.0000
  H   H752      1.0  0.13830  0.44826  0.91685  1.0000
  H   H753      1.0  0.29793  0.35931  0.87414  1.0000
  C   C429      1.0  0.19970  0.33832  0.95399  1.0000
  N   N23       1.0  0.16427  0.45972  0.90806  1.0000
  H   H754      1.0  0.27205  0.46425  0.51608  1.0000
  C   C430      1.0  0.99916  0.26201  0.52102  1.0000
  H   H755      1.0  0.12285  0.42584  0.69375  1.0000
  C   C431      1.0  0.17543  0.47441  0.89181  1.0000
  H   H756      1.0  0.22686  0.38404  0.52439  1.0000
  H   H757      1.0  0.23872  0.42749  0.55259  1.0000
  H   H758      1.0  0.12660  0.47602  0.89436  1.0000
  H   H759      1.0  0.26736  0.47519  0.57877  1.0000
  H   H760      1.0  0.15947  0.34957  0.92436  1.0000
  H   H761      1.0  0.22044  0.42177  0.96602  1.0000
  H   H762      1.0  0.13968  0.43474  0.86512  1.0000
  H   H763      1.0  0.00442  0.40638  0.76608  1.0000
  C   C432      1.0  0.05508  0.28860  0.54128  1.0000
  C   C433      1.0  0.16250  0.44363  0.89386  1.0000
  C   C434      1.0  0.13278  0.42747  0.57661  1.0000
  C   C435      1.0  0.02445  0.32336  0.98076  1.0000
  H   H764      1.0  0.18599  0.38409  0.94328  1.0000
  H   H765      1.0  0.15567  0.43338  0.90838  1.0000
  H   H766      1.0  0.02813  0.27013  0.95055  1.0000
  C   C436      1.0  0.19590  0.44377  0.49434  1.0000
  H   H767      1.0  0.29458  0.27886  0.56553  1.0000
  C   C437      1.0  0.26572  0.46160  0.53723  1.0000
  C   C438      1.0  0.12530  0.43788  0.68374  1.0000
  S   S107      1.0  0.07484  0.24085  0.89078  1.0000
  H   H768      1.0  0.30499  0.25526  0.49884  1.0000
  H   H769      1.0  0.17113  0.47184  0.95176  1.0000
  C   C439      1.0  0.14564  0.47422  0.92500  1.0000
  H   H770      1.0  0.24483  0.25646  0.86850  1.0000
  S   S108      1.0  0.28715  0.43369  0.51194  1.0000
  C   C440      1.0  0.19204  0.46009  0.97886  1.0000
  H   H771      1.0  0.21488  0.37196  0.85903  1.0000
  H   H772      1.0  0.24698  0.26303  0.83077  1.0000
  H   H773      1.0  0.02131  0.44712  0.81944  1.0000
  H   H774      1.0  0.25490  0.25792  0.53521  1.0000
  H   H775      1.0  0.18771  0.35478  0.89689  1.0000
  H   H776      1.0  0.19465  0.37207  0.85087  1.0000
  H   H777      1.0  0.19643  0.38670  0.89825  1.0000
  H   H778      1.0  0.27805  0.25604  0.63296  1.0000
  N   N24       1.0  0.00982  0.27573  0.97250  1.0000
  C   C441      1.0  0.24715  0.25332  0.84569  1.0000
  C   C442      1.0  0.12868  0.47456  0.91843  1.0000
  H   H779      1.0  0.25956  0.25300  0.84567  1.0000
  C   C443      1.0  0.99902  0.39639  0.83059  1.0000
  H   H780      1.0  0.01323  0.25301  0.96677  1.0000
  H   H781      1.0  0.98960  0.43417  0.77873  1.0000
  C   C444      1.0  0.28583  0.26342  0.61548  1.0000
  H   H782      1.0  0.17277  0.28334  0.93444  1.0000
  C   C445      1.0  0.10583  0.24027  0.89515  1.0000
  H   H783      1.0  0.23804  0.26374  0.66010  1.0000
  H   H784      1.0  0.26547  0.25759  0.58329  1.0000
  C   C446      1.0  0.98592  0.39635  0.85153  1.0000
  H   H785      1.0  0.24112  0.45411  0.55349  1.0000
  H   H786      1.0  0.30413  0.38407  0.90738  1.0000
  H   H787      1.0  0.98654  0.24566  0.94460  1.0000
  S   S109      1.0  0.29891  0.41754  0.85447  1.0000
  H   H788      1.0  0.29915  0.26136  0.56105  1.0000
  Fe  Fe55      1.0  0.19848  0.24760  0.88728  1.0000
  C   C447      1.0  0.20486  0.38044  0.89595  1.0000
  H   H789      1.0  0.00194  0.27516  0.52586  1.0000
  C   C448      1.0  0.23511  0.39665  0.53242  1.0000
  H   H790      1.0  0.10496  0.24165  0.91880  1.0000
  C   C449      1.0  0.19830  0.36371  0.91080  1.0000
  H   H791      1.0  0.18804  0.43453  0.50952  1.0000
  C   C450      1.0  0.12061  0.47869  0.62978  1.0000
  H   H792      1.0  0.21562  0.45672  0.52692  1.0000
  H   H793      1.0  0.14803  0.36643  0.95311  1.0000
  C   C451      1.0  0.18072  0.37057  0.94550  1.0000
  H   H794      1.0  0.18074  0.48533  0.90737  1.0000
  C   C452      1.0  0.27412  0.24442  0.52121  1.0000
  N   N25       1.0  0.19388  0.36397  0.94259  1.0000
  H   H795      1.0  0.18227  0.34604  0.97538  1.0000
  H   H796      1.0  0.18813  0.26334  0.58902  1.0000
  H   H797      1.0  0.23002  0.40748  0.49315  1.0000
  S   S110      1.0  0.21477  0.24383  0.92532  1.0000
  H   H798      1.0  0.11982  0.44420  0.69866  1.0000
  H   H799      1.0  0.11532  0.47483  0.60667  1.0000
  C   C453      1.0  0.15225  0.36953  0.93033  1.0000
  C   C454      1.0  0.30538  0.44606  0.56509  1.0000
  H   H800      1.0  0.17659  0.33859  0.93829  1.0000
  H   H801      1.0  0.14561  0.46003  0.72880  1.0000
  H   H802      1.0  0.16432  0.45772  0.72078  1.0000
  H   H803      1.0  0.11093  0.47976  0.64343  1.0000
  H   H804      1.0  0.30005  0.37739  0.76658  1.0000
  H   H805      1.0  0.30394  0.36655  0.92693  1.0000
  H   H806      1.0  0.19703  0.46764  0.88996  1.0000
  H   H807      1.0  0.21183  0.48767  0.85345  1.0000
  H   H808      1.0  0.22128  0.45933  0.48921  1.0000
  C   C455      1.0  0.01286  0.30597  0.97014  1.0000
  H   H809      1.0  0.29812  0.28575  0.51476  1.0000
  H   H810      1.0  0.18885  0.24509  0.62917  1.0000
  C   C456      1.0  0.02115  0.29375  0.97534  1.0000
  H   H811      1.0  0.98611  0.44731  0.86943  1.0000
  H   H812      1.0  0.18356  0.25535  0.55117  1.0000
  H   H813      1.0  0.99022  0.23959  0.54657  1.0000
  H   H814      1.0  0.03669  0.24985  0.48594  1.0000
  H   H815      1.0  0.27297  0.28669  0.49483  1.0000
  H   H816      1.0  0.28403  0.23991  0.52513  1.0000
  Fe  Fe56      1.0  0.04999  0.24117  0.87351  1.0000
  H   H817      1.0  0.07440  0.26623  0.49583  1.0000
  C   C457      1.0  0.22379  0.24745  0.62285  1.0000
  H   H818      1.0  0.01654  0.24256  0.52995  1.0000
  C   C458      1.0  0.26132  0.24448  0.92144  1.0000
  H   H819      1.0  0.23378  0.24712  0.98009  1.0000
  H   H820      1.0  0.12990  0.23932  0.89995  1.0000
  C   C459      1.0  0.09254  0.23935  0.87563  1.0000
  C   C460      1.0  0.02441  0.23957  0.48649  1.0000
  H   H821      1.0  0.00133  0.30260  0.98197  1.0000
  H   H822      1.0  0.26355  0.24299  0.89783  1.0000
  C   C461      1.0  0.98362  0.25727  0.56842  1.0000
  H   H823      1.0  0.27080  0.48734  0.54596  1.0000
  H   H824      1.0  0.20446  0.45985  0.98211  1.0000
  H   H825      1.0  0.16823  0.24706  0.57817  1.0000
  C   C462      1.0  0.27067  0.24213  0.97427  1.0000
  H   H826      1.0  0.28531  0.24603  0.93526  1.0000
  C   C463      1.0  0.31441  0.42545  0.80157  1.0000
  H   H827      1.0  0.20956  0.24177  0.66095  1.0000
  C   C464      1.0  0.12010  0.23912  0.88449  1.0000
  H   H828      1.0  0.28798  0.27148  0.48499  1.0000
  C   C465      1.0  0.18868  0.23936  0.58198  1.0000
  S   S111      1.0  0.07014  0.50266  0.22027  1.0000
  Fe  Fe57      1.0  0.10901  0.69559  0.41237  1.0000
  S   S112      1.0  0.09163  0.69325  0.44899  1.0000
  S   S113      1.0  0.10150  0.67223  0.38250  1.0000
  Fe  Fe58      1.0  0.13420  0.72992  0.43656  1.0000
  S   S114      1.0  0.11829  0.72896  0.47450  1.0000
  H   H829      1.0  0.06041  0.51119  0.16147  1.0000
  S   S115      1.0  0.12367  0.68932  0.02371  1.0000
  Fe  Fe59      1.0  0.09690  0.71965  0.44081  1.0000
  H   H830      1.0  0.99760  0.60352  0.34401  1.0000
  S   S116      1.0  0.13184  0.70401  0.44401  1.0000
  S   S117      1.0  0.11257  0.72148  0.40220  1.0000
  Fe  Fe60      1.0  0.06600  0.59370  0.18363  1.0000
  S   S118      1.0  0.04848  0.59844  0.15095  1.0000
  S   S119      1.0  0.06453  0.56780  0.17209  1.0000
  Fe  Fe61      1.0  0.07534  0.62747  0.21515  1.0000
  S   S120      1.0  0.05772  0.63308  0.18445  1.0000
  S   S121      1.0  0.08930  0.65091  0.24405  1.0000
  Fe  Fe62      1.0  0.03989  0.60733  0.19076  1.0000
  S   S122      1.0  0.01246  0.60104  0.19354  1.0000
  Fe  Fe63      1.0  0.06792  0.62395  0.14696  1.0000
  S   S123      1.0  0.06973  0.63742  0.10290  1.0000
  S   S124      1.0  0.05651  0.60196  0.22397  1.0000
  S   S125      1.0  0.08629  0.61893  0.17708  1.0000
  C   C466      1.0  0.99662  0.54199  0.21673  1.0000
  C   C467      1.0  0.99963  0.58899  0.22061  1.0000
  C   C468      1.0  0.00601  0.58403  0.24575  1.0000
  C   C469      1.0  0.99524  0.57449  0.26675  1.0000
  H   H831      1.0  0.98410  0.59745  0.31085  1.0000
  H   H832      1.0  0.01920  0.58757  0.24903  1.0000
  H   H833      1.0  0.00020  0.57075  0.28625  1.0000
  C   C470      1.0  0.10850  0.67514  0.04580  1.0000
  C   C471      1.0  0.11342  0.66620  0.06676  1.0000
  C   C472      1.0  0.10184  0.65470  0.08450  1.0000
  C   C473      1.0  0.08512  0.65205  0.08176  1.0000
  C   C474      1.0  0.08023  0.66105  0.06089  1.0000
  C   C475      1.0  0.09181  0.67257  0.04322  1.0000
  H   H834      1.0  0.12628  0.66806  0.06908  1.0000
  H   H835      1.0  0.10584  0.64777  0.10009  1.0000
  H   H836      1.0  0.06736  0.65917  0.05853  1.0000
  H   H837      1.0  0.08785  0.67955  0.02770  1.0000
  C   C476      1.0  0.09854  0.66677  0.34381  1.0000
  C   C477      1.0  0.09340  0.65017  0.33494  1.0000
  C   C478      1.0  0.09051  0.64507  0.30463  1.0000
  C   C479      1.0  0.09269  0.65652  0.28269  1.0000
  C   C480      1.0  0.09800  0.67315  0.29152  1.0000
  C   C481      1.0  0.10087  0.67826  0.32185  1.0000
  H   H838      1.0  0.09175  0.64121  0.35171  1.0000
  H   H839      1.0  0.08684  0.63232  0.29825  1.0000
  H   H840      1.0  0.09992  0.68217  0.27478  1.0000
  H   H841      1.0  0.10493  0.69107  0.32826  1.0000
  C   C482      1.0  0.06841  0.52061  0.20630  1.0000
  C   C483      1.0  0.07225  0.53437  0.22568  1.0000
  C   C484      1.0  0.07125  0.54890  0.21570  1.0000
  C   C485      1.0  0.06634  0.54991  0.18610  1.0000
  C   C486      1.0  0.06243  0.53613  0.16677  1.0000
  C   C487      1.0  0.06340  0.52159  0.17674  1.0000
  H   H842      1.0  0.07605  0.53382  0.24860  1.0000
  H   H843      1.0  0.07446  0.55939  0.23081  1.0000
  H   H844      1.0  0.05864  0.53671  0.14380  1.0000
  H   H845      1.0  0.00015  0.55714  0.16386  1.0000
  H   H846      1.0  0.06127  0.64740  0.00174  1.0000
  N   N26       1.0  0.03882  0.63790  0.30488  1.0000
  C   C488      1.0  0.04540  0.62530  0.29657  1.0000
  C   C489      1.0  0.03692  0.64689  0.27768  1.0000
  C   C490      1.0  0.05153  0.65028  0.32640  1.0000
  C   C491      1.0  0.02273  0.63047  0.32003  1.0000
  C   C492      1.0  0.00879  0.61544  0.30395  1.0000
  C   C493      1.0  0.04871  0.61561  0.32251  1.0000
  C   C494      1.0  0.04756  0.66492  0.33672  1.0000
  C   C495      1.0  0.03207  0.63707  0.24746  1.0000
  C   C496      1.0  0.02775  0.64672  0.22330  1.0000
  C   C497      1.0  0.01689  0.55944  0.12983  1.0000
  C   C498      1.0  0.05193  0.60108  0.31082  1.0000
  C   C499      1.0  0.06188  0.67728  0.35631  1.0000
  H   H847      1.0  0.05718  0.63130  0.28527  1.0000
  H   H848      1.0  0.03696  0.61615  0.27984  1.0000
  H   H849      1.0  0.02785  0.65239  0.28118  1.0000
  H   H850      1.0  0.04882  0.65743  0.27393  1.0000
  H   H851      1.0  0.06379  0.65540  0.31644  1.0000
  H   H852      1.0  0.05337  0.64443  0.34706  1.0000
  H   H853      1.0  0.02493  0.62700  0.34292  1.0000
  H   H854      1.0  0.01743  0.63971  0.32324  1.0000
  H   H855      1.0  0.01299  0.60562  0.29885  1.0000
  H   H856      1.0  0.00423  0.61911  0.28321  1.0000
  H   H857      1.0  0.05979  0.62355  0.33654  1.0000
  H   H858      1.0  0.03805  0.61070  0.33671  1.0000
  H   H859      1.0  0.03650  0.66062  0.35008  1.0000
  H   H860      1.0  0.04529  0.67153  0.31758  1.0000
  H   H861      1.0  0.04266  0.63455  0.24023  1.0000
  H   H862      1.0  0.02140  0.62519  0.24865  1.0000
  H   H863      1.0  0.03822  0.65873  0.22100  1.0000
  H   H864      1.0  0.02516  0.63971  0.20171  1.0000
  H   H865      1.0  0.01656  0.64869  0.22863  1.0000
  H   H866      1.0  0.11629  0.72846  0.08203  1.0000
  C   C500      1.0  0.02211  0.50141  0.21848  1.0000
  H   H867      1.0  0.07831  0.72657  0.38221  1.0000
  H   H868      1.0  0.06248  0.60525  0.29617  1.0000
  H   H869      1.0  0.05497  0.59478  0.32973  1.0000
  H   H870      1.0  0.04073  0.59221  0.29820  1.0000
  H   H871      1.0  0.05850  0.68724  0.36453  1.0000
  H   H872      1.0  0.06487  0.67130  0.37582  1.0000
  H   H873      1.0  0.07308  0.68285  0.34347  1.0000
  N   N27       1.0  0.10588  0.69591  0.15154  1.0000
  C   C501      1.0  0.08871  0.68988  0.16287  1.0000
  C   C502      1.0  0.11782  0.71032  0.17071  1.0000
  C   C503      1.0  0.10494  0.70173  0.12047  1.0000
  C   C504      1.0  0.11204  0.68250  0.14970  1.0000
  C   C505      1.0  0.11304  0.67411  0.17897  1.0000
  C   C506      1.0  0.07521  0.67481  0.14592  1.0000
  C   C507      1.0  0.12160  0.70970  0.10525  1.0000
  C   C508      1.0  0.11462  0.71075  0.20427  1.0000
  C   C509      1.0  0.01286  0.55773  0.16250  1.0000
  C   C510      1.0  0.11810  0.65991  0.17341  1.0000
  C   C511      1.0  0.05837  0.67057  0.15876  1.0000
  H   H874      1.0  0.01827  0.49875  0.24156  1.0000
  H   H875      1.0  0.08440  0.70001  0.16290  1.0000
  H   H876      1.0  0.08865  0.68628  0.18630  1.0000
  H   H877      1.0  0.13073  0.71136  0.16897  1.0000
  H   H878      1.0  0.11787  0.72205  0.16245  1.0000
  H   H879      1.0  0.09901  0.71064  0.12050  1.0000
  H   H880      1.0  0.09703  0.69142  0.10505  1.0000
  H   H881      1.0  0.10423  0.67287  0.13310  1.0000
  H   H882      1.0  0.12468  0.68722  0.14135  1.0000
  H   H883      1.0  0.10095  0.66912  0.18923  1.0000
  H   H884      1.0  0.12257  0.68287  0.19484  1.0000
  H   H885      1.0  0.07375  0.67692  0.12204  1.0000
  H   H886      1.0  0.07825  0.66397  0.14806  1.0000
  H   H887      1.0  0.12611  0.70021  0.09896  1.0000
  H   H888      1.0  0.01232  0.49292  0.20259  1.0000
  H   H889      1.0  0.10350  0.71338  0.20702  1.0000
  H   H890      1.0  0.11248  0.69902  0.21481  1.0000
  H   H891      1.0  0.01564  0.57050  0.12129  1.0000
  H   H892      1.0  0.13152  0.73635  0.21245  1.0000
  C   C512      1.0  0.99399  0.60802  0.32318  1.0000
  H   H893      1.0  0.11815  0.65370  0.19455  1.0000
  H   H894      1.0  0.10922  0.65085  0.15702  1.0000
  H   H895      1.0  0.13069  0.66440  0.16493  1.0000
  H   H896      1.0  0.04906  0.65942  0.14693  1.0000
  H   H897      1.0  0.05895  0.66806  0.18272  1.0000
  H   H898      1.0  0.05433  0.68075  0.15594  1.0000
  H   H899      1.0  0.98890  0.61717  0.32870  1.0000
  S   S126      1.0  0.07916  0.73194  0.44633  1.0000
  H   H900      1.0  0.99801  0.55480  0.21361  1.0000
  H   H901      1.0  0.02671  0.54292  0.16981  1.0000
  H   H902      1.0  0.07673  0.50127  0.32050  1.0000
  C   C513      1.0  0.12917  0.72418  0.22155  1.0000
  H   H903      1.0  0.05339  0.55655  0.26668  1.0000
  H   H904      1.0  0.03349  0.49920  0.21611  1.0000
  H   H905      1.0  0.02983  0.56082  0.12732  1.0000
  H   H906      1.0  0.12382  0.54600  0.29000  1.0000
  H   H907      1.0  0.00024  0.51367  0.19913  1.0000
  H   H908      1.0  0.10510  0.62993  0.04542  1.0000
  H   H909      1.0  0.02757  0.56505  0.22060  1.0000
  H   H910      1.0  0.04412  0.56179  0.29768  1.0000
  H   H911      1.0  0.00089  0.71521  0.45001  1.0000
  H   H912      1.0  0.10886  0.52099  0.25741  1.0000
  H   H913      1.0  0.01835  0.55564  0.26859  1.0000
  C   C514      1.0  0.02564  0.51921  0.21195  1.0000
  H   H914      1.0  0.02152  0.56899  0.17482  1.0000
  H   H915      1.0  0.03576  0.52702  0.22797  1.0000
  H   H916      1.0  0.00536  0.53147  0.16161  1.0000
  H   H917      1.0  0.09756  0.60806  0.04009  1.0000
  H   H918      1.0  0.10362  0.51580  0.32421  1.0000
  H   H919      1.0  0.16840  0.71074  0.47038  1.0000
  H   H920      1.0  0.10785  0.49665  0.25146  1.0000
  C   C515      1.0  0.04443  0.56168  0.27310  1.0000
  H   H921      1.0  0.08346  0.61719  0.04928  1.0000
  H   H922      1.0  0.03007  0.52145  0.18920  1.0000
  N   N28       1.0  0.01186  0.53985  0.20785  1.0000
  H   H923      1.0  0.13119  0.72246  0.06519  1.0000
  H   H924      1.0  0.12237  0.51894  0.30788  1.0000
  H   H925      1.0  0.04873  0.57445  0.26577  1.0000
  H   H926      1.0  0.99501  0.54014  0.24091  1.0000
  H   H927      1.0  0.13134  0.71915  0.11980  1.0000
  H   H928      1.0  0.00514  0.72680  0.39369  1.0000
  C   C516      1.0  0.02723  0.55122  0.25909  1.0000
  C   C517      1.0  0.02946  0.71263  0.44591  1.0000
  H   H929      1.0  0.11722  0.65558  0.98995  1.0000
  H   H930      1.0  0.00183  0.73395  0.06857  1.0000
  H   H931      1.0  0.01928  0.70268  0.43292  1.0000
  C   C518      1.0  0.11012  0.54052  0.28674  1.0000
  C   C519      1.0  0.11199  0.49234  0.27206  1.0000
  Fe  Fe64      1.0  0.11435  0.70263  0.48004  1.0000
  H   H932      1.0  0.03785  0.73815  0.45712  1.0000
  H   H933      1.0  0.09008  0.51751  0.27551  1.0000
  H   H934      1.0  0.10468  0.54263  0.30726  1.0000
  C   C520      1.0  0.09095  0.62018  0.00344  1.0000
  H   H935      1.0  0.09359  0.64511  0.01180  1.0000
  C   C521      1.0  0.11947  0.71792  0.07681  1.0000
  N   N29       1.0  0.10321  0.49480  0.29847  1.0000
  H   H936      1.0  0.10656  0.54679  0.26835  1.0000
  H   H937      1.0  0.18621  0.72907  0.48160  1.0000
  C   C522      1.0  0.10867  0.51303  0.30381  1.0000
  H   H938      1.0  0.10959  0.70908  0.06149  1.0000
  C   C523      1.0  0.99017  0.73478  0.07462  1.0000
  H   H939      1.0  0.00829  0.54858  0.11633  1.0000
  C   C524      1.0  0.02674  0.55252  0.22481  1.0000
  C   C525      1.0  0.10372  0.52222  0.27880  1.0000
  H   H940      1.0  0.03837  0.55247  0.21651  1.0000
  H   H941      1.0  0.12555  0.49980  0.27543  1.0000
  C   C526      1.0  0.01426  0.54224  0.17506  1.0000
  H   H942      1.0  0.00531  0.51936  0.23707  1.0000
  H   H943      1.0  0.11906  0.50718  0.35898  1.0000
  C   C527      1.0  0.00994  0.52270  0.21456  1.0000
  H   H944      1.0  0.02408  0.53854  0.26602  1.0000
  H   H945      1.0  0.98346  0.72526  0.42628  1.0000
  C   C528      1.0  0.09445  0.61879  0.03659  1.0000
  H   H946      1.0  0.14051  0.72176  0.22054  1.0000
  H   H947      1.0  0.12633  0.72445  0.24524  1.0000
  H   H948      1.0  0.15938  0.73280  0.48135  1.0000
  H   H949      1.0  0.09707  0.49647  0.36016  1.0000
  H   H950      1.0  0.07313  0.63033  0.00851  1.0000
  C   C529      1.0  0.00167  0.73738  0.39553  1.0000
  C   C530      1.0  0.10862  0.49493  0.35631  1.0000
  C   C531      1.0  0.07313  0.73542  0.38669  1.0000
  C   C532      1.0  0.08521  0.63417  0.99818  1.0000
  C   C533      1.0  0.98249  0.58438  0.21673  1.0000
  H   H951      1.0  0.08159  0.49012  0.26923  1.0000
  H   H952      1.0  0.08102  0.60834  0.99542  1.0000
  H   H953      1.0  0.10244  0.62215  0.99226  1.0000
  H   H954      1.0  0.11200  0.49034  0.40282  1.0000
  H   H955      1.0  0.98276  0.72360  0.08640  1.0000
  H   H956      1.0  0.06698  0.67580  0.98768  1.0000
  H   H957      1.0  0.98296  0.73521  0.05403  1.0000
  C   C534      1.0  0.99394  0.73744  0.42560  1.0000
  C   C535      1.0  0.01083  0.72709  0.45821  1.0000
  C   C536      1.0  0.02713  0.72865  0.44448  1.0000
  H   H958      1.0  0.99500  0.73538  0.34827  1.0000
  H   H959      1.0  0.02769  0.73212  0.42103  1.0000
  H   H960      1.0  0.04131  0.71422  0.43629  1.0000
  C   C537      1.0  0.98923  0.73555  0.36955  1.0000
  H   H961      1.0  0.06648  0.73720  0.34063  1.0000
  H   H962      1.0  0.01273  0.72554  0.48238  1.0000
  H   H963      1.0  0.02992  0.70906  0.46931  1.0000
  S   S127      1.0  0.08481  0.73228  0.95399  1.0000
  Fe  Fe65      1.0  0.11191  0.69610  0.91449  1.0000
  S   S128      1.0  0.09758  0.69556  0.95471  1.0000
  S   S129      1.0  0.09636  0.67279  0.88599  1.0000
  Fe  Fe66      1.0  0.14023  0.72941  0.93726  1.0000
  H   H964      1.0  0.01242  0.54736  0.61424  1.0000
  H   H965      1.0  0.06720  0.51441  0.65967  1.0000
  S   S130      1.0  0.11760  0.69398  0.52712  1.0000
  Fe  Fe67      1.0  0.10438  0.72226  0.94863  1.0000
  Fe  Fe68      1.0  0.12141  0.70296  0.98174  1.0000
  S   S131      1.0  0.13596  0.70266  0.94178  1.0000
  S   S132      1.0  0.11704  0.72254  0.90682  1.0000
  Fe  Fe69      1.0  0.06631  0.59380  0.68331  1.0000
  S   S133      1.0  0.04841  0.59907  0.65285  1.0000
  S   S134      1.0  0.07041  0.57062  0.67086  1.0000
  Fe  Fe70      1.0  0.07396  0.62565  0.72024  1.0000
  S   S135      1.0  0.05576  0.63229  0.69242  1.0000
  S   S136      1.0  0.09363  0.64341  0.75404  1.0000
  Fe  Fe71      1.0  0.03897  0.60542  0.69437  1.0000
  S   S137      1.0  0.01075  0.59406  0.69159  1.0000
  Fe  Fe72      1.0  0.06648  0.62542  0.65252  1.0000
  S   S138      1.0  0.06839  0.63765  0.60714  1.0000
  S   S139      1.0  0.05625  0.59919  0.72517  1.0000
  S   S140      1.0  0.08526  0.61976  0.67992  1.0000
  C   C538      1.0  0.11818  0.73063  0.56912  1.0000
  C   C539      1.0  0.99731  0.58262  0.71845  1.0000
  C   C540      1.0  0.00285  0.58221  0.74786  1.0000
  C   C541      1.0  0.05483  0.72917  0.77849  1.0000
  N   N30       1.0  0.08371  0.63861  0.96636  1.0000
  H   H966      1.0  0.01576  0.58899  0.75467  1.0000
  H   H967      1.0  0.04909  0.68321  0.79147  1.0000
  C   C542      1.0  0.10366  0.67828  0.54904  1.0000
  C   C543      1.0  0.10913  0.67578  0.57771  1.0000
  C   C544      1.0  0.09863  0.66351  0.59581  1.0000
  C   C545      1.0  0.08240  0.65350  0.58554  1.0000
  C   C546      1.0  0.07694  0.65606  0.55693  1.0000
  C   C547      1.0  0.08743  0.66831  0.53884  1.0000
  H   H968      1.0  0.12161  0.68335  0.58597  1.0000
  H   H969      1.0  0.10309  0.66180  0.61766  1.0000
  H   H970      1.0  0.06447  0.64845  0.54861  1.0000
  H   H971      1.0  0.08296  0.66998  0.51695  1.0000
  C   C548      1.0  0.09559  0.66548  0.84861  1.0000
  C   C549      1.0  0.08139  0.65198  0.83748  1.0000
  C   C550      1.0  0.08036  0.64529  0.80845  1.0000
  C   C551      1.0  0.09364  0.65193  0.79018  1.0000
  C   C552      1.0  0.10779  0.66552  0.80125  1.0000
  C   C553      1.0  0.10874  0.67232  0.83016  1.0000
  H   H972      1.0  0.07112  0.64656  0.85150  1.0000
  H   H973      1.0  0.06942  0.63483  0.80039  1.0000
  H   H974      1.0  0.11818  0.67074  0.78743  1.0000
  H   H975      1.0  0.11982  0.68260  0.83839  1.0000
  C   C554      1.0  0.06466  0.51999  0.70523  1.0000
  C   C555      1.0  0.06396  0.53211  0.72493  1.0000
  C   C556      1.0  0.06534  0.54751  0.71486  1.0000
  C   C557      1.0  0.06755  0.55109  0.68486  1.0000
  C   C558      1.0  0.06816  0.53896  0.66518  1.0000
  C   C559      1.0  0.06661  0.52350  0.67517  1.0000
  H   H976      1.0  0.06253  0.52961  0.74825  1.0000
  H   H977      1.0  0.06511  0.55672  0.73042  1.0000
  H   H978      1.0  0.06994  0.54155  0.64194  1.0000
  H   H979      1.0  0.99464  0.50552  0.72092  1.0000
  C   C560      1.0  0.07639  0.69265  0.79714  1.0000
  C   C561      1.0  0.09985  0.64364  0.95138  1.0000
  C   C562      1.0  0.07015  0.62470  0.94870  1.0000
  H   H980      1.0  0.05218  0.59076  0.93802  1.0000
  H   H981      1.0  0.03632  0.55709  0.71381  1.0000
  H   H982      1.0  0.00525  0.55822  0.67920  1.0000
  H   H983      1.0  0.05436  0.70609  0.81556  1.0000
  H   H984      1.0  0.09855  0.72999  0.83206  1.0000
  C   C563      1.0  0.07508  0.61207  0.93222  1.0000
  C   C564      1.0  0.05982  0.59741  0.91975  1.0000
  C   C565      1.0  0.11488  0.65807  0.96655  1.0000
  H   H985      1.0  0.03512  0.57425  0.77579  1.0000
  H   H986      1.0  0.99326  0.54830  0.72716  1.0000
  H   H987      1.0  0.09823  0.64706  0.92813  1.0000
  H   H988      1.0  0.20776  0.49786  0.88492  1.0000
  C   C566      1.0  0.02127  0.55841  0.62697  1.0000
  H   H989      1.0  0.06449  0.62960  0.93078  1.0000
  H   H990      1.0  0.07965  0.65797  0.94376  1.0000
  C   C567      1.0  0.07907  0.65315  0.96655  1.0000
  H   H991      1.0  0.08810  0.66333  0.98096  1.0000
  H   H992      1.0  0.09853  0.72369  0.79435  1.0000
  H   H993      1.0  0.19541  0.49472  0.85031  1.0000
  C   C568      1.0  0.01435  0.52583  0.70055  1.0000
  H   H994      1.0  0.03435  0.56540  0.66935  1.0000
  H   H995      1.0  0.02211  0.56522  0.72518  1.0000
  H   H996      1.0  0.98684  0.73327  0.88099  1.0000
  H   H997      1.0  0.05222  0.60146  0.90419  1.0000
  H   H998      1.0  0.08254  0.61787  0.91315  1.0000
  C   C569      1.0  0.01565  0.49948  0.71831  1.0000
  C   C570      1.0  0.06177  0.65012  0.97782  1.0000
  C   C571      1.0  0.00829  0.51209  0.72333  1.0000
  H   H999      1.0  0.12914  0.66426  0.92704  1.0000
  H   H1000     1.0  0.08493  0.68662  0.80273  1.0000
  H   H1001     1.0  0.00890  0.51973  0.67851  1.0000
  H   H1002     1.0  0.02932  0.50526  0.72207  1.0000
  C   C572      1.0  0.00907  0.54782  0.67620  1.0000
  H   H1003     1.0  0.03026  0.54487  0.65665  1.0000
  H   H1004     1.0  0.05994  0.61788  0.96321  1.0000
  H   H1005     1.0  0.13845  0.72936  0.52668  1.0000
  H   H1006     1.0  0.99431  0.53066  0.74192  1.0000
  H   H1007     1.0  0.04258  0.56127  0.79655  1.0000
  N   N31       1.0  0.12242  0.60870  0.71745  1.0000
  C   C573      1.0  0.11269  0.59511  0.69487  1.0000
  C   C574      1.0  0.11124  0.61037  0.74052  1.0000
  C   C575      1.0  0.12917  0.62448  0.70105  1.0000
  C   C576      1.0  0.13691  0.60627  0.73202  1.0000
  C   C577      1.0  0.13289  0.59011  0.74825  1.0000
  C   C578      1.0  0.12261  0.59185  0.66997  1.0000
  C   C579      1.0  0.13733  0.64056  0.72058  1.0000
  C   C580      1.0  0.09691  0.59452  0.74980  1.0000
  C   C581      1.0  0.08942  0.59774  0.77781  1.0000
  C   C582      1.0  0.14868  0.58791  0.75755  1.0000
  C   C583      1.0  0.11142  0.57772  0.64893  1.0000
  C   C584      1.0  0.14244  0.65555  0.70137  1.0000
  H   H1008     1.0  0.10250  0.59771  0.68396  1.0000
  H   H1009     1.0  0.10635  0.58324  0.70545  1.0000
  H   H1010     1.0  0.11871  0.61691  0.76098  1.0000
  H   H1011     1.0  0.10496  0.61825  0.73245  1.0000
  H   H1012     1.0  0.11919  0.62563  0.68654  1.0000
  H   H1013     1.0  0.13870  0.62451  0.68583  1.0000
  H   H1014     1.0  0.14623  0.60736  0.71551  1.0000
  H   H1015     1.0  0.14356  0.61625  0.74895  1.0000
  H   H1016     1.0  0.12498  0.57926  0.73408  1.0000
  H   H1017     1.0  0.12662  0.59040  0.76886  1.0000
  H   H1018     1.0  0.12820  0.60271  0.65630  1.0000
  H   H1019     1.0  0.13254  0.58846  0.67949  1.0000
  H   H1020     1.0  0.14859  0.64101  0.73314  1.0000
  H   H1021     1.0  0.12876  0.64183  0.73664  1.0000
  H   H1022     1.0  0.08698  0.59014  0.73170  1.0000
  H   H1023     1.0  0.10085  0.58446  0.75418  1.0000
  H   H1024     1.0  0.09882  0.60175  0.79675  1.0000
  H   H1025     1.0  0.08466  0.60737  0.77411  1.0000
  H   H1026     1.0  0.07905  0.58635  0.78376  1.0000
  H   H1027     1.0  0.15701  0.59833  0.77235  1.0000
  H   H1028     1.0  0.14547  0.57644  0.76981  1.0000
  H   H1029     1.0  0.15529  0.58700  0.73771  1.0000
  H   H1030     1.0  0.11883  0.57535  0.63171  1.0000
  H   H1031     1.0  0.10540  0.56635  0.66125  1.0000
  H   H1032     1.0  0.10169  0.58082  0.63758  1.0000
  H   H1033     1.0  0.15139  0.65528  0.68513  1.0000
  H   H1034     1.0  0.13142  0.65601  0.68920  1.0000
  H   H1035     1.0  0.14837  0.66686  0.71572  1.0000
  H   H1036     1.0  0.06351  0.67667  0.89283  1.0000
  H   H1037     1.0  0.05727  0.70563  0.86780  1.0000
  H   H1038     1.0  0.14114  0.67149  0.96175  1.0000
  C   C585      1.0  0.06738  0.71462  0.81314  1.0000
  H   H1039     1.0  0.05797  0.67339  0.74693  1.0000
  N   N32       1.0  0.07908  0.70641  0.81942  1.0000
  C   C586      1.0  0.02758  0.54958  0.75648  1.0000
  H   H1040     1.0  0.12796  0.73665  0.84513  1.0000
  C   C587      1.0  0.05893  0.67862  0.79462  1.0000
  H   H1041     1.0  0.09468  0.73818  0.89308  1.0000
  H   H1042     1.0  0.17440  0.73307  0.54497  1.0000
  C   C588      1.0  0.02489  0.55411  0.65841  1.0000
  C   C589      1.0  0.04006  0.56466  0.77385  1.0000
  S   S141      1.0  0.06341  0.50096  0.71959  1.0000
  H   H1043     1.0  0.13728  0.72336  0.83233  1.0000
  H   H1044     1.0  0.03294  0.56341  0.61525  1.0000
  H   H1045     1.0  0.99923  0.53857  0.66134  1.0000
  H   H1046     1.0  0.04221  0.71949  0.78018  1.0000
  H   H1047     1.0  0.98841  0.60963  0.65050  1.0000
  H   H1048     1.0  0.05185  0.56968  0.76259  1.0000
  H   H1049     1.0  0.10899  0.70693  0.84576  1.0000
  H   H1050     1.0  0.01609  0.56786  0.62771  1.0000
  H   H1051     1.0  0.11100  0.70488  0.80666  1.0000
  H   H1052     1.0  0.99586  0.57315  0.79143  1.0000
  H   H1053     1.0  0.10370  0.63332  0.94930  1.0000
  H   H1054     1.0  0.04487  0.65647  0.76773  1.0000
  C   C590      1.0  0.16313  0.72705  0.50032  1.0000
  C   C591      1.0  0.06063  0.68765  0.89476  1.0000
  H   H1055     1.0  0.13006  0.73423  0.80577  1.0000
  H   H1056     1.0  0.05549  0.73458  0.75635  1.0000
  H   H1057     1.0  0.04539  0.66264  0.98209  1.0000
  C   C592      1.0  0.02433  0.55378  0.72429  1.0000
  H   H1058     1.0  0.08615  0.71007  0.86675  1.0000
  H   H1059     1.0  0.05690  0.67136  0.81492  1.0000
  H   H1060     1.0  0.06686  0.66215  0.76954  1.0000
  H   H1061     1.0  0.98195  0.60557  0.68781  1.0000
  C   C593      1.0  0.06045  0.69490  0.86437  1.0000
  H   H1062     1.0  0.11291  0.66954  0.96601  1.0000
  H   H1063     1.0  0.05805  0.66846  0.95060  1.0000
  H   H1064     1.0  0.06999  0.69686  0.91037  1.0000
  H   H1065     1.0  0.04833  0.68400  0.90412  1.0000
  H   H1066     1.0  0.08149  0.69004  0.85246  1.0000
  C   C594      1.0  0.05710  0.66699  0.76810  1.0000
  H   H1067     1.0  0.06979  0.72463  0.83008  1.0000
  H   H1068     1.0  0.02795  0.52968  0.69913  1.0000
  H   H1069     1.0  0.07969  0.69751  0.77470  1.0000
  H   H1070     1.0  0.15205  0.71673  0.50757  1.0000
  H   H1071     1.0  0.01246  0.49406  0.69532  1.0000
  H   H1072     1.0  0.06372  0.58883  0.90741  1.0000
  N   N33       1.0  0.01049  0.54066  0.70582  1.0000
  H   H1073     1.0  0.05053  0.68564  0.84988  1.0000
  C   C595      1.0  0.13060  0.66109  0.95044  1.0000
  H   H1074     1.0  0.01623  0.54504  0.76898  1.0000
  H   H1075     1.0  0.14738  0.72889  0.56246  1.0000
  C   C596      1.0  0.07757  0.70036  0.85083  1.0000
  C   C597      1.0  0.09650  0.71914  0.81721  1.0000
  C   C598      1.0  0.99155  0.57328  0.76863  1.0000
  C   C599      1.0  0.06785  0.72202  0.78216  1.0000
  H   H1076     1.0  0.17790  0.71277  0.50728  1.0000
  H   H1077     1.0  0.03296  0.54031  0.75610  1.0000
  H   H1078     1.0  0.01162  0.51690  0.74654  1.0000
  S   S142      1.0  0.12738  0.73007  0.97902  1.0000
  C   C600      1.0  0.11060  0.71336  0.82459  1.0000
  H   H1079     1.0  0.05175  0.63980  0.96535  1.0000
  H   H1080     1.0  0.08249  0.60742  0.94679  1.0000
  H   H1081     1.0  0.11004  0.73595  0.57877  1.0000
  C   C601      1.0  0.99447  0.53676  0.72070  1.0000
  H   H1082     1.0  0.11113  0.72222  0.55015  1.0000
  C   C602      1.0  0.17469  0.71951  0.48931  1.0000
  H   H1083     1.0  0.12141  0.72346  0.58631  1.0000
  H   H1084     1.0  0.06528  0.71257  0.76414  1.0000
  C   C603      1.0  0.05787  0.66520  0.97427  1.0000
  H   H1085     1.0  0.13353  0.65012  0.95078  1.0000
  H   H1086     1.0  0.13099  0.49092  0.62934  1.0000
  H   H1087     1.0  0.07998  0.73219  0.77919  1.0000
  C   C604      1.0  0.14560  0.73730  0.54599  1.0000
  H   H1088     1.0  0.01070  0.48948  0.73411  1.0000
  C   C605      1.0  0.12747  0.72783  0.82705  1.0000
  C   C606      1.0  0.20191  0.48930  0.86552  1.0000
  C   C607      1.0  0.23262  0.91041  0.28321  1.0000
  Fe  Fe73      1.0  0.04073  0.77895  0.34582  1.0000
  S   S143      1.0  0.04316  0.79313  0.38849  1.0000
  S   S144      1.0  0.05001  0.75900  0.33908  1.0000
  Fe  Fe74      1.0  0.02359  0.79751  0.31119  1.0000
  S   S145      1.0  0.02534  0.81356  0.35191  1.0000
  S   S146      1.0  0.01163  0.80117  0.26686  1.0000
  Fe  Fe75      1.0  0.05160  0.81534  0.35967  1.0000
  S   S147      1.0  0.07579  0.83662  0.37768  1.0000
  Fe  Fe76      1.0  0.01702  0.79026  0.37755  1.0000
  S   S148      1.0  0.99425  0.77910  0.40579  1.0000
  S   S149      1.0  0.05028  0.80098  0.31754  1.0000
  S   S150      1.0  0.01408  0.77439  0.33626  1.0000
  Fe  Fe77      1.0  0.15923  0.92052  0.33796  1.0000
  S   S151      1.0  0.17962  0.92714  0.30586  1.0000
  S   S152      1.0  0.13404  0.89887  0.32559  1.0000
  Fe  Fe78      1.0  0.18013  0.95090  0.37918  1.0000
  S   S153      1.0  0.20136  0.95965  0.34912  1.0000
  S   S154      1.0  0.17862  0.96079  0.42594  1.0000
  Fe  Fe79      1.0  0.18233  0.95332  0.31050  1.0000
  S   S155      1.0  0.18177  0.96594  0.26616  1.0000
  Fe  Fe80      1.0  0.19721  0.93305  0.34627  1.0000
  S   S156      1.0  0.22034  0.92787  0.34950  1.0000
  S   S157      1.0  0.16109  0.94651  0.34096  1.0000
  S   S158      1.0  0.17683  0.92445  0.37782  1.0000
  Fe  Fe81      1.0  0.24589  0.83309  0.44631  1.0000
  H   H1089     1.0  0.30600  0.82028  0.12083  1.0000
  S   S159      1.0  0.23133  0.80583  0.45632  1.0000
  Fe  Fe82      1.0  0.26921  0.85746  0.40278  1.0000
  S   S160      1.0  0.27389  0.87936  0.43315  1.0000
  S   S161      1.0  0.27874  0.85698  0.35623  1.0000
  H   H1090     1.0  0.22860  0.96194  0.10565  1.0000
  S   S162      1.0  0.29198  0.88343  0.01055  1.0000
  Fe  Fe83      1.0  0.24664  0.86739  0.44037  1.0000
  S   S163      1.0  0.22836  0.87926  0.44404  1.0000
  S   S164      1.0  0.27333  0.84252  0.43952  1.0000
  S   S165      1.0  0.24150  0.84649  0.40737  1.0000
  C   C608      1.0  0.22241  0.91452  0.37629  1.0000
  C   C609      1.0  0.20900  0.90454  0.39196  1.0000
  C   C610      1.0  0.21098  0.89379  0.41272  1.0000
  C   C611      1.0  0.22627  0.89266  0.41742  1.0000
  C   C612      1.0  0.23973  0.90279  0.40206  1.0000
  C   C613      1.0  0.23784  0.91378  0.38172  1.0000
  H   H1091     1.0  0.19705  0.90497  0.38795  1.0000
  H   H1092     1.0  0.20055  0.88612  0.42485  1.0000
  H   H1093     1.0  0.25164  0.90240  0.40660  1.0000
  H   H1094     1.0  0.24837  0.92177  0.37024  1.0000
  C   C614      1.0  0.10921  0.93623  0.33094  1.0000
  H   H1095     1.0  0.24105  0.84414  0.32818  1.0000
  H   H1096     1.0  0.13028  0.94692  0.30344  1.0000
  H   H1097     1.0  0.12564  0.92503  0.34482  1.0000
  H   H1098     1.0  0.10942  0.95439  0.38375  1.0000
  C   C615      1.0  0.29712  0.86635  0.30675  1.0000
  C   C616      1.0  0.29580  0.87038  0.33658  1.0000
  H   H1099     1.0  0.28806  0.85505  0.29656  1.0000
  C   C617      1.0  0.30441  0.88287  0.04273  1.0000
  H   H1100     1.0  0.25054  0.86712  0.04025  1.0000
  H   H1101     1.0  0.20233  0.95066  0.47610  1.0000
  H   H1102     1.0  0.06018  0.88582  0.35814  1.0000
  C   C618      1.0  0.23228  0.85016  0.32554  1.0000
  C   C619      1.0  0.09246  0.85297  0.36184  1.0000
  C   C620      1.0  0.09163  0.85744  0.33239  1.0000
  C   C621      1.0  0.10461  0.87124  0.32167  1.0000
  C   C622      1.0  0.11877  0.88071  0.33994  1.0000
  C   C623      1.0  0.11986  0.87587  0.36909  1.0000
  C   C624      1.0  0.10676  0.86222  0.37996  1.0000
  H   H1103     1.0  0.08079  0.85053  0.31807  1.0000
  H   H1104     1.0  0.10356  0.87475  0.29908  1.0000
  H   H1105     1.0  0.13068  0.88281  0.38345  1.0000
  H   H1106     1.0  0.10764  0.85890  0.40274  1.0000
  C   C625      1.0  0.17667  0.76901  0.43642  1.0000
  N   N34       1.0  0.00527  0.74087  0.45331  1.0000
  C   C626      1.0  0.19844  0.79689  0.43440  1.0000
  C   C627      1.0  0.21019  0.79198  0.44795  1.0000
  C   C628      1.0  0.20502  0.77546  0.45552  1.0000
  C   C629      1.0  0.18847  0.76407  0.44965  1.0000
  H   H1107     1.0  0.09109  0.88467  0.39011  1.0000
  H   H1108     1.0  0.98824  0.74652  0.42456  1.0000
  H   H1109     1.0  0.19497  0.98544  0.09554  1.0000
  H   H1110     1.0  0.25459  0.81208  0.09330  1.0000
  C   C630      1.0  0.25542  0.87680  0.31247  1.0000
  C   C631      1.0  0.10970  0.94768  0.40410  1.0000
  H   H1111     1.0  0.28429  0.83636  0.02150  1.0000
  C   C632      1.0  0.05919  0.75252  0.36891  1.0000
  C   C633      1.0  0.22583  0.95822  0.43429  1.0000
  C   C634      1.0  0.23988  0.96463  0.12031  1.0000
  C   C635      1.0  0.26856  0.84147  0.06838  1.0000
  N   N35       1.0  0.27083  0.82603  0.06012  1.0000
  C   C636      1.0  0.99185  0.79192  0.21481  1.0000
  H   H1112     1.0  0.06190  0.86918  0.37809  1.0000
  C   C637      1.0  0.98883  0.77854  0.44364  1.0000
  H   H1113     1.0  0.03723  0.78378  0.17668  1.0000
  N   N36       1.0  0.22836  0.97200  0.16773  1.0000
  C   C638      1.0  0.99478  0.80081  0.11387  1.0000
  H   H1114     1.0  0.21394  0.77141  0.46578  1.0000
  H   H1115     1.0  0.28346  0.91454  0.29434  1.0000
  H   H1116     1.0  0.30820  0.86158  0.02887  1.0000
  C   C639      1.0  0.99751  0.77035  0.23770  1.0000
  C   C640      1.0  0.99951  0.78671  0.23816  1.0000
  H   H1117     1.0  0.25281  0.95344  0.00953  1.0000
  H   H1118     1.0  0.00334  0.76614  0.25538  1.0000
  H   H1119     1.0  0.22523  0.78954  0.08452  1.0000
  C   C641      1.0  0.09568  0.78861  0.31817  1.0000
  C   C642      1.0  0.98238  0.78099  0.19133  1.0000
  S   S166      1.0  0.15529  0.75536  0.42992  1.0000
  C   C643      1.0  0.08367  0.78916  0.29316  1.0000
  C   C644      1.0  0.10013  0.92892  0.39796  1.0000
  C   C645      1.0  0.14359  0.91890  0.43297  1.0000
  H   H1120     1.0  0.09962  0.93980  0.33986  1.0000
  H   H1121     1.0  0.08623  0.90969  0.34935  1.0000
  H   H1122     1.0  0.21467  0.78823  0.04873  1.0000
  H   H1123     1.0  0.27765  0.82006  0.12190  1.0000
  C   C646      1.0  0.19295  0.97704  0.44974  1.0000
  C   C647      1.0  0.12092  0.95040  0.31368  1.0000
  H   H1124     1.0  0.04076  0.80967  0.03274  1.0000
  H   H1125     1.0  0.24998  0.87363  0.28943  1.0000
  C   C648      1.0  0.30412  0.83168  0.12508  1.0000
  C   C649      1.0  0.18969  0.98376  0.21535  1.0000
  H   H1126     1.0  0.02780  0.75708  0.43369  1.0000
  H   H1127     1.0  0.15422  0.92838  0.44590  1.0000
  C   C650      1.0  0.21188  0.98155  0.12774  1.0000
  H   H1128     1.0  0.29029  0.89957  0.30769  1.0000
  C   C651      1.0  0.06860  0.87980  0.36440  1.0000
  C   C652      1.0  0.21170  0.95034  0.20515  1.0000
  H   H1129     1.0  0.08876  0.95120  0.42171  1.0000
  H   H1130     1.0  0.25391  0.90856  0.26583  1.0000
  H   H1131     1.0  0.09294  0.77553  0.32192  1.0000
  H   H1132     1.0  0.20377  0.97167  0.16938  1.0000
  H   H1133     1.0  0.10829  0.79442  0.31007  1.0000
  H   H1134     1.0  0.23468  0.81634  0.06013  1.0000
  H   H1135     1.0  0.25931  0.80001  0.06705  1.0000
  H   H1136     1.0  0.12845  0.94260  0.36643  1.0000
  H   H1137     1.0  0.24769  0.83850  0.03608  1.0000
  H   H1138     1.0  0.11127  0.90545  0.41424  1.0000
  H   H1139     1.0  0.98696  0.74692  0.21386  1.0000
  H   H1140     1.0  0.01579  0.76455  0.07256  1.0000
  N   N37       1.0  0.10821  0.92044  0.37900  1.0000
  C   C653      1.0  0.24463  0.97165  0.02456  1.0000
  C   C654      1.0  0.19855  0.92864  0.45091  1.0000
  H   H1141     1.0  0.09740  0.92300  0.41977  1.0000
  H   H1142     1.0  0.02288  0.77228  0.12533  1.0000
  H   H1143     1.0  0.26145  0.91760  0.31730  1.0000
  C   C655      1.0  0.99295  0.78432  0.09924  1.0000
  H   H1144     1.0  0.24861  0.97751  0.11795  1.0000
  Fe  Fe84      1.0  0.27674  0.86391  0.47066  1.0000
  H   H1145     1.0  0.20440  0.96687  0.00920  1.0000
  C   C656      1.0  0.05919  0.75797  0.39812  1.0000
  H   H1146     1.0  0.14845  0.91264  0.41691  1.0000
  H   H1147     1.0  0.23065  0.78067  0.05239  1.0000
  H   H1148     1.0  0.29745  0.83636  0.06784  1.0000
  C   C657      1.0  0.27680  0.89255  0.26607  1.0000
  H   H1149     1.0  0.11961  0.76141  0.39610  1.0000
  C   C658      1.0  0.27598  0.80999  0.01584  1.0000
  H   H1150     1.0  0.23984  0.94064  0.10996  1.0000
  C   C659      1.0  0.06638  0.74141  0.36322  1.0000
  C   C660      1.0  0.03224  0.79335  0.17528  1.0000
  C   C661      1.0  0.25961  0.84800  0.04497  1.0000
  H   H1151     1.0  0.02438  0.80631  0.14272  1.0000
  H   H1152     1.0  0.26492  0.79862  0.01921  1.0000
  H   H1153     1.0  0.22220  0.84448  0.34083  1.0000
  H   H1154     1.0  0.22680  0.84801  0.30238  1.0000
  H   H1155     1.0  0.21350  0.94028  0.19328  1.0000
  H   H1156     1.0  0.13359  0.79206  0.39768  1.0000
  C   C662      1.0  0.21183  0.96980  0.15286  1.0000
  H   H1157     1.0  0.20954  0.95655  0.25138  1.0000
  H   H1158     1.0  0.23723  0.96711  0.21067  1.0000
  H   H1159     1.0  0.23713  0.96220  0.37691  1.0000
  C   C663      1.0  0.01946  0.75734  0.45108  1.0000
  C   C664      1.0  0.07259  0.74044  0.41598  1.0000
  H   H1160     1.0  0.98625  0.78279  0.07711  1.0000
  H   H1161     1.0  0.24727  0.91702  0.46698  1.0000
  H   H1162     1.0  0.02082  0.78948  0.18768  1.0000
  H   H1163     1.0  0.12285  0.95118  0.41117  1.0000
  C   C665      1.0  0.18186  0.78550  0.42869  1.0000
  H   H1164     1.0  0.00591  0.77408  0.14212  1.0000
  H   H1165     1.0  0.20499  0.95696  0.14410  1.0000
  H   H1166     1.0  0.99331  0.80454  0.21488  1.0000
  C   C666      1.0  0.28634  0.82675  0.07694  1.0000
  H   H1167     1.0  0.98422  0.77469  0.11278  1.0000
  C   C667      1.0  0.11884  0.76901  0.41525  1.0000
  H   H1168     1.0  0.22326  0.94064  0.00222  1.0000
  H   H1169     1.0  0.15837  0.82312  0.35687  1.0000
  H   H1170     1.0  0.31088  0.87342  0.26707  1.0000
  H   H1171     1.0  0.23643  0.93659  0.44391  1.0000
  H   H1172     1.0  0.99842  0.80125  0.13782  1.0000
  H   H1173     1.0  0.25688  0.97900  0.03596  1.0000
  H   H1174     1.0  0.17296  0.78955  0.41837  1.0000
  H   H1175     1.0  0.26819  0.87240  0.06606  1.0000
  H   H1176     1.0  0.30452  0.83387  0.14948  1.0000
  H   H1177     1.0  0.30371  0.90462  0.06287  1.0000
  H   H1178     1.0  0.22600  0.94807  0.15233  1.0000
  C   C668      1.0  0.31255  0.83141  0.47809  1.0000
  C   C669      1.0  0.23720  0.94272  0.46605  1.0000
  H   H1179     1.0  0.22304  0.97661  0.21254  1.0000
  H   H1180     1.0  0.10678  0.76272  0.42527  1.0000
  H   H1181     1.0  0.99301  0.75321  0.47829  1.0000
  C   C670      1.0  0.28484  0.91582  0.35789  1.0000
  H   H1182     1.0  0.22647  0.90936  0.26078  1.0000
  H   H1183     1.0  0.23784  0.88934  0.27565  1.0000
  H   H1184     1.0  0.28576  0.82196  0.47835  1.0000
  H   H1185     1.0  0.03266  0.79264  0.07841  1.0000
  H   H1186     1.0  0.00438  0.79971  0.04706  1.0000
  H   H1187     1.0  0.24584  0.86969  0.35676  1.0000
  C   C671      1.0  0.25414  0.90424  0.31339  1.0000
  H   H1188     1.0  0.14005  0.81874  0.39912  1.0000
  H   H1189     1.0  0.11381  0.95351  0.29567  1.0000
  H   H1190     1.0  0.29563  0.91969  0.34387  1.0000
  C   C672      1.0  0.23951  0.80727  0.05290  1.0000
  C   C673      1.0  0.06589  0.75195  0.42155  1.0000
  H   H1191     1.0  0.24794  0.85827  0.07630  1.0000
  N   N38       1.0  0.10762  0.80089  0.37109  1.0000
  C   C674      1.0  0.10403  0.80996  0.39652  1.0000
  C   C675      1.0  0.12368  0.81166  0.35778  1.0000
  C   C676      1.0  0.09380  0.79710  0.34734  1.0000
  C   C677      1.0  0.10803  0.78489  0.38034  1.0000
  H   H1192     1.0  0.00027  0.74844  0.11552  1.0000
  C   C678      1.0  0.08811  0.80044  0.41277  1.0000
  C   C679      1.0  0.99989  0.78812  0.46660  1.0000
  C   C680      1.0  0.13745  0.82435  0.37889  1.0000
  C   C681      1.0  0.15362  0.83239  0.36339  1.0000
  H   H1193     1.0  0.17547  0.90711  0.44687  1.0000
  C   C682      1.0  0.08635  0.81087  0.43850  1.0000
  H   H1194     1.0  0.28138  0.91412  0.40553  1.0000
  H   H1195     1.0  0.10324  0.82139  0.38841  1.0000
  H   H1196     1.0  0.11422  0.81405  0.41402  1.0000
  H   H1197     1.0  0.12917  0.80397  0.34660  1.0000
  H   H1198     1.0  0.12134  0.81913  0.33998  1.0000
  H   H1199     1.0  0.09228  0.80855  0.34160  1.0000
  H   H1200     1.0  0.08174  0.78875  0.35548  1.0000
  H   H1201     1.0  0.09559  0.77624  0.38659  1.0000
  H   H1202     1.0  0.11081  0.77858  0.36124  1.0000
  N   N39       1.0  0.22657  0.95243  0.46548  1.0000
  H   H1203     1.0  0.25047  0.95110  0.47000  1.0000
  H   H1204     1.0  0.07699  0.79715  0.39758  1.0000
  C   C683      1.0  0.24823  0.95379  0.10902  1.0000
  C   C684      1.0  0.31084  0.83131  0.44419  1.0000
  H   H1205     1.0  0.16308  0.84166  0.37878  1.0000
  H   H1206     1.0  0.13362  0.83425  0.38584  1.0000
  H   H1207     1.0  0.08529  0.78298  0.27275  1.0000
  C   C685      1.0  0.24242  0.97076  0.42341  1.0000
  C   C686      1.0  0.21114  0.94672  0.23821  1.0000
  C   C687      1.0  0.22576  0.96727  0.19975  1.0000
  H   H1208     1.0  0.28697  0.80911  0.02713  1.0000
  C   C688      1.0  0.19495  0.98236  0.24480  1.0000
  H   H1209     1.0  0.12880  0.77010  0.43214  1.0000
  H   H1210     1.0  0.29162  0.91424  0.24237  1.0000
  H   H1211     1.0  0.08616  0.82247  0.43037  1.0000
  H   H1212     1.0  0.20212  0.80949  0.42837  1.0000
  H   H1213     1.0  0.12736  0.96143  0.32856  1.0000
  H   H1214     1.0  0.10296  0.92572  0.31483  1.0000
  H   H1215     1.0  0.11981  0.79286  0.42550  1.0000
  H   H1216     1.0  0.20580  0.92212  0.44212  1.0000
  C   C689      1.0  0.24113  0.86848  0.33325  1.0000
  H   H1217     1.0  0.24611  0.96101  0.16607  1.0000
  H   H1218     1.0  0.08784  0.92729  0.38770  1.0000
  H   H1219     1.0  0.26398  0.98701  0.17385  1.0000
  H   H1220     1.0  0.21664  0.96377  0.43209  1.0000
  C   C690      1.0  0.31007  0.87675  0.28992  1.0000
  C   C691      1.0  0.11872  0.93129  0.35602  1.0000
  H   H1221     1.0  0.10869  0.96740  0.43157  1.0000
  H   H1222     1.0  0.07997  0.89661  0.40160  1.0000
  H   H1223     1.0  0.14200  0.93651  0.40275  1.0000
  C   C692      1.0  0.08403  0.89179  0.38210  1.0000
  C   C693      1.0  0.24656  0.96087  0.99957  1.0000
  H   H1224     1.0  0.05377  0.76657  0.40270  1.0000
  C   C694      1.0  0.11876  0.91417  0.39796  1.0000
  H   H1225     1.0  0.10041  0.90033  0.34620  1.0000
  H   H1226     1.0  0.25240  0.96635  0.42696  1.0000
  H   H1227     1.0  0.28628  0.84178  0.11672  1.0000
  H   H1228     1.0  0.30066  0.92979  0.39565  1.0000
  C   C695      1.0  0.01597  0.78028  0.12687  1.0000
  H   H1229     1.0  0.12380  0.90722  0.38367  1.0000
  H   H1230     1.0  0.23181  0.87384  0.33123  1.0000
  H   H1231     1.0  0.10259  0.94818  0.44963  1.0000
  H   H1232     1.0  0.99714  0.76551  0.05788  1.0000
  H   H1233     1.0  0.26203  0.83996  0.08936  1.0000
  H   H1234     1.0  0.31440  0.84220  0.11607  1.0000
  H   H1235     1.0  0.23900  0.92359  0.29001  1.0000
  H   H1236     1.0  0.26291  0.82560  0.01341  1.0000
  H   H1237     1.0  0.18484  0.75146  0.45525  1.0000
  C   C696      1.0  0.29153  0.91711  0.39013  1.0000
  C   C697      1.0  0.27217  0.89811  0.34923  1.0000
  H   H1238     1.0  0.09671  0.81375  0.45551  1.0000
  H   H1239     1.0  0.23956  0.98027  0.01539  1.0000
  H   H1240     1.0  0.13591  0.90984  0.44857  1.0000
  H   H1241     1.0  0.22294  0.90427  0.29903  1.0000
  N   N40       1.0  0.26507  0.89504  0.31743  1.0000
  H   H1242     1.0  0.26398  0.87052  0.31485  1.0000
  H   H1243     1.0  0.28080  0.85190  0.07303  1.0000
  H   H1244     1.0  0.19074  0.96423  0.10087  1.0000
  H   H1245     1.0  0.07071  0.78268  0.29934  1.0000
  C   C698      1.0  0.02127  0.79504  0.07965  1.0000
  C   C699      1.0  0.09487  0.90582  0.36261  1.0000
  C   C700      1.0  0.00431  0.76577  0.07903  1.0000
  H   H1246     1.0  0.20051  0.93500  0.24179  1.0000
  H   H1247     1.0  0.26218  0.89528  0.36491  1.0000
  C   C701      1.0  0.27936  0.90115  0.29725  1.0000
  H   H1248     1.0  0.27826  0.88967  0.35454  1.0000
  H   H1249     1.0  0.26518  0.89142  0.25412  1.0000
  C   C702      1.0  0.24092  0.97379  0.39041  1.0000
  H   H1250     1.0  0.24480  0.90082  0.33047  1.0000
  C   C703      1.0  0.25638  0.86231  0.05785  1.0000
  H   H1251     1.0  0.08832  0.78912  0.42217  1.0000
  H   H1252     1.0  0.27639  0.88002  0.26835  1.0000
  C   C704      1.0  0.30833  0.89516  0.06535  1.0000
  C   C705      1.0  0.12093  0.78603  0.40560  1.0000
  H   H1253     1.0  0.22134  0.94766  0.41786  1.0000
  C   C706      1.0  0.13351  0.92702  0.41670  1.0000
  H   H1254     1.0  0.19941  0.94999  0.19774  1.0000
  H   H1255     1.0  0.30308  0.90306  0.25764  1.0000
  C   C707      1.0  0.10189  0.95393  0.42824  1.0000
  H   H1256     1.0  0.29779  0.90866  0.39360  1.0000
  H   H1257     1.0  0.12899  0.93287  0.43403  1.0000
  H   H1258     1.0  0.07204  0.87514  0.34395  1.0000
  H   H1259     1.0  0.19434  0.93409  0.43211  1.0000
  C   C708      1.0  0.22680  0.79038  0.06023  1.0000
  C   C709      1.0  0.01572  0.79727  0.04744  1.0000
  C   C710      1.0  0.20516  0.97655  0.99451  1.0000
  H   H1260     1.0  0.24611  0.98279  0.43536  1.0000
  H   H1261     1.0  0.02503  0.81270  0.01008  1.0000
  C   C711      1.0  0.99384  0.74992  0.09479  1.0000
  H   H1262     1.0  0.28939  0.89506  0.22506  1.0000
  H   H1263     1.0  0.07457  0.80411  0.44905  1.0000
  C   C712      1.0  0.23516  0.96099  0.15285  1.0000
  H   H1264     1.0  0.01219  0.79648  0.46155  1.0000
  C   C713      1.0  0.27344  0.82525  0.02732  1.0000
  C   C714      1.0  0.02915  0.81164  0.03332  1.0000
  H   H1265     1.0  0.06573  0.75603  0.44418  1.0000
  H   H1266     1.0  0.03164  0.82328  0.04583  1.0000
  H   H1267     1.0  0.01332  0.78624  0.03309  1.0000
  H   H1268     1.0  0.98551  0.74604  0.36976  1.0000
  C   C715      1.0  0.19468  0.97641  0.11238  1.0000
  H   H1269     1.0  0.28779  0.81503  0.07399  1.0000
  H   H1270     1.0  0.02541  0.80712  0.09150  1.0000
  H   H1271     1.0  0.08598  0.80201  0.28821  1.0000
  H   H1272     1.0  0.27902  0.92468  0.35572  1.0000
  H   H1273     1.0  0.04323  0.78886  0.46350  1.0000
  N   N41       1.0  0.00866  0.78171  0.09651  1.0000
  C   C716      1.0  0.29111  0.90184  0.24668  1.0000
  H   H1274     1.0  0.22057  0.98206  0.11055  1.0000
  H   H1275     1.0  0.16038  0.78478  0.47572  1.0000
  C   C717      1.0  0.24494  0.90235  0.28265  1.0000
  C   C718      1.0  0.25649  0.81103  0.06931  1.0000
  C   C719      1.0  0.98821  0.75948  0.21405  1.0000
  H   H1276     1.0  0.24022  0.80736  0.02847  1.0000
  H   H1277     1.0  0.00394  0.81141  0.10303  1.0000
  H   H1278     1.0  0.04050  0.80056  0.13176  1.0000
  C   C720      1.0  0.28746  0.83017  0.11111  1.0000
  H   H1279     1.0  0.15177  0.83866  0.34334  1.0000
  C   C721      1.0  0.31066  0.87084  0.04630  1.0000
  C   C722      1.0  0.02863  0.79626  0.14290  1.0000
  H   H1280     1.0  0.30838  0.84199  0.43690  1.0000
  H   H1281     1.0  0.23624  0.96410  0.04116  1.0000
  H   H1282     1.0  0.18687  0.90960  0.48212  1.0000
  H   H1283     1.0  0.26128  0.92063  0.99461  1.0000
  H   H1284     1.0  0.20033  0.92004  0.98658  1.0000
  H   H1285     1.0  0.24695  0.97501  0.48099  1.0000
  H   H1286     1.0  0.22268  0.94567  0.24652  1.0000
  H   H1287     1.0  0.01473  0.76655  0.44357  1.0000
  H   H1288     1.0  0.04150  0.80485  0.18614  1.0000
  H   H1289     1.0  0.22117  0.91864  0.48204  1.0000
  H   H1290     1.0  0.26762  0.85259  0.02613  1.0000
  H   H1291     1.0  0.21175  0.77886  0.98973  1.0000
  H   H1292     1.0  0.17790  0.97484  0.20627  1.0000
  H   H1293     1.0  0.98191  0.75007  0.10056  1.0000
  C   C723      1.0  0.18323  0.91619  0.46440  1.0000
  H   H1294     1.0  0.25134  0.95651  0.08559  1.0000
  H   H1295     1.0  0.17581  0.92240  0.47388  1.0000
  H   H1296     1.0  0.30696  0.88827  0.37231  1.0000
  H   H1297     1.0  0.25986  0.95620  0.12250  1.0000
  H   H1298     1.0  0.01263  0.74888  0.39256  1.0000
  H   H1299     1.0  0.25304  0.98252  0.38321  1.0000
  H   H1300     1.0  0.30060  0.81986  0.43528  1.0000
  H   H1301     1.0  0.18552  0.97597  0.12872  1.0000
  C   C724      1.0  0.18967  0.97784  0.47988  1.0000
  H   H1302     1.0  0.21001  0.98883  0.41647  1.0000
  H   H1303     1.0  0.23173  0.97919  0.38631  1.0000
  S   S167      1.0  0.24972  0.85351  0.47994  1.0000
  C   C725      1.0  0.20907  0.94254  0.47361  1.0000
  H   H1304     1.0  0.22703  0.97538  0.48242  1.0000
  C   C726      1.0  0.30766  0.88504  0.34936  1.0000
  C   C727      1.0  0.99556  0.74200  0.47935  1.0000
  H   H1305     1.0  0.05379  0.77535  0.45956  1.0000
  C   C728      1.0  0.22952  0.94943  0.98504  1.0000
  C   C729      1.0  0.03020  0.76450  0.48022  1.0000
  C   C730      1.0  0.04613  0.77913  0.47423  1.0000
  H   H1306     1.0  0.20754  0.85202  0.86981  1.0000
  Fe  Fe85      1.0  0.04767  0.78138  0.85390  1.0000
  S   S168      1.0  0.05553  0.80214  0.88814  1.0000
  S   S169      1.0  0.06153  0.76509  0.84742  1.0000
  Fe  Fe86      1.0  0.02119  0.79047  0.82251  1.0000
  S   S170      1.0  0.02766  0.81211  0.85472  1.0000
  S   S171      1.0  0.99963  0.78673  0.78811  1.0000
  Fe  Fe87      1.0  0.05468  0.81764  0.84959  1.0000
  S   S172      1.0  0.07389  0.84264  0.83529  1.0000
  Fe  Fe88      1.0  0.02790  0.79492  0.89090  1.0000
  S   S173      1.0  0.01514  0.79587  0.93418  1.0000
  S   S174      1.0  0.04803  0.79706  0.81509  1.0000
  S   S175      1.0  0.02028  0.77315  0.85895  1.0000
  Fe  Fe89      1.0  0.16584  0.92430  0.85003  1.0000
  S   S176      1.0  0.18210  0.92590  0.81189  1.0000
  S   S177      1.0  0.14505  0.90140  0.86826  1.0000
  Fe  Fe90      1.0  0.18881  0.95955  0.87408  1.0000
  S   S178      1.0  0.20638  0.96344  0.83761  1.0000
  C   C731      1.0  0.30174  0.86789  0.80657  1.0000
  Fe  Fe91      1.0  0.18403  0.95183  0.80612  1.0000
  S   S179      1.0  0.18059  0.96201  0.76058  1.0000
  Fe  Fe92      1.0  0.20346  0.93765  0.84560  1.0000
  S   S180      1.0  0.22680  0.93297  0.84888  1.0000
  S   S181      1.0  0.16626  0.94950  0.84220  1.0000
  S   S182      1.0  0.18749  0.93460  0.88404  1.0000
  Fe  Fe93      1.0  0.24910  0.83394  0.94569  1.0000
  C   C732      1.0  0.11175  0.94394  0.90245  1.0000
  S   S183      1.0  0.23348  0.80818  0.96240  1.0000
  Fe  Fe94      1.0  0.27328  0.85810  0.90298  1.0000
  S   S184      1.0  0.27399  0.88032  0.92867  1.0000
  S   S185      1.0  0.28330  0.85900  0.85617  1.0000
  C   C733      1.0  0.30005  0.87456  0.59388  1.0000
  H   H1307     1.0  0.13435  0.96553  0.91712  1.0000
  Fe  Fe95      1.0  0.24661  0.86635  0.93117  1.0000
  S   S186      1.0  0.22585  0.87508  0.92869  1.0000
  S   S187      1.0  0.27720  0.84554  0.94433  1.0000
  S   S188      1.0  0.24534  0.84488  0.90299  1.0000
  C   C734      1.0  0.22637  0.91653  0.87019  1.0000
  C   C735      1.0  0.24128  0.91537  0.87891  1.0000
  C   C736      1.0  0.24127  0.90265  0.89684  1.0000
  C   C737      1.0  0.22635  0.89097  0.90581  1.0000
  C   C738      1.0  0.21147  0.89217  0.89715  1.0000
  C   C739      1.0  0.21146  0.90485  0.87921  1.0000
  H   H1308     1.0  0.25285  0.92446  0.87215  1.0000
  H   H1309     1.0  0.25280  0.90202  0.90420  1.0000
  H   H1310     1.0  0.19990  0.88319  0.90421  1.0000
  H   H1311     1.0  0.19991  0.90564  0.87248  1.0000
  H   H1312     1.0  0.12880  0.82626  0.87890  1.0000
  C   C740      1.0  0.99247  0.78721  0.97785  1.0000
  H   H1313     1.0  0.00393  0.81770  0.89324  1.0000
  H   H1314     1.0  0.19067  0.79273  0.58261  1.0000
  H   H1315     1.0  0.17175  0.75167  0.58256  1.0000
  C   C741      1.0  0.26338  0.87833  0.79080  1.0000
  H   H1316     1.0  0.20658  0.90677  0.96452  1.0000
  H   H1317     1.0  0.25853  0.93120  0.49746  1.0000
  H   H1318     1.0  0.06093  0.74641  0.94969  1.0000
  C   C742      1.0  0.29456  0.87267  0.56351  1.0000
  H   H1319     1.0  0.25992  0.80585  0.52578  1.0000
  H   H1320     1.0  0.28152  0.86654  0.55715  1.0000
  H   H1321     1.0  0.18392  0.90307  0.92643  1.0000
  C   C743      1.0  0.09416  0.85825  0.84451  1.0000
  C   C744      1.0  0.10246  0.85979  0.87239  1.0000
  C   C745      1.0  0.11798  0.87297  0.87902  1.0000
  C   C746      1.0  0.12567  0.88469  0.85786  1.0000
  C   C747      1.0  0.11749  0.88303  0.82987  1.0000
  C   C748      1.0  0.10184  0.87002  0.82340  1.0000
  H   H1322     1.0  0.09674  0.85104  0.88906  1.0000
  H   H1323     1.0  0.12405  0.87419  0.90084  1.0000
  H   H1324     1.0  0.12314  0.89181  0.81321  1.0000
  H   H1325     1.0  0.09561  0.86906  0.80178  1.0000
  C   C749      1.0  0.18155  0.76767  0.93348  1.0000
  C   C750      1.0  0.12246  0.96265  0.90421  1.0000
  C   C751      1.0  0.20547  0.77966  0.96905  1.0000
  C   C752      1.0  0.21320  0.79308  0.95098  1.0000
  C   C753      1.0  0.20484  0.79376  0.92419  1.0000
  C   C754      1.0  0.18926  0.78112  0.91547  1.0000
  S   S189      1.0  0.19302  0.98092  0.90703  1.0000
  H   H1326     1.0  0.25460  0.96917  0.98346  1.0000
  H   H1327     1.0  0.21053  0.80387  0.90987  1.0000
  H   H1328     1.0  0.18318  0.78172  0.89443  1.0000
  H   H1329     1.0  0.19158  0.77670  0.53736  1.0000
  H   H1330     1.0  0.02111  0.77660  0.69009  1.0000
  H   H1331     1.0  0.17629  0.97143  0.70089  1.0000
  C   C755      1.0  0.06775  0.75603  0.87740  1.0000
  C   C756      1.0  0.06104  0.75487  0.90511  1.0000
  H   H1332     1.0  0.01887  0.77669  0.63636  1.0000
  C   C757      1.0  0.01251  0.79571  0.67854  1.0000
  H   H1333     1.0  0.10122  0.78001  0.91748  1.0000
  H   H1334     1.0  0.05174  0.75960  0.90860  1.0000
  H   H1335     1.0  0.23437  0.92288  0.98382  1.0000
  C   C758      1.0  0.99966  0.78140  0.95559  1.0000
  H   H1336     1.0  0.10297  0.79906  0.78983  1.0000
  H   H1337     1.0  0.13286  0.92334  0.83844  1.0000
  H   H1338     1.0  0.14476  0.95018  0.89167  1.0000
  C   C759      1.0  0.99446  0.76446  0.95138  1.0000
  H   H1339     1.0  0.02442  0.79436  0.73597  1.0000
  C   C760      1.0  0.24629  0.92177  0.48941  1.0000
  C   C761      1.0  0.99647  0.76279  0.74433  1.0000
  H   H1340     1.0  0.27017  0.88125  0.72978  1.0000
  C   C762      1.0  0.00138  0.75559  0.59259  1.0000
  H   H1341     1.0  0.00642  0.76105  0.75653  1.0000
  H   H1342     1.0  0.24707  0.85485  0.76904  1.0000
  H   H1343     1.0  0.23415  0.91277  0.76856  1.0000
  C   C763      1.0  0.13522  0.84700  0.92686  1.0000
  H   H1344     1.0  0.99472  0.74541  0.60724  1.0000
  H   H1345     1.0  0.24364  0.87201  0.75494  1.0000
  H   H1346     1.0  0.18377  0.74813  0.51839  1.0000
  H   H1347     1.0  0.28059  0.79970  0.97503  1.0000
  H   H1348     1.0  0.11966  0.77570  0.86207  1.0000
  C   C764      1.0  0.23736  0.92831  0.96166  1.0000
  H   H1349     1.0  0.09382  0.81042  0.92922  1.0000
  C   C765      1.0  0.11896  0.93755  0.85337  1.0000
  H   H1350     1.0  0.10725  0.93848  0.84563  1.0000
  H   H1351     1.0  0.18415  0.75694  0.97469  1.0000
  H   H1352     1.0  0.23542  0.98491  0.89490  1.0000
  H   H1353     1.0  0.13814  0.80572  0.87444  1.0000
  H   H1354     1.0  0.25907  0.93611  0.93492  1.0000
  C   C766      1.0  0.20128  0.91610  0.96356  1.0000
  H   H1355     1.0  0.19506  0.96018  0.95578  1.0000
  H   H1356     1.0  0.11493  0.79636  0.94073  1.0000
  H   H1357     1.0  0.27301  0.88963  0.78281  1.0000
  H   H1358     1.0  0.03345  0.75515  0.49149  1.0000
  H   H1359     1.0  0.25581  0.90972  0.95896  1.0000
  C   C767      1.0  0.29114  0.90955  0.86717  1.0000
  H   H1360     1.0  0.11473  0.81543  0.83607  1.0000
  H   H1361     1.0  0.23308  0.88617  0.79157  1.0000
  H   H1362     1.0  0.23192  0.91781  0.94522  1.0000
  C   C768      1.0  0.18975  0.76716  0.96056  1.0000
  C   C769      1.0  0.98914  0.75339  0.71789  1.0000
  N   N42       1.0  0.11499  0.80190  0.89407  1.0000
  C   C770      1.0  0.09001  0.90965  0.87905  1.0000
  C   C771      1.0  0.12657  0.77989  0.88390  1.0000
  H   H1363     1.0  0.08711  0.88524  0.86447  1.0000
  H   H1364     1.0  0.20876  0.93709  0.49557  1.0000
  H   H1365     1.0  0.26295  0.82086  0.49754  1.0000
  H   H1366     1.0  0.13939  0.77338  0.48591  1.0000
  C   C772      1.0  0.08144  0.89102  0.87989  1.0000
  H   H1367     1.0  0.15913  0.93985  0.96407  1.0000
  C   C773      1.0  0.30597  0.87849  0.54154  1.0000
  C   C774      1.0  0.28093  0.82932  0.53624  1.0000
  H   H1368     1.0  0.21808  0.84075  0.85315  1.0000
  H   H1369     1.0  0.30635  0.82493  0.58315  1.0000
  C   C775      1.0  0.26352  0.81900  0.52174  1.0000
  C   C776      1.0  0.25052  0.82375  0.53546  1.0000
  H   H1370     1.0  0.27991  0.82692  0.56031  1.0000
  H   H1371     1.0  0.28318  0.84243  0.53402  1.0000
  H   H1372     1.0  0.08677  0.79753  0.81391  1.0000
  C   C777      1.0  0.27876  0.81072  0.98262  1.0000
  H   H1373     1.0  0.14993  0.78102  0.90425  1.0000
  C   C778      1.0  0.31104  0.83768  0.57560  1.0000
  H   H1374     1.0  0.25377  0.83706  0.53373  1.0000
  H   H1375     1.0  0.23829  0.81695  0.52350  1.0000
  H   H1376     1.0  0.24948  0.82066  0.55924  1.0000
  H   H1377     1.0  0.04045  0.81104  0.71887  1.0000
  C   C779      1.0  0.99091  0.77439  0.75487  1.0000
  H   H1378     1.0  0.00297  0.74336  0.50064  1.0000
  C   C780      1.0  0.12062  0.82025  0.89703  1.0000
  H   H1379     1.0  0.17087  0.76350  0.49784  1.0000
  H   H1380     1.0  0.17744  0.91618  0.94881  1.0000
  H   H1381     1.0  0.26785  0.81094  0.96975  1.0000
  H   H1382     1.0  0.19768  0.76357  0.56007  1.0000
  C   C781      1.0  0.13905  0.93546  0.93087  1.0000
  H   H1383     1.0  0.09255  0.79924  0.86893  1.0000
  H   H1384     1.0  0.99216  0.81645  0.65107  1.0000
  C   C782      1.0  0.21176  0.98432  0.74463  1.0000
  H   H1385     1.0  0.10995  0.82379  0.89381  1.0000
  H   H1386     1.0  0.27422  0.76960  0.49631  1.0000
  C   C783      1.0  0.20042  0.98508  0.94508  1.0000
  H   H1387     1.0  0.14986  0.77432  0.53865  1.0000
  H   H1388     1.0  0.10819  0.91326  0.91449  1.0000
  C   C784      1.0  0.17176  0.75972  0.56390  1.0000
  H   H1389     1.0  0.14259  0.85275  0.94777  1.0000
  C   C785      1.0  0.10322  0.79574  0.86704  1.0000
  C   C786      1.0  0.07838  0.74129  0.92413  1.0000
  H   H1390     1.0  0.04322  0.79258  0.72694  1.0000
  H   H1391     1.0  0.00004  0.75971  0.93492  1.0000
  H   H1392     1.0  0.28788  0.90384  0.82062  1.0000
  H   H1393     1.0  0.09477  0.79771  0.97694  1.0000
  C   C787      1.0  0.18371  0.90762  0.94944  1.0000
  H   H1394     1.0  0.27160  0.77584  0.53321  1.0000
  H   H1395     1.0  0.25149  0.95881  0.93840  1.0000
  C   C788      1.0  0.23811  0.95202  0.93262  1.0000
  H   H1396     1.0  0.99070  0.74265  0.84550  1.0000
  C   C789      1.0  0.21180  0.93095  0.94533  1.0000
  H   H1397     1.0  0.98597  0.76837  0.60019  1.0000
  H   H1398     1.0  0.11405  0.90801  0.88040  1.0000
  C   C790      1.0  0.19989  0.97271  0.96420  1.0000
  S   S190      1.0  0.30014  0.87500  0.50259  1.0000
  H   H1399     1.0  0.01466  0.75775  0.59324  1.0000
  C   C791      1.0  0.19731  0.78450  0.58346  1.0000
  H   H1400     1.0  0.29170  0.77731  0.52297  1.0000
  C   C792      1.0  0.19012  0.77093  0.55924  1.0000
  H   H1401     1.0  0.23747  0.94488  0.91175  1.0000
  C   C793      1.0  0.29657  0.83054  0.49218  1.0000
  C   C794      1.0  0.99113  0.81498  0.89943  1.0000
  N   N43       1.0  0.22959  0.94044  0.95651  1.0000
  H   H1402     1.0  0.21132  0.92627  0.92214  1.0000
  H   H1403     1.0  0.20502  0.93905  0.94443  1.0000
  H   H1404     1.0  0.99358  0.74446  0.71006  1.0000
  H   H1405     1.0  0.01670  0.80897  0.68468  1.0000
  H   H1406     1.0  0.98926  0.80933  0.92146  1.0000
  C   C795      1.0  0.07984  0.74989  0.87318  1.0000
  H   H1407     1.0  0.21814  0.95948  0.91701  1.0000
  C   C796      1.0  0.23396  0.96746  0.48605  1.0000
  H   H1408     1.0  0.09951  0.94222  0.89186  1.0000
  C   C797      1.0  0.13638  0.93753  0.89718  1.0000
  H   H1409     1.0  0.99631  0.80026  0.98137  1.0000
  C   C798      1.0  0.98833  0.79053  0.64448  1.0000
  H   H1410     1.0  0.12553  0.92247  0.78510  1.0000
  H   H1411     1.0  0.30229  0.92097  0.86463  1.0000
  C   C799      1.0  0.08520  0.79084  0.95922  1.0000
  H   H1412     1.0  0.02335  0.76892  0.49571  1.0000
  H   H1413     1.0  0.26336  0.94619  0.97095  1.0000
  H   H1414     1.0  0.25702  0.86035  0.71907  1.0000
  H   H1415     1.0  0.12158  0.98519  0.92081  1.0000
  C   C800      1.0  0.30179  0.87017  0.83761  1.0000
  H   H1416     1.0  0.21056  0.79192  0.57992  1.0000
  H   H1417     1.0  0.13463  0.94333  0.79934  1.0000
  H   H1418     1.0  0.23113  0.86046  0.80238  1.0000
  C   C801      1.0  0.26444  0.86862  0.73788  1.0000
  H   H1419     1.0  0.24276  0.91141  0.50466  1.0000
  C   C802      1.0  0.00626  0.77646  0.63484  1.0000
  H   H1420     1.0  0.19638  0.77920  0.60575  1.0000
  H   H1421     1.0  0.24138  0.97869  0.56178  1.0000
  C   C803      1.0  0.15745  0.94146  0.93996  1.0000
  H   H1422     1.0  0.98780  0.76079  0.88679  1.0000
  C   C804      1.0  0.98212  0.75357  0.96877  1.0000
  H   H1423     1.0  0.12520  0.96750  0.88170  1.0000
  H   H1424     1.0  0.22254  0.95661  0.52759  1.0000
  C   C805      1.0  0.25499  0.90641  0.78038  1.0000
  H   H1425     1.0  0.23244  0.93316  0.51137  1.0000
  C   C806      1.0  0.26442  0.88941  0.84141  1.0000
  C   C807      1.0  0.02640  0.79015  0.68870  1.0000
  H   H1426     1.0  0.27435  0.86465  0.74543  1.0000
  H   H1427     1.0  0.98790  0.80508  0.68446  1.0000
  H   H1428     1.0  0.17052  0.78537  0.52841  1.0000
  H   H1429     1.0  0.11090  0.96771  0.94258  1.0000
  S   S191      1.0  0.24900  0.85489  0.97381  1.0000
  C   C808      1.0  0.23998  0.86613  0.82181  1.0000
  C   C809      1.0  0.23473  0.96465  0.51977  1.0000
  C   C810      1.0  0.23133  0.96514  0.92495  1.0000
  H   H1430     1.0  0.24296  0.89987  0.82194  1.0000
  H   H1431     1.0  0.20578  0.84857  0.83005  1.0000
  H   H1432     1.0  0.08241  0.88682  0.90268  1.0000
  H   H1433     1.0  0.14281  0.85259  0.90783  1.0000
  H   H1434     1.0  0.11245  0.93316  0.79167  1.0000
  C   C811      1.0  0.25328  0.86788  0.76317  1.0000
  H   H1435     1.0  0.27032  0.87155  0.80113  1.0000
  H   H1436     1.0  0.13994  0.76446  0.87738  1.0000
  N   N44       1.0  0.00612  0.79239  0.64628  1.0000
  H   H1437     1.0  0.16304  0.93435  0.92751  1.0000
  H   H1438     1.0  0.25400  0.98252  0.90715  1.0000
  H   H1439     1.0  0.08254  0.77762  0.96031  1.0000
  Fe  Fe96      1.0  0.27654  0.86724  0.97012  1.0000
  H   H1440     1.0  0.06815  0.88686  0.87276  1.0000
  H   H1441     1.0  0.07369  0.79251  0.96335  1.0000
  H   H1442     1.0  0.24829  0.92574  0.79778  1.0000
  H   H1443     1.0  0.14193  0.82648  0.92934  1.0000
  H   H1444     1.0  0.29111  0.86970  0.61054  1.0000
  H   H1445     1.0  0.10912  0.93973  0.92548  1.0000
  H   H1446     1.0  0.16401  0.95466  0.93552  1.0000
  N   N45       1.0  0.25344  0.88217  0.81368  1.0000
  C   C812      1.0  0.18921  0.97805  0.70777  1.0000
  H   H1447     1.0  0.03647  0.79360  0.67326  1.0000
  H   H1448     1.0  0.23269  0.97335  0.94455  1.0000
  H   H1449     1.0  0.28693  0.80466  0.55051  1.0000
  H   H1450     1.0  0.13315  0.92237  0.93635  1.0000
  H   H1451     1.0  0.12950  0.75046  0.54090  1.0000
  H   H1452     1.0  0.26819  0.88010  0.85156  1.0000
  H   H1453     1.0  0.24383  0.95929  0.52502  1.0000
  H   H1454     1.0  0.12884  0.94984  0.84987  1.0000
  C   C813      1.0  0.14271  0.77754  0.88252  1.0000
  H   H1455     1.0  0.25750  0.89256  0.85843  1.0000
  C   C814      1.0  0.25628  0.93440  0.95872  1.0000
  H   H1456     1.0  0.13781  0.80147  0.91253  1.0000
  C   C815      1.0  0.11358  0.97188  0.91959  1.0000
  H   H1457     1.0  0.25439  0.90048  0.75827  1.0000
  H   H1458     1.0  0.15097  0.79399  0.50063  1.0000
  H   H1459     1.0  0.29950  0.89684  0.75615  1.0000
  H   H1460     1.0  0.22497  0.87702  0.84454  1.0000
  C   C816      1.0  0.28022  0.90518  0.83833  1.0000
  H   H1461     1.0  0.23682  0.86952  0.86904  1.0000
  H   H1462     1.0  0.14124  0.92955  0.88552  1.0000
  C   C817      1.0  0.13040  0.82853  0.92650  1.0000
  C   C818      1.0  0.01578  0.80656  0.62757  1.0000
  C   C819      1.0  0.03407  0.80972  0.62362  1.0000
  C   C820      1.0  0.99936  0.77111  0.60235  1.0000
  C   C821      1.0  0.04155  0.82272  0.60073  1.0000
  H   H1463     1.0  0.13396  0.94250  0.94466  1.0000
  H   H1464     1.0  0.00234  0.78922  0.69333  1.0000
  H   H1465     1.0  0.08863  0.91308  0.85592  1.0000
  C   C822      1.0  0.10842  0.91587  0.89047  1.0000
  H   H1466     1.0  0.00945  0.80521  0.60511  1.0000
  C   C823      1.0  0.15831  0.77580  0.52064  1.0000
  H   H1467     1.0  0.03546  0.79855  0.61580  1.0000
  H   H1468     1.0  0.04143  0.81444  0.64491  1.0000
  H   H1469     1.0  0.12293  0.82375  0.94597  1.0000
  H   H1470     1.0  0.00586  0.78073  0.58668  1.0000
  C   C824      1.0  0.06626  0.74740  0.92832  1.0000
  H   H1471     1.0  0.00347  0.79481  0.51351  1.0000
  H   H1472     1.0  0.04081  0.83440  0.60760  1.0000
  H   H1473     1.0  0.05477  0.82506  0.59876  1.0000
  H   H1474     1.0  0.03497  0.81849  0.57857  1.0000
  H   H1475     1.0  0.26819  0.91315  0.78739  1.0000
  C   C825      1.0  0.31084  0.83813  0.54118  1.0000
  C   C826      1.0  0.08520  0.74261  0.89646  1.0000
  H   H1476     1.0  0.15036  0.78500  0.86497  1.0000
  H   H1477     1.0  0.99899  0.76637  0.64927  1.0000
  C   C827      1.0  0.13002  0.79807  0.89135  1.0000
  N   N46       1.0  0.11884  0.93369  0.88590  1.0000
  H   H1478     1.0  0.98547  0.78420  0.89220  1.0000
  H   H1479     1.0  0.28431  0.91149  0.88587  1.0000
  H   H1480     1.0  0.27679  0.91562  0.83392  1.0000
  C   C828      1.0  0.24071  0.97583  0.90017  1.0000
  C   C829      1.0  0.03405  0.79751  0.71947  1.0000
  C   C830      1.0  0.12167  0.92531  0.83161  1.0000
  H   H1481     1.0  0.12398  0.84964  0.92572  1.0000
  H   H1482     1.0  0.11936  0.77175  0.90109  1.0000
  H   H1483     1.0  0.05340  0.78425  0.49549  1.0000
  S   S192      1.0  0.16210  0.75171  0.92030  1.0000
  H   H1484     1.0  0.24539  0.85719  0.82797  1.0000
  C   C831      1.0  0.19497  0.97560  0.73623  1.0000
  C   C832      1.0  0.12367  0.93152  0.80005  1.0000
  H   H1485     1.0  0.08333  0.91487  0.89337  1.0000
  H   H1486     1.0  0.09322  0.78080  0.81036  1.0000
  C   C833      1.0  0.16011  0.75969  0.51198  1.0000
  H   H1487     1.0  0.11099  0.91325  0.83066  1.0000
  H   H1488     1.0  0.08063  0.79087  0.91214  1.0000
  C   C834      1.0  0.09756  0.79434  0.81122  1.0000
  C   C835      1.0  0.11055  0.80196  0.83683  1.0000
  H   H1489     1.0  0.12115  0.79875  0.83272  1.0000
  H   H1490     1.0  0.01603  0.81818  0.63722  1.0000
  H   H1491     1.0  0.29522  0.89960  0.87256  1.0000
  H   H1492     1.0  0.25405  0.92787  0.75978  1.0000
  H   H1493     1.0  0.09767  0.78219  0.86563  1.0000
  C   C836      1.0  0.98487  0.80438  0.66017  1.0000
  H   H1494     1.0  0.99607  0.75194  0.56946  1.0000
  C   C837      1.0  0.24738  0.91893  0.77643  1.0000
  C   C838      1.0  0.22941  0.86715  0.84763  1.0000
  H   H1495     1.0  0.29060  0.85947  0.79460  1.0000
  C   C839      1.0  0.10615  0.79355  0.92086  1.0000
  C   C840      1.0  0.21429  0.85109  0.85016  1.0000
  C   C841      1.0  0.09105  0.79717  0.92874  1.0000
  C   C842      1.0  0.24550  0.89337  0.80274  1.0000
  C   C843      1.0  0.23319  0.92887  0.48858  1.0000
  H   H1496     1.0  0.16572  0.76749  0.57247  1.0000
  N   N47       1.0  0.16216  0.74946  0.53697  1.0000
  H   H1497     1.0  0.14942  0.75217  0.49670  1.0000
  H   H1498     1.0  0.10183  0.96999  0.90696  1.0000
  C   C844      1.0  0.26268  0.92190  0.97032  1.0000
  H   H1499     1.0  0.30567  0.80854  0.53366  1.0000
  H   H1500     1.0  0.08533  0.75109  0.85196  1.0000
  N   N48       1.0  0.29522  0.82634  0.52448  1.0000
  H   H1501     1.0  0.27599  0.92598  0.96616  1.0000
  H   H1502     1.0  0.29625  0.91555  0.75632  1.0000
  C   C845      1.0  0.24044  0.98087  0.53772  1.0000
  H   H1503     1.0  0.13957  0.75295  0.57777  1.0000
  C   C846      1.0  0.99490  0.78711  0.49612  1.0000
  H   H1504     1.0  0.17642  0.89699  0.96263  1.0000
  H   H1505     1.0  0.98959  0.82669  0.90130  1.0000
  C   C847      1.0  0.29335  0.80901  0.52968  1.0000
  C   C848      1.0  0.15186  0.78235  0.49405  1.0000
  H   H1506     1.0  0.23949  0.96822  0.87972  1.0000
  C   C849      1.0  0.28429  0.79591  0.50442  1.0000
  H   H1507     1.0  0.99122  0.79005  0.85613  1.0000
  H   H1508     1.0  0.28991  0.82176  0.97792  1.0000
  H   H1509     1.0  0.27261  0.79642  0.49579  1.0000
  H   H1510     1.0  0.98365  0.78981  0.62090  1.0000
  C   C850      1.0  0.13372  0.74431  0.55859  1.0000
  C   C851      1.0  0.28025  0.77863  0.51501  1.0000
  H   H1511     1.0  0.21646  0.98268  0.76636  1.0000
  C   C852      1.0  0.30537  0.91019  0.75251  1.0000
  H   H1512     1.0  0.30323  0.84368  0.58423  1.0000
  H   H1513     1.0  0.29616  0.84271  0.48929  1.0000
  H   H1514     1.0  0.30891  0.91187  0.72909  1.0000
  H   H1515     1.0  0.31345  0.85097  0.53523  1.0000
  H   H1516     1.0  0.23142  0.98654  0.53420  1.0000
  H   H1517     1.0  0.17860  0.96862  0.48808  1.0000
  H   H1518     1.0  0.22197  0.95669  0.98166  1.0000
  H   H1519     1.0  0.05706  0.73897  0.79578  1.0000
  H   H1520     1.0  0.29223  0.79773  0.48535  1.0000
  C   C853      1.0  0.20000  0.98889  0.68798  1.0000
  C   C854      1.0  0.17162  0.73976  0.52629  1.0000
  H   H1521     1.0  0.62590  0.05223  0.34968  1.0000
  Fe  Fe97      1.0  0.61697  0.08316  0.23099  1.0000
  S   S193      1.0  0.62484  0.07270  0.27140  1.0000
  H   H1522     1.0  0.63173  0.06814  0.42700  1.0000
  Fe  Fe98      1.0  0.58364  0.07938  0.25765  1.0000
  S   S194      1.0  0.58959  0.06885  0.29925  1.0000
  S   S195      1.0  0.55847  0.07884  0.24045  1.0000
  Fe  Fe99      1.0  0.61559  0.08852  0.29840  1.0000
  S   S196      1.0  0.62620  0.10275  0.34327  1.0000
  Fe  Fe100     1.0  0.59843  0.05395  0.26955  1.0000
  S   S197      1.0  0.59067  0.02688  0.27841  1.0000
  S   S198      1.0  0.60905  0.10013  0.25786  1.0000
  S   S199      1.0  0.59117  0.06330  0.22820  1.0000
  Fe  Fe101     1.0  0.46986  0.07908  0.27690  1.0000
  S   S200      1.0  0.45444  0.05721  0.30196  1.0000
  S   S201      1.0  0.49755  0.09075  0.29151  1.0000
  Fe  Fe102     1.0  0.43863  0.07979  0.24420  1.0000
  S   S202      1.0  0.42161  0.05764  0.26751  1.0000
  S   S203      1.0  0.42454  0.09189  0.21667  1.0000
  Fe  Fe103     1.0  0.43723  0.06973  0.30913  1.0000
  S   S204      1.0  0.42644  0.06819  0.35500  1.0000
  Fe  Fe104     1.0  0.44024  0.04724  0.25844  1.0000
  S   S205      1.0  0.43657  0.02122  0.24527  1.0000
  S   S206      1.0  0.45336  0.09228  0.28653  1.0000
  S   S207      1.0  0.45652  0.06861  0.23252  1.0000
  Fe  Fe105     1.0  0.39421  0.14538  0.03138  1.0000
  H   H1523     1.0  0.40887  0.15572  0.45431  1.0000
  S   S208      1.0  0.39387  0.16963  0.04911  1.0000
  Fe  Fe106     1.0  0.40391  0.11723  0.05099  1.0000
  S   S209      1.0  0.38975  0.10072  0.01178  1.0000
  S   S210      1.0  0.42103  0.10928  0.08033  1.0000
  C   C855      1.0  0.64640  0.05084  0.19385  1.0000
  S   S211      1.0  0.41860  0.12053  0.44583  1.0000
  Fe  Fe107     1.0  0.36972  0.10945  0.02073  1.0000
  S   S212      1.0  0.34243  0.09300  0.01097  1.0000
  S   S213      1.0  0.41608  0.13924  0.02302  1.0000
  S   S214      1.0  0.38301  0.12427  0.06200  1.0000
  C   C856      1.0  0.32746  0.08494  0.03774  1.0000
  C   C857      1.0  0.33167  0.08737  0.06824  1.0000
  H   H1524     1.0  0.34437  0.09448  0.07601  1.0000
  C   C858      1.0  0.42356  0.09610  0.17844  1.0000
  C   C859      1.0  0.41046  0.09989  0.16723  1.0000
  C   C860      1.0  0.40921  0.10353  0.13714  1.0000
  C   C861      1.0  0.42134  0.10389  0.11807  1.0000
  C   C862      1.0  0.43433  0.09990  0.12919  1.0000
  C   C863      1.0  0.43541  0.09594  0.15915  1.0000
  H   H1525     1.0  0.40115  0.09992  0.18191  1.0000
  H   H1526     1.0  0.39887  0.10606  0.12876  1.0000
  H   H1527     1.0  0.44373  0.10003  0.11459  1.0000
  H   H1528     1.0  0.44559  0.09311  0.16747  1.0000
  C   C864      1.0  0.42042  0.10568  0.42078  1.0000
  C   C865      1.0  0.41664  0.08950  0.42852  1.0000
  C   C866      1.0  0.41859  0.07830  0.40813  1.0000
  C   C867      1.0  0.42419  0.08299  0.37962  1.0000
  C   C868      1.0  0.42786  0.09914  0.37180  1.0000
  C   C869      1.0  0.42615  0.11042  0.39235  1.0000
  H   H1529     1.0  0.41225  0.08563  0.45024  1.0000
  H   H1530     1.0  0.41564  0.06585  0.41448  1.0000
  H   H1531     1.0  0.43182  0.10291  0.34981  1.0000
  H   H1532     1.0  0.42905  0.12285  0.38598  1.0000
  C   C870      1.0  0.40345  0.00648  0.22574  1.0000
  C   C871      1.0  0.41847  0.00491  0.23038  1.0000
  C   C872      1.0  0.64230  0.08414  0.47781  1.0000
  H   H1533     1.0  0.40271  0.01793  0.23152  1.0000
  C   C873      1.0  0.40657  0.01796  0.31525  1.0000
  C   C874      1.0  0.54136  0.08102  0.25660  1.0000
  C   C875      1.0  0.54284  0.08917  0.28407  1.0000
  C   C876      1.0  0.52929  0.09188  0.29449  1.0000
  C   C877      1.0  0.51396  0.08618  0.27801  1.0000
  C   C878      1.0  0.51239  0.07770  0.25087  1.0000
  C   C879      1.0  0.52604  0.07532  0.24014  1.0000
  H   H1534     1.0  0.55455  0.09377  0.29691  1.0000
  H   H1535     1.0  0.53074  0.09856  0.31537  1.0000
  H   H1536     1.0  0.50076  0.07330  0.23781  1.0000
  H   H1537     1.0  0.52473  0.06909  0.21879  1.0000
  C   C880      1.0  0.31945  0.08038  0.08875  1.0000
  H   H1538     1.0  0.36602  0.02410  0.14793  1.0000
  C   C881      1.0  0.58093  0.01076  0.25136  1.0000
  C   C882      1.0  0.57953  0.01371  0.22119  1.0000
  C   C883      1.0  0.57182  0.00051  0.20041  1.0000
  C   C884      1.0  0.62677  0.05951  0.37040  1.0000
  H   H1539     1.0  0.58451  0.02615  0.21385  1.0000
  H   H1540     1.0  0.41419  0.19907  0.44551  1.0000
  S   S215      1.0  0.62776  0.08556  0.18475  1.0000
  C   C885      1.0  0.41004  0.21104  0.00001  1.0000
  C   C886      1.0  0.39836  0.04665  0.18860  1.0000
  H   H1541     1.0  0.37356  0.02366  0.11205  1.0000
  H   H1542     1.0  0.41962  0.02516  0.17355  1.0000
  H   H1543     1.0  0.43207  0.20500  0.05600  1.0000
  H   H1544     1.0  0.63363  0.11638  0.40314  1.0000
  H   H1545     1.0  0.44421  0.03643  0.14374  1.0000
  C   C887      1.0  0.40564  0.22206  0.01659  1.0000
  C   C888      1.0  0.39724  0.21658  0.04246  1.0000
  H   H1546     1.0  0.42905  0.15402  0.48176  1.0000
  C   C889      1.0  0.39792  0.18946  0.03507  1.0000
  C   C890      1.0  0.40609  0.19484  0.00896  1.0000
  H   H1547     1.0  0.54557  0.00302  0.23733  1.0000
  H   H1548     1.0  0.53322  0.10467  0.41060  1.0000
  H   H1549     1.0  0.33631  0.12274  0.07919  1.0000
  H   H1550     1.0  0.52153  0.01968  0.22323  1.0000
  H   H1551     1.0  0.42163  0.04513  0.13122  1.0000
  H   H1552     1.0  0.43461  0.17606  0.36694  1.0000
  C   C891      1.0  0.39119  0.06174  0.08428  1.0000
  H   H1553     1.0  0.45004  0.03577  0.18238  1.0000
  C   C892      1.0  0.46838  0.19265  0.17251  1.0000
  N   N49       1.0  0.43318  0.16816  0.11235  1.0000
  C   C893      1.0  0.43581  0.18160  0.09070  1.0000
  C   C894      1.0  0.43794  0.15508  0.09907  1.0000
  C   C895      1.0  0.41492  0.16046  0.11756  1.0000
  C   C896      1.0  0.44239  0.17461  0.14202  1.0000
  C   C897      1.0  0.46123  0.18488  0.14175  1.0000
  C   C898      1.0  0.43050  0.19541  0.10052  1.0000
  C   C899      1.0  0.40885  0.14441  0.13493  1.0000
  C   C900      1.0  0.45275  0.16079  0.07865  1.0000
  C   C901      1.0  0.45797  0.14689  0.07103  1.0000
  C   C902      1.0  0.43629  0.20954  0.07927  1.0000
  C   C903      1.0  0.39086  0.13920  0.14272  1.0000
  H   H1554     1.0  0.42887  0.17621  0.06910  1.0000
  H   H1555     1.0  0.44891  0.18758  0.08516  1.0000
  H   H1556     1.0  0.44031  0.14764  0.11687  1.0000
  H   H1557     1.0  0.42743  0.14616  0.08488  1.0000
  H   H1558     1.0  0.40753  0.15748  0.09593  1.0000
  H   H1559     1.0  0.41114  0.16922  0.12970  1.0000
  H   H1560     1.0  0.43680  0.18193  0.15401  1.0000
  H   H1561     1.0  0.44102  0.16435  0.15675  1.0000
  H   H1562     1.0  0.46428  0.19496  0.12608  1.0000
  H   H1563     1.0  0.46757  0.17686  0.13595  1.0000
  H   H1564     1.0  0.41681  0.19071  0.10046  1.0000
  H   H1565     1.0  0.43580  0.20053  0.12304  1.0000
  H   H1566     1.0  0.41628  0.14568  0.15600  1.0000
  H   H1567     1.0  0.40958  0.13438  0.12114  1.0000
  H   H1568     1.0  0.44916  0.16492  0.05736  1.0000
  H   H1569     1.0  0.46369  0.17108  0.08878  1.0000
  H   H1570     1.0  0.46900  0.15156  0.05759  1.0000
  H   H1571     1.0  0.46107  0.14173  0.09152  1.0000
  H   H1572     1.0  0.44788  0.13702  0.05773  1.0000
  H   H1573     1.0  0.37388  0.14877  0.46207  1.0000
  H   H1574     1.0  0.57553  0.99210  0.28374  1.0000
  H   H1575     1.0  0.44999  0.21587  0.08080  1.0000
  H   H1576     1.0  0.38970  0.14834  0.15844  1.0000
  H   H1577     1.0  0.38276  0.13796  0.12245  1.0000
  H   H1578     1.0  0.38655  0.12719  0.15341  1.0000
  H   H1579     1.0  0.38161  0.14251  0.42967  1.0000
  H   H1580     1.0  0.38818  0.06287  0.23134  1.0000
  H   H1581     1.0  0.45828  0.10237  0.40614  1.0000
  H   H1582     1.0  0.43295  0.15537  0.37036  1.0000
  H   H1583     1.0  0.63904  0.14512  0.22897  1.0000
  C   C904      1.0  0.43132  0.18218  0.42667  1.0000
  C   C905      1.0  0.53353  0.01854  0.22252  1.0000
  C   C906      1.0  0.53401  0.11153  0.39000  1.0000
  C   C907      1.0  0.49893  0.99170  0.26483  1.0000
  C   C908      1.0  0.39245  0.00095  0.31556  1.0000
  C   C909      1.0  0.54698  0.03439  0.23588  1.0000
  C   C910      1.0  0.53335  0.00361  0.23973  1.0000
  H   H1584     1.0  0.40232  0.03919  0.20394  1.0000
  C   C911      1.0  0.38056  0.04350  0.19660  1.0000
  C   C912      1.0  0.44446  0.04169  0.16633  1.0000
  C   C913      1.0  0.39154  0.02504  0.14847  1.0000
  C   C914      1.0  0.37354  0.01934  0.13499  1.0000
  H   H1585     1.0  0.63779  0.03775  0.19437  1.0000
  C   C915      1.0  0.42679  0.16547  0.40975  1.0000
  H   H1586     1.0  0.39307  0.07414  0.09282  1.0000
  H   H1587     1.0  0.32286  0.08220  0.11231  1.0000
  H   H1588     1.0  0.37275  0.03017  0.19534  1.0000
  H   H1589     1.0  0.47068  0.12379  0.44646  1.0000
  H   H1590     1.0  0.48267  0.14157  0.33876  1.0000
  H   H1591     1.0  0.54776  0.04471  0.22177  1.0000
  C   C916      1.0  0.47258  0.12955  0.33199  1.0000
  H   H1592     1.0  0.33476  0.14228  0.08364  1.0000
  H   H1593     1.0  0.58462  0.12281  0.08807  1.0000
  H   H1594     1.0  0.55920  0.03361  0.23695  1.0000
  H   H1595     1.0  0.54411  0.03703  0.25860  1.0000
  H   H1596     1.0  0.48196  0.19960  0.17196  1.0000
  H   H1597     1.0  0.40253  0.02732  0.32425  1.0000
  H   H1598     1.0  0.47488  0.10915  0.46917  1.0000
  N   N50       1.0  0.48654  0.10095  0.38099  1.0000
  C   C917      1.0  0.47304  0.08453  0.37162  1.0000
  C   C918      1.0  0.48660  0.11340  0.35868  1.0000
  C   C919      1.0  0.50281  0.09922  0.37967  1.0000
  C   C920      1.0  0.48490  0.10657  0.41208  1.0000
  C   C921      1.0  0.46705  0.10096  0.42295  1.0000
  C   C922      1.0  0.47324  0.06987  0.38954  1.0000
  C   C923      1.0  0.51867  0.11521  0.38480  1.0000
  H   H1599     1.0  0.44706  0.16462  0.46084  1.0000
  H   H1600     1.0  0.42790  0.04299  0.19824  1.0000
  H   H1601     1.0  0.49689  0.12547  0.36434  1.0000
  C   C924      1.0  0.45626  0.05563  0.38883  1.0000
  H   H1602     1.0  0.47392  0.08164  0.34780  1.0000
  H   H1603     1.0  0.46066  0.08474  0.37244  1.0000
  H   H1604     1.0  0.42617  0.06103  0.15888  1.0000
  H   H1605     1.0  0.48885  0.10957  0.33622  1.0000
  H   H1606     1.0  0.50357  0.09370  0.35768  1.0000
  H   H1607     1.0  0.50369  0.09058  0.39648  1.0000
  H   H1608     1.0  0.49175  0.10224  0.42881  1.0000
  H   H1609     1.0  0.49097  0.12017  0.41440  1.0000
  H   H1610     1.0  0.46210  0.08783  0.42824  1.0000
  H   H1611     1.0  0.63377  0.07146  0.48247  1.0000
  H   H1612     1.0  0.48201  0.06533  0.37985  1.0000
  H   H1613     1.0  0.47740  0.07351  0.41314  1.0000
  H   H1614     1.0  0.52061  0.12275  0.36484  1.0000
  H   H1615     1.0  0.45989  0.10577  0.34930  1.0000
  H   H1616     1.0  0.51833  0.99298  0.18399  1.0000
  H   H1617     1.0  0.53631  0.01754  0.19902  1.0000
  C   C925      1.0  0.40076  0.05451  0.10431  1.0000
  H   H1618     1.0  0.39851  0.04211  0.09527  1.0000
  H   H1619     1.0  0.44732  0.05935  0.40001  1.0000
  H   H1620     1.0  0.45387  0.10599  0.45844  1.0000
  H   H1621     1.0  0.45717  0.04519  0.40065  1.0000
  C   C926      1.0  0.57446  0.99450  0.26047  1.0000
  H   H1622     1.0  0.53319  0.00660  0.26363  1.0000
  C   C927      1.0  0.43411  0.22841  0.46651  1.0000
  H   H1623     1.0  0.45151  0.05146  0.36563  1.0000
  H   H1624     1.0  0.47526  0.12537  0.31030  1.0000
  N   N51       1.0  0.40079  0.04305  0.15677  1.0000
  H   H1625     1.0  0.46081  0.13119  0.32909  1.0000
  C   C928      1.0  0.64421  0.07201  0.41816  1.0000
  H   H1626     1.0  0.41622  0.19664  0.48431  1.0000
  H   H1627     1.0  0.38730  0.19654  0.07200  1.0000
  H   H1628     1.0  0.51783  0.12253  0.40428  1.0000
  H   H1629     1.0  0.40158  0.06686  0.14610  1.0000
  H   H1630     1.0  0.64094  0.04874  0.39514  1.0000
  H   H1631     1.0  0.39822  0.02103  0.13184  1.0000
  C   C929      1.0  0.32219  0.22502  0.05317  1.0000
  H   H1632     1.0  0.39382  0.22484  0.05560  1.0000
  C   C930      1.0  0.43837  0.21343  0.46557  1.0000
  C   C931      1.0  0.46671  0.11061  0.45101  1.0000
  H   H1633     1.0  0.42716  0.22897  0.44569  1.0000
  H   H1634     1.0  0.45235  0.05503  0.16700  1.0000
  H   H1635     1.0  0.40644  0.05962  0.19498  1.0000
  H   H1636     1.0  0.44607  0.21436  0.44640  1.0000
  H   H1637     1.0  0.33809  0.20842  0.48235  1.0000
  H   H1638     1.0  0.39129  0.01760  0.16818  1.0000
  C   C932      1.0  0.41908  0.04763  0.15428  1.0000
  C   C933      1.0  0.44053  0.16527  0.48087  1.0000
  H   H1639     1.0  0.43105  0.21854  0.08506  1.0000
  H   H1640     1.0  0.57089  0.00291  0.17712  1.0000
  C   C934      1.0  0.38038  0.04953  0.22845  1.0000
  H   H1641     1.0  0.46912  0.12244  0.37679  1.0000
  H   H1642     1.0  0.37495  0.04994  0.18192  1.0000
  H   H1643     1.0  0.41749  0.01850  0.32917  1.0000
  H   H1644     1.0  0.64020  0.15604  0.19501  1.0000
  C   C935      1.0  0.40832  0.16759  0.46013  1.0000
  H   H1645     1.0  0.38502  0.04282  0.24447  1.0000
  C   C936      1.0  0.39355  0.20047  0.05171  1.0000
  C   C937      1.0  0.42696  0.03858  0.17482  1.0000
  N   N52       1.0  0.59427  0.11687  0.17813  1.0000
  C   C938      1.0  0.59682  0.10136  0.17220  1.0000
  C   C939      1.0  0.60921  0.12959  0.19529  1.0000
  C   C940      1.0  0.57972  0.11255  0.19744  1.0000
  C   C941      1.0  0.59033  0.12375  0.14992  1.0000
  C   C942      1.0  0.60270  0.12680  0.12524  1.0000
  C   C943      1.0  0.58210  0.08698  0.15596  1.0000
  C   C944      1.0  0.57523  0.12695  0.20714  1.0000
  C   C945      1.0  0.62638  0.12957  0.18994  1.0000
  C   C946      1.0  0.64032  0.14472  0.20461  1.0000
  C   C947      1.0  0.59656  0.13241  0.09706  1.0000
  C   C948      1.0  0.58733  0.07359  0.14499  1.0000
  C   C949      1.0  0.56181  0.12148  0.22957  1.0000
  H   H1646     1.0  0.59966  0.09667  0.19353  1.0000
  H   H1647     1.0  0.60781  0.10375  0.15918  1.0000
  H   H1648     1.0  0.60992  0.14214  0.19141  1.0000
  H   H1649     1.0  0.60803  0.12815  0.21972  1.0000
  H   H1650     1.0  0.58211  0.10687  0.21795  1.0000
  H   H1651     1.0  0.56828  0.10322  0.18613  1.0000
  H   H1652     1.0  0.57774  0.11581  0.14038  1.0000
  H   H1653     1.0  0.58974  0.13575  0.15478  1.0000
  H   H1654     1.0  0.60446  0.11558  0.11903  1.0000
  H   H1655     1.0  0.61478  0.13666  0.13261  1.0000
  H   H1656     1.0  0.57206  0.08128  0.17133  1.0000
  H   H1657     1.0  0.57703  0.09106  0.13631  1.0000
  H   H1658     1.0  0.57036  0.13146  0.18770  1.0000
  H   H1659     1.0  0.58607  0.13730  0.21768  1.0000
  H   H1660     1.0  0.62725  0.11866  0.20001  1.0000
  H   H1661     1.0  0.62863  0.12921  0.16608  1.0000
  H   H1662     1.0  0.62748  0.07173  0.36412  1.0000
  H   H1663     1.0  0.47972  0.99637  0.28633  1.0000
  H   H1664     1.0  0.59493  0.14392  0.10168  1.0000
  H   H1665     1.0  0.60576  0.13476  0.07990  1.0000
  H   H1666     1.0  0.57654  0.06344  0.13374  1.0000
  H   H1667     1.0  0.59717  0.07849  0.12898  1.0000
  H   H1668     1.0  0.59202  0.06855  0.16388  1.0000
  H   H1669     1.0  0.55049  0.11123  0.21998  1.0000
  H   H1670     1.0  0.56628  0.11741  0.25006  1.0000
  H   H1671     1.0  0.55850  0.13182  0.23575  1.0000
  H   H1672     1.0  0.36840  0.15340  0.42550  1.0000
  C   C950      1.0  0.37848  0.15229  0.43966  1.0000
  H   H1673     1.0  0.50850  0.00349  0.27384  1.0000
  H   H1674     1.0  0.40510  0.16652  0.48376  1.0000
  H   H1675     1.0  0.38238  0.05075  0.13668  1.0000
  H   H1676     1.0  0.37777  0.05374  0.08303  1.0000
  H   H1677     1.0  0.38183  0.00149  0.30227  1.0000
  H   H1678     1.0  0.44928  0.19115  0.47942  1.0000
  H   H1679     1.0  0.36754  0.04739  0.23359  1.0000
  H   H1680     1.0  0.42891  0.15634  0.42365  1.0000
  C   C951      1.0  0.41913  0.98975  0.22389  1.0000
  H   H1681     1.0  0.41352  0.16012  0.40209  1.0000
  C   C952      1.0  0.38930  0.99304  0.21425  1.0000
  C   C953      1.0  0.47095  0.11703  0.35570  1.0000
  H   H1682     1.0  0.45020  0.17202  0.38881  1.0000
  H   H1683     1.0  0.38969  0.17775  0.45240  1.0000
  H   H1684     1.0  0.39569  0.06286  0.06151  1.0000
  C   C954      1.0  0.39586  0.05401  0.13697  1.0000
  H   H1685     1.0  0.40967  0.98960  0.31390  1.0000
  H   H1686     1.0  0.37772  0.99433  0.21067  1.0000
  H   H1687     1.0  0.42680  0.18945  0.41160  1.0000
  H   H1688     1.0  0.41030  0.02109  0.29221  1.0000
  H   H1689     1.0  0.39692  0.17251  0.41881  1.0000
  C   C955      1.0  0.39353  0.16865  0.44168  1.0000
  C   C956      1.0  0.33203  0.13153  0.06831  1.0000
  N   N53       1.0  0.42480  0.18172  0.45721  1.0000
  H   H1690     1.0  0.54523  0.12318  0.39239  1.0000
  H   H1691     1.0  0.33905  0.13580  0.04813  1.0000
  H   H1692     1.0  0.63385  0.08414  0.12316  1.0000
  C   C957      1.0  0.43679  0.16744  0.38229  1.0000
  C   C958      1.0  0.48241  0.99344  0.26367  1.0000
  C   C959      1.0  0.36482  0.00066  0.13334  1.0000
  H   H1693     1.0  0.41414  0.06242  0.10314  1.0000
  H   H1694     1.0  0.44504  0.18882  0.42799  1.0000
  H   H1695     1.0  0.46598  0.18307  0.18923  1.0000
  H   H1696     1.0  0.53532  0.10422  0.37088  1.0000
  H   H1697     1.0  0.46286  0.20126  0.17939  1.0000
  C   C960      1.0  0.64443  0.10839  0.36760  1.0000
  H   H1698     1.0  0.38909  0.99850  0.33890  1.0000
  C   C961      1.0  0.42248  0.19736  0.46323  1.0000
  H   H1699     1.0  0.32171  0.21322  0.04585  1.0000
  H   H1700     1.0  0.40966  0.18665  0.99595  1.0000
  H   H1701     1.0  0.61536  0.05319  0.38240  1.0000
  H   H1702     1.0  0.35117  0.06350  0.47832  1.0000
  C   C962      1.0  0.64455  0.11495  0.39634  1.0000
  H   H1703     1.0  0.34640  0.23849  0.03682  1.0000
  S   S216      1.0  0.37970  0.13075  0.99085  1.0000
  C   C963      1.0  0.64303  0.09962  0.16283  1.0000
  H   H1704     1.0  0.63665  0.04875  0.45287  1.0000
  H   H1705     1.0  0.57195  0.99820  0.10090  1.0000
  H   H1706     1.0  0.37167  0.99528  0.11972  1.0000
  H   H1707     1.0  0.36387  0.99570  0.15595  1.0000
  H   H1708     1.0  0.36500  0.05454  0.99488  1.0000
  H   H1709     1.0  0.63593  0.08904  0.46127  1.0000
  C   C964      1.0  0.64311  0.09556  0.13253  1.0000
  H   H1710     1.0  0.40062  0.99081  0.27895  1.0000
  H   H1711     1.0  0.46314  0.10307  0.98635  1.0000
  H   H1712     1.0  0.58295  0.99325  0.07235  1.0000
  H   H1713     1.0  0.48287  0.00351  0.24910  1.0000
  C   C965      1.0  0.43700  0.18088  0.48101  1.0000
  C   C966      1.0  0.64211  0.06120  0.38964  1.0000
  H   H1714     1.0  0.63893  0.05829  0.19304  1.0000
  H   H1715     1.0  0.50023  0.99505  0.21739  1.0000
  H   H1716     1.0  0.37917  0.23815  0.13967  1.0000
  H   H1717     1.0  0.35213  0.99685  0.12298  1.0000
  H   H1718     1.0  0.64756  0.08475  0.41101  1.0000
  H   H1719     1.0  0.64789  0.04964  0.14684  1.0000
  C   C967      1.0  0.57079  0.98938  0.08237  1.0000
  H   H1720     1.0  0.56140  0.98973  0.06547  1.0000
  H   H1721     1.0  0.45436  0.15435  0.50702  1.0000
  Fe  Fe108     1.0  0.62315  0.09209  0.73539  1.0000
  S   S217      1.0  0.62807  0.07787  0.77289  1.0000
  C   C968      1.0  0.31839  0.05866  0.86441  1.0000
  Fe  Fe109     1.0  0.58743  0.08362  0.75427  1.0000
  S   S218      1.0  0.59063  0.06933  0.79274  1.0000
  S   S219      1.0  0.56200  0.08300  0.73808  1.0000
  Fe  Fe110     1.0  0.61595  0.08970  0.80238  1.0000
  S   S220      1.0  0.62315  0.09515  0.85267  1.0000
  Fe  Fe111     1.0  0.60262  0.05851  0.76115  1.0000
  S   S221      1.0  0.59770  0.03163  0.76663  1.0000
  S   S222      1.0  0.61198  0.10504  0.76571  1.0000
  S   S223      1.0  0.59841  0.07168  0.72165  1.0000
  Fe  Fe112     1.0  0.47070  0.07410  0.78640  1.0000
  S   S224      1.0  0.45394  0.05488  0.81514  1.0000
  S   S225      1.0  0.49868  0.08542  0.79837  1.0000
  Fe  Fe113     1.0  0.44072  0.07613  0.75185  1.0000
  S   S226      1.0  0.42199  0.05671  0.77832  1.0000
  S   S227      1.0  0.43503  0.09361  0.72131  1.0000
  Fe  Fe114     1.0  0.43857  0.06966  0.81856  1.0000
  S   S228      1.0  0.42962  0.07163  0.86508  1.0000
  Fe  Fe115     1.0  0.43867  0.04336  0.77313  1.0000
  S   S229      1.0  0.43278  0.01608  0.76936  1.0000
  S   S230      1.0  0.45636  0.08970  0.79260  1.0000
  S   S231      1.0  0.45638  0.06189  0.74390  1.0000
  Fe  Fe116     1.0  0.40363  0.14043  0.54023  1.0000
  H   H1722     1.0  0.32710  0.08503  0.61415  1.0000
  S   S232      1.0  0.41390  0.16763  0.55478  1.0000
  Fe  Fe117     1.0  0.40411  0.10716  0.55615  1.0000
  S   S233      1.0  0.38979  0.09503  0.51328  1.0000
  S   S234      1.0  0.41133  0.08964  0.58428  1.0000
  H   H1723     1.0  0.46569  0.08197  0.86170  1.0000
  S   S235      1.0  0.40973  0.12275  0.93757  1.0000
  Fe  Fe118     1.0  0.37396  0.10869  0.52308  1.0000
  S   S236      1.0  0.34609  0.09725  0.51286  1.0000
  S   S237      1.0  0.42172  0.12884  0.53283  1.0000
  S   S238      1.0  0.38716  0.11954  0.56712  1.0000
  C   C969      1.0  0.33139  0.08818  0.53955  1.0000
  C   C970      1.0  0.33566  0.09068  0.57002  1.0000
  H   H1724     1.0  0.34819  0.09852  0.57769  1.0000
  C   C971      1.0  0.42752  0.09176  0.68359  1.0000
  C   C972      1.0  0.42537  0.10513  0.67101  1.0000
  C   C973      1.0  0.42023  0.10465  0.64079  1.0000
  C   C974      1.0  0.41733  0.09080  0.62270  1.0000
  C   C975      1.0  0.41949  0.07741  0.63526  1.0000
  C   C976      1.0  0.42442  0.07781  0.66558  1.0000
  H   H1725     1.0  0.42775  0.11599  0.68471  1.0000
  H   H1726     1.0  0.41866  0.11505  0.63146  1.0000
  H   H1727     1.0  0.41738  0.06669  0.62140  1.0000
  H   H1728     1.0  0.42599  0.06742  0.67491  1.0000
  C   C977      1.0  0.41549  0.10846  0.91811  1.0000
  C   C978      1.0  0.41995  0.11135  0.88850  1.0000
  C   C979      1.0  0.42405  0.10014  0.87177  1.0000
  C   C980      1.0  0.42385  0.08590  0.88450  1.0000
  C   C981      1.0  0.41949  0.08306  0.91417  1.0000
  C   C982      1.0  0.41537  0.09425  0.93090  1.0000
  H   H1729     1.0  0.42005  0.12226  0.87830  1.0000
  H   H1730     1.0  0.42720  0.10244  0.84896  1.0000
  H   H1731     1.0  0.41938  0.07214  0.92435  1.0000
  H   H1732     1.0  0.41209  0.09186  0.95367  1.0000
  H   H1733     1.0  0.47651  0.14157  0.85798  1.0000
  C   C983      1.0  0.41543  0.00046  0.75062  1.0000
  C   C984      1.0  0.40442  0.00389  0.73153  1.0000
  C   C985      1.0  0.36275  0.19704  0.57814  1.0000
  H   H1734     1.0  0.40613  0.01645  0.72852  1.0000
  C   C986      1.0  0.54431  0.08263  0.75617  1.0000
  C   C987      1.0  0.54538  0.08886  0.78523  1.0000
  C   C988      1.0  0.53125  0.08934  0.79783  1.0000
  C   C989      1.0  0.51577  0.08338  0.78185  1.0000
  C   C990      1.0  0.51457  0.07668  0.75308  1.0000
  C   C991      1.0  0.52878  0.07645  0.74030  1.0000
  H   H1735     1.0  0.55720  0.09374  0.79772  1.0000
  H   H1736     1.0  0.53238  0.09458  0.82005  1.0000
  H   H1737     1.0  0.50281  0.07203  0.74046  1.0000
  H   H1738     1.0  0.52777  0.07157  0.71785  1.0000
  C   C992      1.0  0.34634  0.10519  0.91381  1.0000
  H   H1739     1.0  0.44590  0.16594  0.52871  1.0000
  C   C993      1.0  0.58234  0.01505  0.74565  1.0000
  C   C994      1.0  0.57352  0.01756  0.72110  1.0000
  C   C995      1.0  0.56086  0.00412  0.70582  1.0000
  H   H1740     1.0  0.36084  0.07791  0.97576  1.0000
  H   H1741     1.0  0.57647  0.02986  0.71397  1.0000
  H   H1742     1.0  0.48937  0.14044  0.90121  1.0000
  H   H1743     1.0  0.36359  0.21329  0.62984  1.0000
  H   H1744     1.0  0.33430  0.12086  0.60118  1.0000
  H   H1745     1.0  0.44417  0.00923  0.71330  1.0000
  H   H1746     1.0  0.62824  0.09531  0.65015  1.0000
  H   H1747     1.0  0.33248  0.21982  0.50995  1.0000
  H   H1748     1.0  0.33243  0.05696  0.62137  1.0000
  H   H1749     1.0  0.46286  0.12130  0.91253  1.0000
  C   C996      1.0  0.32368  0.08309  0.59061  1.0000
  C   C997      1.0  0.39852  0.20960  0.52835  1.0000
  C   C998      1.0  0.41265  0.21263  0.54686  1.0000
  C   C999      1.0  0.41711  0.19964  0.55468  1.0000
  C   C1000     1.0  0.40744  0.18343  0.54444  1.0000
  C   C1001     1.0  0.39309  0.18034  0.52647  1.0000
  C   C1002     1.0  0.38877  0.19336  0.51826  1.0000
  H   H1750     1.0  0.48328  0.01302  0.76990  1.0000
  H   H1751     1.0  0.33535  0.19524  0.53104  1.0000
  H   H1752     1.0  0.52987  0.15852  0.86548  1.0000
  C   C1003     1.0  0.64577  0.09475  0.50635  1.0000
  H   H1753     1.0  0.33863  0.13240  0.56774  1.0000
  H   H1754     1.0  0.48276  0.12057  0.95208  1.0000
  N   N54       1.0  0.47979  0.11473  0.88768  1.0000
  H   H1755     1.0  0.60472  0.05476  0.85910  1.0000
  C   C1004     1.0  0.37900  0.04218  0.59198  1.0000
  H   H1756     1.0  0.44499  0.98931  0.65779  1.0000
  H   H1757     1.0  0.38522  0.09766  0.61757  1.0000
  H   H1758     1.0  0.35851  0.12920  0.93624  1.0000
  H   H1759     1.0  0.38380  0.06815  0.97932  1.0000
  H   H1760     1.0  0.36710  0.99605  0.77048  1.0000
  H   H1761     1.0  0.52692  0.15324  0.90379  1.0000
  H   H1762     1.0  0.45587  0.10020  0.90401  1.0000
  C   C1005     1.0  0.32986  0.04427  0.61351  1.0000
  H   H1763     1.0  0.46005  0.10373  0.85381  1.0000
  H   H1764     1.0  0.46385  0.17641  0.50761  1.0000
  H   H1765     1.0  0.42026  0.22501  0.55485  1.0000
  H   H1766     1.0  0.47206  0.05900  0.87898  1.0000
  H   H1767     1.0  0.49483  0.10257  0.90589  1.0000
  H   H1768     1.0  0.37492  0.07441  0.57732  1.0000
  H   H1769     1.0  0.49435  0.10348  0.86675  1.0000
  H   H1770     1.0  0.62558  0.05682  0.82316  1.0000
  C   C1006     1.0  0.53609  0.00964  0.76314  1.0000
  H   H1771     1.0  0.33509  0.08395  0.86766  1.0000
  H   H1772     1.0  0.54917  0.01153  0.76065  1.0000
  C   C1007     1.0  0.63831  0.06119  0.86790  1.0000
  H   H1773     1.0  0.39261  0.10195  0.84163  1.0000
  H   H1774     1.0  0.45507  0.13958  0.81970  1.0000
  H   H1775     1.0  0.48882  0.02365  0.73563  1.0000
  H   H1776     1.0  0.35568  0.07502  0.58316  1.0000
  H   H1777     1.0  0.33694  0.05267  0.52385  1.0000
  H   H1778     1.0  0.43280  0.18237  0.50338  1.0000
  H   H1779     1.0  0.33657  0.19477  0.61728  1.0000
  H   H1780     1.0  0.46522  0.08042  0.90141  1.0000
  C   C1008     1.0  0.52054  0.15414  0.88250  1.0000
  H   H1781     1.0  0.50163  0.13897  0.85066  1.0000
  N   N55       1.0  0.53497  0.02596  0.76738  1.0000
  H   H1782     1.0  0.34883  0.99738  0.75354  1.0000
  C   C1009     1.0  0.54396  0.03704  0.74324  1.0000
  C   C1010     1.0  0.54412  0.03360  0.79665  1.0000
  C   C1011     1.0  0.51737  0.02455  0.76798  1.0000
  C   C1012     1.0  0.50387  0.01036  0.74894  1.0000
  C   C1013     1.0  0.34598  0.11916  0.93337  1.0000
  C   C1014     1.0  0.54563  0.05119  0.80436  1.0000
  C   C1015     1.0  0.53696  0.03165  0.71090  1.0000
  C   C1016     1.0  0.54810  0.04319  0.68878  1.0000
  H   H1783     1.0  0.63406  0.09483  0.51397  1.0000
  H   H1784     1.0  0.35225  0.03550  0.53980  1.0000
  C   C1017     1.0  0.55193  0.05635  0.83663  1.0000
  C   C1018     1.0  0.46605  0.12951  0.85369  1.0000
  H   H1785     1.0  0.48949  0.07283  0.90193  1.0000
  H   H1786     1.0  0.54384  0.04931  0.74644  1.0000
  H   H1787     1.0  0.55726  0.03900  0.74461  1.0000
  H   H1788     1.0  0.55691  0.03401  0.79735  1.0000
  H   H1789     1.0  0.32985  0.03201  0.57151  1.0000
  H   H1790     1.0  0.51317  0.02296  0.79108  1.0000
  H   H1791     1.0  0.51675  0.03627  0.76123  1.0000
  C   C1019     1.0  0.35347  0.21698  0.55657  1.0000
  H   H1792     1.0  0.50742  0.00955  0.72599  1.0000
  C   C1020     1.0  0.47297  0.10896  0.94277  1.0000
  C   C1021     1.0  0.44759  0.99229  0.68187  1.0000
  H   H1793     1.0  0.53358  0.05220  0.80097  1.0000
  H   H1794     1.0  0.55462  0.06012  0.79028  1.0000
  H   H1795     1.0  0.53585  0.01916  0.70502  1.0000
  H   H1796     1.0  0.52471  0.03222  0.70768  1.0000
  H   H1797     1.0  0.54880  0.05579  0.69240  1.0000
  H   H1798     1.0  0.56078  0.04355  0.69106  1.0000
  H   H1799     1.0  0.54300  0.03889  0.66575  1.0000
  C   C1022     1.0  0.52991  0.99771  0.78884  1.0000
  C   C1023     1.0  0.35555  0.05615  0.49334  1.0000
  H   H1800     1.0  0.58557  0.99687  0.77300  1.0000
  H   H1801     1.0  0.51863  0.99805  0.79794  1.0000
  C   C1024     1.0  0.64694  0.10385  0.61769  1.0000
  H   H1802     1.0  0.46870  0.13094  0.80585  1.0000
  H   H1803     1.0  0.54295  0.04841  0.85205  1.0000
  H   H1804     1.0  0.56409  0.05565  0.84105  1.0000
  H   H1805     1.0  0.55354  0.06920  0.84096  1.0000
  C   C1025     1.0  0.45911  0.12937  0.82195  1.0000
  H   H1806     1.0  0.33752  0.12416  0.92272  1.0000
  H   H1807     1.0  0.42817  0.20219  0.56878  1.0000
  H   H1808     1.0  0.55403  0.00619  0.68695  1.0000
  C   C1026     1.0  0.34240  0.21608  0.50320  1.0000
  H   H1809     1.0  0.38915  0.08185  0.82709  1.0000
  H   H1810     1.0  0.36442  0.09440  0.62657  1.0000
  C   C1027     1.0  0.47341  0.08375  0.88257  1.0000
  H   H1811     1.0  0.52947  0.00321  0.74214  1.0000
  H   H1812     1.0  0.51336  0.12901  0.86889  1.0000
  Fe  Fe119     1.0  0.40065  0.12288  0.98449  1.0000
  H   H1813     1.0  0.53794  0.02599  0.81536  1.0000
  C   C1028     1.0  0.50717  0.13746  0.87237  1.0000
  H   H1814     1.0  0.38291  0.99374  0.70097  1.0000
  H   H1815     1.0  0.35286  0.17936  0.61340  1.0000
  H   H1816     1.0  0.37883  0.09279  0.65471  1.0000
  H   H1817     1.0  0.47948  0.11510  0.83957  1.0000
  C   C1029     1.0  0.49399  0.13088  0.89584  1.0000
  N   N56       1.0  0.47887  0.10206  0.67117  1.0000
  C   C1030     1.0  0.46919  0.08455  0.67911  1.0000
  C   C1031     1.0  0.47969  0.11328  0.69722  1.0000
  C   C1032     1.0  0.46927  0.10574  0.64574  1.0000
  C   C1033     1.0  0.49602  0.10515  0.66173  1.0000
  C   C1034     1.0  0.50483  0.09498  0.67658  1.0000
  C   C1035     1.0  0.46413  0.07169  0.65287  1.0000
  C   C1036     1.0  0.47560  0.12384  0.63680  1.0000
  C   C1037     1.0  0.48754  0.11073  0.72708  1.0000
  C   C1038     1.0  0.48580  0.12170  0.75187  1.0000
  C   C1039     1.0  0.52312  0.10175  0.67003  1.0000
  C   C1040     1.0  0.45801  0.05426  0.66386  1.0000
  C   C1041     1.0  0.46658  0.12545  0.60805  1.0000
  H   H1818     1.0  0.45758  0.08338  0.68935  1.0000
  H   H1819     1.0  0.47600  0.08070  0.69644  1.0000
  H   H1820     1.0  0.48699  0.12628  0.69217  1.0000
  H   H1821     1.0  0.46702  0.11235  0.70128  1.0000
  H   H1822     1.0  0.45609  0.10194  0.65097  1.0000
  H   H1823     1.0  0.46907  0.09847  0.62533  1.0000
  H   H1824     1.0  0.49580  0.10269  0.63737  1.0000
  H   H1825     1.0  0.50429  0.11837  0.66529  1.0000
  H   H1826     1.0  0.49908  0.08210  0.66788  1.0000
  H   H1827     1.0  0.50410  0.09473  0.70096  1.0000
  H   H1828     1.0  0.45383  0.07250  0.63884  1.0000
  H   H1829     1.0  0.47462  0.07376  0.63865  1.0000
  H   H1830     1.0  0.48906  0.12893  0.63346  1.0000
  H   H1831     1.0  0.47318  0.13140  0.65422  1.0000
  H   H1832     1.0  0.48160  0.09795  0.73418  1.0000
  H   H1833     1.0  0.50097  0.11419  0.72537  1.0000
  H   H1834     1.0  0.47255  0.11907  0.75443  1.0000
  H   H1835     1.0  0.49112  0.11935  0.77320  1.0000
  H   H1836     1.0  0.49248  0.13482  0.74697  1.0000
  H   H1837     1.0  0.52896  0.09399  0.68022  1.0000
  H   H1838     1.0  0.52459  0.10176  0.64570  1.0000
  H   H1839     1.0  0.52970  0.11440  0.67966  1.0000
  H   H1840     1.0  0.46788  0.05256  0.67769  1.0000
  H   H1841     1.0  0.44701  0.05157  0.67713  1.0000
  H   H1842     1.0  0.45439  0.04540  0.64456  1.0000
  H   H1843     1.0  0.45302  0.12058  0.61061  1.0000
  H   H1844     1.0  0.47093  0.13855  0.60256  1.0000
  H   H1845     1.0  0.46900  0.11868  0.58928  1.0000
  N   N57       1.0  0.35982  0.08414  0.91106  1.0000
  C   C1042     1.0  0.37049  0.09250  0.88608  1.0000
  C   C1043     1.0  0.35671  0.09684  0.92932  1.0000
  C   C1044     1.0  0.36963  0.07743  0.93101  1.0000
  C   C1045     1.0  0.34376  0.07026  0.90031  1.0000
  C   C1046     1.0  0.33586  0.07197  0.86971  1.0000
  C   C1047     1.0  0.37730  0.08182  0.86813  1.0000
  H   H1846     1.0  0.37779  0.19084  0.50399  1.0000
  H   H1847     1.0  0.64641  0.15658  0.56244  1.0000
  H   H1848     1.0  0.33546  0.03862  0.62984  1.0000
  C   C1048     1.0  0.47147  0.11512  0.85788  1.0000
  C   C1049     1.0  0.38329  0.08914  0.83831  1.0000
  H   H1849     1.0  0.50075  0.12988  0.91663  1.0000
  H   H1850     1.0  0.38142  0.10350  0.89493  1.0000
  H   H1851     1.0  0.36389  0.09744  0.87022  1.0000
  H   H1852     1.0  0.34987  0.09136  0.94913  1.0000
  H   H1853     1.0  0.36873  0.10658  0.93803  1.0000
  H   H1854     1.0  0.38170  0.08741  0.93865  1.0000
  H   H1855     1.0  0.37266  0.06825  0.91855  1.0000
  H   H1856     1.0  0.34541  0.05856  0.89842  1.0000
  C   C1050     1.0  0.60791  0.04417  0.85421  1.0000
  H   H1857     1.0  0.34325  0.07067  0.85143  1.0000
  H   H1858     1.0  0.44826  0.11772  0.81637  1.0000
  H   H1859     1.0  0.38801  0.08107  0.88082  1.0000
  H   H1860     1.0  0.36790  0.06914  0.86395  1.0000
  H   H1861     1.0  0.37106  0.05341  0.54382  1.0000
  C   C1051     1.0  0.48169  0.07171  0.88129  1.0000
  H   H1862     1.0  0.35136  0.11045  0.89253  1.0000
  H   H1863     1.0  0.63805  0.09943  0.59888  1.0000
  C   C1052     1.0  0.35677  0.23274  0.61840  1.0000
  H   H1864     1.0  0.38534  0.16794  0.51879  1.0000
  H   H1865     1.0  0.63448  0.07117  0.87441  1.0000
  C   C1053     1.0  0.33400  0.13183  0.59036  1.0000
  H   H1866     1.0  0.35353  0.22720  0.49877  1.0000
  H   H1867     1.0  0.48945  0.07394  0.86182  1.0000
  C   C1054     1.0  0.31644  0.13116  0.58884  1.0000
  H   H1868     1.0  0.37276  0.08896  0.82369  1.0000
  H   H1869     1.0  0.35635  0.18800  0.55959  1.0000
  H   H1870     1.0  0.37942  0.06876  0.62868  1.0000
  H   H1871     1.0  0.47783  0.09930  0.94330  1.0000
  H   H1872     1.0  0.34657  0.22483  0.55920  1.0000
  C   C1055     1.0  0.44063  0.00485  0.68980  1.0000
  C   C1056     1.0  0.37465  0.09038  0.63082  1.0000
  H   H1873     1.0  0.44889  0.09187  0.95597  1.0000
  C   C1057     1.0  0.36494  0.18691  0.60443  1.0000
  H   H1874     1.0  0.64611  0.14763  0.69441  1.0000
  C   C1058     1.0  0.46717  0.11123  0.91082  1.0000
  H   H1875     1.0  0.45625  0.12861  0.86889  1.0000
  H   H1876     1.0  0.39848  0.03593  0.61150  1.0000
  C   C1059     1.0  0.48647  0.10165  0.88607  1.0000
  C   C1060     1.0  0.37290  0.17543  0.59472  1.0000
  H   H1877     1.0  0.47785  0.00169  0.73484  1.0000
  H   H1878     1.0  0.32637  0.21620  0.59152  1.0000
  C   C1061     1.0  0.36118  0.06882  0.95909  1.0000
  C   C1062     1.0  0.35065  0.05779  0.52489  1.0000
  C   C1063     1.0  0.32243  0.20306  0.58595  1.0000
  C   C1064     1.0  0.64455  0.14598  0.66982  1.0000
  H   H1879     1.0  0.50155  0.99843  0.75894  1.0000
  C   C1065     1.0  0.36322  0.21974  0.60917  1.0000
  H   H1880     1.0  0.64738  0.13722  0.56900  1.0000
  H   H1881     1.0  0.35973  0.04077  0.62089  1.0000
  N   N58       1.0  0.35465  0.05051  0.57954  1.0000
  C   C1066     1.0  0.38582  0.03454  0.61641  1.0000
  C   C1067     1.0  0.37071  0.05970  0.97391  1.0000
  H   H1882     1.0  0.63669  0.05374  0.88780  1.0000
  H   H1883     1.0  0.37633  0.22636  0.60329  1.0000
  H   H1884     1.0  0.38720  0.05537  0.59156  1.0000
  H   H1885     1.0  0.33191  0.18461  0.58189  1.0000
  H   H1886     1.0  0.35295  0.02643  0.59071  1.0000
  H   H1887     1.0  0.37324  0.19500  0.62261  1.0000
  H   H1888     1.0  0.63487  0.15012  0.66178  1.0000
  H   H1889     1.0  0.37357  0.16775  0.61343  1.0000
  C   C1068     1.0  0.35756  0.04868  0.54713  1.0000
  H   H1890     1.0  0.31865  0.20121  0.56190  1.0000
  H   H1891     1.0  0.60669  0.03692  0.87439  1.0000
  H   H1892     1.0  0.62788  0.03920  0.83794  1.0000
  N   N59       1.0  0.35352  0.20769  0.58423  1.0000
  H   H1893     1.0  0.34832  0.05984  0.95372  1.0000
  C   C1069     1.0  0.33632  0.19698  0.59305  1.0000
  H   H1894     1.0  0.42653  0.22802  0.48567  1.0000
  H   H1895     1.0  0.34462  0.22683  0.62826  1.0000
  H   H1896     1.0  0.37965  0.03632  0.57041  1.0000
  H   H1897     1.0  0.35885  0.06540  0.63749  1.0000
  H   H1898     1.0  0.34150  0.11477  0.95555  1.0000
  H   H1899     1.0  0.46122  0.99834  0.68611  1.0000
  S   S239      1.0  0.39241  0.22542  0.51679  1.0000
  H   H1900     1.0  0.45312  0.11318  0.96353  1.0000
  C   C1070     1.0  0.48748  0.01235  0.74727  1.0000
  C   C1071     1.0  0.39130  0.99100  0.71593  1.0000
  H   H1901     1.0  0.37035  0.04950  0.95908  1.0000
  H   H1902     1.0  0.33436  0.06814  0.91717  1.0000
  C   C1072     1.0  0.36346  0.06833  0.58945  1.0000
  H   H1903     1.0  0.42693  0.99945  0.68635  1.0000
  H   H1904     1.0  0.59899  0.03630  0.83642  1.0000
  H   H1905     1.0  0.62899  0.09435  0.91571  1.0000
  H   H1906     1.0  0.44573  0.01555  0.67553  1.0000
  H   H1907     1.0  0.41659  0.21509  0.98003  1.0000
  C   C1073     1.0  0.64131  0.10148  0.64683  1.0000
  C   C1074     1.0  0.35555  0.98931  0.75651  1.0000
  S   S240      1.0  0.64614  0.10640  0.70894  1.0000
  H   H1908     1.0  0.36628  0.22572  0.55258  1.0000
  C   C1075     1.0  0.57871  0.99894  0.75419  1.0000
  H   H1909     1.0  0.37529  0.20465  0.57069  1.0000
  C   C1076     1.0  0.33619  0.04455  0.58202  1.0000
  C   C1077     1.0  0.36890  0.07215  0.62297  1.0000
  C   C1078     1.0  0.36085  0.03953  0.59671  1.0000
  H   H1910     1.0  0.35548  0.07098  0.53136  1.0000
  H   H1911     1.0  0.51507  0.16326  0.88539  1.0000
  H   H1912     1.0  0.37788  0.02129  0.61767  1.0000
  C   C1079     1.0  0.64099  0.10629  0.87695  1.0000
  H   H1913     1.0  0.38652  0.04081  0.63825  1.0000
  H   H1914     1.0  0.33128  0.05244  0.56960  1.0000
  H   H1915     1.0  0.35604  0.20244  0.51900  1.0000
  H   H1916     1.0  0.36969  0.23851  0.66231  1.0000
  H   H1917     1.0  0.64047  0.14009  0.51621  1.0000
  C   C1080     1.0  0.45863  0.10399  0.96333  1.0000
  Fe  Fe120     1.0  0.40637  0.11743  0.49062  1.0000
  H   H1918     1.0  0.38569  0.18268  0.58832  1.0000
  C   C1081     1.0  0.34657  0.20638  0.52747  1.0000
  H   H1919     1.0  0.33335  0.09619  0.90982  1.0000
  H   H1920     1.0  0.34241  0.14287  0.60366  1.0000
  H   H1921     1.0  0.36566  0.16723  0.57567  1.0000
  H   H1922     1.0  0.64035  0.13273  0.66409  1.0000
  C   C1082     1.0  0.62545  0.05013  0.84362  1.0000
  C   C1083     1.0  0.31496  0.07831  0.52991  1.0000
  C   C1084     1.0  0.64027  0.10325  0.90754  1.0000
  S   S241      1.0  0.38935  0.13027  0.49701  1.0000
  H   H1923     1.0  0.31699  0.14260  0.57878  1.0000
  C   C1085     1.0  0.45188  0.16558  0.50773  1.0000
  H   H1924     1.0  0.53965  0.00123  0.80724  1.0000
  H   H1925     1.0  0.36919  0.06071  0.49249  1.0000
  H   H1926     1.0  0.31857  0.04631  0.86528  1.0000
  C   C1086     1.0  0.31565  0.23817  0.54718  1.0000
  H   H1927     1.0  0.64782  0.15272  0.61337  1.0000
  H   H1928     1.0  0.63761  0.02804  0.49079  1.0000
  H   H1929     1.0  0.34982  0.04316  0.48515  1.0000
  H   H1930     1.0  0.44580  0.21402  0.48645  1.0000
  S   S242      1.0  0.56359  0.46719  0.25741  1.0000
  Fe  Fe121     1.0  0.46930  0.39282  0.27944  1.0000
  S   S243      1.0  0.44935  0.38998  0.31081  1.0000
  S   S244      1.0  0.49144  0.41728  0.29250  1.0000
  Fe  Fe122     1.0  0.44778  0.35939  0.24863  1.0000
  S   S245      1.0  0.42686  0.35482  0.27868  1.0000
  S   S246      1.0  0.44372  0.33727  0.21749  1.0000
  Fe  Fe123     1.0  0.43139  0.38103  0.27144  1.0000
  S   S247      1.0  0.40835  0.38637  0.26917  1.0000
  Fe  Fe124     1.0  0.44599  0.36389  0.31664  1.0000
  S   S248      1.0  0.44303  0.35691  0.36597  1.0000
  S   S249      1.0  0.45117  0.38536  0.23895  1.0000
  S   S250      1.0  0.46710  0.36706  0.28741  1.0000
  S   S251      1.0  0.39010  0.47335  0.16038  1.0000
  Fe  Fe125     1.0  0.35917  0.46488  0.22225  1.0000
  S   S252      1.0  0.36035  0.44462  0.19290  1.0000
  S   S253      1.0  0.33889  0.46188  0.25498  1.0000
  Fe  Fe126     1.0  0.38793  0.45813  0.20037  1.0000
  S   S254      1.0  0.40767  0.44790  0.20133  1.0000
  Fe  Fe127     1.0  0.36232  0.46110  0.15448  1.0000
  S   S255      1.0  0.35346  0.45138  0.10601  1.0000
  S   S256      1.0  0.38688  0.47743  0.23218  1.0000
  C   C1087     1.0  0.46650  0.31383  0.02193  1.0000
  Fe  Fe128     1.0  0.41431  0.29769  0.04854  1.0000
  S   S257      1.0  0.39422  0.30189  0.02273  1.0000
  S   S258      1.0  0.43044  0.32061  0.07725  1.0000
  Fe  Fe129     1.0  0.40465  0.26429  0.01511  1.0000
  H   H1931     1.0  0.35028  0.29008  0.14159  1.0000
  H   H1932     1.0  0.35414  0.37258  0.06504  1.0000
  S   S259      1.0  0.40985  0.29471  0.44759  1.0000
  Fe  Fe130     1.0  0.37797  0.27573  0.03056  1.0000
  S   S260      1.0  0.35333  0.27309  0.04841  1.0000
  S   S261      1.0  0.42317  0.29009  0.00696  1.0000
  S   S262      1.0  0.39764  0.27180  0.05885  1.0000
  C   C1088     1.0  0.33668  0.25463  0.05642  1.0000
  C   C1089     1.0  0.34609  0.48369  0.03665  1.0000
  H   H1933     1.0  0.53507  0.47667  0.23907  1.0000
  C   C1090     1.0  0.33054  0.45021  0.28680  1.0000
  C   C1091     1.0  0.33756  0.44043  0.30073  1.0000
  H   H1934     1.0  0.32111  0.45384  0.10883  1.0000
  H   H1935     1.0  0.34838  0.43962  0.29198  1.0000
  C   C1092     1.0  0.32329  0.25546  0.07083  1.0000
  C   C1093     1.0  0.33570  0.44605  0.08053  1.0000
  C   C1094     1.0  0.33607  0.43948  0.05204  1.0000
  H   H1936     1.0  0.36181  0.32851  0.34458  1.0000
  H   H1937     1.0  0.34672  0.43719  0.04655  1.0000
  C   C1095     1.0  0.48430  0.45660  0.24771  1.0000
  C   C1096     1.0  0.43318  0.32482  0.11642  1.0000
  C   C1097     1.0  0.43093  0.31258  0.13682  1.0000
  C   C1098     1.0  0.43428  0.31669  0.16752  1.0000
  C   C1099     1.0  0.43937  0.33296  0.17844  1.0000
  C   C1100     1.0  0.44128  0.34516  0.15807  1.0000
  C   C1101     1.0  0.43846  0.34113  0.12727  1.0000
  H   H1938     1.0  0.42716  0.30003  0.12888  1.0000
  H   H1939     1.0  0.43304  0.30719  0.18298  1.0000
  H   H1940     1.0  0.44532  0.35774  0.16601  1.0000
  H   H1941     1.0  0.44034  0.35073  0.11174  1.0000
  C   C1102     1.0  0.43384  0.33936  0.38811  1.0000
  C   C1103     1.0  0.43455  0.34161  0.41925  1.0000
  C   C1104     1.0  0.42745  0.32820  0.43782  1.0000
  C   C1105     1.0  0.41947  0.31224  0.42552  1.0000
  C   C1106     1.0  0.41874  0.31003  0.39434  1.0000
  C   C1107     1.0  0.42588  0.32343  0.37580  1.0000
  H   H1942     1.0  0.44064  0.35383  0.42919  1.0000
  H   H1943     1.0  0.42812  0.33020  0.46165  1.0000
  H   H1944     1.0  0.41264  0.29780  0.38446  1.0000
  H   H1945     1.0  0.42535  0.32138  0.35203  1.0000
  C   C1108     1.0  0.40857  0.40400  0.25167  1.0000
  C   C1109     1.0  0.42227  0.41411  0.23676  1.0000
  C   C1110     1.0  0.42181  0.42761  0.22174  1.0000
  C   C1111     1.0  0.40777  0.43124  0.22179  1.0000
  C   C1112     1.0  0.39413  0.42125  0.23698  1.0000
  C   C1113     1.0  0.39453  0.40764  0.25181  1.0000
  H   H1946     1.0  0.43308  0.41135  0.23636  1.0000
  H   H1947     1.0  0.43238  0.43526  0.20993  1.0000
  H   H1948     1.0  0.38325  0.42392  0.23710  1.0000
  H   H1949     1.0  0.38389  0.39985  0.26329  1.0000
  C   C1114     1.0  0.54334  0.45370  0.26709  1.0000
  C   C1115     1.0  0.53581  0.45687  0.29160  1.0000
  C   C1116     1.0  0.51995  0.44564  0.29878  1.0000
  C   C1117     1.0  0.51128  0.43108  0.28156  1.0000
  C   C1118     1.0  0.51874  0.42796  0.25689  1.0000
  C   C1119     1.0  0.53469  0.43913  0.24990  1.0000
  H   H1950     1.0  0.54232  0.46789  0.30525  1.0000
  H   H1951     1.0  0.51439  0.44821  0.31798  1.0000
  H   H1952     1.0  0.51236  0.41684  0.24343  1.0000
  H   H1953     1.0  0.54039  0.43644  0.23100  1.0000
  H   H1954     1.0  0.39126  0.30243  0.30063  1.0000
  H   H1955     1.0  0.38166  0.43176  0.15374  1.0000
  H   H1956     1.0  0.48366  0.37245  0.06698  1.0000
  H   H1957     1.0  0.48079  0.42540  0.39078  1.0000
  C   C1120     1.0  0.31647  0.45109  0.29881  1.0000
  H   H1958     1.0  0.41550  0.37129  0.38218  1.0000
  C   C1121     1.0  0.37753  0.42424  0.13257  1.0000
  H   H1959     1.0  0.47730  0.33987  0.02822  1.0000
  H   H1960     1.0  0.34683  0.42864  0.41625  1.0000
  H   H1961     1.0  0.33547  0.39999  0.12745  1.0000
  C   C1122     1.0  0.38159  0.32378  0.42514  1.0000
  C   C1123     1.0  0.35784  0.46526  0.45597  1.0000
  C   C1124     1.0  0.39247  0.42953  0.11248  1.0000
  C   C1125     1.0  0.39520  0.34041  0.33004  1.0000
  C   C1126     1.0  0.31645  0.43250  0.33795  1.0000
  H   H1962     1.0  0.32282  0.39020  0.17485  1.0000
  C   C1127     1.0  0.45958  0.36212  0.04263  1.0000
  H   H1963     1.0  0.36376  0.47857  0.45194  1.0000
  H   H1964     1.0  0.52543  0.38514  0.44923  1.0000
  H   H1965     1.0  0.40213  0.42551  0.12108  1.0000
  H   H1966     1.0  0.36439  0.32927  0.39726  1.0000
  H   H1967     1.0  0.34526  0.42056  0.14281  1.0000
  N   N60       1.0  0.49898  0.38931  0.37065  1.0000
  C   C1128     1.0  0.48529  0.37241  0.36666  1.0000
  C   C1129     1.0  0.49138  0.40172  0.37080  1.0000
  C   C1130     1.0  0.50926  0.39231  0.34375  1.0000
  C   C1131     1.0  0.51007  0.39130  0.39831  1.0000
  C   C1132     1.0  0.50201  0.38125  0.42547  1.0000
  C   C1133     1.0  0.49072  0.35831  0.35960  1.0000
  C   C1134     1.0  0.52337  0.40964  0.34227  1.0000
  C   C1135     1.0  0.47958  0.40066  0.39570  1.0000
  C   C1136     1.0  0.51381  0.38664  0.45318  1.0000
  C   C1137     1.0  0.47674  0.34159  0.36369  1.0000
  C   C1138     1.0  0.53449  0.41033  0.31694  1.0000
  H   H1968     1.0  0.47639  0.37221  0.34831  1.0000
  H   H1969     1.0  0.47777  0.36910  0.38637  1.0000
  H   H1970     1.0  0.50109  0.41438  0.37299  1.0000
  H   H1971     1.0  0.48444  0.40089  0.34909  1.0000
  H   H1972     1.0  0.50119  0.39005  0.32293  1.0000
  H   H1973     1.0  0.51530  0.38357  0.34255  1.0000
  H   H1974     1.0  0.52045  0.38777  0.39340  1.0000
  H   H1975     1.0  0.51611  0.40445  0.40570  1.0000
  H   H1976     1.0  0.49889  0.36804  0.42103  1.0000
  H   H1977     1.0  0.49046  0.38240  0.43082  1.0000
  H   H1978     1.0  0.49399  0.35866  0.33605  1.0000
  H   H1979     1.0  0.50166  0.35937  0.37395  1.0000
  H   H1980     1.0  0.53123  0.41325  0.36325  1.0000
  H   H1981     1.0  0.51824  0.41890  0.33799  1.0000
  H   H1982     1.0  0.46955  0.38828  0.39655  1.0000
  H   H1983     1.0  0.46390  0.40965  0.36936  1.0000
  N   N61       1.0  0.51225  0.48015  0.23635  1.0000
  H   H1984     1.0  0.48090  0.33174  0.35821  1.0000
  H   H1985     1.0  0.47303  0.34036  0.38702  1.0000
  H   H1986     1.0  0.46580  0.33992  0.34869  1.0000
  H   H1987     1.0  0.54122  0.40237  0.32122  1.0000
  H   H1988     1.0  0.52705  0.40633  0.29551  1.0000
  H   H1989     1.0  0.54370  0.42311  0.31493  1.0000
  H   H1990     1.0  0.39385  0.36953  0.32544  1.0000
  C   C1139     1.0  0.33885  0.26435  0.15046  1.0000
  H   H1991     1.0  0.36268  0.25527  0.14667  1.0000
  H   H1992     1.0  0.32813  0.40991  0.46880  1.0000
  S   S263      1.0  0.35982  0.48081  0.18315  1.0000
  H   H1993     1.0  0.39130  0.31658  0.34779  1.0000
  H   H1994     1.0  0.40632  0.45385  0.13255  1.0000
  H   H1995     1.0  0.52300  0.46163  0.19286  1.0000
  H   H1996     1.0  0.46703  0.37403  0.08638  1.0000
  C   C1140     1.0  0.47135  0.41261  0.39083  1.0000
  N   N62       1.0  0.34187  0.45729  0.43721  1.0000
  C   C1141     1.0  0.33301  0.43931  0.44306  1.0000
  H   H1997     1.0  0.39312  0.32021  0.28020  1.0000
  C   C1142     1.0  0.39448  0.36592  0.34881  1.0000
  H   H1998     1.0  0.48666  0.40414  0.41748  1.0000
  H   H1999     1.0  0.41726  0.39719  0.33670  1.0000
  H   H2000     1.0  0.40975  0.32094  0.30588  1.0000
  H   H2001     1.0  0.33997  0.32480  0.30553  1.0000
  H   H2002     1.0  0.36840  0.42817  0.12120  1.0000
  H   H2003     1.0  0.35538  0.40204  0.09722  1.0000
  H   H2004     1.0  0.34238  0.34124  0.28103  1.0000
  H   H2005     1.0  0.34602  0.48305  0.39705  1.0000
  H   H2006     1.0  0.43215  0.39908  0.36672  1.0000
  N   N63       1.0  0.36972  0.40625  0.13910  1.0000
  H   H2007     1.0  0.44839  0.36481  0.04174  1.0000
  H   H2008     1.0  0.39242  0.41246  0.16671  1.0000
  C   C1143     1.0  0.34140  0.40750  0.14794  1.0000
  H   H2009     1.0  0.37467  0.39195  0.19673  1.0000
  C   C1144     1.0  0.33287  0.41086  0.44622  1.0000
  H   H2010     1.0  0.35484  0.45299  0.40038  1.0000
  H   H2011     1.0  0.46114  0.43533  0.24978  1.0000
  H   H2012     1.0  0.36584  0.48103  0.06140  1.0000
  H   H2013     1.0  0.47552  0.38738  0.05632  1.0000
  C   C1145     1.0  0.36401  0.34551  0.31029  1.0000
  H   H2014     1.0  0.55333  0.47785  0.19417  1.0000
  C   C1146     1.0  0.40062  0.44811  0.11049  1.0000
  H   H2015     1.0  0.36169  0.41177  0.18079  1.0000
  H   H2016     1.0  0.33621  0.42426  0.33660  1.0000
  H   H2017     1.0  0.33090  0.27533  0.48095  1.0000
  H   H2018     1.0  0.51937  0.47842  0.17730  1.0000
  H   H2019     1.0  0.33781  0.35702  0.08351  1.0000
  H   H2020     1.0  0.38749  0.37152  0.36166  1.0000
  C   C1147     1.0  0.38809  0.26473  0.13767  1.0000
  H   H2021     1.0  0.34628  0.48142  0.10532  1.0000
  C   C1148     1.0  0.34527  0.33832  0.30389  1.0000
  C   C1149     1.0  0.32293  0.43612  0.03027  1.0000
  H   H2022     1.0  0.35429  0.43320  0.45473  1.0000
  C   C1150     1.0  0.33620  0.23931  0.04801  1.0000
  H   H2023     1.0  0.33937  0.34364  0.31976  1.0000
  H   H2024     1.0  0.46873  0.43905  0.21307  1.0000
  C   C1151     1.0  0.41884  0.39319  0.35943  1.0000
  C   C1152     1.0  0.35290  0.37811  0.11198  1.0000
  C   C1153     1.0  0.34597  0.45855  0.40490  1.0000
  H   H2025     1.0  0.47830  0.43054  0.24054  1.0000
  H   H2026     1.0  0.34067  0.40378  0.44516  1.0000
  H   H2027     1.0  0.36284  0.34760  0.35801  1.0000
  H   H2028     1.0  0.32252  0.46474  0.42124  1.0000
  H   H2029     1.0  0.35088  0.39128  0.16803  1.0000
  H   H2030     1.0  0.49632  0.48311  0.20077  1.0000
  C   C1154     1.0  0.38935  0.34343  0.38271  1.0000
  C   C1155     1.0  0.34470  0.37043  0.08169  1.0000
  H   H2031     1.0  0.37326  0.31681  0.37964  1.0000
  H   H2032     1.0  0.32233  0.40533  0.42949  1.0000
  H   H2033     1.0  0.39279  0.32123  0.42352  1.0000
  N   N64       1.0  0.38674  0.34750  0.35087  1.0000
  H   H2034     1.0  0.36123  0.37212  0.11894  1.0000
  H   H2035     1.0  0.40980  0.30808  0.22011  1.0000
  H   H2036     1.0  0.45849  0.31155  0.04108  1.0000
  C   C1156     1.0  0.36301  0.39675  0.11003  1.0000
  H   H2037     1.0  0.39439  0.28781  0.22511  1.0000
  C   C1157     1.0  0.34806  0.47619  0.00716  1.0000
  H   H2038     1.0  0.41054  0.45150  0.09455  1.0000
  H   H2039     1.0  0.38347  0.24581  0.10281  1.0000
  H   H2040     1.0  0.31887  0.48431  0.47852  1.0000
  C   C1158     1.0  0.42514  0.34019  0.00023  1.0000
  H   H2041     1.0  0.37474  0.31596  0.32199  1.0000
  H   H2042     1.0  0.40161  0.34274  0.38617  1.0000
  H   H2043     1.0  0.39192  0.26609  0.16168  1.0000
  C   C1159     1.0  0.33061  0.43173  0.32613  1.0000
  H   H2044     1.0  0.34295  0.37527  0.12770  1.0000
  H   H2045     1.0  0.39985  0.33694  0.00627  1.0000
  H   H2046     1.0  0.35345  0.46705  0.01105  1.0000
  H   H2047     1.0  0.45665  0.34999  0.05216  1.0000
  C   C1160     1.0  0.41301  0.37459  0.35943  1.0000
  C   C1161     1.0  0.37606  0.32762  0.39466  1.0000
  H   H2048     1.0  0.32346  0.26728  0.07698  1.0000
  H   H2049     1.0  0.46707  0.37505  0.00280  1.0000
  H   H2050     1.0  0.32861  0.43741  0.46580  1.0000
  H   H2051     1.0  0.36294  0.46859  0.35372  1.0000
  H   H2052     1.0  0.33327  0.41054  0.19182  1.0000
  H   H2053     1.0  0.40846  0.34442  0.33738  1.0000
  H   H2054     1.0  0.33805  0.47946  0.44549  1.0000
  C   C1162     1.0  0.36852  0.34188  0.34231  1.0000
  C   C1163     1.0  0.32243  0.26617  0.15166  1.0000
  H   H2055     1.0  0.36630  0.26139  0.10941  1.0000
  H   H2056     1.0  0.32397  0.27704  0.16579  1.0000
  H   H2057     1.0  0.49767  0.45871  0.20823  1.0000
  H   H2058     1.0  0.36749  0.29292  0.18202  1.0000
  H   H2059     1.0  0.46298  0.41168  0.40894  1.0000
  C   C1164     1.0  0.34309  0.42870  0.43934  1.0000
  H   H2060     1.0  0.38878  0.30524  0.22513  1.0000
  H   H2061     1.0  0.33635  0.25267  0.13794  1.0000
  H   H2062     1.0  0.34302  0.46953  0.34758  1.0000
  H   H2063     1.0  0.38983  0.35343  0.39837  1.0000
  S   S264      1.0  0.38413  0.26727  0.98713  1.0000
  H   H2064     1.0  0.39532  0.34537  0.30754  1.0000
  H   H2065     1.0  0.36927  0.34008  0.29348  1.0000
  H   H2066     1.0  0.34314  0.26338  0.17357  1.0000
  H   H2067     1.0  0.36856  0.35887  0.30711  1.0000
  H   H2068     1.0  0.41342  0.35748  0.99781  1.0000
  C   C1165     1.0  0.35540  0.47550  0.35942  1.0000
  H   H2069     1.0  0.42837  0.34262  0.02428  1.0000
  C   C1166     1.0  0.47229  0.37482  0.06427  1.0000
  H   H2070     1.0  0.51678  0.39963  0.45951  1.0000
  H   H2071     1.0  0.39376  0.37570  0.16258  1.0000
  H   H2072     1.0  0.40024  0.24837  0.12937  1.0000
  C   C1167     1.0  0.37773  0.38761  0.17551  1.0000
  C   C1168     1.0  0.32810  0.40349  0.17053  1.0000
  H   H2073     1.0  0.39141  0.45296  0.10275  1.0000
  C   C1169     1.0  0.46620  0.36313  0.01122  1.0000
  H   H2074     1.0  0.38844  0.33478  0.10417  1.0000
  H   H2075     1.0  0.38431  0.33417  0.44135  1.0000
  C   C1170     1.0  0.39162  0.38193  0.18245  1.0000
  H   H2076     1.0  0.44633  0.32962  0.01984  1.0000
  C   C1171     1.0  0.38766  0.24825  0.12669  1.0000
  H   H2077     1.0  0.34855  0.27698  0.11058  1.0000
  H   H2078     1.0  0.39370  0.32011  0.08395  1.0000
  H   H2079     1.0  0.47824  0.33236  0.99122  1.0000
  H   H2080     1.0  0.36693  0.46035  0.44912  1.0000
  H   H2081     1.0  0.40328  0.39248  0.18956  1.0000
  H   H2082     1.0  0.38823  0.37322  0.20076  1.0000
  H   H2083     1.0  0.39017  0.39884  0.13620  1.0000
  C   C1172     1.0  0.52866  0.48243  0.22437  1.0000
  C   C1173     1.0  0.50090  0.46218  0.23225  1.0000
  C   C1174     1.0  0.35628  0.40394  0.16024  1.0000
  C   C1175     1.0  0.33061  0.46607  0.44176  1.0000
  C   C1176     1.0  0.37087  0.26521  0.13302  1.0000
  C   C1177     1.0  0.35196  0.27884  0.13482  1.0000
  C   C1178     1.0  0.38310  0.40177  0.15349  1.0000
  H   H2084     1.0  0.36673  0.37682  0.16699  1.0000
  H   H2085     1.0  0.37327  0.39805  0.09559  1.0000
  H   H2086     1.0  0.37168  0.31274  0.43356  1.0000
  H   H2087     1.0  0.33717  0.47369  0.04900  1.0000
  C   C1179     1.0  0.39610  0.31600  0.30187  1.0000
  H   H2088     1.0  0.36149  0.48811  0.35141  1.0000
  H   H2089     1.0  0.41180  0.39735  0.37490  1.0000
  H   H2090     1.0  0.32154  0.43384  0.42829  1.0000
  H   H2091     1.0  0.50733  0.45445  0.24050  1.0000
  H   H2092     1.0  0.48655  0.45629  0.27211  1.0000
  H   H2093     1.0  0.47807  0.46498  0.24329  1.0000
  N   N65       1.0  0.36978  0.28126  0.14071  1.0000
  C   C1180     1.0  0.38013  0.29399  0.11997  1.0000
  H   H2094     1.0  0.40299  0.32757  0.12084  1.0000
  C   C1181     1.0  0.38828  0.32152  0.32699  1.0000
  C   C1182     1.0  0.37468  0.28624  0.17319  1.0000
  C   C1183     1.0  0.39310  0.29747  0.18135  1.0000
  C   C1184     1.0  0.37740  0.31010  0.12007  1.0000
  H   H2095     1.0  0.47924  0.36441  0.01369  1.0000
  H   H2096     1.0  0.38834  0.42433  0.08954  1.0000
  C   C1185     1.0  0.39664  0.29972  0.21501  1.0000
  C   C1186     1.0  0.39152  0.32395  0.10635  1.0000
  H   H2097     1.0  0.37753  0.28898  0.09661  1.0000
  H   H2098     1.0  0.39352  0.29711  0.12429  1.0000
  H   H2099     1.0  0.54376  0.47561  0.15727  1.0000
  H   H2100     1.0  0.42064  0.37125  0.34410  1.0000
  C   C1187     1.0  0.47245  0.43933  0.23701  1.0000
  H   H2101     1.0  0.37135  0.27515  0.18671  1.0000
  H   H2102     1.0  0.39634  0.30983  0.17245  1.0000
  H   H2103     1.0  0.40156  0.29248  0.17225  1.0000
  H   H2104     1.0  0.36582  0.30811  0.10671  1.0000
  H   H2105     1.0  0.37624  0.31413  0.14294  1.0000
  H   H2106     1.0  0.39758  0.27446  0.12563  1.0000
  C   C1188     1.0  0.52774  0.47520  0.19249  1.0000
  H   H2107     1.0  0.46026  0.30425  0.00417  1.0000
  C   C1189     1.0  0.47026  0.33083  0.01014  1.0000
  H   H2108     1.0  0.51800  0.47505  0.28099  1.0000
  C   C1190     1.0  0.32176  0.44892  0.08709  1.0000
  C   C1191     1.0  0.35371  0.47610  0.39297  1.0000
  H   H2109     1.0  0.33461  0.45149  0.39056  1.0000
  H   H2110     1.0  0.50286  0.48335  0.27851  1.0000
  C   C1192     1.0  0.45412  0.33282  0.00046  1.0000
  H   H2111     1.0  0.42123  0.32687  0.99580  1.0000
  H   H2112     1.0  0.36625  0.48302  0.40358  1.0000
  H   H2113     1.0  0.33580  0.37565  0.07388  1.0000
  H   H2114     1.0  0.33177  0.25302  0.99179  1.0000
  C   C1193     1.0  0.32002  0.27851  0.48211  1.0000
  C   C1194     1.0  0.51463  0.48423  0.26935  1.0000
  H   H2115     1.0  0.32359  0.43133  0.00842  1.0000
  H   H2116     1.0  0.47820  0.31292  0.02956  1.0000
  H   H2117     1.0  0.31766  0.26743  0.12906  1.0000
  H   H2118     1.0  0.50789  0.37897  0.47198  1.0000
  H   H2119     1.0  0.32955  0.48147  0.14797  1.0000
  S   S265      1.0  0.41171  0.24262  0.00466  1.0000
  H   H2120     1.0  0.31795  0.40678  0.16169  1.0000
  C   C1195     1.0  0.31841  0.46031  0.46694  1.0000
  C   C1196     1.0  0.54478  0.48129  0.17976  1.0000
  H   H2121     1.0  0.44565  0.23975  0.46903  1.0000
  H   H2122     1.0  0.33573  0.46982  0.99528  1.0000
  C   C1197     1.0  0.41027  0.34432  0.99277  1.0000
  N   N66       1.0  0.45633  0.34935  0.98914  1.0000
  H   H2123     1.0  0.35610  0.48584  0.99287  1.0000
  S   S266      1.0  0.57013  0.47448  0.79469  1.0000
  Fe  Fe131     1.0  0.47803  0.39627  0.76755  1.0000
  S   S267      1.0  0.46709  0.39624  0.81173  1.0000
  S   S268      1.0  0.50220  0.41495  0.74945  1.0000
  Fe  Fe132     1.0  0.44468  0.36964  0.73991  1.0000
  S   S269      1.0  0.43153  0.36878  0.78209  1.0000
  S   S270      1.0  0.42910  0.35610  0.69778  1.0000
  Fe  Fe133     1.0  0.44501  0.39621  0.78468  1.0000
  S   S271      1.0  0.43563  0.41581  0.79498  1.0000
  Fe  Fe134     1.0  0.45435  0.36856  0.80596  1.0000
  S   S272      1.0  0.45355  0.34997  0.84186  1.0000
  S   S273      1.0  0.45621  0.39718  0.74113  1.0000
  S   S274      1.0  0.46719  0.36850  0.76334  1.0000
  S   S275      1.0  0.38563  0.46008  0.65890  1.0000
  Fe  Fe135     1.0  0.35936  0.46419  0.72107  1.0000
  S   S276      1.0  0.35114  0.44151  0.69121  1.0000
  S   S277      1.0  0.34522  0.46691  0.76128  1.0000
  Fe  Fe136     1.0  0.37752  0.44451  0.69803  1.0000
  S   S278      1.0  0.38281  0.42177  0.70135  1.0000
  Fe  Fe137     1.0  0.35963  0.45854  0.65317  1.0000
  S   S279      1.0  0.35038  0.45112  0.60393  1.0000
  S   S280      1.0  0.38550  0.46612  0.72997  1.0000
  H   H2124     1.0  0.49340  0.48209  0.74849  1.0000
  Fe  Fe138     1.0  0.40782  0.28536  0.56364  1.0000
  S   S281      1.0  0.39311  0.29485  0.53245  1.0000
  S   S282      1.0  0.42381  0.29790  0.60625  1.0000
  Fe  Fe139     1.0  0.39775  0.25253  0.52769  1.0000
  C   C1198     1.0  0.44704  0.43867  0.61301  1.0000
  C   C1199     1.0  0.35656  0.46399  0.49006  1.0000
  S   S283      1.0  0.40385  0.30915  0.94016  1.0000
  Fe  Fe140     1.0  0.37333  0.26908  0.53349  1.0000
  S   S284      1.0  0.34522  0.25993  0.52842  1.0000
  S   S285      1.0  0.41955  0.27702  0.52634  1.0000
  S   S286      1.0  0.38718  0.26021  0.56673  1.0000
  C   C1200     1.0  0.39303  0.43796  0.59572  1.0000
  C   C1201     1.0  0.48836  0.44833  0.74997  1.0000
  C   C1202     1.0  0.33003  0.39628  0.85485  1.0000
  C   C1203     1.0  0.33190  0.45295  0.78647  1.0000
  C   C1204     1.0  0.32452  0.43599  0.78068  1.0000
  H   H2125     1.0  0.32659  0.25104  0.63041  1.0000
  C   C1205     1.0  0.61350  0.47369  0.81119  1.0000
  H   H2126     1.0  0.47753  0.37851  0.90239  1.0000
  C   C1206     1.0  0.33221  0.44572  0.57953  1.0000
  Fe  Fe141     1.0  0.40237  0.29343  0.98148  1.0000
  C   C1207     1.0  0.58501  0.48282  0.67540  1.0000
  C   C1208     1.0  0.60453  0.46009  0.78761  1.0000
  C   C1209     1.0  0.58235  0.47132  0.70123  1.0000
  C   C1210     1.0  0.42500  0.31415  0.63134  1.0000
  C   C1211     1.0  0.41373  0.32152  0.62948  1.0000
  C   C1212     1.0  0.41518  0.33424  0.65004  1.0000
  C   C1213     1.0  0.42792  0.33986  0.67271  1.0000
  C   C1214     1.0  0.43916  0.33245  0.67466  1.0000
  C   C1215     1.0  0.43765  0.31966  0.65423  1.0000
  H   H2127     1.0  0.40391  0.31745  0.61215  1.0000
  H   H2128     1.0  0.40639  0.33983  0.64821  1.0000
  H   H2129     1.0  0.44919  0.33675  0.69153  1.0000
  H   H2130     1.0  0.44649  0.31413  0.65588  1.0000
  C   C1216     1.0  0.43948  0.33878  0.86904  1.0000
  C   C1217     1.0  0.44355  0.32806  0.88721  1.0000
  C   C1218     1.0  0.43296  0.31901  0.90910  1.0000
  C   C1219     1.0  0.41796  0.32038  0.91308  1.0000
  C   C1220     1.0  0.41386  0.33104  0.89483  1.0000
  C   C1221     1.0  0.42450  0.34018  0.87309  1.0000
  H   H2131     1.0  0.45500  0.32672  0.88430  1.0000
  H   H2132     1.0  0.43632  0.31082  0.92264  1.0000
  H   H2133     1.0  0.40232  0.33224  0.89753  1.0000
  H   H2134     1.0  0.42107  0.34828  0.85942  1.0000
  C   C1222     1.0  0.42090  0.41742  0.76898  1.0000
  C   C1223     1.0  0.41822  0.43187  0.76833  1.0000
  C   C1224     1.0  0.40661  0.43341  0.74759  1.0000
  C   C1225     1.0  0.39732  0.42033  0.72791  1.0000
  C   C1226     1.0  0.39978  0.40578  0.72893  1.0000
  C   C1227     1.0  0.41164  0.40437  0.74922  1.0000
  H   H2135     1.0  0.42521  0.44196  0.78370  1.0000
  H   H2136     1.0  0.40482  0.44468  0.74685  1.0000
  H   H2137     1.0  0.39265  0.39562  0.71368  1.0000
  H   H2138     1.0  0.41352  0.39313  0.74972  1.0000
  C   C1228     1.0  0.55049  0.45892  0.78226  1.0000
  C   C1229     1.0  0.54420  0.45737  0.75277  1.0000
  C   C1230     1.0  0.52953  0.44382  0.74323  1.0000
  C   C1231     1.0  0.52055  0.43190  0.76315  1.0000
  C   C1232     1.0  0.52663  0.43366  0.79278  1.0000
  C   C1233     1.0  0.54157  0.44697  0.80214  1.0000
  H   H2139     1.0  0.55086  0.46638  0.73712  1.0000
  H   H2140     1.0  0.52505  0.44258  0.72020  1.0000
  H   H2141     1.0  0.52008  0.42452  0.80831  1.0000
  H   H2142     1.0  0.54636  0.44789  0.82493  1.0000
  H   H2143     1.0  0.47798  0.46600  0.82974  1.0000
  N   N67       1.0  0.42850  0.44091  0.65417  1.0000
  C   C1234     1.0  0.41283  0.43396  0.63424  1.0000
  C   C1235     1.0  0.43036  0.42765  0.67259  1.0000
  C   C1236     1.0  0.42695  0.45359  0.67512  1.0000
  C   C1237     1.0  0.44358  0.44936  0.63679  1.0000
  H   H2144     1.0  0.60806  0.47530  0.70245  1.0000
  H   H2145     1.0  0.44347  0.43142  0.68083  1.0000
  H   H2146     1.0  0.42772  0.40996  0.63515  1.0000
  H   H2147     1.0  0.47427  0.35732  0.90283  1.0000
  H   H2148     1.0  0.44938  0.47062  0.79558  1.0000
  H   H2149     1.0  0.37978  0.46142  0.49949  1.0000
  H   H2150     1.0  0.33154  0.41115  0.72711  1.0000
  H   H2151     1.0  0.42515  0.38660  0.66586  1.0000
  H   H2152     1.0  0.59533  0.47410  0.76011  1.0000
  H   H2153     1.0  0.42333  0.42602  0.69291  1.0000
  H   H2154     1.0  0.41461  0.44862  0.68488  1.0000
  H   H2155     1.0  0.42751  0.46453  0.66298  1.0000
  H   H2156     1.0  0.44298  0.46026  0.62604  1.0000
  H   H2157     1.0  0.45491  0.45437  0.65186  1.0000
  H   H2158     1.0  0.41029  0.40434  0.65769  1.0000
  H   H2159     1.0  0.49245  0.42776  0.85443  1.0000
  H   H2160     1.0  0.42689  0.39861  0.69920  1.0000
  H   H2161     1.0  0.61146  0.45220  0.78669  1.0000
  H   H2162     1.0  0.55557  0.42571  0.77732  1.0000
  C   C1238     1.0  0.43828  0.47395  0.71911  1.0000
  C   C1239     1.0  0.49008  0.44084  0.81561  1.0000
  H   H2163     1.0  0.48021  0.48302  0.80685  1.0000
  C   C1240     1.0  0.33670  0.40177  0.72998  1.0000
  C   C1241     1.0  0.59602  0.46456  0.70374  1.0000
  H   H2164     1.0  0.43524  0.34403  0.95801  1.0000
  H   H2165     1.0  0.49375  0.44006  0.69270  1.0000
  H   H2166     1.0  0.39552  0.47109  0.80157  1.0000
  C   C1242     1.0  0.42403  0.41010  0.65818  1.0000
  H   H2167     1.0  0.45285  0.46484  0.69406  1.0000
  H   H2168     1.0  0.43874  0.45019  0.71733  1.0000
  S   S287      1.0  0.38303  0.26058  0.49468  1.0000
  N   N68       1.0  0.42110  0.30780  0.76225  1.0000
  C   C1243     1.0  0.41019  0.29675  0.78460  1.0000
  C   C1244     1.0  0.41982  0.29795  0.73395  1.0000
  C   C1245     1.0  0.43872  0.31375  0.77516  1.0000
  C   C1246     1.0  0.41710  0.32242  0.75585  1.0000
  C   C1247     1.0  0.39863  0.31981  0.75686  1.0000
  C   C1248     1.0  0.41221  0.30450  0.81647  1.0000
  C   C1249     1.0  0.45250  0.32360  0.75449  1.0000
  C   C1250     1.0  0.40276  0.29060  0.71665  1.0000
  C   C1251     1.0  0.39494  0.33261  0.73951  1.0000
  C   C1252     1.0  0.39776  0.29459  0.83505  1.0000
  C   C1253     1.0  0.46942  0.33063  0.77143  1.0000
  H   H2169     1.0  0.41275  0.28555  0.78670  1.0000
  H   H2170     1.0  0.39696  0.29201  0.77708  1.0000
  H   H2171     1.0  0.42825  0.30570  0.71757  1.0000
  H   H2172     1.0  0.42385  0.28785  0.73861  1.0000
  H   H2173     1.0  0.44143  0.30322  0.78282  1.0000
  H   H2174     1.0  0.44052  0.32186  0.79524  1.0000
  H   H2175     1.0  0.42412  0.33283  0.77184  1.0000
  H   H2176     1.0  0.42152  0.32718  0.73381  1.0000
  H   H2177     1.0  0.39557  0.32073  0.78022  1.0000
  H   H2178     1.0  0.38993  0.30773  0.74756  1.0000
  H   H2179     1.0  0.42367  0.30478  0.82815  1.0000
  H   H2180     1.0  0.41318  0.31727  0.81606  1.0000
  H   H2181     1.0  0.45004  0.33382  0.74498  1.0000
  H   H2182     1.0  0.45340  0.31567  0.73606  1.0000
  H   H2183     1.0  0.39287  0.28287  0.73075  1.0000
  H   H2184     1.0  0.39965  0.30058  0.70767  1.0000
  H   H2185     1.0  0.40538  0.26923  0.69733  1.0000
  H   H2186     1.0  0.39656  0.33126  0.71547  1.0000
  H   H2187     1.0  0.38196  0.33094  0.74216  1.0000
  H   H2188     1.0  0.40322  0.34516  0.74766  1.0000
  H   H2189     1.0  0.38604  0.29473  0.82538  1.0000
  H   H2190     1.0  0.39654  0.28175  0.83631  1.0000
  H   H2191     1.0  0.39997  0.30005  0.85799  1.0000
  H   H2192     1.0  0.47901  0.33796  0.75636  1.0000
  H   H2193     1.0  0.46951  0.33871  0.79049  1.0000
  H   H2194     1.0  0.47264  0.32061  0.77988  1.0000
  S   S288      1.0  0.36650  0.48159  0.68246  1.0000
  H   H2195     1.0  0.33399  0.47222  0.81791  1.0000
  H   H2196     1.0  0.47376  0.42562  0.70282  1.0000
  H   H2197     1.0  0.32461  0.38353  0.86241  1.0000
  H   H2198     1.0  0.48041  0.43582  0.75694  1.0000
  C   C1254     1.0  0.49869  0.44011  0.84540  1.0000
  H   H2199     1.0  0.50290  0.46750  0.81822  1.0000
  H   H2200     1.0  0.45401  0.36392  0.93168  1.0000
  H   H2201     1.0  0.48713  0.46305  0.71162  1.0000
  C   C1255     1.0  0.50058  0.47803  0.76499  1.0000
  H   H2202     1.0  0.45118  0.42983  0.62400  1.0000
  H   H2203     1.0  0.47516  0.44018  0.67475  1.0000
  H   H2204     1.0  0.39085  0.27540  0.67723  1.0000
  H   H2205     1.0  0.50039  0.44782  0.74593  1.0000
  H   H2206     1.0  0.61464  0.46823  0.83266  1.0000
  H   H2207     1.0  0.38093  0.25148  0.63333  1.0000
  C   C1256     1.0  0.48047  0.45061  0.71989  1.0000
  H   H2208     1.0  0.46736  0.44850  0.72227  1.0000
  H   H2209     1.0  0.46060  0.34060  0.94652  1.0000
  H   H2210     1.0  0.46483  0.44673  0.78380  1.0000
  H   H2211     1.0  0.51131  0.45728  0.79477  1.0000
  H   H2212     1.0  0.62602  0.46387  0.69904  1.0000
  C   C1257     1.0  0.32466  0.24915  0.97005  1.0000
  C   C1258     1.0  0.36850  0.24489  0.64198  1.0000
  H   H2213     1.0  0.58498  0.47638  0.65410  1.0000
  H   H2214     1.0  0.51185  0.44248  0.84273  1.0000
  H   H2215     1.0  0.54959  0.41583  0.74076  1.0000
  C   C1259     1.0  0.51745  0.48086  0.75206  1.0000
  N   N69       1.0  0.49044  0.46087  0.77435  1.0000
  H   H2216     1.0  0.37959  0.47734  0.81271  1.0000
  N   N70       1.0  0.59626  0.45503  0.73108  1.0000
  C   C1260     1.0  0.57872  0.44309  0.73567  1.0000
  H   H2217     1.0  0.39110  0.44689  0.58080  1.0000
  C   C1261     1.0  0.60312  0.46719  0.75706  1.0000
  H   H2218     1.0  0.63497  0.43879  0.73329  1.0000
  C   C1262     1.0  0.57627  0.42705  0.75163  1.0000
  C   C1263     1.0  0.55843  0.41822  0.76040  1.0000
  C   C1264     1.0  0.48081  0.43836  0.69613  1.0000
  H   H2219     1.0  0.57210  0.44939  0.74769  1.0000
  H   H2220     1.0  0.57167  0.43867  0.71388  1.0000
  C   C1265     1.0  0.37362  0.46950  0.50613  1.0000
  H   H2221     1.0  0.47714  0.43863  0.81986  1.0000
  H   H2222     1.0  0.52552  0.47784  0.76825  1.0000
  H   H2223     1.0  0.49099  0.37239  0.92577  1.0000
  H   H2224     1.0  0.57896  0.41864  0.73640  1.0000
  C   C1266     1.0  0.44011  0.46003  0.70163  1.0000
  H   H2225     1.0  0.58445  0.42916  0.77195  1.0000
  H   H2226     1.0  0.58214  0.47811  0.72179  1.0000
  H   H2227     1.0  0.55669  0.40633  0.77008  1.0000
  H   H2228     1.0  0.44119  0.48480  0.70519  1.0000
  H   H2229     1.0  0.44417  0.40397  0.67571  1.0000
  C   C1267     1.0  0.47805  0.36874  0.91680  1.0000
  H   H2230     1.0  0.48993  0.43067  0.80096  1.0000
  H   H2231     1.0  0.42549  0.47014  0.72641  1.0000
  H   H2232     1.0  0.41068  0.45724  0.62385  1.0000
  C   C1268     1.0  0.41001  0.44594  0.61234  1.0000
  H   H2233     1.0  0.44785  0.45421  0.82007  1.0000
  H   H2234     1.0  0.46794  0.46402  0.76269  1.0000
  H   H2235     1.0  0.45522  0.47498  0.83462  1.0000
  H   H2236     1.0  0.32027  0.39863  0.84190  1.0000
  C   C1269     1.0  0.47354  0.45972  0.78153  1.0000
  H   H2237     1.0  0.49805  0.44930  0.86160  1.0000
  H   H2238     1.0  0.31629  0.27107  0.52680  1.0000
  H   H2239     1.0  0.41221  0.42345  0.62012  1.0000
  C   C1270     1.0  0.40299  0.27993  0.68996  1.0000
  N   N71       1.0  0.36528  0.42014  0.80222  1.0000
  C   C1271     1.0  0.37435  0.40899  0.80224  1.0000
  C   C1272     1.0  0.35677  0.41880  0.77185  1.0000
  C   C1273     1.0  0.37800  0.43755  0.80694  1.0000
  C   C1274     1.0  0.35310  0.41660  0.82632  1.0000
  C   C1275     1.0  0.34453  0.39858  0.83566  1.0000
  C   C1276     1.0  0.38668  0.41128  0.82928  1.0000
  C   C1277     1.0  0.37131  0.45116  0.80530  1.0000
  C   C1278     1.0  0.34298  0.40194  0.76219  1.0000
  H   H2240     1.0  0.33224  0.39930  0.77606  1.0000
  H   H2241     1.0  0.37226  0.46877  0.53052  1.0000
  C   C1279     1.0  0.39170  0.39682  0.83144  1.0000
  C   C1280     1.0  0.38465  0.46786  0.81536  1.0000
  H   H2242     1.0  0.38159  0.41078  0.78209  1.0000
  H   H2243     1.0  0.36566  0.39594  0.80037  1.0000
  H   H2244     1.0  0.35074  0.42749  0.77028  1.0000
  H   H2245     1.0  0.36608  0.42245  0.75463  1.0000
  H   H2246     1.0  0.38764  0.44027  0.79043  1.0000
  H   H2247     1.0  0.38458  0.43927  0.82919  1.0000
  H   H2248     1.0  0.35920  0.42382  0.84717  1.0000
  H   H2249     1.0  0.34330  0.42095  0.81980  1.0000
  H   H2250     1.0  0.35344  0.39513  0.84891  1.0000
  H   H2251     1.0  0.31947  0.45630  0.60671  1.0000
  H   H2252     1.0  0.39816  0.42243  0.82680  1.0000
  H   H2253     1.0  0.38135  0.41268  0.85039  1.0000
  H   H2254     1.0  0.36067  0.44857  0.81940  1.0000
  H   H2255     1.0  0.36732  0.45229  0.78215  1.0000
  H   H2256     1.0  0.34739  0.39199  0.76379  1.0000
  H   H2257     1.0  0.43598  0.43191  0.59801  1.0000
  H   H2258     1.0  0.61540  0.47681  0.75249  1.0000
  H   H2259     1.0  0.35091  0.47218  0.49840  1.0000
  C   C1281     1.0  0.31902  0.44988  0.58592  1.0000
  H   H2260     1.0  0.39209  0.42712  0.58209  1.0000
  H   H2261     1.0  0.33418  0.40477  0.87473  1.0000
  H   H2262     1.0  0.59446  0.45685  0.68318  1.0000
  H   H2263     1.0  0.39707  0.39507  0.81055  1.0000
  H   H2264     1.0  0.40122  0.39925  0.84994  1.0000
  H   H2265     1.0  0.38087  0.38541  0.83574  1.0000
  H   H2266     1.0  0.45729  0.45797  0.58148  1.0000
  H   H2267     1.0  0.47246  0.45594  0.60770  1.0000
  H   H2268     1.0  0.34726  0.26412  0.59304  1.0000
  H   H2269     1.0  0.56992  0.46126  0.69711  1.0000
  C   C1282     1.0  0.46091  0.44913  0.59378  1.0000
  H   H2270     1.0  0.62912  0.43747  0.69395  1.0000
  C   C1283     1.0  0.60704  0.44593  0.72545  1.0000
  H   H2271     1.0  0.32481  0.26016  0.95877  1.0000
  H   H2272     1.0  0.38302  0.43409  0.61155  1.0000
  H   H2273     1.0  0.32636  0.43105  0.75981  1.0000
  H   H2274     1.0  0.40189  0.42885  0.64806  1.0000
  H   H2275     1.0  0.44698  0.47758  0.73906  1.0000
  Fe  Fe142     1.0  0.39224  0.48203  0.69003  1.0000
  H   H2276     1.0  0.41945  0.44950  0.59549  1.0000
  C   C1284     1.0  0.43049  0.39924  0.67589  1.0000
  H   H2277     1.0  0.33974  0.38980  0.81644  1.0000
  H   H2278     1.0  0.41264  0.28711  0.67482  1.0000
  C   C1285     1.0  0.32351  0.24739  0.60716  1.0000
  H   H2279     1.0  0.51573  0.47331  0.73138  1.0000
  H   H2280     1.0  0.46340  0.44113  0.57735  1.0000
  H   H2281     1.0  0.59199  0.45302  0.79535  1.0000
  H   H2282     1.0  0.47085  0.37797  0.95535  1.0000
  C   C1286     1.0  0.33527  0.25473  0.58607  1.0000
  C   C1287     1.0  0.33135  0.43745  0.55216  1.0000
  H   H2283     1.0  0.34138  0.43407  0.54695  1.0000
  H   H2284     1.0  0.60150  0.43703  0.70626  1.0000
  H   H2285     1.0  0.60752  0.43840  0.74448  1.0000
  C   C1288     1.0  0.49936  0.45742  0.80098  1.0000
  C   C1289     1.0  0.46644  0.36631  0.94204  1.0000
  H   H2286     1.0  0.32679  0.38959  0.72367  1.0000
  H   H2287     1.0  0.34686  0.40420  0.71474  1.0000
  H   H2288     1.0  0.47892  0.35380  0.96697  1.0000
  C   C1290     1.0  0.45524  0.46721  0.81516  1.0000
  C   C1291     1.0  0.46587  0.35184  0.96134  1.0000
  C   C1292     1.0  0.62527  0.45662  0.71907  1.0000
  H   H2289     1.0  0.57490  0.48719  0.67375  1.0000
  C   C1293     1.0  0.32855  0.45914  0.81318  1.0000
  C   C1294     1.0  0.33140  0.25011  0.55598  1.0000
  H   H2290     1.0  0.44717  0.32307  0.98316  1.0000
  H   H2291     1.0  0.36354  0.25408  0.64801  1.0000
  C   C1295     1.0  0.63480  0.44598  0.71350  1.0000
  H   H2292     1.0  0.60638  0.48130  0.81459  1.0000
  C   C1296     1.0  0.47298  0.46975  0.80955  1.0000
  H   H2293     1.0  0.62610  0.48161  0.80462  1.0000
  H   H2294     1.0  0.63171  0.46510  0.73825  1.0000
  H   H2295     1.0  0.38861  0.46790  0.83910  1.0000
  H   H2296     1.0  0.35577  0.23992  0.59930  1.0000
  C   C1297     1.0  0.31827  0.44863  0.83393  1.0000
  H   H2297     1.0  0.38150  0.48236  0.50115  1.0000
  H   H2298     1.0  0.34924  0.45133  0.49658  1.0000
  H   H2299     1.0  0.32451  0.45954  0.48842  1.0000
  H   H2300     1.0  0.40615  0.34140  0.96891  1.0000
  C   C1298     1.0  0.43970  0.34966  0.98072  1.0000
  H   H2301     1.0  0.44087  0.36252  0.97951  1.0000
  Fe  Fe143     1.0  0.40392  0.28554  0.49538  1.0000
  H   H2302     1.0  0.31699  0.42666  0.51110  1.0000
  C   C1299     1.0  0.31755  0.43332  0.53162  1.0000
  H   H2303     1.0  0.33092  0.24323  0.95622  1.0000
  H   H2304     1.0  0.50340  0.48686  0.78427  1.0000
  H   H2305     1.0  0.31598  0.45368  0.85435  1.0000
  H   H2306     1.0  0.32457  0.29178  0.48809  1.0000
  H   H2307     1.0  0.64778  0.45390  0.70895  1.0000
  Fe  Fe144     1.0  0.57857  0.52808  0.25499  1.0000
  S   S289      1.0  0.58065  0.50936  0.22371  1.0000
  S   S290      1.0  0.55768  0.53654  0.24935  1.0000
  Fe  Fe145     1.0  0.60458  0.52624  0.30058  1.0000
  S   S291      1.0  0.60810  0.50672  0.27240  1.0000
  S   S292      1.0  0.61536  0.54026  0.34570  1.0000
  Fe  Fe146     1.0  0.60822  0.52238  0.23315  1.0000
  S   S293      1.0  0.62563  0.52436  0.19543  1.0000
  H   H2308     1.0  0.38018  0.51127  0.12216  1.0000
  S   S294      1.0  0.60602  0.54233  0.26160  1.0000
  S   S295      1.0  0.57670  0.51302  0.29517  1.0000
  Fe  Fe147     1.0  0.51733  0.62353  0.21758  1.0000
  S   S296      1.0  0.53888  0.63318  0.18821  1.0000
  S   S297      1.0  0.51230  0.63573  0.25882  1.0000
  Fe  Fe148     1.0  0.49981  0.59091  0.18081  1.0000
  S   S298      1.0  0.52048  0.59824  0.14937  1.0000
  S   S299      1.0  0.47976  0.56445  0.17474  1.0000
  Fe  Fe149     1.0  0.53778  0.60746  0.18985  1.0000
  S   S300      1.0  0.56117  0.60287  0.19514  1.0000
  Fe  Fe150     1.0  0.52007  0.62336  0.14933  1.0000
  S   S301      1.0  0.51717  0.63435  0.10433  1.0000
  S   S302      1.0  0.51747  0.59853  0.22143  1.0000
  S   S303      1.0  0.49831  0.61544  0.17868  1.0000
  Fe  Fe151     1.0  0.56679  0.69433  0.40463  1.0000
  S   S304      1.0  0.58264  0.68952  0.44055  1.0000
  S   S305      1.0  0.56523  0.68022  0.36057  1.0000
  Fe  Fe152     1.0  0.56578  0.72313  0.44202  1.0000
  H   H2309     1.0  0.53353  0.54971  0.24047  1.0000
  Fe  Fe153     1.0  0.59714  0.71669  0.44381  1.0000
  C   C1300     1.0  0.51582  0.50686  0.20887  1.0000
  C   C1301     1.0  0.53022  0.50279  0.31357  1.0000
  S   S306      1.0  0.56386  0.68778  0.01715  1.0000
  S   S307      1.0  0.58225  0.72162  0.40653  1.0000
  S   S308      1.0  0.54897  0.69594  0.43769  1.0000
  H   H2310     1.0  0.63627  0.55982  0.07890  1.0000
  S   S309      1.0  0.40253  0.51988  0.18823  1.0000
  C   C1302     1.0  0.45829  0.55243  0.17950  1.0000
  C   C1303     1.0  0.44678  0.55936  0.18264  1.0000
  C   C1304     1.0  0.42988  0.54924  0.18545  1.0000
  C   C1305     1.0  0.42416  0.53203  0.18532  1.0000
  C   C1306     1.0  0.43569  0.52512  0.18228  1.0000
  C   C1307     1.0  0.45258  0.53524  0.17926  1.0000
  H   H2311     1.0  0.45081  0.57248  0.18229  1.0000
  H   H2312     1.0  0.42111  0.55478  0.18761  1.0000
  H   H2313     1.0  0.43159  0.51195  0.18202  1.0000
  H   H2314     1.0  0.46128  0.52966  0.17674  1.0000
  C   C1308     1.0  0.52712  0.64787  0.28722  1.0000
  C   C1309     1.0  0.54385  0.65070  0.28692  1.0000
  C   C1310     1.0  0.55520  0.66050  0.30970  1.0000
  C   C1311     1.0  0.55004  0.66761  0.33312  1.0000
  C   C1312     1.0  0.53328  0.66466  0.33360  1.0000
  C   C1313     1.0  0.52192  0.65484  0.31078  1.0000
  H   H2315     1.0  0.54805  0.64537  0.26908  1.0000
  H   H2316     1.0  0.56809  0.66256  0.30921  1.0000
  H   H2317     1.0  0.52910  0.67002  0.35141  1.0000
  H   H2318     1.0  0.50902  0.65276  0.31129  1.0000
  C   C1314     1.0  0.53068  0.64893  0.08024  1.0000
  C   C1315     1.0  0.52467  0.65011  0.05123  1.0000
  C   C1316     1.0  0.53467  0.66161  0.03149  1.0000
  C   C1317     1.0  0.55081  0.67242  0.04061  1.0000
  C   C1318     1.0  0.55684  0.67121  0.06958  1.0000
  C   C1319     1.0  0.54693  0.65951  0.08918  1.0000
  H   H2319     1.0  0.51218  0.64200  0.04389  1.0000
  H   H2320     1.0  0.52993  0.66210  0.00917  1.0000
  H   H2321     1.0  0.56930  0.67940  0.07696  1.0000
  H   H2322     1.0  0.55182  0.65884  0.11132  1.0000
  H   H2323     1.0  0.60227  0.59756  0.36859  1.0000
  C   C1320     1.0  0.40905  0.51193  0.11161  1.0000
  C   C1321     1.0  0.50623  0.51701  0.19899  1.0000
  C   C1322     1.0  0.63219  0.54251  0.37168  1.0000
  H   H2324     1.0  0.64606  0.53800  0.47894  1.0000
  H   H2325     1.0  0.50027  0.51992  0.21808  1.0000
  H   H2326     1.0  0.58693  0.71332  0.33937  1.0000
  H   H2327     1.0  0.62598  0.52444  0.43682  1.0000
  C   C1323     1.0  0.55886  0.55463  0.23262  1.0000
  C   C1324     1.0  0.57340  0.56560  0.22103  1.0000
  C   C1325     1.0  0.57393  0.58029  0.20920  1.0000
  C   C1326     1.0  0.55990  0.58397  0.20861  1.0000
  C   C1327     1.0  0.54528  0.57278  0.21959  1.0000
  C   C1328     1.0  0.54481  0.55822  0.23167  1.0000
  H   H2328     1.0  0.58421  0.56281  0.22137  1.0000
  H   H2329     1.0  0.58524  0.58886  0.20054  1.0000
  H   H2330     1.0  0.53440  0.57543  0.21900  1.0000
  H   H2331     1.0  0.62171  0.57488  0.28185  1.0000
  N   N72       1.0  0.53814  0.72506  0.03181  1.0000
  C   C1329     1.0  0.61634  0.59504  0.33096  1.0000
  H   H2332     1.0  0.51576  0.57075  0.26439  1.0000
  H   H2333     1.0  0.52672  0.61504  0.04497  1.0000
  H   H2334     1.0  0.54999  0.49480  0.17795  1.0000
  H   H2335     1.0  0.50571  0.55128  0.24455  1.0000
  H   H2336     1.0  0.40728  0.50304  0.12936  1.0000
  H   H2337     1.0  0.52546  0.51426  0.22576  1.0000
  H   H2338     1.0  0.49437  0.62439  0.34340  1.0000
  C   C1330     1.0  0.34640  0.50334  0.12706  1.0000
  H   H2339     1.0  0.49929  0.55195  0.12671  1.0000
  H   H2340     1.0  0.50352  0.55269  0.28393  1.0000
  H   H2341     1.0  0.52347  0.51095  0.27285  1.0000
  S   S310      1.0  0.62521  0.72601  0.44970  1.0000
  C   C1331     1.0  0.62859  0.71298  0.29627  1.0000
  H   H2342     1.0  0.62763  0.52880  0.01891  1.0000
  H   H2343     1.0  0.63263  0.55932  0.18791  1.0000
  C   C1332     1.0  0.52298  0.69392  0.01569  1.0000
  N   N73       1.0  0.61174  0.70891  0.30809  1.0000
  H   H2344     1.0  0.49664  0.51031  0.18118  1.0000
  H   H2345     1.0  0.47739  0.53907  0.12414  1.0000
  H   H2346     1.0  0.60299  0.53167  0.02274  1.0000
  H   H2347     1.0  0.46402  0.56183  0.04372  1.0000
  C   C1333     1.0  0.52768  0.50134  0.27971  1.0000
  C   C1334     1.0  0.60868  0.69708  0.33300  1.0000
  C   C1335     1.0  0.61037  0.72466  0.31710  1.0000
  H   H2348     1.0  0.58542  0.51999  0.09730  1.0000
  H   H2349     1.0  0.51619  0.58272  0.07745  1.0000
  H   H2350     1.0  0.45886  0.56293  0.98770  1.0000
  H   H2351     1.0  0.61600  0.57638  0.22741  1.0000
  C   C1336     1.0  0.52608  0.71919  0.11466  1.0000
  H   H2352     1.0  0.61472  0.68852  0.32886  1.0000
  C   C1337     1.0  0.58478  0.67716  0.24517  1.0000
  H   H2353     1.0  0.63005  0.70164  0.28950  1.0000
  H   H2354     1.0  0.45287  0.61008  0.21618  1.0000
  C   C1338     1.0  0.62691  0.55994  0.00430  1.0000
  H   H2355     1.0  0.47220  0.61355  0.34008  1.0000
  H   H2356     1.0  0.37245  0.49894  0.04005  1.0000
  H   H2357     1.0  0.58158  0.54354  0.34473  1.0000
  H   H2358     1.0  0.41061  0.52390  0.12185  1.0000
  H   H2359     1.0  0.56104  0.54266  0.34836  1.0000
  H   H2360     1.0  0.55676  0.71913  0.01150  1.0000
  H   H2361     1.0  0.58519  0.66589  0.23515  1.0000
  C   C1339     1.0  0.47272  0.59517  0.11365  1.0000
  H   H2362     1.0  0.62190  0.68568  0.38117  1.0000
  C   C1340     1.0  0.61265  0.52040  0.44052  1.0000
  C   C1341     1.0  0.46976  0.58704  0.08196  1.0000
  H   H2363     1.0  0.41439  0.54411  0.28293  1.0000
  H   H2364     1.0  0.62668  0.71406  0.36717  1.0000
  C   C1342     1.0  0.61314  0.69120  0.38682  1.0000
  H   H2365     1.0  0.63931  0.51185  0.04740  1.0000
  C   C1343     1.0  0.36699  0.51931  0.07560  1.0000
  H   H2366     1.0  0.46500  0.60080  0.19872  1.0000
  C   C1344     1.0  0.48875  0.54397  0.11150  1.0000
  C   C1345     1.0  0.63591  0.54076  0.02988  1.0000
  H   H2367     1.0  0.61526  0.60599  0.27371  1.0000
  H   H2368     1.0  0.58625  0.69680  0.29092  1.0000
  C   C1346     1.0  0.62432  0.58694  0.27230  1.0000
  H   H2369     1.0  0.63708  0.50975  0.46372  1.0000
  H   H2370     1.0  0.62942  0.56177  0.39725  1.0000
  H   H2371     1.0  0.35569  0.54454  0.08014  1.0000
  H   H2372     1.0  0.52399  0.70913  0.13023  1.0000
  H   H2373     1.0  0.59907  0.67614  0.28441  1.0000
  H   H2374     1.0  0.39689  0.51519  0.07180  1.0000
  N   N74       1.0  0.62668  0.55167  0.03339  1.0000
  Fe  Fe154     1.0  0.58011  0.49485  0.26425  1.0000
  H   H2375     1.0  0.60039  0.68149  0.38636  1.0000
  H   H2376     1.0  0.63835  0.52381  0.35177  1.0000
  H   H2377     1.0  0.57289  0.67367  0.25600  1.0000
  C   C1347     1.0  0.48237  0.56811  0.09585  1.0000
  H   H2378     1.0  0.58263  0.53597  0.07703  1.0000
  Fe  Fe155     1.0  0.56599  0.69288  0.47396  1.0000
  C   C1348     1.0  0.63694  0.58966  0.08781  1.0000
  H   H2379     1.0  0.53312  0.69280  0.00355  1.0000
  H   H2380     1.0  0.59992  0.70966  0.26520  1.0000
  H   H2381     1.0  0.36965  0.52702  0.09646  1.0000
  H   H2382     1.0  0.47010  0.56225  0.10569  1.0000
  H   H2383     1.0  0.33669  0.49195  0.08428  1.0000
  C   C1349     1.0  0.48637  0.55355  0.08522  1.0000
  C   C1350     1.0  0.47541  0.58309  0.01719  1.0000
  C   C1351     1.0  0.62714  0.58580  0.23930  1.0000
  H   H2384     1.0  0.53895  0.60332  0.05165  1.0000
  H   H2385     1.0  0.61655  0.69666  0.40973  1.0000
  H   H2386     1.0  0.49142  0.53353  0.10336  1.0000
  C   C1352     1.0  0.63541  0.56497  0.05701  1.0000
  H   H2387     1.0  0.62488  0.58879  0.32866  1.0000
  C   C1353     1.0  0.61399  0.70445  0.36516  1.0000
  H   H2388     1.0  0.55064  0.70951  0.04522  1.0000
  C   C1354     1.0  0.60575  0.53346  0.07010  1.0000
  H   H2389     1.0  0.64617  0.54634  0.01480  1.0000
  H   H2390     1.0  0.51489  0.52873  0.19023  1.0000
  N   N75       1.0  0.60247  0.58887  0.30705  1.0000
  C   C1355     1.0  0.59178  0.59836  0.30974  1.0000
  H   H2391     1.0  0.63972  0.56899  0.00073  1.0000
  C   C1356     1.0  0.47097  0.57358  0.98729  1.0000
  C   C1357     1.0  0.59280  0.57054  0.30849  1.0000
  C   C1358     1.0  0.57773  0.56467  0.32835  1.0000
  C   C1359     1.0  0.57879  0.59556  0.28349  1.0000
  H   H2392     1.0  0.63582  0.59551  0.38167  1.0000
  C   C1360     1.0  0.61138  0.59242  0.36351  1.0000
  C   C1361     1.0  0.60888  0.54175  0.03978  1.0000
  H   H2393     1.0  0.48466  0.56619  0.03545  1.0000
  C   C1362     1.0  0.56571  0.60184  0.29127  1.0000
  H   H2394     1.0  0.58473  0.72033  0.30297  1.0000
  H   H2395     1.0  0.59964  0.61176  0.31141  1.0000
  H   H2396     1.0  0.58522  0.59582  0.33060  1.0000
  H   H2397     1.0  0.52219  0.50500  0.18942  1.0000
  C   C1363     1.0  0.61015  0.59257  0.27731  1.0000
  H   H2398     1.0  0.60807  0.50438  0.47786  1.0000
  H   H2399     1.0  0.60053  0.58689  0.25897  1.0000
  H   H2400     1.0  0.58777  0.56488  0.28598  1.0000
  H   H2401     1.0  0.60120  0.56461  0.31587  1.0000
  H   H2402     1.0  0.56727  0.56671  0.31735  1.0000
  H   H2403     1.0  0.58051  0.57117  0.35027  1.0000
  H   H2404     1.0  0.58496  0.60224  0.26390  1.0000
  H   H2405     1.0  0.57242  0.58242  0.27677  1.0000
  H   H2406     1.0  0.60705  0.49532  0.42537  1.0000
  H   H2407     1.0  0.58955  0.50104  0.42282  1.0000
  C   C1364     1.0  0.62645  0.60063  0.38520  1.0000
  H   H2408     1.0  0.60625  0.57915  0.36792  1.0000
  H   H2409     1.0  0.50621  0.66903  0.00231  1.0000
  H   H2410     1.0  0.48388  0.60686  0.11471  1.0000
  H   H2411     1.0  0.56733  0.53930  0.31243  1.0000
  H   H2412     1.0  0.51017  0.58472  0.03922  1.0000
  H   H2413     1.0  0.57158  0.61509  0.29770  1.0000
  H   H2414     1.0  0.55707  0.60014  0.27156  1.0000
  H   H2415     1.0  0.55847  0.59492  0.30972  1.0000
  C   C1365     1.0  0.58733  0.52618  0.07577  1.0000
  H   H2416     1.0  0.37847  0.52480  0.06351  1.0000
  H   H2417     1.0  0.60552  0.50854  0.39674  1.0000
  H   H2418     1.0  0.53988  0.50375  0.27097  1.0000
  H   H2419     1.0  0.63156  0.59885  0.09044  1.0000
  H   H2420     1.0  0.47441  0.58720  0.13088  1.0000
  C   C1366     1.0  0.62777  0.57763  0.06201  1.0000
  C   C1367     1.0  0.52889  0.60632  0.06012  1.0000
  H   H2421     1.0  0.46962  0.59666  0.06674  1.0000
  C   C1368     1.0  0.57161  0.54642  0.33378  1.0000
  H   H2422     1.0  0.52404  0.69032  0.03877  1.0000
  H   H2423     1.0  0.47593  0.54494  0.07055  1.0000
  C   C1369     1.0  0.64380  0.72244  0.31778  1.0000
  H   H2424     1.0  0.50294  0.59984  0.09576  1.0000
  H   H2425     1.0  0.61080  0.68842  0.25529  1.0000
  H   H2426     1.0  0.46093  0.60554  0.14404  1.0000
  H   H2427     1.0  0.48740  0.59369  0.01529  1.0000
  H   H2428     1.0  0.61906  0.56701  0.00476  1.0000
  C   C1370     1.0  0.60305  0.50534  0.42026  1.0000
  H   H2429     1.0  0.61463  0.57150  0.06739  1.0000
  H   H2430     1.0  0.46570  0.58770  0.02070  1.0000
  N   N76       1.0  0.36352  0.50182  0.08279  1.0000
  C   C1371     1.0  0.51319  0.59067  0.06173  1.0000
  H   H2431     1.0  0.58518  0.68559  0.22709  1.0000
  H   H2432     1.0  0.60976  0.52319  0.07011  1.0000
  H   H2433     1.0  0.45704  0.57712  0.08012  1.0000
  H   H2434     1.0  0.42056  0.51357  0.10067  1.0000
  H   H2435     1.0  0.49804  0.60473  0.06013  1.0000
  H   H2436     1.0  0.49118  0.57448  0.11497  1.0000
  C   C1372     1.0  0.59895  0.70078  0.28286  1.0000
  H   H2437     1.0  0.48485  0.60453  0.35905  1.0000
  H   H2438     1.0  0.47459  0.61715  0.22678  1.0000
  H   H2439     1.0  0.53306  0.61237  0.08253  1.0000
  H   H2440     1.0  0.62985  0.72018  0.27586  1.0000
  C   C1373     1.0  0.59947  0.68526  0.26772  1.0000
  H   H2441     1.0  0.51947  0.70285  0.07660  1.0000
  C   C1374     1.0  0.59278  0.72317  0.32373  1.0000
  H   H2442     1.0  0.59530  0.68904  0.33340  1.0000
  H   H2443     1.0  0.63651  0.53408  0.07716  1.0000
  H   H2444     1.0  0.51842  0.50061  0.32394  1.0000
  H   H2445     1.0  0.60559  0.71001  0.37268  1.0000
  C   C1375     1.0  0.47646  0.57203  0.04271  1.0000
  H   H2446     1.0  0.61220  0.54215  0.08896  1.0000
  H   H2447     1.0  0.44678  0.58774  0.12280  1.0000
  H   H2448     1.0  0.45601  0.60733  0.10543  1.0000
  N   N77       1.0  0.48216  0.58035  0.07307  1.0000
  H   H2449     1.0  0.58014  0.51702  0.05791  1.0000
  C   C1376     1.0  0.45816  0.59915  0.12184  1.0000
  H   H2450     1.0  0.53730  0.49553  0.22479  1.0000
  H   H2451     1.0  0.62864  0.58497  0.04208  1.0000
  C   C1377     1.0  0.49884  0.59450  0.07294  1.0000
  H   H2452     1.0  0.49769  0.55760  0.07271  1.0000
  H   H2453     1.0  0.60160  0.54937  0.03773  1.0000
  N   N78       1.0  0.47193  0.57773  0.27708  1.0000
  C   C1378     1.0  0.47141  0.58694  0.30517  1.0000
  C   C1379     1.0  0.45705  0.56149  0.27347  1.0000
  C   C1380     1.0  0.48728  0.57420  0.28028  1.0000
  C   C1381     1.0  0.47322  0.58776  0.24998  1.0000
  C   C1382     1.0  0.45908  0.59354  0.24396  1.0000
  C   C1383     1.0  0.48560  0.60420  0.31075  1.0000
  C   C1384     1.0  0.48904  0.56248  0.25614  1.0000
  C   C1385     1.0  0.44038  0.56069  0.28446  1.0000
  C   C1386     1.0  0.42607  0.54464  0.27401  1.0000
  C   C1387     1.0  0.46321  0.60617  0.21992  1.0000
  C   C1388     1.0  0.48408  0.61207  0.34017  1.0000
  C   C1389     1.0  0.50447  0.55914  0.26281  1.0000
  H   H2454     1.0  0.47135  0.57951  0.32482  1.0000
  H   H2455     1.0  0.45979  0.58881  0.30574  1.0000
  H   H2456     1.0  0.45494  0.55702  0.24974  1.0000
  H   H2457     1.0  0.45940  0.55192  0.28607  1.0000
  H   H2458     1.0  0.48792  0.56885  0.30222  1.0000
  H   H2459     1.0  0.49864  0.58570  0.27988  1.0000
  H   H2460     1.0  0.48525  0.59865  0.25095  1.0000
  H   H2461     1.0  0.47345  0.58071  0.22960  1.0000
  H   H2462     1.0  0.45661  0.59932  0.26400  1.0000
  H   H2463     1.0  0.44765  0.58298  0.23589  1.0000
  H   H2464     1.0  0.49794  0.60374  0.31171  1.0000
  H   H2465     1.0  0.48517  0.61248  0.29296  1.0000
  H   H2466     1.0  0.49026  0.56803  0.23425  1.0000
  H   H2467     1.0  0.47830  0.55048  0.25435  1.0000
  H   H2468     1.0  0.44098  0.56127  0.30916  1.0000
  H   H2469     1.0  0.43733  0.57085  0.27663  1.0000
  H   H2470     1.0  0.42446  0.54376  0.24938  1.0000
  H   H2471     1.0  0.42832  0.53395  0.28190  1.0000
  C   C1390     1.0  0.39435  0.50582  0.08877  1.0000
  H   H2472     1.0  0.64465  0.71444  0.33574  1.0000
  H   H2473     1.0  0.54127  0.71162  0.08809  1.0000
  H   H2474     1.0  0.64335  0.73368  0.32757  1.0000
  H   H2475     1.0  0.62392  0.60834  0.32843  1.0000
  C   C1391     1.0  0.63832  0.53958  0.17149  1.0000
  H   H2476     1.0  0.61859  0.73064  0.33696  1.0000
  H   H2477     1.0  0.61479  0.73367  0.29931  1.0000
  C   C1392     1.0  0.63630  0.55420  0.39546  1.0000
  H   H2478     1.0  0.36898  0.54789  0.04936  1.0000
  S   S311      1.0  0.58180  0.72000  0.47968  1.0000
  H   H2479     1.0  0.62262  0.59836  0.40838  1.0000
  C   C1393     1.0  0.60913  0.51694  0.47375  1.0000
  H   H2480     1.0  0.60887  0.53029  0.43332  1.0000
  H   H2481     1.0  0.59647  0.51634  0.47669  1.0000
  H   H2482     1.0  0.60961  0.54565  0.48352  1.0000
  C   C1394     1.0  0.50418  0.49010  0.22055  1.0000
  H   H2483     1.0  0.35676  0.50546  0.14364  1.0000
  Fe  Fe156     1.0  0.38769  0.49195  0.19136  1.0000
  C   C1395     1.0  0.64129  0.53287  0.36978  1.0000
  H   H2484     1.0  0.63213  0.61407  0.38237  1.0000
  C   C1396     1.0  0.50664  0.68160  0.00111  1.0000
  H   H2485     1.0  0.53932  0.51530  0.32039  1.0000
  C   C1397     1.0  0.53010  0.71421  0.08442  1.0000
  H   H2486     1.0  0.49544  0.49232  0.23519  1.0000
  C   C1398     1.0  0.37768  0.50214  0.10343  1.0000
  H   H2487     1.0  0.37435  0.49015  0.11417  1.0000
  H   H2488     1.0  0.49602  0.68197  0.01278  1.0000
  H   H2489     1.0  0.51195  0.71152  0.01989  1.0000
  H   H2490     1.0  0.58532  0.72245  0.03947  1.0000
  C   C1399     1.0  0.52407  0.71166  0.01395  1.0000
  H   H2491     1.0  0.52475  0.71414  0.98976  1.0000
  H   H2492     1.0  0.57648  0.71745  0.07508  1.0000
  C   C1400     1.0  0.36284  0.49162  0.05519  1.0000
  C   C1401     1.0  0.63952  0.55570  0.17224  1.0000
  H   H2493     1.0  0.39396  0.49445  0.07765  1.0000
  C   C1402     1.0  0.35658  0.54033  0.05722  1.0000
  H   H2494     1.0  0.34097  0.51530  0.06400  1.0000
  H   H2495     1.0  0.58059  0.73772  0.34194  1.0000
  H   H2496     1.0  0.62828  0.54947  0.46592  1.0000
  H   H2497     1.0  0.34035  0.49234  0.03172  1.0000
  H   H2498     1.0  0.64685  0.52286  0.15030  1.0000
  C   C1403     1.0  0.55327  0.72120  0.03412  1.0000
  H   H2499     1.0  0.63007  0.59779  0.22902  1.0000
  C   C1404     1.0  0.64451  0.53740  0.05818  1.0000
  H   H2500     1.0  0.34638  0.51536  0.12134  1.0000
  H   H2501     1.0  0.53515  0.49388  0.32177  1.0000
  H   H2502     1.0  0.51700  0.73689  0.00039  1.0000
  H   H2503     1.0  0.63577  0.58309  0.10882  1.0000
  H   H2504     1.0  0.52170  0.70051  0.47052  1.0000
  H   H2505     1.0  0.63605  0.59589  0.28337  1.0000
  H   H2506     1.0  0.51469  0.72158  0.11263  1.0000
  H   H2507     1.0  0.64380  0.57855  0.47759  1.0000
  H   H2508     1.0  0.63765  0.58219  0.23667  1.0000
  C   C1405     1.0  0.56897  0.73439  0.05038  1.0000
  C   C1406     1.0  0.35354  0.52222  0.05641  1.0000
  H   H2509     1.0  0.35401  0.51867  0.03288  1.0000
  C   C1407     1.0  0.53274  0.72781  0.06192  1.0000
  H   H2510     1.0  0.52080  0.72920  0.05956  1.0000
  C   C1408     1.0  0.58165  0.72741  0.05927  1.0000
  H   H2511     1.0  0.53652  0.73033  0.12414  1.0000
  C   C1409     1.0  0.63863  0.73741  0.42272  1.0000
  C   C1410     1.0  0.64754  0.53523  0.15096  1.0000
  H   H2512     1.0  0.59289  0.73722  0.07009  1.0000
  H   H2513     1.0  0.34709  0.54215  0.04248  1.0000
  H   H2514     1.0  0.32974  0.50046  0.16242  1.0000
  C   C1411     1.0  0.34781  0.49392  0.09887  1.0000
  C   C1412     1.0  0.33028  0.49374  0.14184  1.0000
  H   H2515     1.0  0.31944  0.49216  0.12668  1.0000
  Fe  Fe157     1.0  0.58443  0.53193  0.76040  1.0000
  S   S312      1.0  0.58329  0.50996  0.73370  1.0000
  S   S313      1.0  0.56273  0.53932  0.75781  1.0000
  Fe  Fe158     1.0  0.61398  0.53348  0.80179  1.0000
  S   S314      1.0  0.61428  0.51117  0.77810  1.0000
  S   S315      1.0  0.63272  0.55089  0.83759  1.0000
  Fe  Fe159     1.0  0.61128  0.52283  0.73518  1.0000
  S   S316      1.0  0.62872  0.52185  0.69927  1.0000
  S   S317      1.0  0.58869  0.72525  0.97559  1.0000
  S   S318      1.0  0.61207  0.54561  0.75883  1.0000
  S   S319      1.0  0.58639  0.52161  0.80479  1.0000
  Fe  Fe160     1.0  0.52694  0.62292  0.72839  1.0000
  S   S320      1.0  0.54249  0.62808  0.68857  1.0000
  S   S321      1.0  0.53860  0.63343  0.77503  1.0000
  Fe  Fe161     1.0  0.49760  0.59400  0.69454  1.0000
  S   S322      1.0  0.51162  0.59738  0.65280  1.0000
  S   S323      1.0  0.47010  0.57669  0.69991  1.0000
  Fe  Fe162     1.0  0.53365  0.60071  0.68360  1.0000
  S   S324      1.0  0.55318  0.59128  0.67345  1.0000
  Fe  Fe163     1.0  0.51954  0.62460  0.66041  1.0000
  S   S325      1.0  0.51681  0.64085  0.62281  1.0000
  S   S326      1.0  0.51931  0.59554  0.72463  1.0000
  S   S327      1.0  0.50431  0.62125  0.70085  1.0000
  Fe  Fe164     1.0  0.56181  0.70480  0.90520  1.0000
  S   S328      1.0  0.57642  0.69320  0.93082  1.0000
  S   S329      1.0  0.54822  0.69551  0.85956  1.0000
  H   H2516     1.0  0.63801  0.57008  0.70159  1.0000
  H   H2517     1.0  0.53608  0.54907  0.74797  1.0000
  Fe  Fe165     1.0  0.59676  0.71860  0.93291  1.0000
  S   S330      1.0  0.62346  0.72185  0.92856  1.0000
  C   C1413     1.0  0.58417  0.73571  0.82470  1.0000
  S   S331      1.0  0.56113  0.67592  0.51409  1.0000
  C   C1414     1.0  0.63172  0.56031  0.51005  1.0000
  S   S332      1.0  0.55096  0.71075  0.94637  1.0000
  C   C1415     1.0  0.52679  0.49876  0.74448  1.0000
  S   S333      1.0  0.41922  0.50062  0.68396  1.0000
  C   C1416     1.0  0.45626  0.55542  0.69529  1.0000
  C   C1417     1.0  0.46129  0.54330  0.68534  1.0000
  C   C1418     1.0  0.44981  0.52673  0.68199  1.0000
  C   C1419     1.0  0.43310  0.52189  0.68861  1.0000
  C   C1420     1.0  0.42808  0.53403  0.69850  1.0000
  C   C1421     1.0  0.43954  0.55060  0.70172  1.0000
  H   H2518     1.0  0.47404  0.54666  0.68030  1.0000
  H   H2519     1.0  0.45394  0.51756  0.67431  1.0000
  H   H2520     1.0  0.41535  0.53066  0.70373  1.0000
  H   H2521     1.0  0.43541  0.55977  0.70949  1.0000
  C   C1422     1.0  0.54107  0.65086  0.79795  1.0000
  C   C1423     1.0  0.53679  0.66344  0.78787  1.0000
  C   C1424     1.0  0.53914  0.67700  0.80699  1.0000
  C   C1425     1.0  0.54589  0.67826  0.83632  1.0000
  C   C1426     1.0  0.55041  0.66580  0.84624  1.0000
  C   C1427     1.0  0.54788  0.65216  0.82725  1.0000
  H   H2522     1.0  0.53154  0.66266  0.76545  1.0000
  H   H2523     1.0  0.53556  0.68653  0.79905  1.0000
  H   H2524     1.0  0.55543  0.66645  0.86880  1.0000
  H   H2525     1.0  0.55087  0.64237  0.83560  1.0000
  C   C1428     1.0  0.52941  0.65050  0.59279  1.0000
  C   C1429     1.0  0.54449  0.64943  0.58824  1.0000
  C   C1430     1.0  0.55388  0.65717  0.56405  1.0000
  C   C1431     1.0  0.54838  0.66603  0.54382  1.0000
  C   C1432     1.0  0.53323  0.66701  0.54825  1.0000
  C   C1433     1.0  0.52393  0.65943  0.57263  1.0000
  H   H2526     1.0  0.54894  0.64263  0.60336  1.0000
  H   H2527     1.0  0.56553  0.65626  0.56099  1.0000
  H   H2528     1.0  0.52864  0.67353  0.53281  1.0000
  H   H2529     1.0  0.51228  0.66033  0.57571  1.0000
  H   H2530     1.0  0.61291  0.56456  0.94944  1.0000
  H   H2531     1.0  0.59118  0.70282  0.54997  1.0000
  H   H2532     1.0  0.59693  0.49366  0.67903  1.0000
  H   H2533     1.0  0.55197  0.60811  0.77654  1.0000
  H   H2534     1.0  0.52527  0.59687  0.79896  1.0000
  H   H2535     1.0  0.57246  0.58234  0.81045  1.0000
  H   H2536     1.0  0.58867  0.71236  0.79167  1.0000
  H   H2537     1.0  0.47008  0.58169  0.96950  1.0000
  C   C1434     1.0  0.56003  0.55300  0.73258  1.0000
  C   C1435     1.0  0.57222  0.56176  0.71342  1.0000
  C   C1436     1.0  0.56991  0.57336  0.69507  1.0000
  C   C1437     1.0  0.55548  0.57629  0.69593  1.0000
  C   C1438     1.0  0.54324  0.56736  0.71483  1.0000
  C   C1439     1.0  0.54553  0.55579  0.73313  1.0000
  H   H2538     1.0  0.58345  0.55972  0.71294  1.0000
  H   H2539     1.0  0.57938  0.58019  0.68033  1.0000
  H   H2540     1.0  0.53200  0.56936  0.71536  1.0000
  H   H2541     1.0  0.61346  0.51787  0.58591  1.0000
  H   H2542     1.0  0.57310  0.68573  0.77493  1.0000
  C   C1440     1.0  0.53839  0.71328  0.54308  1.0000
  Fe  Fe166     1.0  0.58623  0.50005  0.77807  1.0000
  N   N79       1.0  0.55505  0.72190  0.55945  1.0000
  H   H2543     1.0  0.62359  0.53556  0.54290  1.0000
  H   H2544     1.0  0.59524  0.61941  0.76224  1.0000
  C   C1441     1.0  0.59348  0.68476  0.80337  1.0000
  C   C1442     1.0  0.62085  0.54849  0.97592  1.0000
  C   C1443     1.0  0.62984  0.54268  0.65266  1.0000
  H   H2545     1.0  0.62550  0.70301  0.82122  1.0000
  C   C1444     1.0  0.63834  0.53562  0.88846  1.0000
  C   C1445     1.0  0.52121  0.70309  0.49454  1.0000
  H   H2546     1.0  0.51580  0.71229  0.49666  1.0000
  C   C1446     1.0  0.55240  0.72550  0.59113  1.0000
  H   H2547     1.0  0.57701  0.70334  0.82223  1.0000
  H   H2548     1.0  0.64219  0.58683  0.51338  1.0000
  H   H2549     1.0  0.52942  0.50691  0.76467  1.0000
  N   N80       1.0  0.62142  0.52933  0.49574  1.0000
  S   S334      1.0  0.58272  0.72993  0.90543  1.0000
  H   H2550     1.0  0.64341  0.55976  0.51840  1.0000
  C   C1447     1.0  0.58105  0.66843  0.75503  1.0000
  H   H2551     1.0  0.53201  0.70211  0.60113  1.0000
  H   H2552     1.0  0.57141  0.57918  0.77137  1.0000
  H   H2553     1.0  0.64552  0.53433  0.51714  1.0000
  C   C1448     1.0  0.63564  0.57690  0.49634  1.0000
  C   C1449     1.0  0.60844  0.68598  0.86490  1.0000
  H   H2554     1.0  0.61955  0.54424  0.66218  1.0000
  H   H2555     1.0  0.55064  0.58929  0.76160  1.0000
  C   C1450     1.0  0.53865  0.70965  0.50938  1.0000
  H   H2556     1.0  0.62523  0.50922  0.54366  1.0000
  H   H2557     1.0  0.59287  0.69467  0.75875  1.0000
  N   N81       1.0  0.60020  0.70068  0.82188  1.0000
  H   H2558     1.0  0.56185  0.61249  0.72851  1.0000
  H   H2559     1.0  0.53882  0.50048  0.73543  1.0000
  H   H2560     1.0  0.62411  0.55965  0.52929  1.0000
  C   C1451     1.0  0.61295  0.50968  0.53981  1.0000
  H   H2561     1.0  0.62958  0.52421  0.87818  1.0000
  H   H2562     1.0  0.57303  0.65796  0.76779  1.0000
  C   C1452     1.0  0.59635  0.72775  0.83062  1.0000
  C   C1453     1.0  0.63665  0.53271  0.66651  1.0000
  C   C1454     1.0  0.62227  0.71713  0.78566  1.0000
  H   H2563     1.0  0.50545  0.68427  0.97734  1.0000
  H   H2564     1.0  0.52015  0.57922  0.82151  1.0000
  C   C1455     1.0  0.58502  0.68456  0.77232  1.0000
  H   H2565     1.0  0.58994  0.72881  0.56742  1.0000
  C   C1456     1.0  0.61501  0.52618  0.52650  1.0000
  H   H2566     1.0  0.57203  0.72825  0.83371  1.0000
  H   H2567     1.0  0.54980  0.59693  0.82866  1.0000
  H   H2568     1.0  0.58102  0.65050  0.84429  1.0000
  H   H2569     1.0  0.55218  0.70321  0.61242  1.0000
  C   C1457     1.0  0.63766  0.73538  0.90478  1.0000
  C   C1458     1.0  0.60541  0.50782  0.57007  1.0000
  C   C1459     1.0  0.59879  0.69632  0.85422  1.0000
  H   H2570     1.0  0.58201  0.60168  0.74090  1.0000
  C   C1460     1.0  0.61821  0.71049  0.81705  1.0000
  H   H2571     1.0  0.63041  0.50241  0.49938  1.0000
  C   C1461     1.0  0.60255  0.67798  0.89424  1.0000
  H   H2572     1.0  0.60717  0.67609  0.84861  1.0000
  H   H2573     1.0  0.58077  0.69278  0.58221  1.0000
  H   H2574     1.0  0.60936  0.67034  0.90062  1.0000
  H   H2575     1.0  0.58383  0.67490  0.81526  1.0000
  H   H2576     1.0  0.58911  0.67006  0.89226  1.0000
  C   C1462     1.0  0.58988  0.71039  0.81568  1.0000
  H   H2577     1.0  0.57138  0.62991  0.75340  1.0000
  H   H2578     1.0  0.60286  0.59805  0.77293  1.0000
  C   C1463     1.0  0.59621  0.59134  0.79204  1.0000
  H   H2579     1.0  0.59374  0.56828  0.77119  1.0000
  C   C1464     1.0  0.54447  0.71037  0.61052  1.0000
  H   H2580     1.0  0.55472  0.72346  0.65297  1.0000
  H   H2581     1.0  0.57707  0.63151  0.86196  1.0000
  C   C1465     1.0  0.64669  0.58120  0.71442  1.0000
  H   H2582     1.0  0.59717  0.64310  0.84784  1.0000
  H   H2583     1.0  0.56420  0.62718  0.81075  1.0000
  H   H2584     1.0  0.59814  0.72734  0.85482  1.0000
  H   H2585     1.0  0.62182  0.69403  0.86846  1.0000
  H   H2586     1.0  0.59131  0.56750  0.81080  1.0000
  C   C1466     1.0  0.59825  0.57517  0.79277  1.0000
  C   C1467     1.0  0.56427  0.71095  0.55814  1.0000
  H   H2587     1.0  0.53147  0.70120  0.55268  1.0000
  C   C1468     1.0  0.64037  0.72918  0.78517  1.0000
  H   H2588     1.0  0.64254  0.59129  0.71132  1.0000
  H   H2589     1.0  0.58664  0.62168  0.69889  1.0000
  C   C1469     1.0  0.52710  0.58538  0.80222  1.0000
  H   H2590     1.0  0.62030  0.70687  0.76961  1.0000
  C   C1470     1.0  0.58118  0.71714  0.57607  1.0000
  H   H2591     1.0  0.57987  0.71908  0.59998  1.0000
  H   H2592     1.0  0.57749  0.60809  0.83277  1.0000
  H   H2593     1.0  0.57428  0.66828  0.73356  1.0000
  H   H2594     1.0  0.63045  0.55773  0.61532  1.0000
  H   H2595     1.0  0.61153  0.57756  0.79668  1.0000
  H   H2596     1.0  0.58420  0.63886  0.79653  1.0000
  H   H2597     1.0  0.64310  0.52446  0.92798  1.0000
  H   H2598     1.0  0.54365  0.70023  0.50585  1.0000
  H   H2599     1.0  0.59507  0.61940  0.81319  1.0000
  C   C1471     1.0  0.63605  0.55030  0.62596  1.0000
  Fe  Fe167     1.0  0.56716  0.70061  0.97213  1.0000
  H   H2600     1.0  0.61456  0.72364  0.77801  1.0000
  H   H2601     1.0  0.60505  0.68747  0.91217  1.0000
  H   H2602     1.0  0.56683  0.70908  0.53486  1.0000
  H   H2603     1.0  0.55649  0.69849  0.56531  1.0000
  C   C1472     1.0  0.62152  0.55835  0.94825  1.0000
  C   C1473     1.0  0.54249  0.71558  0.64204  1.0000
  H   H2604     1.0  0.54636  0.57726  0.81169  1.0000
  H   H2605     1.0  0.52197  0.57714  0.78217  1.0000
  H   H2606     1.0  0.63425  0.56769  0.94594  1.0000
  H   H2607     1.0  0.64628  0.57832  0.73833  1.0000
  H   H2608     1.0  0.60293  0.52733  0.52691  1.0000
  H   H2609     1.0  0.60343  0.68036  0.80014  1.0000
  H   H2610     1.0  0.60351  0.70741  0.86924  1.0000
  C   C1474     1.0  0.58897  0.70473  0.57353  1.0000
  H   H2611     1.0  0.60480  0.49914  0.52520  1.0000
  H   H2612     1.0  0.53059  0.72028  0.54608  1.0000
  H   H2613     1.0  0.58551  0.68971  0.85902  1.0000
  H   H2614     1.0  0.59695  0.63925  0.72431  1.0000
  H   H2615     1.0  0.59256  0.66691  0.75037  1.0000
  H   H2616     1.0  0.57869  0.63722  0.70227  1.0000
  C   C1475     1.0  0.63855  0.52938  0.49542  1.0000
  H   H2617     1.0  0.60237  0.59843  0.81283  1.0000
  H   H2618     1.0  0.60102  0.70930  0.58660  1.0000
  C   C1476     1.0  0.64198  0.55019  0.87351  1.0000
  N   N82       1.0  0.46356  0.59503  0.60729  1.0000
  C   C1477     1.0  0.45005  0.59834  0.59080  1.0000
  C   C1478     1.0  0.47993  0.60576  0.59549  1.0000
  C   C1479     1.0  0.45991  0.57708  0.60277  1.0000
  C   C1480     1.0  0.46427  0.59886  0.64013  1.0000
  C   C1481     1.0  0.46650  0.61652  0.64911  1.0000
  C   C1482     1.0  0.43285  0.59109  0.60424  1.0000
  C   C1483     1.0  0.47364  0.57162  0.61416  1.0000
  C   C1484     1.0  0.48220  0.60233  0.56253  1.0000
  C   C1485     1.0  0.49928  0.61379  0.55330  1.0000
  C   C1486     1.0  0.46203  0.61753  0.68120  1.0000
  C   C1487     1.0  0.42005  0.59459  0.58501  1.0000
  C   C1488     1.0  0.46836  0.55324  0.60853  1.0000
  H   H2619     1.0  0.44821  0.59331  0.56754  1.0000
  H   H2620     1.0  0.45370  0.61171  0.58851  1.0000
  H   H2621     1.0  0.48191  0.61887  0.59760  1.0000
  H   H2622     1.0  0.49035  0.60504  0.60931  1.0000
  H   H2623     1.0  0.45690  0.57317  0.57889  1.0000
  H   H2624     1.0  0.44865  0.56950  0.61431  1.0000
  H   H2625     1.0  0.45322  0.58987  0.65050  1.0000
  H   H2626     1.0  0.47493  0.59733  0.65149  1.0000
  H   H2627     1.0  0.45868  0.62092  0.63501  1.0000
  H   H2628     1.0  0.47961  0.62509  0.64721  1.0000
  H   H2629     1.0  0.42835  0.57763  0.60589  1.0000
  H   H2630     1.0  0.43334  0.59652  0.62676  1.0000
  H   H2631     1.0  0.47627  0.57411  0.63837  1.0000
  H   H2632     1.0  0.48527  0.57800  0.60292  1.0000
  H   H2633     1.0  0.48100  0.58960  0.55870  1.0000
  H   H2634     1.0  0.47288  0.60431  0.54766  1.0000
  H   H2635     1.0  0.50089  0.61081  0.52998  1.0000
  H   H2636     1.0  0.50066  0.62670  0.55481  1.0000
  H   H2637     1.0  0.50918  0.61251  0.56779  1.0000
  H   H2638     1.0  0.46881  0.61244  0.69649  1.0000
  H   H2639     1.0  0.46531  0.63050  0.68816  1.0000
  H   H2640     1.0  0.44856  0.61051  0.68324  1.0000
  H   H2641     1.0  0.41858  0.58892  0.56236  1.0000
  H   H2642     1.0  0.40789  0.58935  0.59517  1.0000
  H   H2643     1.0  0.42378  0.60799  0.58339  1.0000
  H   H2644     1.0  0.62357  0.72090  0.83373  1.0000
  H   H2645     1.0  0.46621  0.55004  0.58435  1.0000
  H   H2646     1.0  0.47825  0.54962  0.61750  1.0000
  N   N83       1.0  0.57403  0.60340  0.78520  1.0000
  C   C1489     1.0  0.55548  0.59778  0.78143  1.0000
  C   C1490     1.0  0.58199  0.61123  0.75719  1.0000
  C   C1491     1.0  0.57763  0.58841  0.78973  1.0000
  C   C1492     1.0  0.58136  0.61483  0.81200  1.0000
  C   C1493     1.0  0.57761  0.63027  0.81367  1.0000
  C   C1494     1.0  0.54545  0.58912  0.80803  1.0000
  C   C1495     1.0  0.57386  0.62103  0.73929  1.0000
  C   C1496     1.0  0.58478  0.63036  0.71475  1.0000
  C   C1497     1.0  0.58364  0.63936  0.84381  1.0000
  H   H2647     1.0  0.45688  0.54621  0.61992  1.0000
  H   H2648     1.0  0.61787  0.55005  0.92812  1.0000
  H   H2649     1.0  0.64318  0.73348  0.76231  1.0000
  H   H2650     1.0  0.51314  0.69155  0.50465  1.0000
  H   H2651     1.0  0.51958  0.50247  0.72755  1.0000
  H   H2652     1.0  0.53679  0.70455  0.65538  1.0000
  H   H2653     1.0  0.59292  0.50798  0.56792  1.0000
  H   H2654     1.0  0.62409  0.57797  0.48822  1.0000
  H   H2655     1.0  0.58235  0.73701  0.80051  1.0000
  H   H2656     1.0  0.62870  0.54165  0.97244  1.0000
  Fe  Fe168     1.0  0.57314  0.73510  0.94795  1.0000
  H   H2657     1.0  0.56426  0.73388  0.60277  1.0000
  H   H2658     1.0  0.54630  0.72071  0.49769  1.0000
  C   C1498     1.0  0.64606  0.53583  0.91679  1.0000
  H   H2659     1.0  0.53434  0.72234  0.64171  1.0000
  H   H2660     1.0  0.60424  0.49600  0.57940  1.0000
  H   H2661     1.0  0.56990  0.73564  0.52427  1.0000
  H   H2662     1.0  0.60790  0.53954  0.97723  1.0000
  H   H2663     1.0  0.60835  0.73586  0.82199  1.0000
  H   H2664     1.0  0.54426  0.73226  0.59160  1.0000
  C   C1499     1.0  0.63951  0.51270  0.48794  1.0000
  C   C1500     1.0  0.56514  0.73786  0.54555  1.0000
  C   C1501     1.0  0.62228  0.54598  0.48734  1.0000
  H   H2665     1.0  0.48065  0.56920  0.98182  1.0000
  Fe  Fe169     1.0  0.38124  0.90804  0.20707  1.0000
  S   S335      1.0  0.37524  0.91891  0.16570  1.0000
  S   S336      1.0  0.40266  0.89990  0.21564  1.0000
  Fe  Fe170     1.0  0.34915  0.90611  0.23670  1.0000
  S   S337      1.0  0.34113  0.91639  0.19649  1.0000
  S   S338      1.0  0.33820  0.90550  0.28239  1.0000
  Fe  Fe171     1.0  0.34906  0.90000  0.16816  1.0000
  S   S339      1.0  0.33641  0.88256  0.12739  1.0000
  Fe  Fe172     1.0  0.36780  0.93441  0.19701  1.0000
  S   S340      1.0  0.37183  0.96123  0.19407  1.0000
  S   S341      1.0  0.35535  0.88840  0.20870  1.0000
  S   S342      1.0  0.37555  0.92482  0.23793  1.0000
  H   H2666     1.0  0.49305  0.97455  0.22821  1.0000
  H   H2667     1.0  0.36127  0.84881  0.14436  1.0000
  H   H2668     1.0  0.44554  0.86732  0.13917  1.0000
  C   C1502     1.0  0.63073  0.90562  0.99753  1.0000
  H   H2669     1.0  0.55346  0.79679  0.45466  1.0000
  H   H2670     1.0  0.60122  0.74296  0.35775  1.0000
  H   H2671     1.0  0.54807  0.81299  0.41487  1.0000
  H   H2672     1.0  0.32953  0.90683  0.34264  1.0000
  H   H2673     1.0  0.50396  0.95303  0.14259  1.0000
  H   H2674     1.0  0.53093  0.96991  0.23658  1.0000
  H   H2675     1.0  0.53325  0.96595  0.31939  1.0000
  C   C1503     1.0  0.39768  0.98774  0.30234  1.0000
  H   H2676     1.0  0.56527  0.83285  0.31606  1.0000
  C   C1504     1.0  0.38994  0.97782  0.20810  1.0000
  H   H2677     1.0  0.61834  0.93822  0.99142  1.0000
  H   H2678     1.0  0.60069  0.87910  0.08851  1.0000
  H   H2679     1.0  0.54166  0.82168  0.36485  1.0000
  H   H2680     1.0  0.40555  0.96458  0.20832  1.0000
  C   C1505     1.0  0.42436  0.90802  0.21036  1.0000
  H   H2681     1.0  0.42583  0.92988  0.18904  1.0000
  H   H2682     1.0  0.41595  0.96619  0.31453  1.0000
  Fe  Fe173     1.0  0.57958  0.84219  0.44760  1.0000
  H   H2683     1.0  0.41187  0.93700  0.14390  1.0000
  H   H2684     1.0  0.62933  0.87494  0.99284  1.0000
  Fe  Fe174     1.0  0.56372  0.86160  0.41118  1.0000
  S   S343      1.0  0.57331  0.88343  0.44351  1.0000
  S   S344      1.0  0.55084  0.85757  0.36468  1.0000
  Fe  Fe175     1.0  0.59714  0.87991  0.44432  1.0000
  S   S345      1.0  0.62162  0.90224  0.44572  1.0000
  H   H2685     1.0  0.60903  0.91011  0.00878  1.0000
  S   S346      1.0  0.57668  0.88486  0.03283  1.0000
  S   S347      1.0  0.58810  0.85944  0.41003  1.0000
  S   S348      1.0  0.55454  0.84318  0.44726  1.0000
  Fe  Fe176     1.0  0.52969  0.91245  0.23469  1.0000
  S   S349      1.0  0.54810  0.92131  0.19893  1.0000
  S   S350      1.0  0.53784  0.90966  0.28277  1.0000
  Fe  Fe177     1.0  0.50247  0.91937  0.19874  1.0000
  S   S351      1.0  0.51937  0.92825  0.16136  1.0000
  S   S352      1.0  0.47980  0.92582  0.19089  1.0000
  Fe  Fe178     1.0  0.52646  0.90701  0.16689  1.0000
  S   S353      1.0  0.52596  0.89399  0.12184  1.0000
  Fe  Fe179     1.0  0.53981  0.94196  0.19521  1.0000
  S   S354      1.0  0.55554  0.96807  0.18271  1.0000
  S   S355      1.0  0.50811  0.89682  0.20283  1.0000
  S   S356      1.0  0.52282  0.93425  0.23240  1.0000
  C   C1506     1.0  0.45857  0.91875  0.19950  1.0000
  C   C1507     1.0  0.44948  0.92790  0.19052  1.0000
  C   C1508     1.0  0.43256  0.92267  0.19608  1.0000
  C   C1509     1.0  0.43347  0.89893  0.21948  1.0000
  C   C1510     1.0  0.45045  0.90428  0.21432  1.0000
  H   H2686     1.0  0.45559  0.93914  0.17915  1.0000
  H   H2687     1.0  0.42732  0.88758  0.23054  1.0000
  H   H2688     1.0  0.45720  0.89709  0.22145  1.0000
  H   H2689     1.0  0.58837  0.76588  0.43850  1.0000
  H   H2690     1.0  0.56164  0.96888  0.24712  1.0000
  H   H2691     1.0  0.62261  0.88175  0.39531  1.0000
  C   C1511     1.0  0.56225  0.88692  0.05742  1.0000
  C   C1512     1.0  0.56788  0.89355  0.08648  1.0000
  C   C1513     1.0  0.55704  0.89572  0.10658  1.0000
  C   C1514     1.0  0.54034  0.89129  0.09789  1.0000
  C   C1515     1.0  0.53475  0.88467  0.06884  1.0000
  C   C1516     1.0  0.54558  0.88254  0.04874  1.0000
  H   H2692     1.0  0.58072  0.89699  0.09356  1.0000
  H   H2693     1.0  0.56158  0.90073  0.12881  1.0000
  H   H2694     1.0  0.52188  0.88114  0.06179  1.0000
  H   H2695     1.0  0.54100  0.87743  0.02656  1.0000
  C   C1517     1.0  0.54754  0.87229  0.34210  1.0000
  C   C1518     1.0  0.55012  0.88788  0.35331  1.0000
  C   C1519     1.0  0.54696  0.89902  0.33481  1.0000
  C   C1520     1.0  0.54148  0.89489  0.30476  1.0000
  C   C1521     1.0  0.53916  0.87939  0.29342  1.0000
  C   C1522     1.0  0.54209  0.86814  0.31204  1.0000
  H   H2696     1.0  0.55424  0.89126  0.37635  1.0000
  H   H2697     1.0  0.54875  0.91095  0.34385  1.0000
  H   H2698     1.0  0.53491  0.87600  0.27042  1.0000
  H   H2699     1.0  0.54002  0.85613  0.30310  1.0000
  C   C1523     1.0  0.52900  0.97791  0.28034  1.0000
  H   H2700     1.0  0.39845  0.93201  0.11036  1.0000
  C   C1524     1.0  0.56377  0.76388  0.44546  1.0000
  C   C1525     1.0  0.58066  0.77252  0.44172  1.0000
  C   C1526     1.0  0.58765  0.78982  0.44222  1.0000
  C   C1527     1.0  0.57794  0.79879  0.44665  1.0000
  C   C1528     1.0  0.52855  0.74673  0.01009  1.0000
  C   C1529     1.0  0.55403  0.77284  0.44976  1.0000
  H   H2701     1.0  0.33196  0.93811  0.25843  1.0000
  H   H2702     1.0  0.39825  0.87495  0.16316  1.0000
  C   C1530     1.0  0.53697  0.80530  0.40081  1.0000
  H   H2703     1.0  0.37928  0.95114  0.38938  1.0000
  C   C1531     1.0  0.55943  0.77940  0.34326  1.0000
  H   H2704     1.0  0.38602  0.86805  0.03507  1.0000
  H   H2705     1.0  0.33601  0.95886  0.27023  1.0000
  H   H2706     1.0  0.62294  0.93513  0.40171  1.0000
  H   H2707     1.0  0.61848  0.86350  0.04961  1.0000
  C   C1532     1.0  0.38908  0.96372  0.38848  1.0000
  H   H2708     1.0  0.56456  0.75756  0.34287  1.0000
  H   H2709     1.0  0.42012  0.94497  0.10901  1.0000
  H   H2710     1.0  0.64394  0.85459  0.43690  1.0000
  H   H2711     1.0  0.45193  0.88814  0.12786  1.0000
  C   C1533     1.0  0.39240  0.87463  0.14052  1.0000
  H   H2712     1.0  0.55491  0.91633  0.47645  1.0000
  N   N84       1.0  0.55391  0.80561  0.35491  1.0000
  H   H2713     1.0  0.55711  0.96145  0.04977  1.0000
  H   H2714     1.0  0.37163  0.87763  0.03100  1.0000
  C   C1534     1.0  0.62251  0.91726  0.00692  1.0000
  H   H2715     1.0  0.38575  0.94622  0.29589  1.0000
  H   H2716     1.0  0.54159  0.73965  0.07245  1.0000
  H   H2717     1.0  0.57095  0.91478  0.45533  1.0000
  C   C1535     1.0  0.61793  0.87455  0.06027  1.0000
  H   H2718     1.0  0.59813  0.74916  0.32081  1.0000
  H   H2719     1.0  0.41113  0.89185  0.07670  1.0000
  C   C1536     1.0  0.54261  0.74065  0.01510  1.0000
  H   H2720     1.0  0.56920  0.76859  0.37822  1.0000
  C   C1537     1.0  0.37552  0.87526  0.14648  1.0000
  H   H2721     1.0  0.38169  0.89249  0.07903  1.0000
  H   H2722     1.0  0.63652  0.92873  0.30111  1.0000
  H   H2723     1.0  0.40458  0.90680  0.15322  1.0000
  H   H2724     1.0  0.39008  0.90315  0.12305  1.0000
  C   C1538     1.0  0.41488  0.91922  0.11359  1.0000
  C   C1539     1.0  0.60124  0.83336  0.36747  1.0000
  C   C1540     1.0  0.34160  0.95082  0.26091  1.0000
  H   H2725     1.0  0.61379  0.89573  0.04754  1.0000
  C   C1541     1.0  0.44303  0.87850  0.14111  1.0000
  H   H2726     1.0  0.43059  0.89918  0.11716  1.0000
  C   C1542     1.0  0.40270  0.90399  0.12886  1.0000
  H   H2727     1.0  0.52466  0.82195  0.40620  1.0000
  H   H2728     1.0  0.44507  0.88273  0.16482  1.0000
  H   H2729     1.0  0.40933  0.93868  0.28923  1.0000
  H   H2730     1.0  0.61523  0.93978  0.32244  1.0000
  H   H2731     1.0  0.63963  0.75895  0.36071  1.0000
  H   H2732     1.0  0.56182  0.94408  0.01561  1.0000
  H   H2733     1.0  0.54098  0.76633  0.45294  1.0000
  H   H2734     1.0  0.42488  0.89552  0.15444  1.0000
  H   H2735     1.0  0.42778  0.92241  0.12235  1.0000
  H   H2736     1.0  0.36916  0.87731  0.12631  1.0000
  N   N85       1.0  0.40408  0.88798  0.12217  1.0000
  H   H2737     1.0  0.40510  0.97957  0.35775  1.0000
  H   H2738     1.0  0.63899  0.85616  0.39819  1.0000
  H   H2739     1.0  0.38995  0.86236  0.13040  1.0000
  C   C1543     1.0  0.42521  0.87463  0.12999  1.0000
  H   H2740     1.0  0.41699  0.86499  0.14405  1.0000
  H   H2741     1.0  0.64214  0.91283  0.98626  1.0000
  C   C1544     1.0  0.60205  0.86866  0.07698  1.0000
  C   C1545     1.0  0.51232  0.96547  0.15138  1.0000
  C   C1546     1.0  0.41104  0.93417  0.11964  1.0000
  C   C1547     1.0  0.52199  0.97380  0.24753  1.0000
  C   C1548     1.0  0.42155  0.89024  0.13133  1.0000
  C   C1549     1.0  0.38392  0.87916  0.04097  1.0000
  C   C1550     1.0  0.36979  0.96865  0.28564  1.0000
  H   H2742     1.0  0.52793  0.80114  0.35478  1.0000
  H   H2743     1.0  0.37749  0.88545  0.16268  1.0000
  S   S357      1.0  0.58766  0.82065  0.44721  1.0000
  H   H2744     1.0  0.60337  0.94178  0.42983  1.0000
  C   C1551     1.0  0.55220  0.80626  0.32152  1.0000
  C   C1552     1.0  0.39518  0.96706  0.35712  1.0000
  H   H2745     1.0  0.39351  0.89001  0.03134  1.0000
  H   H2746     1.0  0.37413  0.87055  0.08267  1.0000
  C   C1553     1.0  0.40103  0.88317  0.08949  1.0000
  C   C1554     1.0  0.38081  0.96507  0.33438  1.0000
  H   H2747     1.0  0.41411  0.91709  0.08918  1.0000
  H   H2748     1.0  0.40155  0.87108  0.08549  1.0000
  C   C1555     1.0  0.63726  0.90366  0.42139  1.0000
  H   H2749     1.0  0.59110  0.86239  0.06133  1.0000
  H   H2750     1.0  0.57067  0.81816  0.39229  1.0000
  C   C1556     1.0  0.38427  0.88153  0.07468  1.0000
  H   H2751     1.0  0.43069  0.98842  0.22752  1.0000
  H   H2752     1.0  0.60242  0.83482  0.39207  1.0000
  Fe  Fe180     1.0  0.56599  0.86503  0.47975  1.0000
  H   H2753     1.0  0.58591  0.81691  0.33289  1.0000
  H   H2754     1.0  0.53670  0.95772  0.28497  1.0000
  H   H2755     1.0  0.54707  0.92314  0.01792  1.0000
  C   C1557     1.0  0.36382  0.85946  0.15981  1.0000
  C   C1558     1.0  0.52249  0.80904  0.41047  1.0000
  C   C1559     1.0  0.64684  0.90661  0.04566  1.0000
  H   H2756     1.0  0.59801  0.92004  0.42994  1.0000
  H   H2757     1.0  0.54318  0.82600  0.31734  1.0000
  H   H2758     1.0  0.63560  0.92038  0.36741  1.0000
  C   C1560     1.0  0.56106  0.79015  0.45055  1.0000
  H   H2759     1.0  0.42363  0.86959  0.10688  1.0000
  H   H2760     1.0  0.58612  0.92804  0.40628  1.0000
  N   N86       1.0  0.55695  0.94162  0.07683  1.0000
  C   C1561     1.0  0.56077  0.93901  0.10887  1.0000
  C   C1562     1.0  0.53843  0.93400  0.07060  1.0000
  C   C1563     1.0  0.56414  0.93241  0.05751  1.0000
  C   C1564     1.0  0.56424  0.95949  0.06923  1.0000
  C   C1565     1.0  0.56554  0.97222  0.09432  1.0000
  C   C1566     1.0  0.57927  0.94317  0.11742  1.0000
  C   C1567     1.0  0.31814  0.89537  0.09121  1.0000
  C   C1568     1.0  0.52844  0.94217  0.08645  1.0000
  C   C1569     1.0  0.50990  0.93144  0.08309  1.0000
  H   H2761     1.0  0.64423  0.88542  0.35959  1.0000
  C   C1570     1.0  0.58276  0.94433  0.15103  1.0000
  C   C1571     1.0  0.32050  0.89553  0.33245  1.0000
  H   H2762     1.0  0.55373  0.92602  0.11437  1.0000
  H   H2763     1.0  0.55638  0.94594  0.12442  1.0000
  H   H2764     1.0  0.53510  0.93431  0.04666  1.0000
  H   H2765     1.0  0.53343  0.92078  0.07599  1.0000
  H   H2766     1.0  0.55996  0.91952  0.06430  1.0000
  H   H2767     1.0  0.57786  0.93779  0.06066  1.0000
  H   H2768     1.0  0.57705  0.96315  0.06191  1.0000
  H   H2769     1.0  0.52213  0.98335  0.29347  1.0000
  H   H2770     1.0  0.57492  0.97281  0.11205  1.0000
  H   H2771     1.0  0.55375  0.96925  0.10502  1.0000
  H   H2772     1.0  0.58272  0.93335  0.10859  1.0000
  H   H2773     1.0  0.58745  0.95489  0.10811  1.0000
  H   H2774     1.0  0.60073  0.79631  0.43936  1.0000
  C   C1572     1.0  0.32425  0.88327  0.09490  1.0000
  H   H2775     1.0  0.53200  0.94441  0.11039  1.0000
  H   H2776     1.0  0.53048  0.95405  0.07639  1.0000
  H   H2777     1.0  0.50297  0.93762  0.09434  1.0000
  H   H2778     1.0  0.50556  0.92920  0.05927  1.0000
  H   H2779     1.0  0.50714  0.91949  0.09353  1.0000
  H   H2780     1.0  0.60234  0.85984  0.09381  1.0000
  H   H2781     1.0  0.58424  0.93406  0.00989  1.0000
  C   C1573     1.0  0.56527  0.98427  0.20960  1.0000
  H   H2782     1.0  0.57576  0.93230  0.16065  1.0000
  H   H2783     1.0  0.59614  0.94775  0.15629  1.0000
  H   H2784     1.0  0.57928  0.95376  0.16143  1.0000
  C   C1574     1.0  0.50273  0.98701  0.23376  1.0000
  H   H2785     1.0  0.35189  0.86031  0.16375  1.0000
  H   H2786     1.0  0.34590  0.95490  0.23853  1.0000
  N   N87       1.0  0.61272  0.91705  0.34286  1.0000
  C   C1575     1.0  0.60494  0.91569  0.37233  1.0000
  C   C1576     1.0  0.60915  0.90001  0.33074  1.0000
  C   C1577     1.0  0.60702  0.92648  0.32061  1.0000
  C   C1578     1.0  0.58920  0.92555  0.32263  1.0000
  C   C1579     1.0  0.61038  0.93193  0.39104  1.0000
  C   C1580     1.0  0.59072  0.88851  0.32418  1.0000
  C   C1581     1.0  0.58870  0.87109  0.31621  1.0000
  C   C1582     1.0  0.58433  0.93355  0.29629  1.0000
  C   C1583     1.0  0.59871  0.93032  0.41579  1.0000
  H   H2787     1.0  0.60789  0.90698  0.38645  1.0000
  H   H2788     1.0  0.59125  0.91026  0.36955  1.0000
  H   H2789     1.0  0.61507  0.90050  0.30937  1.0000
  H   H2790     1.0  0.61472  0.89383  0.34636  1.0000
  H   H2791     1.0  0.60817  0.92257  0.29754  1.0000
  H   H2792     1.0  0.58823  0.93206  0.34312  1.0000
  H   H2793     1.0  0.57997  0.91280  0.32303  1.0000
  H   H2794     1.0  0.61080  0.94218  0.37706  1.0000
  H   H2795     1.0  0.58328  0.88772  0.34359  1.0000
  H   H2796     1.0  0.58550  0.89279  0.30490  1.0000
  H   H2797     1.0  0.57543  0.86335  0.31054  1.0000
  H   H2798     1.0  0.59587  0.87092  0.29675  1.0000
  H   H2799     1.0  0.59284  0.86579  0.33543  1.0000
  H   H2800     1.0  0.57199  0.93363  0.29935  1.0000
  H   H2801     1.0  0.59336  0.94642  0.29456  1.0000
  H   H2802     1.0  0.58356  0.92655  0.27526  1.0000
  H   H2803     1.0  0.53401  0.79231  0.40558  1.0000
  C   C1584     1.0  0.64404  0.75350  0.37850  1.0000
  H   H2804     1.0  0.54017  0.79651  0.31295  1.0000
  C   C1585     1.0  0.56657  0.98132  0.23976  1.0000
  H   H2805     1.0  0.51580  0.95309  0.29534  1.0000
  C   C1586     1.0  0.40490  0.97621  0.21310  1.0000
  H   H2806     1.0  0.54211  0.98682  0.28118  1.0000
  H   H2807     1.0  0.38412  0.97273  0.39564  1.0000
  H   H2808     1.0  0.50922  0.97459  0.13898  1.0000
  H   H2809     1.0  0.36397  0.97611  0.29638  1.0000
  C   C1587     1.0  0.63124  0.92586  0.34867  1.0000
  C   C1588     1.0  0.53981  0.80869  0.36741  1.0000
  N   N88       1.0  0.63410  0.89594  0.02219  1.0000
  H   H2810     1.0  0.57022  0.83112  0.36390  1.0000
  H   H2811     1.0  0.37287  0.97357  0.26312  1.0000
  H   H2812     1.0  0.55122  0.77486  0.32272  1.0000
  H   H2813     1.0  0.35081  0.94633  0.30298  1.0000
  C   C1589     1.0  0.56990  0.81873  0.36778  1.0000
  H   H2814     1.0  0.40036  0.95798  0.35173  1.0000
  C   C1590     1.0  0.57100  0.92569  0.00610  1.0000
  C   C1591     1.0  0.61793  0.88692  0.03649  1.0000
  H   H2815     1.0  0.64104  0.87534  0.02622  1.0000
  C   C1592     1.0  0.32187  0.89146  0.30265  1.0000
  H   H2816     1.0  0.54797  0.75633  0.36575  1.0000
  C   C1593     1.0  0.56006  0.93183  0.02352  1.0000
  H   H2817     1.0  0.39951  0.96480  0.40429  1.0000
  H   H2818     1.0  0.56175  0.80346  0.31059  1.0000
  H   H2819     1.0  0.58770  0.80746  0.36741  1.0000
  H   H2820     1.0  0.53931  0.81236  0.26736  1.0000
  C   C1594     1.0  0.52124  0.98418  0.19779  1.0000
  C   C1595     1.0  0.63439  0.89213  0.39808  1.0000
  C   C1596     1.0  0.64192  0.92620  0.32215  1.0000
  H   H2821     1.0  0.55212  0.83395  0.26741  1.0000
  H   H2822     1.0  0.52527  0.96733  0.14771  1.0000
  C   C1597     1.0  0.55144  0.82201  0.27541  1.0000
  H   H2823     1.0  0.55799  0.78952  0.38676  1.0000
  H   H2824     1.0  0.60046  0.84441  0.35788  1.0000
  C   C1598     1.0  0.55235  0.78879  0.36385  1.0000
  H   H2825     1.0  0.60796  0.88011  0.01928  1.0000
  H   H2826     1.0  0.53907  0.78036  0.36491  1.0000
  H   H2827     1.0  0.57196  0.78709  0.33650  1.0000
  H   H2828     1.0  0.62857  0.88012  0.07674  1.0000
  C   C1599     1.0  0.55319  0.82279  0.30933  1.0000
  H   H2829     1.0  0.54702  0.73907  0.99297  1.0000
  C   C1600     1.0  0.41550  0.95036  0.27787  1.0000
  C   C1601     1.0  0.58602  0.81800  0.35738  1.0000
  N   N89       1.0  0.38537  0.97016  0.30321  1.0000
  C   C1602     1.0  0.56031  0.76458  0.35850  1.0000
  H   H2830     1.0  0.56155  0.81945  0.26591  1.0000
  C   C1603     1.0  0.35594  0.95108  0.28144  1.0000
  C   C1604     1.0  0.56852  0.92078  0.47514  1.0000
  H   H2831     1.0  0.36056  0.94244  0.27153  1.0000
  H   H2832     1.0  0.52587  0.75123  0.03145  1.0000
  H   H2833     1.0  0.61254  0.83231  0.35994  1.0000
  H   H2834     1.0  0.47219  0.98184  0.25524  1.0000
  C   C1605     1.0  0.52860  0.96269  0.29585  1.0000
  H   H2835     1.0  0.52110  0.80716  0.43464  1.0000
  H   H2836     1.0  0.42908  0.95408  0.28050  1.0000
  H   H2837     1.0  0.49777  0.98186  0.28037  1.0000
  H   H2838     1.0  0.38905  0.95812  0.26376  1.0000
  H   H2839     1.0  0.32532  0.86177  0.07444  1.0000
  H   H2840     1.0  0.55310  0.75098  0.02674  1.0000
  H   H2841     1.0  0.63459  0.93883  0.35598  1.0000
  H   H2842     1.0  0.41178  0.94835  0.25376  1.0000
  C   C1606     1.0  0.39202  0.95894  0.28820  1.0000
  H   H2843     1.0  0.54511  0.77112  0.99744  1.0000
  H   H2844     1.0  0.51016  0.96268  0.24701  1.0000
  H   H2845     1.0  0.51080  0.80079  0.39829  1.0000
  H   H2846     1.0  0.51284  0.95726  0.19555  1.0000
  C   C1607     1.0  0.41099  0.96377  0.29119  1.0000
  C   C1608     1.0  0.50996  0.96687  0.18450  1.0000
  H   H2847     1.0  0.49671  0.96412  0.18682  1.0000
  H   H2848     1.0  0.37232  0.95188  0.33427  1.0000
  H   H2849     1.0  0.57497  0.74466  0.03548  1.0000
  H   H2850     1.0  0.32250  0.83212  0.43479  1.0000
  H   H2851     1.0  0.36925  0.85754  0.18140  1.0000
  H   H2852     1.0  0.62767  0.92348  0.02884  1.0000
  H   H2853     1.0  0.58587  0.79345  0.98836  1.0000
  S   S358      1.0  0.55426  0.74203  0.44531  1.0000
  H   H2854     1.0  0.64082  0.91067  0.06341  1.0000
  H   H2855     1.0  0.56926  0.91323  0.01283  1.0000
  H   H2856     1.0  0.37363  0.97168  0.34347  1.0000
  H   H2857     1.0  0.32092  0.90489  0.10831  1.0000
  H   H2858     1.0  0.59755  0.91700  0.48249  1.0000
  H   H2859     1.0  0.53424  0.98627  0.19364  1.0000
  C   C1609     1.0  0.32045  0.87104  0.07218  1.0000
  H   H2860     1.0  0.64281  0.91419  0.31948  1.0000
  C   C1610     1.0  0.64668  0.89422  0.37788  1.0000
  C   C1611     1.0  0.63307  0.74445  0.39957  1.0000
  H   H2861     1.0  0.57369  0.93423  0.47247  1.0000
  C   C1612     1.0  0.63931  0.88326  0.00884  1.0000
  C   C1613     1.0  0.53348  0.76088  0.98898  1.0000
  H   H2862     1.0  0.41756  0.97504  0.27896  1.0000
  H   H2863     1.0  0.62034  0.74303  0.39814  1.0000
  N   N90       1.0  0.51972  0.98725  0.23038  1.0000
  S   S359      1.0  0.59058  0.86283  0.48204  1.0000
  H   H2864     1.0  0.52360  0.76552  0.98678  1.0000
  C   C1614     1.0  0.59328  0.73927  0.33685  1.0000
  H   H2865     1.0  0.56609  0.73937  0.07094  1.0000
  H   H2866     1.0  0.31573  0.82108  0.48467  1.0000
  C   C1615     1.0  0.34457  0.97359  0.77101  1.0000
  Fe  Fe181     1.0  0.56591  0.84528  0.93951  1.0000
  H   H2867     1.0  0.61177  0.90399  0.57630  1.0000
  S   S360      1.0  0.55401  0.81771  0.92757  1.0000
  Fe  Fe182     1.0  0.56678  0.87828  0.91831  1.0000
  S   S361      1.0  0.58813  0.89265  0.95085  1.0000
  S   S362      1.0  0.55606  0.89337  0.89054  1.0000
  Fe  Fe183     1.0  0.59875  0.87474  0.93754  1.0000
  S   S363      1.0  0.62493  0.87811  0.92838  1.0000
  C   C1616     1.0  0.33015  0.93656  0.76806  1.0000
  S   S364      1.0  0.55687  0.86688  0.52641  1.0000
  S   S365      1.0  0.57848  0.86169  0.90267  1.0000
  S   S366      1.0  0.55230  0.86097  0.95280  1.0000
  Fe  Fe184     1.0  0.53617  0.91363  0.72294  1.0000
  S   S367      1.0  0.54879  0.93045  0.68631  1.0000
  S   S368      1.0  0.54960  0.90076  0.75028  1.0000
  Fe  Fe185     1.0  0.50200  0.91315  0.70436  1.0000
  S   S369      1.0  0.51218  0.92937  0.66643  1.0000
  S   S370      1.0  0.47544  0.90236  0.71984  1.0000
  Fe  Fe186     1.0  0.52690  0.91439  0.65653  1.0000
  S   S371      1.0  0.52811  0.90853  0.60682  1.0000
  Fe  Fe187     1.0  0.53344  0.94431  0.69870  1.0000
  S   S372      1.0  0.53997  0.97175  0.69632  1.0000
  S   S373      1.0  0.51495  0.89686  0.69236  1.0000
  S   S374      1.0  0.52249  0.92876  0.73750  1.0000
  Fe  Fe188     1.0  0.38325  0.90689  0.69343  1.0000
  S   S375      1.0  0.37078  0.91817  0.66119  1.0000
  S   S376      1.0  0.40786  0.90792  0.67624  1.0000
  Fe  Fe189     1.0  0.35636  0.90143  0.73910  1.0000
  S   S377      1.0  0.34296  0.91271  0.70975  1.0000
  S   S378      1.0  0.34990  0.89581  0.78791  1.0000
  Fe  Fe190     1.0  0.34663  0.89797  0.67169  1.0000
  H   H2868     1.0  0.49361  0.97027  0.67665  1.0000
  Fe  Fe191     1.0  0.36806  0.93191  0.70136  1.0000
  S   S379      1.0  0.37219  0.95876  0.69996  1.0000
  S   S380      1.0  0.35906  0.88555  0.70168  1.0000
  S   S381      1.0  0.38152  0.92180  0.73289  1.0000
  C   C1617     1.0  0.33094  0.88626  0.80609  1.0000
  H   H2869     1.0  0.53746  0.97917  0.77073  1.0000
  H   H2870     1.0  0.37592  0.92924  0.83544  1.0000
  H   H2871     1.0  0.35539  0.93032  0.77350  1.0000
  H   H2872     1.0  0.62330  0.91711  0.50497  1.0000
  C   C1618     1.0  0.64074  0.91116  0.91845  1.0000
  H   H2873     1.0  0.41860  0.94690  0.67967  1.0000
  H   H2874     1.0  0.59237  0.86934  0.54826  1.0000
  H   H2875     1.0  0.63789  0.93813  0.98197  1.0000
  C   C1619     1.0  0.32832  0.88888  0.58101  1.0000
  H   H2876     1.0  0.57819  0.77242  0.54422  1.0000
  H   H2877     1.0  0.34135  0.89507  0.58744  1.0000
  N   N91       1.0  0.44420  0.96235  0.69230  1.0000
  C   C1620     1.0  0.38901  0.97463  0.71946  1.0000
  C   C1621     1.0  0.39997  0.97124  0.73868  1.0000
  H   H2878     1.0  0.59675  0.89462  0.51207  1.0000
  H   H2879     1.0  0.39826  0.95870  0.74167  1.0000
  N   N92       1.0  0.60381  0.91932  0.52968  1.0000
  C   C1622     1.0  0.45732  0.90546  0.70856  1.0000
  C   C1623     1.0  0.45549  0.91158  0.68091  1.0000
  C   C1624     1.0  0.44023  0.91203  0.67145  1.0000
  C   C1625     1.0  0.42679  0.90709  0.68993  1.0000
  C   C1626     1.0  0.42882  0.90152  0.71803  1.0000
  C   C1627     1.0  0.44390  0.90051  0.72707  1.0000
  H   H2880     1.0  0.46563  0.91545  0.66641  1.0000
  H   H2881     1.0  0.43878  0.91612  0.64949  1.0000
  H   H2882     1.0  0.41862  0.89757  0.73248  1.0000
  H   H2883     1.0  0.44509  0.89567  0.74847  1.0000
  H   H2884     1.0  0.31585  0.87381  0.76715  1.0000
  H   H2885     1.0  0.56334  0.97317  0.74575  1.0000
  H   H2886     1.0  0.34066  0.97711  0.79209  1.0000
  C   C1628     1.0  0.54909  0.87892  0.54822  1.0000
  C   C1629     1.0  0.55049  0.87862  0.57948  1.0000
  C   C1630     1.0  0.54450  0.88781  0.59778  1.0000
  C   C1631     1.0  0.53671  0.89724  0.58509  1.0000
  C   C1632     1.0  0.53525  0.89749  0.55386  1.0000
  C   C1633     1.0  0.54140  0.88845  0.53557  1.0000
  H   H2887     1.0  0.55623  0.87120  0.58966  1.0000
  H   H2888     1.0  0.54574  0.88741  0.62169  1.0000
  H   H2889     1.0  0.52921  0.90466  0.54367  1.0000
  H   H2890     1.0  0.53990  0.88864  0.51166  1.0000
  C   C1634     1.0  0.55426  0.89505  0.85142  1.0000
  C   C1635     1.0  0.55799  0.88510  0.83133  1.0000
  C   C1636     1.0  0.55648  0.88703  0.80048  1.0000
  C   C1637     1.0  0.55118  0.89885  0.78934  1.0000
  C   C1638     1.0  0.54737  0.90873  0.80940  1.0000
  C   C1639     1.0  0.54887  0.90680  0.84024  1.0000
  H   H2891     1.0  0.56200  0.87591  0.83957  1.0000
  H   H2892     1.0  0.55937  0.87926  0.78512  1.0000
  H   H2893     1.0  0.54335  0.91791  0.80117  1.0000
  H   H2894     1.0  0.54595  0.91456  0.85557  1.0000
  H   H2895     1.0  0.32803  0.84763  0.61427  1.0000
  H   H2896     1.0  0.42670  0.97310  0.70083  1.0000
  C   C1640     1.0  0.57093  0.77656  0.95326  1.0000
  C   C1641     1.0  0.55993  0.77453  0.92867  1.0000
  C   C1642     1.0  0.55506  0.78730  0.92092  1.0000
  C   C1643     1.0  0.56144  0.80242  0.93707  1.0000
  C   C1644     1.0  0.57284  0.80461  0.96108  1.0000
  H   H2897     1.0  0.45249  0.84654  0.53894  1.0000
  C   C1645     1.0  0.57595  0.91660  0.50346  1.0000
  H   H2898     1.0  0.38093  0.92636  0.79801  1.0000
  C   C1646     1.0  0.42922  0.95747  0.63971  1.0000
  H   H2899     1.0  0.44067  0.94822  0.78123  1.0000
  H   H2900     1.0  0.59700  0.93771  0.61398  1.0000
  H   H2901     1.0  0.55475  0.76296  0.91619  1.0000
  H   H2902     1.0  0.32078  0.94192  0.76692  1.0000
  H   H2903     1.0  0.41564  0.94877  0.59707  1.0000
  C   C1647     1.0  0.38187  0.93564  0.81547  1.0000
  S   S382      1.0  0.32314  0.88350  0.64156  1.0000
  H   H2904     1.0  0.47893  0.85320  0.61744  1.0000
  H   H2905     1.0  0.64063  0.76156  0.84910  1.0000
  H   H2906     1.0  0.35879  0.98637  0.73429  1.0000
  C   C1648     1.0  0.64441  0.75461  0.86497  1.0000
  H   H2907     1.0  0.35887  0.96045  0.75570  1.0000
  C   C1649     1.0  0.42844  0.94745  0.73771  1.0000
  H   H2908     1.0  0.64369  0.81477  0.89408  1.0000
  C   C1650     1.0  0.52618  0.98008  0.77877  1.0000
  H   H2909     1.0  0.61822  0.89499  0.54619  1.0000
  H   H2910     1.0  0.47055  0.97650  0.69734  1.0000
  H   H2911     1.0  0.62829  0.95148  0.52956  1.0000
  H   H2912     1.0  0.45498  0.96052  0.73550  1.0000
  H   H2913     1.0  0.41776  0.93828  0.72448  1.0000
  H   H2914     1.0  0.42540  0.95789  0.74403  1.0000
  S   S383      1.0  0.58679  0.85758  0.97361  1.0000
  H   H2915     1.0  0.32170  0.83587  0.53447  1.0000
  H   H2916     1.0  0.61889  0.78913  0.89517  1.0000
  C   C1651     1.0  0.63055  0.94301  0.51385  1.0000
  H   H2917     1.0  0.59952  0.93598  0.49935  1.0000
  H   H2918     1.0  0.34231  0.89661  0.84918  1.0000
  H   H2919     1.0  0.43332  0.92858  0.76125  1.0000
  H   H2920     1.0  0.53523  0.75666  0.96661  1.0000
  Fe  Fe192     1.0  0.57433  0.87455  0.98463  1.0000
  H   H2921     1.0  0.34895  0.96860  0.88823  1.0000
  C   C1652     1.0  0.64469  0.80327  0.88707  1.0000
  H   H2922     1.0  0.50531  0.85189  0.63575  1.0000
  C   C1653     1.0  0.60726  0.89544  0.55661  1.0000
  C   C1654     1.0  0.56615  0.98548  0.73873  1.0000
  C   C1655     1.0  0.34914  0.95841  0.84430  1.0000
  C   C1656     1.0  0.33095  0.88876  0.83706  1.0000
  N   N93       1.0  0.47115  0.88016  0.61334  1.0000
  C   C1657     1.0  0.48806  0.88021  0.61967  1.0000
  C   C1658     1.0  0.47304  0.89759  0.60958  1.0000
  C   C1659     1.0  0.46131  0.87403  0.64044  1.0000
  C   C1660     1.0  0.46193  0.86934  0.58659  1.0000
  C   C1661     1.0  0.47241  0.86774  0.56097  1.0000
  C   C1662     1.0  0.48836  0.86386  0.63020  1.0000
  C   C1663     1.0  0.44352  0.87350  0.63896  1.0000
  C   C1664     1.0  0.48304  0.90674  0.58339  1.0000
  C   C1665     1.0  0.48607  0.92485  0.58511  1.0000
  C   C1666     1.0  0.46142  0.85895  0.53352  1.0000
  C   C1667     1.0  0.43423  0.86532  0.66600  1.0000
  H   H2923     1.0  0.49514  0.88981  0.63702  1.0000
  H   H2924     1.0  0.49560  0.88379  0.60003  1.0000
  H   H2925     1.0  0.46081  0.89817  0.60598  1.0000
  H   H2926     1.0  0.47888  0.90501  0.63040  1.0000
  H   H2927     1.0  0.46812  0.88157  0.66064  1.0000
  H   H2928     1.0  0.45977  0.86129  0.64473  1.0000
  H   H2929     1.0  0.45473  0.85657  0.59332  1.0000
  H   H2930     1.0  0.45252  0.87352  0.57702  1.0000
  H   H2931     1.0  0.47953  0.86049  0.56794  1.0000
  H   H2932     1.0  0.48141  0.87974  0.55420  1.0000
  H   H2933     1.0  0.48571  0.86248  0.65409  1.0000
  H   H2934     1.0  0.61889  0.92454  0.96219  1.0000
  H   H2935     1.0  0.43624  0.86658  0.61879  1.0000
  H   H2936     1.0  0.44375  0.88597  0.63881  1.0000
  H   H2937     1.0  0.49530  0.90619  0.58320  1.0000
  H   H2938     1.0  0.47596  0.90150  0.56203  1.0000
  H   H2939     1.0  0.47417  0.92630  0.58487  1.0000
  H   H2940     1.0  0.49367  0.93093  0.60564  1.0000
  H   H2941     1.0  0.49291  0.93106  0.56573  1.0000
  H   H2942     1.0  0.36516  0.97001  0.79124  1.0000
  C   C1668     1.0  0.44035  0.97687  0.70083  1.0000
  H   H2943     1.0  0.31684  0.88278  0.87650  1.0000
  H   H2944     1.0  0.42200  0.86610  0.66541  1.0000
  H   H2945     1.0  0.44125  0.87159  0.68690  1.0000
  N   N94       1.0  0.49857  0.86769  0.79676  1.0000
  C   C1669     1.0  0.50079  0.88443  0.80843  1.0000
  C   C1670     1.0  0.50876  0.86137  0.81664  1.0000
  C   C1671     1.0  0.50554  0.86969  0.76637  1.0000
  C   C1672     1.0  0.48065  0.85566  0.79382  1.0000
  C   C1673     1.0  0.46879  0.85788  0.81615  1.0000
  C   C1674     1.0  0.49409  0.89413  0.78719  1.0000
  C   C1675     1.0  0.50696  0.85440  0.75219  1.0000
  C   C1676     1.0  0.50485  0.85961  0.84980  1.0000
  C   C1677     1.0  0.51659  0.85378  0.86723  1.0000
  C   C1678     1.0  0.45202  0.84328  0.81404  1.0000
  C   C1679     1.0  0.49317  0.90892  0.80319  1.0000
  C   C1680     1.0  0.51109  0.85690  0.71961  1.0000
  H   H2946     1.0  0.51415  0.89218  0.81339  1.0000
  H   H2947     1.0  0.49516  0.88379  0.83005  1.0000
  H   H2948     1.0  0.50731  0.84899  0.80871  1.0000
  H   H2949     1.0  0.52214  0.86945  0.81565  1.0000
  H   H2950     1.0  0.51808  0.87980  0.76722  1.0000
  H   H2951     1.0  0.49788  0.87341  0.75024  1.0000
  H   H2952     1.0  0.47499  0.85608  0.77139  1.0000
  H   H2953     1.0  0.47980  0.84290  0.79517  1.0000
  H   H2954     1.0  0.46649  0.86894  0.81122  1.0000
  H   H2955     1.0  0.47379  0.85934  0.83943  1.0000
  H   H2956     1.0  0.50250  0.89882  0.76885  1.0000
  H   H2957     1.0  0.48165  0.88632  0.77710  1.0000
  H   H2958     1.0  0.49525  0.84338  0.75331  1.0000
  H   H2959     1.0  0.51713  0.85211  0.76383  1.0000
  H   H2960     1.0  0.50621  0.87142  0.86034  1.0000
  H   H2961     1.0  0.49220  0.85023  0.85217  1.0000
  H   H2962     1.0  0.52964  0.86245  0.86550  1.0000
  H   H2963     1.0  0.51388  0.85301  0.89109  1.0000
  H   H2964     1.0  0.51509  0.84147  0.85881  1.0000
  H   H2965     1.0  0.44366  0.84539  0.82963  1.0000
  H   H2966     1.0  0.44620  0.84168  0.79117  1.0000
  H   H2967     1.0  0.45345  0.83190  0.82011  1.0000
  H   H2968     1.0  0.50558  0.91722  0.81288  1.0000
  H   H2969     1.0  0.48882  0.91580  0.78705  1.0000
  H   H2970     1.0  0.48432  0.90492  0.82105  1.0000
  H   H2971     1.0  0.51241  0.84594  0.71024  1.0000
  H   H2972     1.0  0.50112  0.85874  0.70639  1.0000
  H   H2973     1.0  0.52297  0.86769  0.71766  1.0000
  H   H2974     1.0  0.60173  0.94040  0.55051  1.0000
  S   S384      1.0  0.57601  0.76032  0.96657  1.0000
  C   C1681     1.0  0.41705  0.94378  0.61892  1.0000
  C   C1682     1.0  0.31611  0.87599  0.79088  1.0000
  H   H2975     1.0  0.57780  0.81608  0.97386  1.0000
  C   C1683     1.0  0.50529  0.86343  0.62700  1.0000
  C   C1684     1.0  0.59702  0.87836  0.56731  1.0000
  H   H2976     1.0  0.62750  0.77893  0.87069  1.0000
  H   H2977     1.0  0.32747  0.95316  0.81454  1.0000
  H   H2978     1.0  0.39517  0.94307  0.82144  1.0000
  H   H2979     1.0  0.33278  0.96867  0.86248  1.0000
  C   C1685     1.0  0.43054  0.93939  0.76632  1.0000
  C   C1686     1.0  0.32849  0.84699  0.58972  1.0000
  H   H2980     1.0  0.54585  0.74383  0.52230  1.0000
  C   C1687     1.0  0.46126  0.96807  0.68051  1.0000
  C   C1688     1.0  0.33692  0.94806  0.81882  1.0000
  H   H2981     1.0  0.59007  0.91021  0.58965  1.0000
  H   H2982     1.0  0.62237  0.89713  0.97969  1.0000
  H   H2983     1.0  0.63689  0.90383  0.80230  1.0000
  H   H2984     1.0  0.54619  0.78540  0.90239  1.0000
  C   C1689     1.0  0.44428  0.95304  0.72000  1.0000
  H   H2985     1.0  0.63667  0.92239  0.78844  1.0000
  H   H2986     1.0  0.62994  0.91232  0.92636  1.0000
  H   H2987     1.0  0.44587  0.94160  0.71448  1.0000
  H   H2988     1.0  0.43222  0.85222  0.66605  1.0000
  H   H2989     1.0  0.58631  0.87837  0.57917  1.0000
  N   N95       1.0  0.61118  0.90774  0.83295  1.0000
  C   C1690     1.0  0.60353  0.90427  0.80157  1.0000
  C   C1691     1.0  0.60774  0.89164  0.84744  1.0000
  C   C1692     1.0  0.60250  0.91643  0.84983  1.0000
  C   C1693     1.0  0.62953  0.91839  0.83460  1.0000
  C   C1694     1.0  0.31648  0.88091  0.85268  1.0000
  C   C1695     1.0  0.60250  0.91911  0.78556  1.0000
  C   C1696     1.0  0.60722  0.91971  0.88355  1.0000
  C   C1697     1.0  0.61510  0.88037  0.83315  1.0000
  C   C1698     1.0  0.60814  0.86335  0.84602  1.0000
  H   H2990     1.0  0.57642  0.74499  0.55997  1.0000
  C   C1699     1.0  0.59838  0.91536  0.75225  1.0000
  C   C1700     1.0  0.59963  0.93071  0.89706  1.0000
  H   H2991     1.0  0.59067  0.89472  0.80138  1.0000
  H   H2992     1.0  0.61004  0.89892  0.78724  1.0000
  H   H2993     1.0  0.61283  0.89365  0.87088  1.0000
  H   H2994     1.0  0.59412  0.88459  0.84837  1.0000
  H   H2995     1.0  0.58886  0.90943  0.84722  1.0000
  H   H2996     1.0  0.60504  0.92861  0.84054  1.0000
  H   H2997     1.0  0.63185  0.93161  0.83627  1.0000
  H   H2998     1.0  0.63545  0.91619  0.85544  1.0000
  C   C1701     1.0  0.33992  0.96151  0.86992  1.0000
  H   H2999     1.0  0.41889  0.93518  0.77811  1.0000
  H   H3000     1.0  0.59246  0.92204  0.79446  1.0000
  H   H3001     1.0  0.61430  0.93011  0.78885  1.0000
  H   H3002     1.0  0.62081  0.92586  0.88774  1.0000
  H   H3003     1.0  0.60246  0.90808  0.89540  1.0000
  H   H3004     1.0  0.61233  0.87860  0.80886  1.0000
  H   H3005     1.0  0.62871  0.88563  0.83794  1.0000
  C   C1702     1.0  0.35401  0.96251  0.77702  1.0000
  H   H3006     1.0  0.59455  0.85724  0.84120  1.0000
  H   H3007     1.0  0.61393  0.85568  0.83595  1.0000
  H   H3008     1.0  0.43287  0.93944  0.66708  1.0000
  H   H3009     1.0  0.33006  0.93589  0.82813  1.0000
  C   C1703     1.0  0.57740  0.79172  0.96926  1.0000
  H   H3010     1.0  0.59702  0.92594  0.74170  1.0000
  H   H3011     1.0  0.60838  0.91310  0.74166  1.0000
  H   H3012     1.0  0.58650  0.90448  0.74825  1.0000
  H   H3013     1.0  0.60261  0.93228  0.92140  1.0000
  H   H3014     1.0  0.60464  0.94295  0.88724  1.0000
  H   H3015     1.0  0.58596  0.92511  0.89316  1.0000
  C   C1704     1.0  0.43101  0.95087  0.67051  1.0000
  H   H3016     1.0  0.57582  0.91341  0.56414  1.0000
  H   H3017     1.0  0.50826  0.86402  0.60326  1.0000
  H   H3018     1.0  0.40470  0.93834  0.62840  1.0000
  H   H3019     1.0  0.32857  0.91143  0.77041  1.0000
  H   H3020     1.0  0.42156  0.98137  0.76898  1.0000
  H   H3021     1.0  0.33136  0.94974  0.87867  1.0000
  H   H3022     1.0  0.61083  0.86414  0.87040  1.0000
  H   H3023     1.0  0.33470  0.93727  0.74525  1.0000
  H   H3024     1.0  0.38027  0.95317  0.78493  1.0000
  H   H3025     1.0  0.45874  0.94607  0.65425  1.0000
  H   H3026     1.0  0.58425  0.89625  0.53985  1.0000
  C   C1705     1.0  0.37363  0.94675  0.80431  1.0000
  H   H3027     1.0  0.46224  0.97537  0.66050  1.0000
  C   C1706     1.0  0.60239  0.92869  0.55698  1.0000
  H   H3028     1.0  0.37557  0.95613  0.82201  1.0000
  H   H3029     1.0  0.62601  0.94443  0.49113  1.0000
  H   H3030     1.0  0.33662  0.84072  0.58411  1.0000
  C   C1707     1.0  0.58555  0.93151  0.59949  1.0000
  H   H3031     1.0  0.61376  0.93248  0.57203  1.0000
  C   C1708     1.0  0.59723  0.90111  0.53363  1.0000
  H   H3032     1.0  0.58237  0.94083  0.58794  1.0000
  C   C1709     1.0  0.58776  0.91969  0.57696  1.0000
  H   H3033     1.0  0.52201  0.97190  0.79770  1.0000
  H   H3034     1.0  0.57526  0.92462  0.61370  1.0000
  C   C1710     1.0  0.41312  0.98410  0.75414  1.0000
  H   H3035     1.0  0.46815  0.94747  0.69123  1.0000
  H   H3036     1.0  0.60475  0.87447  0.58279  1.0000
  C   C1711     1.0  0.55625  0.74942  0.53925  1.0000
  H   H3037     1.0  0.42157  0.93398  0.61540  1.0000
  H   H3038     1.0  0.57008  0.90315  0.50525  1.0000
  C   C1712     1.0  0.35508  0.93679  0.79468  1.0000
  C   C1713     1.0  0.64131  0.89578  0.91694  1.0000
  N   N96       1.0  0.34430  0.94621  0.79022  1.0000
  H   H3039     1.0  0.64288  0.74003  0.80017  1.0000
  H   H3040     1.0  0.57265  0.92273  0.52205  1.0000
  H   H3041     1.0  0.46920  0.85763  0.51589  1.0000
  C   C1714     1.0  0.31696  0.88261  0.60293  1.0000
  H   H3042     1.0  0.56134  0.77328  0.52123  1.0000
  H   H3043     1.0  0.48437  0.96880  0.63937  1.0000
  H   H3044     1.0  0.44114  0.96267  0.62897  1.0000
  C   C1715     1.0  0.32286  0.88669  0.55061  1.0000
  H   H3045     1.0  0.51630  0.97578  0.76062  1.0000
  H   H3046     1.0  0.58905  0.74806  0.83588  1.0000
  H   H3047     1.0  0.45453  0.86609  0.52471  1.0000
  H   H3048     1.0  0.33185  0.89129  0.53395  1.0000
  C   C1716     1.0  0.59492  0.92262  0.50280  1.0000
  H   H3049     1.0  0.34963  0.92698  0.81081  1.0000
  H   H3050     1.0  0.55133  0.75231  0.55971  1.0000
  H   H3051     1.0  0.35633  0.95164  0.85340  1.0000
  H   H3052     1.0  0.62916  0.92364  0.54277  1.0000
  C   C1717     1.0  0.32060  0.91809  0.77391  1.0000
  H   H3053     1.0  0.42409  0.96688  0.64193  1.0000
  C   C1718     1.0  0.56813  0.76557  0.52725  1.0000
  C   C1719     1.0  0.46723  0.95455  0.67179  1.0000
  H   H3054     1.0  0.51507  0.87390  0.63968  1.0000
  C   C1720     1.0  0.48444  0.96194  0.65966  1.0000
  C   C1721     1.0  0.62734  0.79096  0.87682  1.0000
  H   H3055     1.0  0.33352  0.96742  0.75566  1.0000
  H   H3056     1.0  0.44512  0.98135  0.72407  1.0000
  H   H3057     1.0  0.62239  0.79548  0.85748  1.0000
  C   C1722     1.0  0.62183  0.92501  0.52307  1.0000
  H   H3058     1.0  0.57368  0.76328  0.50701  1.0000
  H   H3059     1.0  0.48841  0.95199  0.65377  1.0000
  C   C1723     1.0  0.63959  0.91672  0.80841  1.0000
  H   H3060     1.0  0.33390  0.85970  0.58194  1.0000
  H   H3061     1.0  0.35770  0.97049  0.83689  1.0000
  C   C1724     1.0  0.63304  0.74479  0.88479  1.0000
  H   H3062     1.0  0.31640  0.91602  0.79680  1.0000
  H   H3063     1.0  0.56755  0.92503  0.98196  1.0000
  H   H3064     1.0  0.62072  0.74448  0.88465  1.0000
  C   C1725     1.0  0.55700  0.98803  0.71469  1.0000
  C   C1726     1.0  0.62459  0.93033  0.98417  1.0000
  H   H3065     1.0  0.32308  0.84299  0.48559  1.0000
  Fe  Fe193     1.0  0.92533  0.20532  0.11048  1.0000
  S   S385      1.0  0.92468  0.19093  0.06891  1.0000
  S   S386      1.0  0.91171  0.22187  0.11574  1.0000
  Fe  Fe194     1.0  0.94563  0.19058  0.14762  1.0000
  S   S387      1.0  0.94536  0.17435  0.10823  1.0000
  S   S388      1.0  0.95829  0.18874  0.19275  1.0000
  Fe  Fe195     1.0  0.95159  0.19685  0.08094  1.0000
  C   C1727     1.0  0.90375  0.22937  0.08546  1.0000
  Fe  Fe196     1.0  0.91837  0.16956  0.09938  1.0000
  S   S389      1.0  0.89723  0.14536  0.08160  1.0000
  S   S390      1.0  0.95261  0.21304  0.12070  1.0000
  S   S391      1.0  0.91825  0.18398  0.14058  1.0000
  Fe  Fe197     1.0  0.69281  0.13224  0.05958  1.0000
  S   S392      1.0  0.68243  0.11222  0.02355  1.0000
  S   S393      1.0  0.68209  0.13514  0.10368  1.0000
  Fe  Fe198     1.0  0.72658  0.14944  0.03059  1.0000
  C   C1728     1.0  0.96725  0.21982  0.47833  1.0000
  S   S394      1.0  0.75439  0.16692  0.03317  1.0000
  H   H3066     1.0  0.68699  0.08994  0.08239  1.0000
  S   S395      1.0  0.69123  0.12381  0.43212  1.0000
  Fe  Fe199     1.0  0.70766  0.11173  0.02816  1.0000
  S   S396      1.0  0.71202  0.08850  0.02575  1.0000
  S   S397      1.0  0.70254  0.15265  0.02700  1.0000
  S   S398      1.0  0.71743  0.13048  0.06544  1.0000
  Fe  Fe200     1.0  0.80648  0.06711  0.11882  1.0000
  S   S399      1.0  0.78997  0.06301  0.15726  1.0000
  S   S400      1.0  0.83094  0.09004  0.12918  1.0000
  Fe  Fe201     1.0  0.77902  0.03822  0.08211  1.0000
  S   S401      1.0  0.76111  0.03332  0.11855  1.0000
  S   S402      1.0  0.76662  0.02278  0.03906  1.0000
  Fe  Fe202     1.0  0.76994  0.06065  0.12274  1.0000
  S   S403      1.0  0.75420  0.07486  0.13137  1.0000
  Fe  Fe203     1.0  0.78241  0.03583  0.15035  1.0000
  S   S404      1.0  0.78198  0.01859  0.18886  1.0000
  S   S405      1.0  0.78641  0.06572  0.08461  1.0000
  S   S406      1.0  0.80035  0.03985  0.11384  1.0000
  C   C1729     1.0  0.76643  0.00790  0.01177  1.0000
  H   H3067     1.0  0.67652  0.08789  0.41733  1.0000
  H   H3068     1.0  0.74789  0.19673  0.02599  1.0000
  C   C1730     1.0  0.65513  0.11440  0.17459  1.0000
  H   H3069     1.0  0.95375  0.20024  0.00006  1.0000
  C   C1731     1.0  0.67014  0.07132  0.11126  1.0000
  H   H3070     1.0  0.78635  0.04627  0.32609  1.0000
  C   C1732     1.0  0.76853  0.00408  0.21335  1.0000
  H   H3071     1.0  0.73490  0.00412  0.30680  1.0000
  C   C1733     1.0  0.96431  0.18811  0.33254  1.0000
  C   C1734     1.0  0.77898  0.00215  0.01086  1.0000
  H   H3072     1.0  0.82198  0.12137  0.03379  1.0000
  H   H3073     1.0  0.94202  0.14091  0.41563  1.0000
  C   C1735     1.0  0.66697  0.12105  0.12584  1.0000
  C   C1736     1.0  0.96824  0.21684  0.33129  1.0000
  H   H3074     1.0  0.65890  0.10170  0.33730  1.0000
  H   H3075     1.0  0.66002  0.05845  0.05361  1.0000
  H   H3076     1.0  0.66499  0.09699  0.45665  1.0000
  C   C1737     1.0  0.67298  0.11821  0.40785  1.0000
  C   C1738     1.0  0.67287  0.11168  0.37909  1.0000
  C   C1739     1.0  0.74817  0.99096  0.10236  1.0000
  C   C1740     1.0  0.65870  0.10667  0.35924  1.0000
  H   H3077     1.0  0.68385  0.11045  0.37212  1.0000
  H   H3078     1.0  0.85503  0.21997  0.03844  1.0000
  C   C1741     1.0  0.74235  0.07825  0.10180  1.0000
  C   C1742     1.0  0.74072  0.07074  0.07370  1.0000
  C   C1743     1.0  0.73116  0.07375  0.05061  1.0000
  C   C1744     1.0  0.72351  0.08456  0.05531  1.0000
  C   C1745     1.0  0.72516  0.09207  0.08342  1.0000
  C   C1746     1.0  0.73442  0.08881  0.10665  1.0000
  H   H3079     1.0  0.74673  0.06252  0.06979  1.0000
  H   H3080     1.0  0.72988  0.06785  0.02894  1.0000
  H   H3081     1.0  0.71924  0.10033  0.08724  1.0000
  H   H3082     1.0  0.73561  0.09462  0.12839  1.0000
  C   C1747     1.0  0.78915  0.22160  0.02196  1.0000
  C   C1748     1.0  0.79544  0.20959  0.02541  1.0000
  C   C1749     1.0  0.78461  0.19302  0.02867  1.0000
  C   C1750     1.0  0.76735  0.18814  0.02891  1.0000
  C   C1751     1.0  0.76106  0.20014  0.02553  1.0000
  C   C1752     1.0  0.77187  0.21668  0.02192  1.0000
  H   H3083     1.0  0.77994  0.21170  0.46689  1.0000
  H   H3084     1.0  0.66332  0.05781  0.10886  1.0000
  H   H3085     1.0  0.66355  0.04559  0.16817  1.0000
  H   H3086     1.0  0.78879  0.00176  0.23833  1.0000
  C   C1753     1.0  0.87892  0.13013  0.09555  1.0000
  C   C1754     1.0  0.87437  0.13074  0.12472  1.0000
  C   C1755     1.0  0.85968  0.11845  0.13444  1.0000
  C   C1756     1.0  0.84924  0.10534  0.11526  1.0000
  C   C1757     1.0  0.85372  0.10483  0.08602  1.0000
  C   C1758     1.0  0.86843  0.11709  0.07633  1.0000
  H   H3087     1.0  0.88226  0.14055  0.13994  1.0000
  H   H3088     1.0  0.85646  0.11900  0.15715  1.0000
  H   H3089     1.0  0.84595  0.09487  0.07094  1.0000
  H   H3090     1.0  0.87176  0.11640  0.05373  1.0000
  C   C1759     1.0  0.71575  0.99508  0.33737  1.0000
  H   H3091     1.0  0.71232  0.08212  0.17150  1.0000
  H   H3092     1.0  0.77571  0.04534  0.27326  1.0000
  C   C1760     1.0  0.80206  0.00196  0.11157  1.0000
  H   H3093     1.0  0.78952  0.00706  0.02669  1.0000
  C   C1761     1.0  0.69081  0.09441  0.14080  1.0000
  H   H3094     1.0  0.67549  0.07537  0.18716  1.0000
  H   H3095     1.0  0.89074  0.17123  0.98728  1.0000
  H   H3096     1.0  0.78377  0.03031  0.26390  1.0000
  C   C1762     1.0  0.96157  0.23046  0.33261  1.0000
  H   H3097     1.0  0.78064  0.00435  0.12778  1.0000
  H   H3098     1.0  0.70987  0.12791  0.19102  1.0000
  H   H3099     1.0  0.68927  0.08417  0.46914  1.0000
  H   H3100     1.0  0.92219  0.19205  0.48407  1.0000
  H   H3101     1.0  0.79470  0.00967  0.35193  1.0000
  H   H3102     1.0  0.70342  0.07701  0.41246  1.0000
  C   C1763     1.0  0.83886  0.14598  0.04874  1.0000
  H   H3103     1.0  0.78811  0.00482  0.31302  1.0000
  C   C1764     1.0  0.93971  0.18298  0.38059  1.0000
  C   C1765     1.0  0.71162  0.05793  0.16979  1.0000
  H   H3104     1.0  0.84052  0.17836  0.06949  1.0000
  H   H3105     1.0  0.65550  0.11755  0.19794  1.0000
  C   C1766     1.0  0.65505  0.10613  0.11418  1.0000
  H   H3106     1.0  0.73968  0.00312  0.46460  1.0000
  C   C1767     1.0  0.75401  0.11299  0.99867  1.0000
  C   C1768     1.0  0.87371  0.17125  0.12614  1.0000
  C   C1769     1.0  0.97692  0.21816  0.45546  1.0000
  H   H3107     1.0  0.87634  0.19315  0.10375  1.0000
  C   C1770     1.0  0.70808  0.12115  0.16935  1.0000
  S   S407      1.0  0.71825  0.13015  0.99358  1.0000
  C   C1771     1.0  0.89259  0.17534  0.01105  1.0000
  H   H3108     1.0  0.86818  0.17468  0.01102  1.0000
  H   H3109     1.0  0.67461  0.07527  0.03470  1.0000
  H   H3110     1.0  0.65417  0.04650  0.43985  1.0000
  H   H3111     1.0  0.70263  0.04496  0.17008  1.0000
  C   C1772     1.0  0.75127  0.99855  0.21076  1.0000
  C   C1773     1.0  0.68772  0.07666  0.44863  1.0000
  H   H3112     1.0  0.74560  0.00323  0.19359  1.0000
  H   H3113     1.0  0.95561  0.13833  0.44423  1.0000
  H   H3114     1.0  0.95501  0.17520  0.33068  1.0000
  H   H3115     1.0  0.69554  0.06704  0.19030  1.0000
  H   H3116     1.0  0.69998  0.09757  0.18826  1.0000
  C   C1774     1.0  0.94073  0.19452  0.31736  1.0000
  H   H3117     1.0  0.71430  0.08436  0.44817  1.0000
  H   H3118     1.0  0.91061  0.17279  0.46419  1.0000
  C   C1775     1.0  0.66875  0.07184  0.16510  1.0000
  H   H3119     1.0  0.72032  0.06062  0.18969  1.0000
  H   H3120     1.0  0.70406  0.12776  0.15214  1.0000
  H   H3121     1.0  0.94513  0.20812  0.37270  1.0000
  C   C1776     1.0  0.77480  0.02452  0.37053  1.0000
  N   N97       1.0  0.86206  0.17295  0.07272  1.0000
  H   H3122     1.0  0.65487  0.10285  0.09093  1.0000
  H   H3123     1.0  0.86435  0.15886  0.13034  1.0000
  S   S408      1.0  0.97535  0.20647  0.05488  1.0000
  N   N98       1.0  0.68050  0.07612  0.14026  1.0000
  H   H3124     1.0  0.84186  0.21636  0.45727  1.0000
  H   H3125     1.0  0.92948  0.17180  0.42150  1.0000
  H   H3126     1.0  0.97006  0.19025  0.31074  1.0000
  C   C1777     1.0  0.87586  0.16995  0.02480  1.0000
  H   H3127     1.0  0.95073  0.18625  0.42583  1.0000
  H   H3128     1.0  0.97778  0.16522  0.34328  1.0000
  H   H3129     1.0  0.72006  0.12092  0.16379  1.0000
  H   H3130     1.0  0.71438  0.00687  0.33940  1.0000
  H   H3131     1.0  0.75267  0.00130  0.08702  1.0000
  H   H3132     1.0  0.84760  0.17588  0.03457  1.0000
  H   H3133     1.0  0.70649  0.09705  0.42751  1.0000
  C   C1778     1.0  0.93853  0.18372  0.41427  1.0000
  C   C1779     1.0  0.86052  0.19983  0.05465  1.0000
  C   C1780     1.0  0.89944  0.23226  0.03255  1.0000
  H   H3134     1.0  0.97693  0.18452  0.24348  1.0000
  C   C1781     1.0  0.87784  0.17619  0.05754  1.0000
  H   H3135     1.0  0.77544  0.00601  0.40210  1.0000
  H   H3136     1.0  0.83780  0.20399  0.05377  1.0000
  C   C1782     1.0  0.84026  0.22714  0.46680  1.0000
  C   C1783     1.0  0.90615  0.22616  0.05599  1.0000
  H   H3137     1.0  0.65929  0.07844  0.05579  1.0000
  H   H3138     1.0  0.65842  0.12466  0.43834  1.0000
  H   H3139     1.0  0.87121  0.20300  0.04054  1.0000
  C   C1784     1.0  0.76757  0.99792  0.34233  1.0000
  H   H3140     1.0  0.77194  0.03557  0.37200  1.0000
  C   C1785     1.0  0.77303  0.01726  0.40191  1.0000
  H   H3141     1.0  0.82805  0.14923  0.05050  1.0000
  H   H3142     1.0  0.92011  0.19730  0.27039  1.0000
  H   H3143     1.0  0.70996  0.99122  0.11960  1.0000
  C   C1786     1.0  0.85192  0.18102  0.05744  1.0000
  C   C1787     1.0  0.87890  0.18057  0.15620  1.0000
  C   C1788     1.0  0.83266  0.12738  0.05006  1.0000
  C   C1789     1.0  0.65855  0.08461  0.46554  1.0000
  C   C1790     1.0  0.78524  0.02943  0.42491  1.0000
  H   H3144     1.0  0.65292  0.06692  0.37588  1.0000
  H   H3145     1.0  0.71888  0.05964  0.14974  1.0000
  H   H3146     1.0  0.80964  0.00891  0.13153  1.0000
  N   N99       1.0  0.95615  0.19980  0.33773  1.0000
  C   C1791     1.0  0.65672  0.05359  0.16660  1.0000
  C   C1792     1.0  0.73310  0.99796  0.32829  1.0000
  H   H3147     1.0  0.68397  0.05347  0.13752  1.0000
  N   N100      1.0  0.77304  0.13146  0.07798  1.0000
  C   C1793     1.0  0.77900  0.12320  0.10202  1.0000
  C   C1794     1.0  0.75907  0.13521  0.08906  1.0000
  C   C1795     1.0  0.76614  0.11927  0.05195  1.0000
  C   C1796     1.0  0.78651  0.14681  0.06743  1.0000
  C   C1797     1.0  0.80041  0.15734  0.09080  1.0000
  C   C1798     1.0  0.79138  0.11601  0.09241  1.0000
  C   C1799     1.0  0.75681  0.12408  0.02638  1.0000
  C   C1800     1.0  0.76326  0.14738  0.11610  1.0000
  C   C1801     1.0  0.74793  0.14974  0.12521  1.0000
  C   C1802     1.0  0.80840  0.17517  0.08196  1.0000
  C   C1803     1.0  0.79987  0.11171  0.11920  1.0000
  H   H3148     1.0  0.76680  0.22579  0.01935  1.0000
  H   H3149     1.0  0.76830  0.11285  0.11062  1.0000
  H   H3150     1.0  0.78459  0.13145  0.12176  1.0000
  H   H3151     1.0  0.75403  0.14073  0.07139  1.0000
  H   H3152     1.0  0.74868  0.12369  0.09464  1.0000
  H   H3153     1.0  0.75751  0.10720  0.05961  1.0000
  H   H3154     1.0  0.77623  0.11692  0.04178  1.0000
  H   H3155     1.0  0.79296  0.14388  0.04902  1.0000
  H   H3156     1.0  0.78087  0.15477  0.05716  1.0000
  H   H3157     1.0  0.81014  0.15248  0.09259  1.0000
  H   H3158     1.0  0.79606  0.15741  0.11332  1.0000
  H   H3159     1.0  0.78472  0.10449  0.07882  1.0000
  H   H3160     1.0  0.80100  0.12469  0.07895  1.0000
  H   H3161     1.0  0.76375  0.13692  0.02020  1.0000
  H   H3162     1.0  0.74445  0.12267  0.03326  1.0000
  H   H3163     1.0  0.76815  0.14298  0.13561  1.0000
  H   H3164     1.0  0.77229  0.15962  0.11032  1.0000
  H   H3165     1.0  0.75096  0.15764  0.14579  1.0000
  H   H3166     1.0  0.74361  0.15583  0.10745  1.0000
  H   H3167     1.0  0.73781  0.13781  0.12943  1.0000
  H   H3168     1.0  0.79936  0.18090  0.08294  1.0000
  H   H3169     1.0  0.81909  0.18218  0.09766  1.0000
  H   H3170     1.0  0.81269  0.17598  0.05906  1.0000
  H   H3171     1.0  0.80813  0.10601  0.11146  1.0000
  H   H3172     1.0  0.80745  0.12285  0.13307  1.0000
  H   H3173     1.0  0.79056  0.10277  0.13295  1.0000
  H   H3174     1.0  0.97639  0.18981  0.14232  1.0000
  H   H3175     1.0  0.96283  0.20492  0.38480  1.0000
  H   H3176     1.0  0.67183  0.06686  0.40999  1.0000
  H   H3177     1.0  0.95914  0.23276  0.35579  1.0000
  H   H3178     1.0  0.67605  0.13660  0.16545  1.0000
  H   H3179     1.0  0.92709  0.17945  0.37005  1.0000
  H   H3180     1.0  0.76297  0.01288  0.29723  1.0000
  H   H3181     1.0  0.74733  0.09994  0.00402  1.0000
  C   C1804     1.0  0.65863  0.11970  0.41640  1.0000
  H   H3182     1.0  0.70255  0.09708  0.12970  1.0000
  H   H3183     1.0  0.97332  0.21696  0.30924  1.0000
  C   C1805     1.0  0.95151  0.19979  0.36948  1.0000
  C   C1806     1.0  0.84863  0.20650  0.04017  1.0000
  H   H3184     1.0  0.91979  0.17686  0.26871  1.0000
  H   H3185     1.0  0.76047  0.01433  0.40963  1.0000
  H   H3186     1.0  0.97194  0.16095  0.14136  1.0000
  C   C1807     1.0  0.97918  0.20875  0.01623  1.0000
  H   H3187     1.0  0.92984  0.19124  0.24099  1.0000
  C   C1808     1.0  0.92728  0.18999  0.26495  1.0000
  H   H3188     1.0  0.80864  0.21305  0.02529  1.0000
  H   H3189     1.0  0.96227  0.22906  0.47700  1.0000
  H   H3190     1.0  0.75816  0.02840  0.31408  1.0000
  C   C1809     1.0  0.67962  0.07653  0.08244  1.0000
  H   H3191     1.0  0.84445  0.15219  0.09461  1.0000
  H   H3192     1.0  0.86021  0.14818  0.07764  1.0000
  Fe  Fe204     1.0  0.69374  0.13224  0.99111  1.0000
  H   H3193     1.0  0.88865  0.19302  0.15369  1.0000
  C   C1810     1.0  0.97247  0.20318  0.21955  1.0000
  H   H3194     1.0  0.91320  0.21903  0.05124  1.0000
  H   H3195     1.0  0.68434  0.10072  0.12759  1.0000
  H   H3196     1.0  0.79817  0.03245  0.41913  1.0000
  H   H3197     1.0  0.68388  0.10448  0.18005  1.0000
  H   H3198     1.0  0.92588  0.14708  0.45298  1.0000
  H   H3199     1.0  0.86485  0.20629  0.07662  1.0000
  H   H3200     1.0  0.78352  0.02391  0.44708  1.0000
  H   H3201     1.0  0.66056  0.07645  0.11103  1.0000
  H   H3202     1.0  0.88393  0.17388  0.17156  1.0000
  H   H3203     1.0  0.82978  0.22863  0.45461  1.0000
  H   H3204     1.0  0.97073  0.22457  0.20152  1.0000
  H   H3205     1.0  0.68806  0.07028  0.07966  1.0000
  H   H3206     1.0  0.72770  0.00850  0.10886  1.0000
  H   H3207     1.0  0.97910  0.22588  0.43654  1.0000
  C   C1811     1.0  0.70267  0.06942  0.17009  1.0000
  H   H3208     1.0  0.76598  0.11474  0.98941  1.0000
  H   H3209     1.0  0.85588  0.18125  0.11412  1.0000
  H   H3210     1.0  0.78810  0.02928  0.36625  1.0000
  H   H3211     1.0  0.93265  0.18144  0.32056  1.0000
  H   H3212     1.0  0.82873  0.12320  0.07260  1.0000
  H   H3213     1.0  0.76386  0.99042  0.36229  1.0000
  C   C1812     1.0  0.86675  0.18037  0.10399  1.0000
  C   C1813     1.0  0.66757  0.07185  0.05505  1.0000
  C   C1814     1.0  0.74638  0.00798  0.35289  1.0000
  H   H3214     1.0  0.69997  0.07030  0.12310  1.0000
  C   C1815     1.0  0.76658  0.02192  0.31643  1.0000
  H   H3215     1.0  0.84261  0.12346  0.04433  1.0000
  C   C1816     1.0  0.78530  0.04069  0.27938  1.0000
  H   H3216     1.0  0.88457  0.16982  0.11757  1.0000
  C   C1817     1.0  0.77550  0.99773  0.23605  1.0000
  H   H3217     1.0  0.97923  0.22086  0.34719  1.0000
  C   C1818     1.0  0.74935  0.99935  0.47212  1.0000
  C   C1819     1.0  0.69513  0.10370  0.17155  1.0000
  H   H3218     1.0  0.79766  0.05062  0.27663  1.0000
  H   H3219     1.0  0.88518  0.17036  0.06946  1.0000
  C   C1820     1.0  0.85189  0.15473  0.07460  1.0000
  H   H3220     1.0  0.86813  0.18165  0.16616  1.0000
  H   H3221     1.0  0.80623  0.99220  0.10541  1.0000
  C   C1821     1.0  0.70394  0.08420  0.43309  1.0000
  H   H3222     1.0  0.78306  0.04082  0.42641  1.0000
  H   H3223     1.0  0.97264  0.18461  0.37778  1.0000
  H   H3224     1.0  0.80419  0.01045  0.09298  1.0000
  H   H3225     1.0  0.90130  0.22971  0.00981  1.0000
  H   H3226     1.0  0.88601  0.18949  0.05884  1.0000
  H   H3227     1.0  0.90026  0.16969  0.02253  1.0000
  H   H3228     1.0  0.74364  0.00019  0.37261  1.0000
  C   C1822     1.0  0.78401  0.03531  0.31152  1.0000
  H   H3229     1.0  0.95044  0.18875  0.27651  1.0000
  C   C1823     1.0  0.67291  0.07590  0.42806  1.0000
  H   H3230     1.0  0.74401  0.01895  0.35906  1.0000
  C   C1824     1.0  0.94363  0.19611  0.28361  1.0000
  N   N101      1.0  0.76421  0.01313  0.34544  1.0000
  H   H3231     1.0  0.79401  0.03117  0.31662  1.0000
  H   H3232     1.0  0.84369  0.14946  0.02658  1.0000
  H   H3233     1.0  0.95078  0.20902  0.27802  1.0000
  H   H3234     1.0  0.71400  0.19061  0.00562  1.0000
  C   C1825     1.0  0.66686  0.12512  0.15612  1.0000
  H   H3235     1.0  0.68606  0.06410  0.45459  1.0000
  H   H3236     1.0  0.93308  0.20131  0.32320  1.0000
  H   H3237     1.0  0.66106  0.07911  0.16350  1.0000
  H   H3238     1.0  0.97855  0.16945  0.10590  1.0000
  H   H3239     1.0  0.65447  0.05415  0.21464  1.0000
  C   C1826     1.0  0.69143  0.06681  0.14149  1.0000
  C   C1827     1.0  0.96646  0.20494  0.99400  1.0000
  H   H3240     1.0  0.95002  0.22720  0.31851  1.0000
  H   H3241     1.0  0.69310  0.17911  0.99096  1.0000
  H   H3242     1.0  0.78968  0.18390  0.03085  1.0000
  H   H3243     1.0  0.94385  0.17312  0.37532  1.0000
  C   C1828     1.0  0.65043  0.05457  0.45413  1.0000
  H   H3244     1.0  0.93438  0.19343  0.42092  1.0000
  C   C1829     1.0  0.97796  0.18895  0.35618  1.0000
  C   C1830     1.0  0.97641  0.21999  0.21882  1.0000
  H   H3245     1.0  0.87029  0.15637  0.02360  1.0000
  N   N102      1.0  0.65659  0.07158  0.44211  1.0000
  C   C1831     1.0  0.78552  0.00064  0.33599  1.0000
  H   H3246     1.0  0.89925  0.18889  0.01251  1.0000
  H   H3247     1.0  0.84434  0.20101  0.01743  1.0000
  C   C1832     1.0  0.94749  0.14479  0.43861  1.0000
  C   C1833     1.0  0.75296  0.00142  0.99058  1.0000
  H   H3248     1.0  0.77543  0.99570  0.07312  1.0000
  H   H3249     1.0  0.74315  0.00570  0.99099  1.0000
  H   H3250     1.0  0.97117  0.23744  0.03296  1.0000
  C   C1834     1.0  0.70573  0.18737  0.98507  1.0000
  H   H3251     1.0  0.75345  0.99668  0.12458  1.0000
  C   C1835     1.0  0.78380  0.99449  0.11850  1.0000
  H   H3252     1.0  0.66673  0.08435  0.48467  1.0000
  C   C1836     1.0  0.72365  0.99646  0.11936  1.0000
  H   H3253     1.0  0.72887  0.99820  0.14268  1.0000
  H   H3254     1.0  0.95511  0.15821  0.43923  1.0000
  C   C1837     1.0  0.77796  0.99007  0.98923  1.0000
  C   C1838     1.0  0.93371  0.14064  0.46025  1.0000
  H   H3255     1.0  0.92633  0.12723  0.45820  1.0000
  H   H3256     1.0  0.65245  0.14433  0.20072  1.0000
  H   H3257     1.0  0.85173  0.23823  0.46391  1.0000
  H   H3258     1.0  0.65774  0.02966  0.48040  1.0000
  H   H3259     1.0  0.90283  0.11979  0.47989  1.0000
  C   C1839     1.0  0.97981  0.19748  0.24267  1.0000
  H   H3260     1.0  0.75966  0.98979  0.32370  1.0000
  C   C1840     1.0  0.98007  0.19605  0.48120  1.0000
  Fe  Fe205     1.0  0.70020  0.13079  0.48150  1.0000
  C   C1841     1.0  0.89464  0.23873  0.09126  1.0000
  Fe  Fe206     1.0  0.90809  0.20049  0.60333  1.0000
  S   S409      1.0  0.91060  0.18581  0.56472  1.0000
  S   S410      1.0  0.88664  0.20839  0.60418  1.0000
  Fe  Fe207     1.0  0.93677  0.19722  0.64055  1.0000
  S   S411      1.0  0.94098  0.18183  0.60376  1.0000
  S   S412      1.0  0.94849  0.20540  0.68853  1.0000
  Fe  Fe208     1.0  0.93814  0.20007  0.57203  1.0000
  S   S413      1.0  0.95275  0.21334  0.53211  1.0000
  Fe  Fe209     1.0  0.91288  0.16844  0.59852  1.0000
  S   S414      1.0  0.89803  0.14119  0.58412  1.0000
  S   S415      1.0  0.93534  0.21610  0.60902  1.0000
  S   S416      1.0  0.90896  0.18249  0.63696  1.0000
  Fe  Fe210     1.0  0.69351  0.12719  0.54854  1.0000
  S   S417      1.0  0.69673  0.11062  0.51321  1.0000
  S   S418      1.0  0.66998  0.11592  0.57515  1.0000
  Fe  Fe211     1.0  0.72342  0.15737  0.52814  1.0000
  C   C1842     1.0  0.93875  0.15264  0.54422  1.0000
  S   S419      1.0  0.73988  0.18428  0.54274  1.0000
  H   H3261     1.0  0.82275  0.20830  0.59873  1.0000
  S   S420      1.0  0.68602  0.13513  0.94255  1.0000
  Fe  Fe212     1.0  0.72396  0.12332  0.52532  1.0000
  S   S421      1.0  0.74265  0.11178  0.52320  1.0000
  S   S422      1.0  0.69579  0.14704  0.51601  1.0000
  S   S423      1.0  0.72074  0.13852  0.56283  1.0000
  Fe  Fe213     1.0  0.80763  0.06131  0.61539  1.0000
  S   S424      1.0  0.78819  0.05589  0.64921  1.0000
  S   S425      1.0  0.83044  0.08566  0.62685  1.0000
  Fe  Fe214     1.0  0.78539  0.02988  0.57745  1.0000
  S   S426      1.0  0.76468  0.02330  0.60850  1.0000
  S   S427      1.0  0.78553  0.01199  0.53999  1.0000
  Fe  Fe215     1.0  0.77023  0.05027  0.60938  1.0000
  S   S428      1.0  0.74995  0.05969  0.61107  1.0000
  Fe  Fe216     1.0  0.78412  0.02933  0.64619  1.0000
  S   S429      1.0  0.78297  0.01111  0.68319  1.0000
  S   S430      1.0  0.78954  0.05658  0.57563  1.0000
  S   S431      1.0  0.80493  0.03504  0.61508  1.0000
  C   C1843     1.0  0.77208  0.00245  0.50795  1.0000
  C   C1844     1.0  0.80289  0.99025  0.61748  1.0000
  H   H3262     1.0  0.80354  0.21041  0.59073  1.0000
  C   C1845     1.0  0.97287  0.17365  0.88824  1.0000
  H   H3263     1.0  0.74450  0.15216  0.92256  1.0000
  C   C1846     1.0  0.76577  0.20686  0.94409  1.0000
  C   C1847     1.0  0.96813  0.19863  0.84642  1.0000
  C   C1848     1.0  0.77161  0.00236  0.71513  1.0000
  C   C1849     1.0  0.76132  0.15553  0.96022  1.0000
  H   H3264     1.0  0.73133  0.00762  0.91557  1.0000
  C   C1850     1.0  0.75958  0.00714  0.72600  1.0000
  H   H3265     1.0  0.66603  0.10681  0.79969  1.0000
  H   H3266     1.0  0.75688  0.01651  0.71495  1.0000
  C   C1851     1.0  0.66389  0.11200  0.61263  1.0000
  C   C1852     1.0  0.66948  0.11557  0.66647  1.0000
  C   C1853     1.0  0.67516  0.11760  0.63736  1.0000
  H   H3267     1.0  0.67833  0.12026  0.68529  1.0000
  H   H3268     1.0  0.68824  0.12367  0.63411  1.0000
  C   C1854     1.0  0.66855  0.12349  0.91784  1.0000
  H   H3269     1.0  0.79024  0.13968  0.49711  1.0000
  H   H3270     1.0  0.65046  0.17791  0.61188  1.0000
  C   C1855     1.0  0.90154  0.11832  0.50405  1.0000
  H   H3271     1.0  0.96828  0.22973  0.83751  1.0000
  H   H3272     1.0  0.86972  0.15783  0.61176  1.0000
  C   C1856     1.0  0.74809  0.07417  0.58648  1.0000
  C   C1857     1.0  0.73696  0.08135  0.59219  1.0000
  C   C1858     1.0  0.73507  0.09285  0.57299  1.0000
  C   C1859     1.0  0.74429  0.09719  0.54780  1.0000
  C   C1860     1.0  0.75535  0.08993  0.54199  1.0000
  C   C1861     1.0  0.75728  0.07851  0.56125  1.0000
  H   H3273     1.0  0.72974  0.07799  0.61159  1.0000
  H   H3274     1.0  0.72650  0.09832  0.57768  1.0000
  H   H3275     1.0  0.76226  0.09294  0.52226  1.0000
  H   H3276     1.0  0.76564  0.07284  0.55635  1.0000
  C   C1862     1.0  0.78630  0.22597  0.50816  1.0000
  C   C1863     1.0  0.79183  0.03037  0.78829  1.0000
  C   C1864     1.0  0.65253  0.10750  0.67154  1.0000
  C   C1865     1.0  0.75786  0.19997  0.52877  1.0000
  C   C1866     1.0  0.76756  0.21366  0.54742  1.0000
  C   C1867     1.0  0.78171  0.22650  0.53733  1.0000
  C   C1868     1.0  0.65572  0.11789  0.86689  1.0000
  C   C1869     1.0  0.95015  0.14472  0.55766  1.0000
  H   H3277     1.0  0.76405  0.21435  0.56989  1.0000
  H   H3278     1.0  0.84472  0.19774  0.50787  1.0000
  C   C1870     1.0  0.87928  0.12590  0.59657  1.0000
  C   C1871     1.0  0.87357  0.12683  0.62470  1.0000
  C   C1872     1.0  0.85883  0.11428  0.63364  1.0000
  C   C1873     1.0  0.84948  0.10062  0.61470  1.0000
  C   C1874     1.0  0.85525  0.09964  0.58663  1.0000
  C   C1875     1.0  0.87003  0.11214  0.57774  1.0000
  H   H3279     1.0  0.88054  0.13717  0.63967  1.0000
  H   H3280     1.0  0.85460  0.11523  0.65543  1.0000
  H   H3281     1.0  0.84832  0.08924  0.57178  1.0000
  H   H3282     1.0  0.87427  0.11116  0.55604  1.0000
  C   C1876     1.0  0.88591  0.22393  0.58126  1.0000
  C   C1877     1.0  0.67644  0.18127  0.60801  1.0000
  H   H3283     1.0  0.78942  0.22772  0.94664  1.0000
  H   H3284     1.0  0.92548  0.11913  0.51941  1.0000
  H   H3285     1.0  0.77575  0.99426  0.90030  1.0000
  H   H3286     1.0  0.96036  0.14633  0.54296  1.0000
  H   H3287     1.0  0.67720  0.14884  0.56915  1.0000
  H   H3288     1.0  0.82002  0.22966  0.63106  1.0000
  C   C1878     1.0  0.65966  0.15251  0.62205  1.0000
  H   H3289     1.0  0.85544  0.16744  0.60698  1.0000
  C   C1879     1.0  0.96715  0.21246  0.71222  1.0000
  H   H3290     1.0  0.77063  0.16553  0.97462  1.0000
  H   H3291     1.0  0.67513  0.06136  0.84453  1.0000
  H   H3292     1.0  0.78176  0.11874  0.50782  1.0000
  C   C1880     1.0  0.82358  0.23229  0.60782  1.0000
  H   H3293     1.0  0.65119  0.07099  0.81282  1.0000
  H   H3294     1.0  0.94323  0.13145  0.56088  1.0000
  C   C1881     1.0  0.65706  0.07891  0.83301  1.0000
  H   H3295     1.0  0.67572  0.21104  0.59261  1.0000
  C   C1882     1.0  0.66542  0.02924  0.86065  1.0000
  H   H3296     1.0  0.95576  0.21906  0.74850  1.0000
  N   N103      1.0  0.81444  0.12326  0.57928  1.0000
  C   C1883     1.0  0.79984  0.12536  0.56432  1.0000
  C   C1884     1.0  0.81017  0.11710  0.61010  1.0000
  C   C1885     1.0  0.82855  0.13999  0.58287  1.0000
  C   C1886     1.0  0.82003  0.11204  0.56162  1.0000
  C   C1887     1.0  0.80667  0.09809  0.54203  1.0000
  C   C1888     1.0  0.80340  0.13480  0.53508  1.0000
  C   C1889     1.0  0.84442  0.14079  0.60022  1.0000
  C   C1890     1.0  0.79482  0.10084  0.61242  1.0000
  C   C1891     1.0  0.79095  0.09726  0.64487  1.0000
  C   C1892     1.0  0.81391  0.08679  0.52851  1.0000
  H   H3297     1.0  0.73142  0.17503  0.60559  1.0000
  H   H3298     1.0  0.79492  0.13202  0.57965  1.0000
  H   H3299     1.0  0.78930  0.11338  0.55951  1.0000
  H   H3300     1.0  0.82058  0.11499  0.62136  1.0000
  H   H3301     1.0  0.80833  0.12659  0.62404  1.0000
  H   H3302     1.0  0.82448  0.14884  0.59409  1.0000
  H   H3303     1.0  0.83255  0.14489  0.56075  1.0000
  H   H3304     1.0  0.82967  0.11912  0.54631  1.0000
  H   H3305     1.0  0.82622  0.10628  0.57678  1.0000
  H   H3306     1.0  0.80183  0.10312  0.52334  1.0000
  H   H3307     1.0  0.79606  0.09061  0.55479  1.0000
  H   H3308     1.0  0.70885  0.18465  0.60172  1.0000
  H   H3309     1.0  0.81166  0.13134  0.52137  1.0000
  H   H3310     1.0  0.84837  0.13148  0.59095  1.0000
  H   H3311     1.0  0.84228  0.13864  0.62413  1.0000
  H   H3312     1.0  0.78361  0.10114  0.60102  1.0000
  H   H3313     1.0  0.79724  0.09052  0.60313  1.0000
  H   H3314     1.0  0.77974  0.08571  0.64594  1.0000
  H   H3315     1.0  0.80141  0.09580  0.65725  1.0000
  H   H3316     1.0  0.78847  0.10722  0.65568  1.0000
  H   H3317     1.0  0.81887  0.08124  0.54628  1.0000
  H   H3318     1.0  0.80408  0.07675  0.51501  1.0000
  H   H3319     1.0  0.82400  0.09367  0.51396  1.0000
  H   H3320     1.0  0.84287  0.17399  0.55724  1.0000
  H   H3321     1.0  0.64954  0.05816  0.50235  1.0000
  H   H3322     1.0  0.70445  0.16655  0.57881  1.0000
  H   H3323     1.0  0.79690  0.01453  0.83289  1.0000
  H   H3324     1.0  0.72864  0.99875  0.87851  1.0000
  H   H3325     1.0  0.71184  0.16740  0.97181  1.0000
  H   H3326     1.0  0.71692  0.16015  0.91639  1.0000
  H   H3327     1.0  0.66535  0.02058  0.87807  1.0000
  C   C1893     1.0  0.91835  0.12683  0.52211  1.0000
  H   H3328     1.0  0.65803  0.13958  0.61853  1.0000
  C   C1894     1.0  0.67462  0.09069  0.82464  1.0000
  H   H3329     1.0  0.90969  0.15271  0.52546  1.0000
  H   H3330     1.0  0.65418  0.20567  0.59842  1.0000
  H   H3331     1.0  0.71719  0.17855  0.90150  1.0000
  H   H3332     1.0  0.80533  0.03480  0.79370  1.0000
  C   C1895     1.0  0.97019  0.20709  0.96379  1.0000
  H   H3333     1.0  0.77626  0.00165  0.82102  1.0000
  H   H3334     1.0  0.68017  0.08151  0.88253  1.0000
  H   H3335     1.0  0.76923  0.02438  0.80990  1.0000
  C   C1896     1.0  0.94935  0.16777  0.79459  1.0000
  C   C1897     1.0  0.66130  0.18508  0.59919  1.0000
  H   H3336     1.0  0.90972  0.14750  0.48762  1.0000
  H   H3337     1.0  0.65136  0.08986  0.52425  1.0000
  C   C1898     1.0  0.75228  0.19568  0.92074  1.0000
  H   H3338     1.0  0.88132  0.09435  0.49750  1.0000
  C   C1899     1.0  0.66704  0.07956  0.88494  1.0000
  H   H3339     1.0  0.85310  0.17554  0.52304  1.0000
  H   H3340     1.0  0.77101  0.19966  0.95769  1.0000
  H   H3341     1.0  0.68092  0.10015  0.84253  1.0000
  H   H3342     1.0  0.68247  0.08395  0.82036  1.0000
  C   C1900     1.0  0.95659  0.20360  0.82589  1.0000
  H   H3343     1.0  0.77853  0.13412  0.52989  1.0000
  H   H3344     1.0  0.82737  0.17890  0.51247  1.0000
  H   H3345     1.0  0.93284  0.17899  0.52151  1.0000
  H   H3346     1.0  0.96637  0.14704  0.59671  1.0000
  H   H3347     1.0  0.71753  0.15581  0.61920  1.0000
  H   H3348     1.0  0.70834  0.16038  0.85373  1.0000
  H   H3349     1.0  0.65596  0.02237  0.84274  1.0000
  H   H3350     1.0  0.79264  0.19882  0.53715  1.0000
  H   H3351     1.0  0.93025  0.15285  0.56150  1.0000
  H   H3352     1.0  0.92362  0.15512  0.80552  1.0000
  H   H3353     1.0  0.82868  0.23406  0.79891  1.0000
  C   C1901     1.0  0.66514  0.20317  0.60533  1.0000
  C   C1902     1.0  0.95696  0.16959  0.82697  1.0000
  H   H3354     1.0  0.90775  0.22704  0.55851  1.0000
  H   H3355     1.0  0.67876  0.16825  0.55845  1.0000
  H   H3356     1.0  0.86233  0.15989  0.57496  1.0000
  C   C1903     1.0  0.91809  0.15345  0.50734  1.0000
  H   H3357     1.0  0.84251  0.20788  0.55805  1.0000
  H   H3358     1.0  0.78891  0.23689  0.55202  1.0000
  N   N104      1.0  0.77905  0.01192  0.86592  1.0000
  H   H3359     1.0  0.86041  0.19250  0.54978  1.0000
  C   C1904     1.0  0.76176  0.01135  0.86600  1.0000
  H   H3360     1.0  0.95949  0.15844  0.83012  1.0000
  C   C1905     1.0  0.79118  0.02665  0.88400  1.0000
  C   C1906     1.0  0.79441  0.02415  0.91746  1.0000
  H   H3361     1.0  0.75738  0.01657  0.51003  1.0000
  C   C1907     1.0  0.78242  0.02745  0.81668  1.0000
  C   C1908     1.0  0.77484  0.99011  0.73012  1.0000
  H   H3362     1.0  0.67964  0.09782  0.93762  1.0000
  C   C1909     1.0  0.80362  0.04051  0.93449  1.0000
  C   C1910     1.0  0.70559  0.17131  0.60206  1.0000
  N   N105      1.0  0.65612  0.06855  0.85966  1.0000
  H   H3363     1.0  0.80174  0.17008  0.52026  1.0000
  C   C1911     1.0  0.92727  0.17179  0.50060  1.0000
  H   H3364     1.0  0.76129  0.02255  0.85646  1.0000
  H   H3365     1.0  0.90493  0.17657  0.50064  1.0000
  H   H3366     1.0  0.97744  0.16529  0.93133  1.0000
  H   H3367     1.0  0.96806  0.18184  0.89929  1.0000
  H   H3368     1.0  0.80355  0.03139  0.87444  1.0000
  H   H3369     1.0  0.78718  0.03697  0.88254  1.0000
  H   H3370     1.0  0.80214  0.01703  0.91983  1.0000
  H   H3371     1.0  0.78293  0.01739  0.92878  1.0000
  H   H3372     1.0  0.73701  0.19528  0.97344  1.0000
  C   C1912     1.0  0.75300  0.16255  0.93719  1.0000
  H   H3373     1.0  0.78735  0.03903  0.83037  1.0000
  H   H3374     1.0  0.78764  0.01891  0.77434  1.0000
  C   C1913     1.0  0.87328  0.22950  0.58426  1.0000
  H   H3375     1.0  0.76154  0.02127  0.91075  1.0000
  C   C1914     1.0  0.76257  0.19939  0.49970  1.0000
  C   C1915     1.0  0.66096  0.15584  0.65615  1.0000
  C   C1916     1.0  0.97047  0.19775  0.50417  1.0000
  H   H3376     1.0  0.81562  0.04757  0.92473  1.0000
  H   H3377     1.0  0.79602  0.04783  0.93412  1.0000
  H   H3378     1.0  0.80620  0.00521  0.87668  1.0000
  H   H3379     1.0  0.79964  0.18756  0.56232  1.0000
  N   N106      1.0  0.97234  0.18482  0.83517  1.0000
  H   H3380     1.0  0.72251  0.17461  0.64082  1.0000
  S   S432      1.0  0.72790  0.14262  0.49156  1.0000
  H   H3381     1.0  0.66818  0.09088  0.77730  1.0000
  H   H3382     1.0  0.89281  0.12363  0.51109  1.0000
  C   C1917     1.0  0.74299  0.17106  0.95212  1.0000
  H   H3383     1.0  0.68747  0.14917  0.61881  1.0000
  H   H3384     1.0  0.80608  0.03827  0.95804  1.0000
  H   H3385     1.0  0.75387  0.99917  0.90809  1.0000
  C   C1918     1.0  0.96407  0.20976  0.50302  1.0000
  H   H3386     1.0  0.72367  0.15485  0.83737  1.0000
  H   H3387     1.0  0.75569  0.99315  0.56848  1.0000
  H   H3388     1.0  0.91501  0.12569  0.54579  1.0000
  H   H3389     1.0  0.81571  0.23004  0.82999  1.0000
  H   H3390     1.0  0.80584  0.00331  0.62304  1.0000
  H   H3391     1.0  0.96230  0.16181  0.88259  1.0000
  C   C1919     1.0  0.85876  0.15753  0.59826  1.0000
  H   H3392     1.0  0.65130  0.07646  0.92247  1.0000
  H   H3393     1.0  0.95749  0.16558  0.77867  1.0000
  H   H3394     1.0  0.93378  0.14171  0.79670  1.0000
  C   C1920     1.0  0.72535  0.17225  0.90829  1.0000
  H   H3395     1.0  0.65305  0.10921  0.95119  1.0000
  H   H3396     1.0  0.95142  0.21811  0.86021  1.0000
  H   H3397     1.0  0.69211  0.16709  0.64164  1.0000
  H   H3398     1.0  0.66683  0.09194  0.88400  1.0000
  C   C1921     1.0  0.83755  0.18914  0.52454  1.0000
  C   C1922     1.0  0.66247  0.07440  0.91718  1.0000
  H   H3399     1.0  0.78950  0.03972  0.77517  1.0000
  H   H3400     1.0  0.92760  0.15203  0.76760  1.0000
  C   C1923     1.0  0.66154  0.04302  0.87415  1.0000
  C   C1924     1.0  0.89364  0.10000  0.50961  1.0000
  C   C1925     1.0  0.72011  0.16902  0.61797  1.0000
  C   C1926     1.0  0.95586  0.21948  0.83737  1.0000
  H   H3401     1.0  0.94718  0.16852  0.84250  1.0000
  H   H3402     1.0  0.65969  0.06135  0.92050  1.0000
  H   H3403     1.0  0.94382  0.19392  0.82519  1.0000
  H   H3404     1.0  0.68627  0.10829  0.79123  1.0000
  H   H3405     1.0  0.96021  0.20395  0.94688  1.0000
  H   H3406     1.0  0.66928  0.05973  0.49171  1.0000
  H   H3407     1.0  0.84810  0.22439  0.51164  1.0000
  H   H3408     1.0  0.82608  0.18938  0.56588  1.0000
  H   H3409     1.0  0.75865  0.19093  0.90496  1.0000
  C   C1927     1.0  0.81715  0.21634  0.58901  1.0000
  C   C1928     1.0  0.65346  0.14589  0.52548  1.0000
  C   C1929     1.0  0.89789  0.23115  0.56080  1.0000
  H   H3410     1.0  0.66431  0.16894  0.66188  1.0000
  C   C1930     1.0  0.78750  0.13164  0.51641  1.0000
  H   H3411     1.0  0.77369  0.99563  0.62144  1.0000
  H   H3412     1.0  0.67250  0.08126  0.96271  1.0000
  H   H3413     1.0  0.70521  0.19865  0.97599  1.0000
  H   H3414     1.0  0.80959  0.14816  0.54047  1.0000
  H   H3415     1.0  0.77569  0.22786  0.91592  1.0000
  H   H3416     1.0  0.73721  0.18082  0.86664  1.0000
  H   H3417     1.0  0.74230  0.16505  0.88232  1.0000
  C   C1931     1.0  0.80123  0.19254  0.53968  1.0000
  H   H3418     1.0  0.75314  0.00089  0.85144  1.0000
  C   C1932     1.0  0.72930  0.18996  0.95260  1.0000
  H   H3419     1.0  0.96542  0.16601  0.58603  1.0000
  H   H3420     1.0  0.89193  0.09792  0.53369  1.0000
  H   H3421     1.0  0.68047  0.13562  0.87914  1.0000
  C   C1933     1.0  0.65116  0.03519  0.49434  1.0000
  C   C1934     1.0  0.68943  0.16227  0.61821  1.0000
  H   H3422     1.0  0.67037  0.15206  0.66684  1.0000
  C   C1935     1.0  0.65394  0.11166  0.92779  1.0000
  H   H3423     1.0  0.74785  0.20365  0.90733  1.0000
  H   H3424     1.0  0.75015  0.17788  0.97250  1.0000
  C   C1936     1.0  0.66931  0.12649  0.88721  1.0000
  C   C1937     1.0  0.75939  0.00702  0.49797  1.0000
  H   H3425     1.0  0.65505  0.04877  0.83008  1.0000
  C   C1938     1.0  0.82102  0.20999  0.50504  1.0000
  C   C1939     1.0  0.82132  0.21962  0.55608  1.0000
  H   H3426     1.0  0.81382  0.22609  0.54676  1.0000
  H   H3427     1.0  0.83439  0.22865  0.55629  1.0000
  C   C1940     1.0  0.75110  0.99988  0.75141  1.0000
  H   H3428     1.0  0.94722  0.22257  0.82258  1.0000
  N   N107      1.0  0.73770  0.18205  0.93308  1.0000
  N   N108      1.0  0.67401  0.16359  0.60506  1.0000
  H   H3429     1.0  0.96182  0.19564  0.86750  1.0000
  H   H3430     1.0  0.65437  0.10756  0.50248  1.0000
  H   H3431     1.0  0.77585  0.16116  0.54583  1.0000
  C   C1941     1.0  0.83116  0.19794  0.54768  1.0000
  H   H3432     1.0  0.65996  0.15742  0.51390  1.0000
  H   H3433     1.0  0.67110  0.04908  0.89232  1.0000
  H   H3434     1.0  0.94763  0.13770  0.49806  1.0000
  N   N109      1.0  0.92889  0.14453  0.51579  1.0000
  H   H3435     1.0  0.97680  0.19380  0.79056  1.0000
  C   C1942     1.0  0.84916  0.18237  0.53962  1.0000
  N   N110      1.0  0.81883  0.20473  0.53672  1.0000
  C   C1943     1.0  0.91547  0.17865  0.48651  1.0000
  H   H3436     1.0  0.94834  0.15077  0.60401  1.0000
  C   C1944     1.0  0.93257  0.15324  0.79103  1.0000
  H   H3437     1.0  0.78623  0.21414  0.91473  1.0000
  C   C1945     1.0  0.75428  0.01017  0.89662  1.0000
  H   H3438     1.0  0.93716  0.17382  0.48505  1.0000
  H   H3439     1.0  0.76769  0.14880  0.94886  1.0000
  H   H3440     1.0  0.65806  0.18255  0.57506  1.0000
  C   C1946     1.0  0.67367  0.09969  0.79652  1.0000
  C   C1947     1.0  0.71860  0.15646  0.85867  1.0000
  H   H3441     1.0  0.90147  0.09386  0.50163  1.0000
  H   H3442     1.0  0.68093  0.18623  0.63106  1.0000
  C   C1948     1.0  0.75193  0.98931  0.96902  1.0000
  H   H3443     1.0  0.76293  0.17101  0.92408  1.0000
  H   H3444     1.0  0.71360  0.14446  0.86946  1.0000
  H   H3445     1.0  0.73661  0.02070  0.88427  1.0000
  H   H3446     1.0  0.68763  0.08211  0.93672  1.0000
  C   C1949     1.0  0.78389  0.01319  0.83402  1.0000
  C   C1950     1.0  0.73224  0.16926  0.87880  1.0000
  H   H3447     1.0  0.94755  0.17874  0.78753  1.0000
  H   H3448     1.0  0.70264  0.17494  0.94281  1.0000
  H   H3449     1.0  0.86415  0.22413  0.60042  1.0000
  C   C1951     1.0  0.73664  0.00925  0.89342  1.0000
  C   C1952     1.0  0.67644  0.08454  0.93983  1.0000
  H   H3450     1.0  0.67782  0.03424  0.85137  1.0000
  H   H3451     1.0  0.64992  0.08653  0.83631  1.0000
  H   H3452     1.0  0.65652  0.12047  0.84353  1.0000
  H   H3453     1.0  0.83728  0.23834  0.60793  1.0000
  C   C1953     1.0  0.78012  0.21992  0.92924  1.0000
  C   C1954     1.0  0.95803  0.15268  0.58793  1.0000
  H   H3454     1.0  0.94690  0.16566  0.54100  1.0000
  C   C1955     1.0  0.77445  0.99001  0.49172  1.0000
  H   H3455     1.0  0.83615  0.23645  0.50817  1.0000
  H   H3456     1.0  0.74192  0.00381  0.75951  1.0000
  H   H3457     1.0  0.76067  0.21339  0.95909  1.0000
  H   H3458     1.0  0.68641  0.18893  0.59384  1.0000
  H   H3459     1.0  0.73207  0.16105  0.96063  1.0000
  H   H3460     1.0  0.66811  0.20642  0.62942  1.0000
  H   H3461     1.0  0.72794  0.20039  0.94129  1.0000
  C   C1956     1.0  0.79445  0.17755  0.51764  1.0000
  C   C1957     1.0  0.66207  0.05560  0.85066  1.0000
  H   H3462     1.0  0.96835  0.19005  0.52309  1.0000
  H   H3463     1.0  0.74637  0.11600  0.98150  1.0000
  C   C1958     1.0  0.96701  0.21853  0.74127  1.0000
  H   H3464     1.0  0.95092  0.15823  0.49271  1.0000
  H   H3465     1.0  0.96075  0.20558  0.80306  1.0000
  C   C1959     1.0  0.65374  0.14927  0.55888  1.0000
  C   C1960     1.0  0.77660  0.21232  0.48950  1.0000
  C   C1961     1.0  0.67174  0.15792  0.57263  1.0000
  H   H3466     1.0  0.97974  0.20973  0.85185  1.0000
  C   C1962     1.0  0.94098  0.14563  0.49255  1.0000
  H   H3467     1.0  0.75203  0.14692  0.97433  1.0000
  H   H3468     1.0  0.65480  0.03449  0.51804  1.0000
  C   C1963     1.0  0.65582  0.05307  0.48688  1.0000
  H   H3469     1.0  0.72718  0.99195  0.56583  1.0000
  C   C1964     1.0  0.83717  0.22515  0.49980  1.0000
  H   H3470     1.0  0.65943  0.13732  0.52115  1.0000
  C   C1965     1.0  0.77657  0.16641  0.52352  1.0000
  C   C1966     1.0  0.71183  0.17866  0.96208  1.0000
  C   C1967     1.0  0.77888  0.99596  0.87676  1.0000
  H   H3471     1.0  0.81053  0.21297  0.49690  1.0000
  C   C1968     1.0  0.79514  0.99354  0.87301  1.0000
  H   H3472     1.0  0.98104  0.22908  0.78284  1.0000
  H   H3473     1.0  0.77161  0.15618  0.50657  1.0000
  C   C1969     1.0  0.98132  0.22413  0.76095  1.0000
  H   H3474     1.0  0.76852  0.17322  0.52224  1.0000
  H   H3475     1.0  0.82034  0.19979  0.48991  1.0000
  H   H3476     1.0  0.79451  0.18137  0.49435  1.0000
  H   H3477     1.0  0.64923  0.03729  0.88345  1.0000
  H   H3478     1.0  0.75526  0.18907  0.48493  1.0000
  Fe  Fe217     1.0  0.92688  0.38384  0.26842  1.0000
  S   S433      1.0  0.91417  0.39538  0.23813  1.0000
  S   S434      1.0  0.95471  0.39112  0.27311  1.0000
  Fe  Fe218     1.0  0.89459  0.36210  0.29815  1.0000
  S   S435      1.0  0.87977  0.37266  0.26976  1.0000
  S   S436      1.0  0.88399  0.33937  0.32744  1.0000
  Fe  Fe219     1.0  0.89413  0.36977  0.23143  1.0000
  S   S437      1.0  0.88125  0.36057  0.18524  1.0000
  Fe  Fe220     1.0  0.90097  0.39749  0.27831  1.0000
  S   S438      1.0  0.89990  0.42142  0.29558  1.0000
  S   S439      1.0  0.90789  0.35812  0.25897  1.0000
  S   S440      1.0  0.91475  0.38703  0.30935  1.0000
  C   C1970     1.0  0.94832  0.44692  0.29916  1.0000
  S   S441      1.0  0.83886  0.28650  0.03181  1.0000
  S   S442      1.0  0.85597  0.31786  0.45658  1.0000
  Fe  Fe221     1.0  0.86578  0.26260  0.01849  1.0000
  S   S443      1.0  0.84859  0.25693  0.05567  1.0000
  H   H3479     1.0  0.97148  0.41815  0.17834  1.0000
  Fe  Fe222     1.0  0.83015  0.25917  0.02180  1.0000
  C   C1971     1.0  0.76915  0.26729  0.35829  1.0000
  Fe  Fe223     1.0  0.85852  0.28446  0.06311  1.0000
  S   S444      1.0  0.86806  0.29434  0.11095  1.0000
  H   H3480     1.0  0.96529  0.43493  0.30795  1.0000
  S   S445      1.0  0.87697  0.28982  0.02767  1.0000
  H   H3481     1.0  0.95075  0.40239  0.21394  1.0000
  N   N111      1.0  0.92129  0.34099  0.09210  1.0000
  H   H3482     1.0  0.80208  0.27133  0.36811  1.0000
  H   H3483     1.0  0.82079  0.30351  0.43708  1.0000
  C   C1972     1.0  0.90078  0.43984  0.27932  1.0000
  C   C1973     1.0  0.90022  0.44168  0.24856  1.0000
  C   C1974     1.0  0.90114  0.45663  0.23698  1.0000
  C   C1975     1.0  0.90262  0.46995  0.25587  1.0000
  C   C1976     1.0  0.90329  0.46813  0.28660  1.0000
  C   C1977     1.0  0.90234  0.45319  0.29817  1.0000
  H   H3484     1.0  0.89901  0.43157  0.23371  1.0000
  H   H3485     1.0  0.90075  0.45786  0.21319  1.0000
  H   H3486     1.0  0.90441  0.47819  0.30149  1.0000
  H   H3487     1.0  0.90277  0.45194  0.32198  1.0000
  C   C1978     1.0  0.87794  0.34220  0.16472  1.0000
  C   C1979     1.0  0.86752  0.33805  0.13862  1.0000
  C   C1980     1.0  0.86446  0.32357  0.12169  1.0000
  C   C1981     1.0  0.87176  0.31301  0.13076  1.0000
  C   C1982     1.0  0.88227  0.31720  0.15678  1.0000
  C   C1983     1.0  0.88550  0.33179  0.17347  1.0000
  H   H3488     1.0  0.86170  0.34606  0.13148  1.0000
  H   H3489     1.0  0.85633  0.32052  0.10177  1.0000
  H   H3490     1.0  0.88807  0.30917  0.16393  1.0000
  H   H3491     1.0  0.89395  0.33504  0.19293  1.0000
  C   C1984     1.0  0.87726  0.33416  0.36433  1.0000
  C   C1985     1.0  0.87333  0.34459  0.38301  1.0000
  C   C1986     1.0  0.86723  0.33950  0.41126  1.0000
  C   C1987     1.0  0.86514  0.32402  0.42165  1.0000
  C   C1988     1.0  0.86923  0.31363  0.40311  1.0000
  C   C1989     1.0  0.87512  0.31863  0.37468  1.0000
  H   H3492     1.0  0.87478  0.35651  0.37555  1.0000
  H   H3493     1.0  0.86404  0.34766  0.42515  1.0000
  H   H3494     1.0  0.86767  0.30167  0.41050  1.0000
  H   H3495     1.0  0.87818  0.31045  0.36065  1.0000
  H   H3496     1.0  0.89755  0.28957  0.09383  1.0000
  C   C1990     1.0  0.96899  0.40223  0.24699  1.0000
  C   C1991     1.0  0.96381  0.40624  0.21963  1.0000
  H   H3497     1.0  0.81127  0.27770  0.46153  1.0000
  N   N112      1.0  0.85460  0.30719  0.24563  1.0000
  C   C1992     1.0  0.84683  0.31914  0.25129  1.0000
  C   C1993     1.0  0.84784  0.29340  0.26671  1.0000
  C   C1994     1.0  0.87310  0.31610  0.25043  1.0000
  C   C1995     1.0  0.85067  0.30013  0.21417  1.0000
  C   C1996     1.0  0.83216  0.29263  0.20336  1.0000
  C   C1997     1.0  0.85081  0.33323  0.22938  1.0000
  C   C1998     1.0  0.88315  0.30539  0.24813  1.0000
  C   C1999     1.0  0.85306  0.29804  0.30015  1.0000
  C   C2000     1.0  0.84492  0.28336  0.31948  1.0000
  C   C2001     1.0  0.83005  0.28660  0.17086  1.0000
  C   C2002     1.0  0.84078  0.34336  0.23509  1.0000
  C   C2003     1.0  0.90158  0.31555  0.25519  1.0000
  H   H3498     1.0  0.85104  0.32526  0.27369  1.0000
  H   H3499     1.0  0.83316  0.31266  0.25178  1.0000
  H   H3500     1.0  0.83408  0.28805  0.26481  1.0000
  H   H3501     1.0  0.85129  0.28314  0.26045  1.0000
  H   H3502     1.0  0.87644  0.32293  0.27220  1.0000
  H   H3503     1.0  0.87792  0.32573  0.23395  1.0000
  H   H3504     1.0  0.85750  0.30951  0.19828  1.0000
  H   H3505     1.0  0.85516  0.29025  0.21122  1.0000
  H   H3506     1.0  0.82662  0.30174  0.20482  1.0000
  H   H3507     1.0  0.82505  0.28204  0.21675  1.0000
  H   H3508     1.0  0.86405  0.34154  0.23240  1.0000
  H   H3509     1.0  0.84808  0.32874  0.20586  1.0000
  H   H3510     1.0  0.88178  0.30000  0.22530  1.0000
  H   H3511     1.0  0.87914  0.29533  0.26391  1.0000
  H   H3512     1.0  0.86663  0.30234  0.30430  1.0000
  H   H3513     1.0  0.84941  0.30787  0.30802  1.0000
  H   H3514     1.0  0.83124  0.27887  0.31707  1.0000
  C   C2004     1.0  0.94807  0.36647  0.08302  1.0000
  H   H3515     1.0  0.97307  0.36812  0.09311  1.0000
  H   H3516     1.0  0.81672  0.28107  0.16354  1.0000
  H   H3517     1.0  0.83648  0.29695  0.15637  1.0000
  H   H3518     1.0  0.83517  0.27721  0.16794  1.0000
  H   H3519     1.0  0.82737  0.33581  0.23058  1.0000
  H   H3520     1.0  0.84304  0.34829  0.25842  1.0000
  H   H3521     1.0  0.84457  0.35384  0.22010  1.0000
  H   H3522     1.0  0.90842  0.30752  0.25437  1.0000
  H   H3523     1.0  0.90656  0.32513  0.23863  1.0000
  H   H3524     1.0  0.90373  0.32145  0.27781  1.0000
  N   N113      1.0  0.95252  0.45361  0.26869  1.0000
  C   C2005     1.0  0.94277  0.44038  0.24557  1.0000
  C   C2006     1.0  0.94682  0.46740  0.26556  1.0000
  H   H3525     1.0  0.94815  0.37311  0.10407  1.0000
  H   H3526     1.0  0.78913  0.29054  0.36814  1.0000
  C   C2007     1.0  0.94273  0.44617  0.21333  1.0000
  H   H3527     1.0  0.77433  0.26447  0.33801  1.0000
  C   C2008     1.0  0.93645  0.43178  0.19068  1.0000
  H   H3528     1.0  0.92960  0.43436  0.25131  1.0000
  H   H3529     1.0  0.94711  0.43033  0.24542  1.0000
  H   H3530     1.0  0.93311  0.46253  0.26528  1.0000
  C   C2009     1.0  0.78591  0.27494  0.45361  1.0000
  C   C2010     1.0  0.87328  0.46759  0.18048  1.0000
  H   H3531     1.0  0.96716  0.48539  0.29442  1.0000
  H   H3532     1.0  0.78854  0.25837  0.39328  1.0000
  H   H3533     1.0  0.93436  0.45265  0.21085  1.0000
  H   H3534     1.0  0.95529  0.45470  0.20773  1.0000
  H   H3535     1.0  0.94553  0.42143  0.29032  1.0000
  H   H3536     1.0  0.95531  0.45635  0.31678  1.0000
  H   H3537     1.0  0.81093  0.25083  0.39704  1.0000
  H   H3538     1.0  0.92364  0.42328  0.19502  1.0000
  H   H3539     1.0  0.93639  0.43636  0.16795  1.0000
  H   H3540     1.0  0.94461  0.42504  0.19160  1.0000
  H   H3541     1.0  0.97773  0.46554  0.28709  1.0000
  C   C2011     1.0  0.94564  0.42557  0.33713  1.0000
  H   H3542     1.0  0.93498  0.44376  0.30239  1.0000
  C   C2012     1.0  0.80135  0.27267  0.44343  1.0000
  H   H3543     1.0  0.83537  0.30847  0.39155  1.0000
  H   H3544     1.0  0.94655  0.34415  0.10365  1.0000
  H   H3545     1.0  0.84866  0.27331  0.31329  1.0000
  C   C2013     1.0  0.81290  0.29818  0.41633  1.0000
  H   H3546     1.0  0.90948  0.31100  0.05691  1.0000
  C   C2014     1.0  0.89269  0.33384  0.06432  1.0000
  H   H3547     1.0  0.93331  0.36532  0.18957  1.0000
  H   H3548     1.0  0.95022  0.47329  0.24391  1.0000
  C   C2015     1.0  0.82172  0.25911  0.41130  1.0000
  H   H3549     1.0  0.76197  0.25571  0.36924  1.0000
  H   H3550     1.0  0.91496  0.35511  0.05899  1.0000
  H   H3551     1.0  0.94124  0.34194  0.06523  1.0000
  H   H3552     1.0  0.93210  0.42213  0.33745  1.0000
  H   H3553     1.0  0.83342  0.28442  0.42736  1.0000
  H   H3554     1.0  0.95211  0.43510  0.35486  1.0000
  H   H3555     1.0  0.83884  0.26048  0.37712  1.0000
  C   C2016     1.0  0.97558  0.41510  0.19948  1.0000
  C   C2017     1.0  0.82398  0.32544  0.39089  1.0000
  C   C2018     1.0  0.92770  0.35188  0.14698  1.0000
  S   S446      1.0  0.84808  0.27160  0.48235  1.0000
  C   C2019     1.0  0.82354  0.27712  0.41021  1.0000
  C   C2020     1.0  0.88457  0.33481  0.03413  1.0000
  H   H3556     1.0  0.88826  0.32072  0.06934  1.0000
  H   H3557     1.0  0.92030  0.36331  0.10963  1.0000
  H   H3558     1.0  0.88819  0.34008  0.08101  1.0000
  C   C2021     1.0  0.92720  0.36544  0.16753  1.0000
  C   C2022     1.0  0.91073  0.29391  0.08860  1.0000
  C   C2023     1.0  0.91703  0.31132  0.07740  1.0000
  H   H3559     1.0  0.90473  0.34531  0.12156  1.0000
  H   H3560     1.0  0.91167  0.28546  0.07112  1.0000
  C   C2024     1.0  0.91803  0.35074  0.11674  1.0000
  H   H3561     1.0  0.82011  0.25489  0.43441  1.0000
  C   C2025     1.0  0.91182  0.34209  0.06405  1.0000
  H   H3562     1.0  0.81684  0.30192  0.36829  1.0000
  H   H3563     1.0  0.85333  0.47111  0.15566  1.0000
  H   H3564     1.0  0.88839  0.32848  0.01643  1.0000
  H   H3565     1.0  0.91815  0.29336  0.10878  1.0000
  H   H3566     1.0  0.91556  0.33691  0.04450  1.0000
  H   H3567     1.0  0.87090  0.32868  0.03488  1.0000
  H   H3568     1.0  0.76058  0.27308  0.35154  1.0000
  C   C2026     1.0  0.97099  0.46043  0.26529  1.0000
  H   H3569     1.0  0.91427  0.36367  0.17083  1.0000
  C   C2027     1.0  0.97827  0.44869  0.25236  1.0000
  H   H3570     1.0  0.77719  0.28178  0.39888  1.0000
  H   H3571     1.0  0.94088  0.35448  0.14441  1.0000
  H   H3572     1.0  0.97201  0.38512  0.07358  1.0000
  H   H3573     1.0  0.94177  0.37061  0.06517  1.0000
  H   H3574     1.0  0.90316  0.31871  0.10879  1.0000
  H   H3575     1.0  0.97486  0.47102  0.25045  1.0000
  C   C2028     1.0  0.91596  0.32352  0.10127  1.0000
  C   C2029     1.0  0.93943  0.34766  0.08614  1.0000
  H   H3576     1.0  0.92366  0.32289  0.12106  1.0000
  C   C2030     1.0  0.82262  0.30784  0.39012  1.0000
  H   H3577     1.0  0.82999  0.33176  0.41244  1.0000
  H   H3578     1.0  0.93383  0.37763  0.15809  1.0000
  H   H3579     1.0  0.87007  0.44284  0.19032  1.0000
  N   N114      1.0  0.80798  0.27991  0.41430  1.0000
  H   H3580     1.0  0.80202  0.30119  0.41844  1.0000
  H   H3581     1.0  0.97467  0.25862  0.03830  1.0000
  C   C2031     1.0  0.78298  0.27893  0.37964  1.0000
  C   C2032     1.0  0.86709  0.47689  0.15745  1.0000
  H   H3582     1.0  0.93000  0.31478  0.07153  1.0000
  H   H3583     1.0  0.89277  0.24131  0.11399  1.0000
  H   H3584     1.0  0.85173  0.44437  0.17441  1.0000
  H   H3585     1.0  0.94808  0.41455  0.34192  1.0000
  C   C2033     1.0  0.97410  0.24657  0.32167  1.0000
  H   H3586     1.0  0.79770  0.25921  0.44260  1.0000
  S   S447      1.0  0.90360  0.48848  0.23990  1.0000
  H   H3587     1.0  0.88687  0.47159  0.18011  1.0000
  H   H3588     1.0  0.86856  0.44627  0.15123  1.0000
  C   C2034     1.0  0.86538  0.44915  0.17354  1.0000
  C   C2035     1.0  0.95181  0.43173  0.30672  1.0000
  H   H3589     1.0  0.87089  0.47421  0.13553  1.0000
  H   H3590     1.0  0.82860  0.28160  0.38842  1.0000
  C   C2036     1.0  0.96608  0.37162  0.07540  1.0000
  C   C2037     1.0  0.95364  0.48136  0.28992  1.0000
  H   H3591     1.0  0.84721  0.47701  0.20129  1.0000
  H   H3592     1.0  0.92207  0.34011  0.15833  1.0000
  H   H3593     1.0  0.96681  0.36582  0.05384  1.0000
  C   C2038     1.0  0.79563  0.27152  0.38864  1.0000
  H   H3594     1.0  0.97442  0.44579  0.22845  1.0000
  H   H3595     1.0  0.94739  0.47710  0.31088  1.0000
  H   H3596     1.0  0.88792  0.34775  0.02835  1.0000
  H   H3597     1.0  0.83171  0.33223  0.37282  1.0000
  H   H3598     1.0  0.81157  0.32569  0.38774  1.0000
  H   H3599     1.0  0.83586  0.24461  0.40322  1.0000
  H   H3600     1.0  0.84833  0.26563  0.41442  1.0000
  H   H3601     1.0  0.87026  0.46962  0.20336  1.0000
  C   C2039     1.0  0.83716  0.25742  0.40084  1.0000
  H   H3602     1.0  0.96931  0.25624  0.32381  1.0000
  S   S448      1.0  0.88144  0.24850  0.00847  1.0000
  H   H3603     1.0  0.84894  0.28708  0.34316  1.0000
  Fe  Fe224     1.0  0.85691  0.29039  0.99559  1.0000
  C   C2040     1.0  0.89023  0.24153  0.03840  1.0000
  H   H3604     1.0  0.78788  0.28800  0.45476  1.0000
  H   H3605     1.0  0.77505  0.26788  0.43839  1.0000
  H   H3606     1.0  0.97419  0.43695  0.26368  1.0000
  H   H3607     1.0  0.88089  0.25195  0.07268  1.0000
  C   C2041     1.0  0.88790  0.24478  0.06788  1.0000
  S   S449      1.0  0.80207  0.24269  0.01634  1.0000
  H   H3608     1.0  0.97627  0.24518  0.29791  1.0000
  C   C2042     1.0  0.98064  0.25021  0.03265  1.0000
  H   H3609     1.0  0.97665  0.24073  0.15780  1.0000
  H   H3610     1.0  0.86511  0.48834  0.09977  1.0000
  C   C2043     1.0  0.78150  0.26830  0.48450  1.0000
  H   H3611     1.0  0.77817  0.25490  0.48422  1.0000
  H   H3612     1.0  0.97683  0.25064  0.98560  1.0000
  Fe  Fe225     1.0  0.93200  0.38875  0.78101  1.0000
  S   S450      1.0  0.91541  0.39139  0.74428  1.0000
  S   S451      1.0  0.95907  0.40667  0.78712  1.0000
  Fe  Fe226     1.0  0.90314  0.36104  0.81024  1.0000
  S   S452      1.0  0.88451  0.36204  0.77485  1.0000
  S   S453      1.0  0.89929  0.34175  0.84644  1.0000
  Fe  Fe227     1.0  0.90337  0.36371  0.74148  1.0000
  S   S454      1.0  0.90159  0.35179  0.69500  1.0000
  Fe  Fe228     1.0  0.89808  0.38977  0.77987  1.0000
  S   S455      1.0  0.88586  0.40790  0.78500  1.0000
  S   S456      1.0  0.92136  0.36131  0.77626  1.0000
  S   S457      1.0  0.91531  0.38856  0.81729  1.0000
  H   H3613     1.0  0.95270  0.43191  0.75517  1.0000
  S   S458      1.0  0.82958  0.29050  0.51857  1.0000
  H   H3614     1.0  0.97509  0.39913  0.68670  1.0000
  Fe  Fe229     1.0  0.86390  0.27448  0.52430  1.0000
  S   S459      1.0  0.84259  0.26562  0.55378  1.0000
  S   S460      1.0  0.88463  0.26576  0.52497  1.0000
  Fe  Fe230     1.0  0.82674  0.26431  0.51246  1.0000
  H   H3615     1.0  0.85366  0.30166  0.87750  1.0000
  Fe  Fe231     1.0  0.84709  0.29237  0.55810  1.0000
  S   S461      1.0  0.84495  0.30277  0.60379  1.0000
  H   H3616     1.0  0.89264  0.28995  0.57933  1.0000
  S   S462      1.0  0.86952  0.30129  0.53115  1.0000
  H   H3617     1.0  0.95599  0.39178  0.72786  1.0000
  H   H3618     1.0  0.93662  0.32842  0.68642  1.0000
  C   C2044     1.0  0.82278  0.27831  0.91073  1.0000
  H   H3619     1.0  0.85262  0.24978  0.89493  1.0000
  C   C2045     1.0  0.89220  0.42830  0.77268  1.0000
  C   C2046     1.0  0.90124  0.43352  0.74743  1.0000
  C   C2047     1.0  0.90576  0.44971  0.73818  1.0000
  C   C2048     1.0  0.90169  0.46106  0.75437  1.0000
  C   C2049     1.0  0.89255  0.45583  0.77950  1.0000
  C   C2050     1.0  0.88761  0.43948  0.78824  1.0000
  H   H3620     1.0  0.90447  0.42497  0.73477  1.0000
  H   H3621     1.0  0.91257  0.45356  0.71844  1.0000
  H   H3622     1.0  0.88915  0.46431  0.79205  1.0000
  H   H3623     1.0  0.88036  0.43552  0.80749  1.0000
  C   C2051     1.0  0.88524  0.33899  0.66968  1.0000
  C   C2052     1.0  0.86911  0.33035  0.67819  1.0000
  C   C2053     1.0  0.85691  0.31952  0.65763  1.0000
  C   C2054     1.0  0.86066  0.31710  0.62839  1.0000
  C   C2055     1.0  0.87668  0.32606  0.61969  1.0000
  C   C2056     1.0  0.88882  0.33702  0.64014  1.0000
  H   H3624     1.0  0.86611  0.33175  0.70076  1.0000
  H   H3625     1.0  0.84452  0.31274  0.66456  1.0000
  H   H3626     1.0  0.87967  0.32462  0.59714  1.0000
  H   H3627     1.0  0.90115  0.34393  0.63310  1.0000
  C   C2057     1.0  0.88875  0.33409  0.87971  1.0000
  C   C2058     1.0  0.87680  0.33904  0.89038  1.0000
  C   C2059     1.0  0.86835  0.33205  0.91596  1.0000
  C   C2060     1.0  0.87170  0.32005  0.93154  1.0000
  C   C2061     1.0  0.88385  0.31531  0.92121  1.0000
  C   C2062     1.0  0.89218  0.32217  0.89543  1.0000
  H   H3628     1.0  0.87393  0.34816  0.87875  1.0000
  H   H3629     1.0  0.85905  0.33593  0.92366  1.0000
  H   H3630     1.0  0.88676  0.30626  0.93294  1.0000
  H   H3631     1.0  0.90140  0.31823  0.88761  1.0000
  H   H3632     1.0  0.86989  0.38638  0.59553  1.0000
  S   S463      1.0  0.84690  0.26332  0.98373  1.0000
  C   C2063     1.0  0.96741  0.40265  0.73005  1.0000
  H   H3633     1.0  0.95390  0.44427  0.70653  1.0000
  H   H3634     1.0  0.91886  0.29977  0.66527  1.0000
  H   H3635     1.0  0.87307  0.40551  0.63615  1.0000
  H   H3636     1.0  0.85889  0.26592  0.66216  1.0000
  C   C2064     1.0  0.91181  0.25383  0.64224  1.0000
  H   H3637     1.0  0.93131  0.42808  0.75687  1.0000
  H   H3638     1.0  0.87729  0.36556  0.64340  1.0000
  H   H3639     1.0  0.86146  0.36168  0.68525  1.0000
  H   H3640     1.0  0.93476  0.34554  0.66865  1.0000
  H   H3641     1.0  0.90345  0.43902  0.62899  1.0000
  C   C2065     1.0  0.87923  0.25980  0.89442  1.0000
  C   C2066     1.0  0.81629  0.27451  0.94176  1.0000
  H   H3642     1.0  0.89803  0.26938  0.60052  1.0000
  H   H3643     1.0  0.89800  0.30952  0.59619  1.0000
  C   C2067     1.0  0.83176  0.26047  0.85947  1.0000
  C   C2068     1.0  0.88458  0.24938  0.54639  1.0000
  H   H3644     1.0  0.83669  0.26364  0.91844  1.0000
  S   S464      1.0  0.85999  0.31113  0.96299  1.0000
  H   H3645     1.0  0.87910  0.37029  0.71102  1.0000
  H   H3646     1.0  0.88039  0.25072  0.90989  1.0000
  H   H3647     1.0  0.93243  0.44128  0.70768  1.0000
  H   H3648     1.0  0.83332  0.29155  0.86085  1.0000
  C   C2069     1.0  0.97913  0.25360  0.90409  1.0000
  C   C2070     1.0  0.87649  0.37881  0.60358  1.0000
  C   C2071     1.0  0.86835  0.37215  0.70099  1.0000
  H   H3649     1.0  0.90866  0.24519  0.66067  1.0000
  H   H3650     1.0  0.86912  0.28328  0.60355  1.0000
  H   H3651     1.0  0.96353  0.45563  0.85526  1.0000
  H   H3652     1.0  0.86589  0.27394  0.85718  1.0000
  H   H3653     1.0  0.89298  0.40868  0.62466  1.0000
  C   C2072     1.0  0.89509  0.43742  0.64740  1.0000
  H   H3654     1.0  0.85592  0.35562  0.59029  1.0000
  H   H3655     1.0  0.84349  0.28461  0.81519  1.0000
  H   H3656     1.0  0.94578  0.33496  0.65120  1.0000
  H   H3657     1.0  0.92673  0.31681  0.53440  1.0000
  H   H3658     1.0  0.90583  0.42419  0.67386  1.0000
  C   C2073     1.0  0.94836  0.48444  0.79340  1.0000
  C   C2074     1.0  0.89724  0.24386  0.54351  1.0000
  C   C2075     1.0  0.86141  0.27509  0.87928  1.0000
  C   C2076     1.0  0.83814  0.25256  0.83473  1.0000
  H   H3659     1.0  0.88544  0.42183  0.68338  1.0000
  C   C2077     1.0  0.83882  0.27543  0.90785  1.0000
  H   H3660     1.0  0.90679  0.37992  0.62975  1.0000
  H   H3661     1.0  0.82569  0.28241  0.95889  1.0000
  H   H3662     1.0  0.90786  0.45034  0.84242  1.0000
  N   N115      1.0  0.84440  0.27525  0.87671  1.0000
  H   H3663     1.0  0.86467  0.29395  0.83073  1.0000
  C   C2078     1.0  0.86316  0.26181  0.89921  1.0000
  H   H3664     1.0  0.87004  0.36469  0.56170  1.0000
  H   H3665     1.0  0.84555  0.24624  0.84472  1.0000
  H   H3666     1.0  0.95959  0.47622  0.82926  1.0000
  C   C2079     1.0  0.90409  0.26620  0.64634  1.0000
  H   H3667     1.0  0.82532  0.29137  0.90717  1.0000
  C   C2080     1.0  0.88552  0.40648  0.64446  1.0000
  S   S465      1.0  0.90841  0.48149  0.74202  1.0000
  H   H3668     1.0  0.88957  0.38511  0.59823  1.0000
  H   H3669     1.0  0.86298  0.24650  0.56954  1.0000
  H   H3670     1.0  0.92744  0.38253  0.67124  1.0000
  H   H3671     1.0  0.93584  0.48013  0.80207  1.0000
  C   C2081     1.0  0.85691  0.37134  0.72581  1.0000
  C   C2082     1.0  0.89332  0.42229  0.66470  1.0000
  H   H3672     1.0  0.92548  0.26017  0.64221  1.0000
  C   C2083     1.0  0.97827  0.40682  0.70679  1.0000
  C   C2084     1.0  0.85217  0.29397  0.83128  1.0000
  H   H3673     1.0  0.84875  0.28498  0.92207  1.0000
  H   H3674     1.0  0.93029  0.30581  0.63343  1.0000
  H   H3675     1.0  0.91437  0.40206  0.62923  1.0000
  H   H3676     1.0  0.89882  0.37985  0.68046  1.0000
  H   H3677     1.0  0.93874  0.45849  0.75402  1.0000
  C   C2085     1.0  0.97096  0.45400  0.83747  1.0000
  H   H3678     1.0  0.90716  0.40118  0.68471  1.0000
  C   C2086     1.0  0.91215  0.39148  0.64351  1.0000
  H   H3679     1.0  0.86335  0.38116  0.74307  1.0000
  C   C2087     1.0  0.86915  0.36248  0.58584  1.0000
  C   C2088     1.0  0.92894  0.39282  0.65650  1.0000
  H   H3680     1.0  0.92236  0.29582  0.57196  1.0000
  H   H3681     1.0  0.93786  0.42392  0.70644  1.0000
  H   H3682     1.0  0.85307  0.35934  0.73642  1.0000
  H   H3683     1.0  0.97161  0.25356  0.55537  1.0000
  H   H3684     1.0  0.88140  0.39825  0.70352  1.0000
  H   H3685     1.0  0.84562  0.37265  0.71682  1.0000
  H   H3686     1.0  0.90874  0.32143  0.66207  1.0000
  H   H3687     1.0  0.93675  0.39235  0.63824  1.0000
  H   H3688     1.0  0.87058  0.28707  0.88864  1.0000
  H   H3689     1.0  0.85679  0.28463  0.65258  1.0000
  C   C2089     1.0  0.91823  0.30580  0.57635  1.0000
  H   H3690     1.0  0.85829  0.31252  0.79805  1.0000
  C   C2090     1.0  0.96067  0.44751  0.80761  1.0000
  H   H3691     1.0  0.84609  0.26166  0.81964  1.0000
  C   C2091     1.0  0.91514  0.31211  0.54637  1.0000
  C   C2092     1.0  0.90048  0.39097  0.66830  1.0000
  H   H3692     1.0  0.93549  0.40456  0.66933  1.0000
  H   H3693     1.0  0.82169  0.26353  0.84933  1.0000
  C   C2093     1.0  0.91891  0.32196  0.64808  1.0000
  H   H3694     1.0  0.86279  0.39125  0.68028  1.0000
  C   C2094     1.0  0.93152  0.44821  0.84195  1.0000
  H   H3695     1.0  0.90043  0.44849  0.66250  1.0000
  C   C2095     1.0  0.97162  0.41228  0.75637  1.0000
  H   H3696     1.0  0.88283  0.43638  0.63817  1.0000
  H   H3697     1.0  0.87607  0.35487  0.59175  1.0000
  C   C2096     1.0  0.87406  0.38894  0.68585  1.0000
  H   H3698     1.0  0.90980  0.27343  0.66714  1.0000
  C   C2097     1.0  0.87435  0.37621  0.63739  1.0000
  H   H3699     1.0  0.89070  0.25927  0.64939  1.0000
  H   H3700     1.0  0.88660  0.30115  0.64309  1.0000
  N   N116      1.0  0.88385  0.39070  0.65853  1.0000
  H   H3701     1.0  0.86078  0.37201  0.63960  1.0000
  C   C2098     1.0  0.84563  0.29096  0.86282  1.0000
  H   H3702     1.0  0.91780  0.32765  0.62692  1.0000
  N   N117      1.0  0.94979  0.45594  0.79653  1.0000
  C   C2099     1.0  0.91354  0.44197  0.85031  1.0000
  H   H3703     1.0  0.98128  0.25049  0.58932  1.0000
  C   C2100     1.0  0.85752  0.27332  0.64350  1.0000
  H   H3704     1.0  0.93801  0.46072  0.85200  1.0000
  H   H3705     1.0  0.97039  0.47943  0.79641  1.0000
  C   C2101     1.0  0.94819  0.45424  0.76297  1.0000
  H   H3706     1.0  0.89004  0.27164  0.89902  1.0000
  H   H3707     1.0  0.95309  0.43414  0.80924  1.0000
  H   H3708     1.0  0.87930  0.25539  0.87128  1.0000
  H   H3709     1.0  0.96877  0.43012  0.85239  1.0000
  H   H3710     1.0  0.88927  0.28533  0.66253  1.0000
  C   C2102     1.0  0.93270  0.44788  0.80787  1.0000
  C   C2103     1.0  0.94178  0.43664  0.71536  1.0000
  H   H3711     1.0  0.92843  0.31605  0.58861  1.0000
  C   C2104     1.0  0.85341  0.31056  0.82054  1.0000
  H   H3712     1.0  0.96006  0.46223  0.75352  1.0000
  H   H3713     1.0  0.90627  0.42946  0.84050  1.0000
  H   H3714     1.0  0.87277  0.26596  0.61620  1.0000
  C   C2105     1.0  0.87201  0.27754  0.62345  1.0000
  H   H3715     1.0  0.91100  0.32221  0.54946  1.0000
  H   H3716     1.0  0.92439  0.45320  0.79771  1.0000
  H   H3717     1.0  0.91300  0.44147  0.87483  1.0000
  H   H3718     1.0  0.92686  0.43471  0.80076  1.0000
  H   H3719     1.0  0.86197  0.32064  0.83562  1.0000
  H   H3720     1.0  0.91906  0.28006  0.61150  1.0000
  C   C2106     1.0  0.94328  0.43673  0.74924  1.0000
  H   H3721     1.0  0.97009  0.44849  0.79132  1.0000
  S   S466      1.0  0.80397  0.24182  0.49374  1.0000
  C   C2107     1.0  0.93505  0.33335  0.66458  1.0000
  H   H3722     1.0  0.93677  0.43995  0.85198  1.0000
  H   H3723     1.0  0.90560  0.30208  0.53240  1.0000
  H   H3724     1.0  0.82542  0.25039  0.87464  1.0000
  H   H3725     1.0  0.80499  0.27694  0.94331  1.0000
  C   C2108     1.0  0.95774  0.47402  0.80484  1.0000
  H   H3726     1.0  0.84108  0.31110  0.81940  1.0000
  N   N118      1.0  0.90386  0.29272  0.62389  1.0000
  C   C2109     1.0  0.90642  0.27715  0.61905  1.0000
  C   C2110     1.0  0.90237  0.29951  0.59399  1.0000
  C   C2111     1.0  0.91846  0.30457  0.64282  1.0000
  C   C2112     1.0  0.88831  0.28959  0.63974  1.0000
  H   H3727     1.0  0.90663  0.24948  0.52789  1.0000
  H   H3728     1.0  0.81309  0.26146  0.94661  1.0000
  H   H3729     1.0  0.96827  0.25498  0.91305  1.0000
  C   C2113     1.0  0.82378  0.23980  0.81589  1.0000
  H   H3730     1.0  0.86349  0.26546  0.92300  1.0000
  H   H3731     1.0  0.81288  0.27053  0.89431  1.0000
  H   H3732     1.0  0.98123  0.46607  0.83438  1.0000
  H   H3733     1.0  0.94710  0.48404  0.76879  1.0000
  H   H3734     1.0  0.90710  0.24666  0.62104  1.0000
  H   H3735     1.0  0.79200  0.27447  0.50106  1.0000
  H   H3736     1.0  0.84576  0.26621  0.63045  1.0000
  H   H3737     1.0  0.77069  0.27048  0.49161  1.0000
  C   C2114     1.0  0.87257  0.24213  0.56680  1.0000
  Fe  Fe232     1.0  0.85201  0.29780  0.49088  1.0000
  H   H3738     1.0  0.69063  0.48550  0.93623  1.0000
  H   H3739     1.0  0.81633  0.24562  0.80423  1.0000
  H   H3740     1.0  0.97776  0.40168  0.84078  1.0000
  H   H3741     1.0  0.97491  0.24120  0.89337  1.0000
  H   H3742     1.0  0.97809  0.38358  0.85710  1.0000
  C   C2115     1.0  0.97861  0.44232  0.84832  1.0000
  H   H3743     1.0  0.81820  0.24073  0.59898  1.0000
  C   C2116     1.0  0.85045  0.68603  0.02038  1.0000
  S   S467      1.0  0.83553  0.56013  0.01263  1.0000
  S   S468      1.0  0.87658  0.58338  0.44497  1.0000
  Fe  Fe233     1.0  0.87247  0.60212  0.02892  1.0000
  S   S469      1.0  0.85197  0.59237  0.06019  1.0000
  S   S470      1.0  0.89606  0.62531  0.03075  1.0000
  Fe  Fe234     1.0  0.85427  0.56836  0.05234  1.0000
  S   S471      1.0  0.85263  0.55155  0.09105  1.0000
  Fe  Fe235     1.0  0.83437  0.58478  0.01934  1.0000
  H   H3744     1.0  0.74278  0.73085  0.21976  1.0000
  S   S472      1.0  0.87604  0.57873  0.02384  1.0000
  H   H3745     1.0  0.67055  0.73413  0.31789  1.0000
  Fe  Fe236     1.0  0.92138  0.71622  0.09185  1.0000
  S   S473      1.0  0.90424  0.69024  0.10208  1.0000
  Fe  Fe237     1.0  0.90802  0.54655  0.23909  1.0000
  S   S474      1.0  0.92015  0.56020  0.28251  1.0000
  S   S475      1.0  0.90606  0.56102  0.19844  1.0000
  Fe  Fe238     1.0  0.90843  0.51386  0.26079  1.0000
  S   S476      1.0  0.92056  0.52535  0.30518  1.0000
  Fe  Fe239     1.0  0.90278  0.53790  0.30497  1.0000
  S   S477      1.0  0.88842  0.53637  0.34731  1.0000
  Fe  Fe240     1.0  0.93690  0.54684  0.27972  1.0000
  S   S478      1.0  0.96485  0.55777  0.28937  1.0000
  S   S479      1.0  0.88952  0.52498  0.26145  1.0000
  S   S480      1.0  0.92598  0.53466  0.23557  1.0000
  H   H3746     1.0  0.94279  0.56445  0.37886  1.0000
  S   S481      1.0  0.69036  0.55844  0.04215  1.0000
  S   S482      1.0  0.67474  0.54831  0.44161  1.0000
  Fe  Fe241     1.0  0.70735  0.60405  0.02442  1.0000
  S   S483      1.0  0.71375  0.59536  0.06762  1.0000
  S   S484      1.0  0.71964  0.63063  0.01182  1.0000
  Fe  Fe242     1.0  0.71707  0.57606  0.03926  1.0000
  S   S485      1.0  0.73785  0.56740  0.04946  1.0000
  Fe  Fe243     1.0  0.68660  0.57853  0.06720  1.0000
  S   S486      1.0  0.67124  0.57785  0.10749  1.0000
  C   C2117     1.0  0.65889  0.56281  0.13210  1.0000
  S   S487      1.0  0.68000  0.58870  0.02529  1.0000
  H   H3747     1.0  0.69246  0.68523  0.47544  1.0000
  H   H3748     1.0  0.82527  0.69798  0.02169  1.0000
  Fe  Fe244     1.0  0.76461  0.71528  0.09831  1.0000
  S   S488      1.0  0.74620  0.68969  0.10804  1.0000
  C   C2118     1.0  0.71918  0.70833  0.00271  1.0000
  C   C2119     1.0  0.72672  0.64697  0.03871  1.0000
  C   C2120     1.0  0.72125  0.64489  0.06752  1.0000
  C   C2121     1.0  0.72726  0.65813  0.08845  1.0000
  C   C2122     1.0  0.73880  0.67353  0.08079  1.0000
  C   C2123     1.0  0.74431  0.67561  0.05197  1.0000
  C   C2124     1.0  0.73825  0.66238  0.03101  1.0000
  H   H3749     1.0  0.71230  0.63309  0.07363  1.0000
  H   H3750     1.0  0.72294  0.65641  0.11069  1.0000
  H   H3751     1.0  0.75329  0.68737  0.04587  1.0000
  H   H3752     1.0  0.74263  0.66404  0.00881  1.0000
  H   H3753     1.0  0.69461  0.65677  0.15080  1.0000
  H   H3754     1.0  0.91295  0.58938  0.44275  1.0000
  H   H3755     1.0  0.97701  0.51743  0.20738  1.0000
  C   C2125     1.0  0.86965  0.49919  0.19393  1.0000
  H   H3756     1.0  0.91989  0.52472  0.13304  1.0000
  H   H3757     1.0  0.66128  0.71703  0.29160  1.0000
  H   H3758     1.0  0.91310  0.58605  0.03583  1.0000
  H   H3759     1.0  0.86679  0.51464  0.14703  1.0000
  C   C2126     1.0  0.68294  0.70567  0.44366  1.0000
  C   C2127     1.0  0.65779  0.54673  0.13154  1.0000
  H   H3760     1.0  0.75713  0.59296  0.00946  1.0000
  H   H3761     1.0  0.77786  0.70436  0.18078  1.0000
  H   H3762     1.0  0.91586  0.71959  0.22586  1.0000
  C   C2128     1.0  0.97174  0.57480  0.23759  1.0000
  H   H3763     1.0  0.95855  0.57132  0.23427  1.0000
  C   C2129     1.0  0.74615  0.61848  0.46730  1.0000
  H   H3764     1.0  0.92481  0.52263  0.17178  1.0000
  C   C2130     1.0  0.79197  0.58539  0.02209  1.0000
  H   H3765     1.0  0.98072  0.53051  0.17619  1.0000
  C   C2131     1.0  0.76502  0.58741  0.01881  1.0000
  C   C2132     1.0  0.75873  0.57490  0.03888  1.0000
  C   C2133     1.0  0.76918  0.56773  0.05052  1.0000
  C   C2134     1.0  0.78567  0.57291  0.04220  1.0000
  H   H3766     1.0  0.85272  0.50885  0.23604  1.0000
  S   S489      1.0  0.92257  0.73422  0.12807  1.0000
  H   H3767     1.0  0.76448  0.55802  0.06600  1.0000
  H   H3768     1.0  0.79349  0.56722  0.05133  1.0000
  C   C2135     1.0  0.86761  0.55450  0.12085  1.0000
  C   C2136     1.0  0.86296  0.54494  0.14605  1.0000
  C   C2137     1.0  0.87452  0.54666  0.16996  1.0000
  C   C2138     1.0  0.89094  0.55790  0.16881  1.0000
  C   C2139     1.0  0.89561  0.56734  0.14348  1.0000
  C   C2140     1.0  0.88405  0.56569  0.11966  1.0000
  H   H3769     1.0  0.85028  0.53624  0.14718  1.0000
  H   H3770     1.0  0.87068  0.53947  0.18941  1.0000
  H   H3771     1.0  0.90831  0.57585  0.14215  1.0000
  H   H3772     1.0  0.88786  0.57292  0.10025  1.0000
  C   C2141     1.0  0.87948  0.56993  0.41802  1.0000
  C   C2142     1.0  0.87376  0.55300  0.42125  1.0000
  C   C2143     1.0  0.87652  0.54301  0.39933  1.0000
  C   C2144     1.0  0.88518  0.54972  0.37397  1.0000
  C   C2145     1.0  0.89096  0.56666  0.37085  1.0000
  C   C2146     1.0  0.88809  0.57664  0.39265  1.0000
  H   H3773     1.0  0.86730  0.54757  0.44070  1.0000
  H   H3774     1.0  0.87202  0.52995  0.40213  1.0000
  H   H3775     1.0  0.89762  0.57207  0.35156  1.0000
  H   H3776     1.0  0.89263  0.58970  0.38982  1.0000
  C   C2147     1.0  0.89771  0.64338  0.04972  1.0000
  C   C2148     1.0  0.88663  0.64311  0.07098  1.0000
  C   C2149     1.0  0.88884  0.65760  0.08684  1.0000
  C   C2150     1.0  0.90196  0.67248  0.08127  1.0000
  C   C2151     1.0  0.91290  0.67280  0.05970  1.0000
  C   C2152     1.0  0.91086  0.65825  0.04421  1.0000
  H   H3777     1.0  0.87655  0.63169  0.07559  1.0000
  H   H3778     1.0  0.88043  0.65724  0.10372  1.0000
  H   H3779     1.0  0.92305  0.68421  0.05529  1.0000
  H   H3780     1.0  0.91951  0.65852  0.02785  1.0000
  H   H3781     1.0  0.79248  0.56184  0.40808  1.0000
  C   C2153     1.0  0.86889  0.50118  0.10802  1.0000
  H   H3782     1.0  0.83117  0.53830  0.40412  1.0000
  C   C2154     1.0  0.84209  0.55774  0.36128  1.0000
  H   H3783     1.0  0.80838  0.67826  0.01531  1.0000
  H   H3784     1.0  0.82499  0.51531  0.43914  1.0000
  H   H3785     1.0  0.96949  0.72759  0.46524  1.0000
  C   C2155     1.0  0.73763  0.72405  0.27756  1.0000
  H   H3786     1.0  0.80482  0.58783  0.44592  1.0000
  H   H3787     1.0  0.67397  0.50660  0.04117  1.0000
  H   H3788     1.0  0.66616  0.52256  0.48408  1.0000
  H   H3789     1.0  0.87763  0.49659  0.21109  1.0000
  C   C2156     1.0  0.92614  0.72666  0.21184  1.0000
  H   H3790     1.0  0.87299  0.51256  0.19677  1.0000
  H   H3791     1.0  0.65245  0.56549  0.43462  1.0000
  H   H3792     1.0  0.65969  0.73415  0.44256  1.0000
  H   H3793     1.0  0.90302  0.56596  0.01753  1.0000
  H   H3794     1.0  0.69060  0.52584  0.05252  1.0000
  H   H3795     1.0  0.73891  0.70629  0.03206  1.0000
  H   H3796     1.0  0.71538  0.72082  0.11514  1.0000
  H   H3797     1.0  0.83560  0.65049  0.04954  1.0000
  H   H3798     1.0  0.93723  0.70886  0.21575  1.0000
  C   C2157     1.0  0.85959  0.66331  0.02888  1.0000
  C   C2158     1.0  0.86573  0.70038  0.08266  1.0000
  C   C2159     1.0  0.85246  0.56805  0.33702  1.0000
  H   H3799     1.0  0.90918  0.56259  0.42725  1.0000
  H   H3800     1.0  0.95490  0.50583  0.29902  1.0000
  H   H3801     1.0  0.64849  0.57188  0.05159  1.0000
  H   H3802     1.0  0.80863  0.55871  0.36838  1.0000
  C   C2160     1.0  0.70911  0.52862  0.00282  1.0000
  N   N119      1.0  0.92145  0.62601  0.13347  1.0000
  C   C2161     1.0  0.92471  0.64089  0.15333  1.0000
  C   C2162     1.0  0.92942  0.61568  0.14814  1.0000
  C   C2163     1.0  0.92999  0.63195  0.10503  1.0000
  C   C2164     1.0  0.90325  0.61605  0.12574  1.0000
  C   C2165     1.0  0.89102  0.61547  0.14974  1.0000
  C   C2166     1.0  0.92024  0.65441  0.13915  1.0000
  C   C2167     1.0  0.92974  0.61852  0.08249  1.0000
  C   C2168     1.0  0.92396  0.60943  0.17936  1.0000
  C   C2169     1.0  0.93517  0.60179  0.19321  1.0000
  C   C2170     1.0  0.87350  0.60317  0.14063  1.0000
  C   C2171     1.0  0.91979  0.66672  0.16265  1.0000
  C   C2172     1.0  0.93793  0.62610  0.05419  1.0000
  H   H3803     1.0  0.93805  0.64676  0.16090  1.0000
  H   H3804     1.0  0.91804  0.63748  0.17400  1.0000
  H   H3805     1.0  0.92690  0.60441  0.13438  1.0000
  H   H3806     1.0  0.94313  0.62258  0.14981  1.0000
  H   H3807     1.0  0.94317  0.64044  0.11014  1.0000
  H   H3808     1.0  0.92417  0.63915  0.09265  1.0000
  H   H3809     1.0  0.89903  0.62070  0.10557  1.0000
  H   H3810     1.0  0.90108  0.60321  0.11940  1.0000
  H   H3811     1.0  0.89049  0.62759  0.15275  1.0000
  H   H3812     1.0  0.89460  0.61208  0.17157  1.0000
  H   H3813     1.0  0.92963  0.66132  0.12338  1.0000
  H   H3814     1.0  0.90805  0.64901  0.12676  1.0000
  H   H3815     1.0  0.91685  0.60979  0.07630  1.0000
  H   H3816     1.0  0.93679  0.61164  0.09164  1.0000
  H   H3817     1.0  0.92450  0.61931  0.19505  1.0000
  H   H3818     1.0  0.91122  0.59972  0.17760  1.0000
  H   H3819     1.0  0.94808  0.61106  0.19681  1.0000
  H   H3820     1.0  0.93067  0.59682  0.21505  1.0000
  H   H3821     1.0  0.93503  0.59153  0.17875  1.0000
  H   H3822     1.0  0.86498  0.60308  0.15800  1.0000
  H   H3823     1.0  0.86907  0.60657  0.11942  1.0000
  H   H3824     1.0  0.87307  0.59062  0.13801  1.0000
  H   H3825     1.0  0.90989  0.66064  0.17807  1.0000
  H   H3826     1.0  0.93189  0.67249  0.17545  1.0000
  H   H3827     1.0  0.91716  0.67652  0.15165  1.0000
  H   H3828     1.0  0.93137  0.63304  0.04338  1.0000
  H   H3829     1.0  0.95107  0.63449  0.05929  1.0000
  H   H3830     1.0  0.93751  0.61625  0.03843  1.0000
  H   H3831     1.0  0.67031  0.70196  0.45173  1.0000
  H   H3832     1.0  0.74904  0.61702  0.99913  1.0000
  H   H3833     1.0  0.87841  0.70901  0.07802  1.0000
  H   H3834     1.0  0.66497  0.54318  0.11640  1.0000
  H   H3835     1.0  0.71611  0.72937  0.18146  1.0000
  H   H3836     1.0  0.88232  0.50790  0.10534  1.0000
  H   H3837     1.0  0.85202  0.69285  0.12264  1.0000
  H   H3838     1.0  0.84979  0.67483  0.07838  1.0000
  C   C2173     1.0  0.78153  0.59265  0.01060  1.0000
  H   H3839     1.0  0.65566  0.54857  0.06501  1.0000
  H   H3840     1.0  0.92415  0.54148  0.15955  1.0000
  H   H3841     1.0  0.74861  0.62559  0.44680  1.0000
  C   C2174     1.0  0.85995  0.50904  0.08798  1.0000
  C   C2175     1.0  0.92242  0.58370  0.99280  1.0000
  H   H3842     1.0  0.84542  0.57385  0.32405  1.0000
  H   H3843     1.0  0.70515  0.73226  0.13211  1.0000
  S   S490      1.0  0.78830  0.72658  0.12656  1.0000
  C   C2176     1.0  0.92046  0.56402  0.44114  1.0000
  C   C2177     1.0  0.91835  0.52794  0.15626  1.0000
  N   N120      1.0  0.87326  0.49514  0.16317  1.0000
  C   C2178     1.0  0.77851  0.71276  0.19972  1.0000
  H   H3844     1.0  0.82576  0.59934  0.46082  1.0000
  H   H3845     1.0  0.95690  0.50155  0.26057  1.0000
  C   C2179     1.0  0.72542  0.70306  0.03179  1.0000
  H   H3846     1.0  0.85535  0.66048  0.00498  1.0000
  H   H3847     1.0  0.76572  0.72676  0.21587  1.0000
  H   H3848     1.0  0.71886  0.68967  0.03443  1.0000
  H   H3849     1.0  0.85573  0.56012  0.32165  1.0000
  H   H3850     1.0  0.89801  0.49865  0.17869  1.0000
  H   H3851     1.0  0.95900  0.63163  0.99114  1.0000
  C   C2180     1.0  0.86455  0.50179  0.14083  1.0000
  Fe  Fe245     1.0  0.68505  0.56938  0.00008  1.0000
  S   S491      1.0  0.75753  0.73634  0.10681  1.0000
  Fe  Fe246     1.0  0.80009  0.73767  0.08460  1.0000
  H   H3852     1.0  0.81603  0.51685  0.47352  1.0000
  H   H3853     1.0  0.87090  0.67871  0.08201  1.0000
  H   H3854     1.0  0.91899  0.55143  0.44647  1.0000
  C   C2181     1.0  0.82386  0.58753  0.41724  1.0000
  H   H3855     1.0  0.68661  0.66749  0.17554  1.0000
  H   H3856     1.0  0.74863  0.71066  0.25327  1.0000
  C   C2182     1.0  0.93161  0.56030  0.39199  1.0000
  C   C2183     1.0  0.86197  0.68284  0.07046  1.0000
  C   C2184     1.0  0.91502  0.57664  0.02197  1.0000
  H   H3857     1.0  0.80584  0.52846  0.43136  1.0000
  H   H3858     1.0  0.84634  0.50277  0.08941  1.0000
  H   H3859     1.0  0.88307  0.67691  0.99188  1.0000
  H   H3860     1.0  0.83713  0.63083  0.01155  1.0000
  N   N121      1.0  0.77162  0.63831  0.08312  1.0000
  C   C2185     1.0  0.78812  0.63699  0.08388  1.0000
  C   C2186     1.0  0.77442  0.65598  0.08896  1.0000
  C   C2187     1.0  0.76221  0.62862  0.10845  1.0000
  C   C2188     1.0  0.76144  0.63157  0.05430  1.0000
  C   C2189     1.0  0.77101  0.63333  0.02565  1.0000
  C   C2190     1.0  0.78730  0.61928  0.08397  1.0000
  C   C2191     1.0  0.74564  0.62995  0.11416  1.0000
  C   C2192     1.0  0.78469  0.66855  0.06670  1.0000
  C   C2193     1.0  0.78887  0.68611  0.07799  1.0000
  H   H3861     1.0  0.92158  0.56188  0.37849  1.0000
  C   C2194     1.0  0.80356  0.61874  0.07530  1.0000
  C   C2195     1.0  0.73593  0.61761  0.13664  1.0000
  H   H3862     1.0  0.79582  0.64362  0.10408  1.0000
  H   H3863     1.0  0.79543  0.64318  0.06503  1.0000
  H   H3864     1.0  0.76244  0.65729  0.08867  1.0000
  H   H3865     1.0  0.78037  0.66018  0.11167  1.0000
  H   H3866     1.0  0.77003  0.63230  0.12964  1.0000
  H   H3867     1.0  0.75911  0.61533  0.10451  1.0000
  H   H3868     1.0  0.75363  0.61821  0.05551  1.0000
  H   H3869     1.0  0.75241  0.63723  0.05057  1.0000
  H   H3870     1.0  0.91039  0.73751  0.25441  1.0000
  H   H3871     1.0  0.78061  0.64581  0.02363  1.0000
  H   H3872     1.0  0.78490  0.61445  0.10661  1.0000
  H   H3873     1.0  0.77719  0.61091  0.06853  1.0000
  H   H3874     1.0  0.73781  0.62757  0.09329  1.0000
  H   H3875     1.0  0.74785  0.64229  0.12344  1.0000
  H   H3876     1.0  0.79658  0.66767  0.06305  1.0000
  H   H3877     1.0  0.77740  0.66670  0.04521  1.0000
  H   H3878     1.0  0.79554  0.69486  0.06105  1.0000
  H   H3879     1.0  0.77747  0.68790  0.08240  1.0000
  H   H3880     1.0  0.79696  0.68906  0.09875  1.0000
  H   H3881     1.0  0.84309  0.49383  0.18721  1.0000
  H   H3882     1.0  0.85092  0.49495  0.14112  1.0000
  H   H3883     1.0  0.92355  0.57244  0.03467  1.0000
  H   H3884     1.0  0.77576  0.56907  0.47475  1.0000
  H   H3885     1.0  0.87828  0.73550  0.05655  1.0000
  C   C2196     1.0  0.80888  0.55170  0.38847  1.0000
  H   H3886     1.0  0.74306  0.62001  0.15841  1.0000
  H   H3887     1.0  0.72404  0.61869  0.13984  1.0000
  H   H3888     1.0  0.73310  0.60489  0.12858  1.0000
  H   H3889     1.0  0.91828  0.61984  0.45709  1.0000
  H   H3890     1.0  0.80585  0.62217  0.05185  1.0000
  H   H3891     1.0  0.75412  0.63861  0.99517  1.0000
  H   H3892     1.0  0.94618  0.56919  0.43264  1.0000
  S   S492      1.0  0.82220  0.73312  0.06777  1.0000
  H   H3893     1.0  0.86292  0.50817  0.06454  1.0000
  C   C2197     1.0  0.83862  0.56857  0.38503  1.0000
  H   H3894     1.0  0.72635  0.70713  0.07935  1.0000
  H   H3895     1.0  0.81407  0.62713  0.09008  1.0000
  H   H3896     1.0  0.85319  0.65000  0.07012  1.0000
  H   H3897     1.0  0.94245  0.72103  0.18309  1.0000
  H   H3898     1.0  0.92110  0.73164  0.19340  1.0000
  H   H3899     1.0  0.83013  0.67726  0.05117  1.0000
  H   H3900     1.0  0.86746  0.71358  0.12428  1.0000
  H   H3901     1.0  0.77681  0.54362  0.36455  1.0000
  H   H3902     1.0  0.80287  0.60611  0.07738  1.0000
  C   C2198     1.0  0.89173  0.50270  0.16051  1.0000
  H   H3903     1.0  0.81608  0.54336  0.46141  1.0000
  N   N122      1.0  0.73238  0.70757  0.19496  1.0000
  C   C2199     1.0  0.73327  0.71822  0.22191  1.0000
  C   C2200     1.0  0.73161  0.71672  0.16752  1.0000
  C   C2201     1.0  0.71722  0.69176  0.19596  1.0000
  C   C2202     1.0  0.74736  0.70355  0.19440  1.0000
  H   H3904     1.0  0.81580  0.56640  0.44524  1.0000
  C   C2203     1.0  0.71278  0.68037  0.16756  1.0000
  C   C2204     1.0  0.71620  0.72084  0.16339  1.0000
  C   C2205     1.0  0.90181  0.70117  0.99108  1.0000
  H   H3905     1.0  0.85716  0.49207  0.25014  1.0000
  C   C2206     1.0  0.69747  0.66465  0.17139  1.0000
  H   H3906     1.0  0.72147  0.71974  0.22354  1.0000
  H   H3907     1.0  0.66108  0.52730  0.38945  1.0000
  H   H3908     1.0  0.73258  0.71000  0.14716  1.0000
  H   H3909     1.0  0.70620  0.69419  0.20097  1.0000
  H   H3910     1.0  0.71877  0.68443  0.21465  1.0000
  H   H3911     1.0  0.74723  0.69506  0.21226  1.0000
  H   H3912     1.0  0.74711  0.69679  0.17333  1.0000
  H   H3913     1.0  0.65726  0.52221  0.07225  1.0000
  H   H3914     1.0  0.72302  0.67677  0.16248  1.0000
  H   H3915     1.0  0.71005  0.68641  0.14796  1.0000
  H   H3916     1.0  0.72440  0.68082  0.99271  1.0000
  H   H3917     1.0  0.92783  0.54708  0.39611  1.0000
  H   H3918     1.0  0.81719  0.60734  0.43119  1.0000
  H   H3919     1.0  0.70455  0.70968  0.16324  1.0000
  C   C2207     1.0  0.77741  0.53866  0.38680  1.0000
  H   H3920     1.0  0.85666  0.70480  0.07281  1.0000
  H   H3921     1.0  0.96473  0.53468  0.23322  1.0000
  H   H3922     1.0  0.69967  0.65773  0.19014  1.0000
  H   H3923     1.0  0.71754  0.68820  0.46735  1.0000
  H   H3924     1.0  0.85057  0.57577  0.39772  1.0000
  H   H3925     1.0  0.95308  0.64870  0.99085  1.0000
  C   C2208     1.0  0.90001  0.52167  0.16226  1.0000
  C   C2209     1.0  0.87972  0.69182  0.02878  1.0000
  N   N123      1.0  0.86253  0.68080  0.03726  1.0000
  H   H3926     1.0  0.84922  0.55123  0.37164  1.0000
  H   H3927     1.0  0.74254  0.72858  0.16777  1.0000
  C   C2210     1.0  0.65420  0.53488  0.39128  1.0000
  H   H3928     1.0  0.74808  0.73605  0.27497  1.0000
  C   C2211     1.0  0.64933  0.55631  0.41683  1.0000
  S   S493      1.0  0.77634  0.72489  0.05573  1.0000
  C   C2212     1.0  0.90577  0.56576  0.48471  1.0000
  C   C2213     1.0  0.88406  0.68953  0.99647  1.0000
  C   C2214     1.0  0.76436  0.71838  0.19659  1.0000
  C   C2215     1.0  0.96581  0.53463  0.20876  1.0000
  H   H3929     1.0  0.88185  0.70494  0.03155  1.0000
  H   H3930     1.0  0.79050  0.72359  0.19983  1.0000
  C   C2216     1.0  0.71610  0.72915  0.13413  1.0000
  C   C2217     1.0  0.75935  0.62926  0.99782  1.0000
  H   H3931     1.0  0.85411  0.69945  0.02375  1.0000
  H   H3932     1.0  0.95401  0.52553  0.19827  1.0000
  H   H3933     1.0  0.69456  0.50763  0.04828  1.0000
  H   H3934     1.0  0.89907  0.52628  0.18477  1.0000
  H   H3935     1.0  0.87144  0.66166  0.03130  1.0000
  C   C2218     1.0  0.86464  0.70083  0.11634  1.0000
  H   H3936     1.0  0.93444  0.59795  0.45043  1.0000
  C   C2219     1.0  0.83202  0.67716  0.02709  1.0000
  H   H3937     1.0  0.65025  0.59618  0.08364  1.0000
  C   C2220     1.0  0.81793  0.53600  0.44300  1.0000
  C   C2221     1.0  0.81753  0.59600  0.44026  1.0000
  H   H3938     1.0  0.77699  0.52611  0.38410  1.0000
  H   H3939     1.0  0.83545  0.57770  0.37273  1.0000
  H   H3940     1.0  0.89425  0.52718  0.14587  1.0000
  H   H3941     1.0  0.86398  0.52220  0.09444  1.0000
  H   H3942     1.0  0.68261  0.52393  0.99805  1.0000
  H   H3943     1.0  0.87380  0.69684  0.12742  1.0000
  H   H3944     1.0  0.86410  0.57773  0.34688  1.0000
  H   H3945     1.0  0.74721  0.60670  0.46262  1.0000
  H   H3946     1.0  0.97999  0.71551  0.48035  1.0000
  H   H3947     1.0  0.72669  0.70001  0.25668  1.0000
  H   H3948     1.0  0.95646  0.59094  0.46316  1.0000
  H   H3949     1.0  0.83619  0.59643  0.41108  1.0000
  H   H3950     1.0  0.83729  0.57642  0.44353  1.0000
  H   H3951     1.0  0.88918  0.69017  0.04392  1.0000
  C   C2222     1.0  0.85373  0.73462  0.06219  1.0000
  S   S494      1.0  0.91692  0.73081  0.05489  1.0000
  C   C2223     1.0  0.65987  0.72777  0.30173  1.0000
  H   H3952     1.0  0.89554  0.71682  0.47069  1.0000
  C   C2224     1.0  0.74371  0.53646  0.98889  1.0000
  C   C2225     1.0  0.97874  0.72734  0.48255  1.0000
  H   H3953     1.0  0.65824  0.52642  0.03323  1.0000
  H   H3954     1.0  0.83044  0.54853  0.35053  1.0000
  H   H3955     1.0  0.66014  0.73647  0.28423  1.0000
  C   C2226     1.0  0.93537  0.57040  0.42123  1.0000
  S   S495      1.0  0.71205  0.58557  0.99578  1.0000
  C   C2227     1.0  0.84403  0.63261  0.03346  1.0000
  C   C2228     1.0  0.83003  0.54699  0.42087  1.0000
  H   H3956     1.0  0.74352  0.53775  0.01343  1.0000
  C   C2229     1.0  0.82169  0.68540  0.01199  1.0000
  H   H3957     1.0  0.79285  0.54466  0.42704  1.0000
  H   H3958     1.0  0.76640  0.53789  0.39861  1.0000
  H   H3959     1.0  0.91070  0.69913  0.00704  1.0000
  C   C2230     1.0  0.82553  0.57205  0.42940  1.0000
  H   H3960     1.0  0.73967  0.71922  0.29923  1.0000
  S   S496      1.0  0.94880  0.72716  0.08868  1.0000
  H   H3961     1.0  0.76596  0.72540  0.17611  1.0000
  C   C2231     1.0  0.68729  0.51431  0.03910  1.0000
  C   C2232     1.0  0.73670  0.71200  0.25232  1.0000
  H   H3962     1.0  0.80722  0.53939  0.37956  1.0000
  S   S497      1.0  0.81272  0.59263  0.01085  1.0000
  N   N124      1.0  0.82534  0.55967  0.40604  1.0000
  C   C2233     1.0  0.72209  0.71142  0.05893  1.0000
  H   H3963     1.0  0.70546  0.70372  0.00295  1.0000
  H   H3964     1.0  0.70816  0.71425  0.46046  1.0000
  H   H3965     1.0  0.70866  0.70835  0.05984  1.0000
  C   C2234     1.0  0.65837  0.54659  0.41497  1.0000
  C   C2235     1.0  0.79313  0.54978  0.40481  1.0000
  H   H3966     1.0  0.89594  0.53980  0.47027  1.0000
  H   H3967     1.0  0.68702  0.50584  0.99463  1.0000
  H   H3968     1.0  0.81536  0.58455  0.39708  1.0000
  H   H3969     1.0  0.84241  0.55309  0.43283  1.0000
  H   H3970     1.0  0.93693  0.49285  0.27642  1.0000
  H   H3971     1.0  0.82709  0.66434  0.01811  1.0000
  H   H3972     1.0  0.74503  0.71133  0.46399  1.0000
  C   C2236     1.0  0.64976  0.56721  0.15276  1.0000
  H   H3973     1.0  0.68341  0.69553  0.42967  1.0000
  H   H3974     1.0  0.77725  0.62477  0.02558  1.0000
  H   H3975     1.0  0.92221  0.70491  0.18487  1.0000
  H   H3976     1.0  0.83641  0.62293  0.04816  1.0000
  H   H3977     1.0  0.97746  0.58821  0.19740  1.0000
  H   H3978     1.0  0.89521  0.56663  0.47169  1.0000
  H   H3979     1.0  0.71594  0.52162  0.01252  1.0000
  C   C2237     1.0  0.84755  0.64949  0.04738  1.0000
  S   S498      1.0  0.85503  0.59649  0.98881  1.0000
  H   H3980     1.0  0.93870  0.58330  0.41549  1.0000
  H   H3981     1.0  0.85571  0.63104  0.03046  1.0000
  H   H3982     1.0  0.78623  0.60230  0.99501  1.0000
  H   H3983     1.0  0.72890  0.72493  0.05836  1.0000
  H   H3984     1.0  0.77803  0.70643  0.22087  1.0000
  H   H3985     1.0  0.76967  0.54075  0.99434  1.0000
  H   H3986     1.0  0.96772  0.54689  0.20061  1.0000
  C   C2238     1.0  0.98010  0.53018  0.20067  1.0000
  H   H3987     1.0  0.84797  0.72546  0.04453  1.0000
  H   H3988     1.0  0.72397  0.72195  0.00451  1.0000
  H   H3989     1.0  0.73334  0.61595  0.47312  1.0000
  H   H3990     1.0  0.92852  0.62273  0.98988  1.0000
  C   C2239     1.0  0.85141  0.49050  0.20231  1.0000
  C   C2240     1.0  0.82443  0.52399  0.45655  1.0000
  N   N125      1.0  0.92164  0.57409  0.46911  1.0000
  H   H3991     1.0  0.71261  0.53980  0.01754  1.0000
  H   H3992     1.0  0.68550  0.71645  0.42966  1.0000
  C   C2241     1.0  0.69582  0.71019  0.46979  1.0000
  H   H3993     1.0  0.90869  0.59876  0.98964  1.0000
  C   C2242     1.0  0.69062  0.51786  0.00643  1.0000
  H   H3994     1.0  0.89510  0.49826  0.13966  1.0000
  C   C2243     1.0  0.97805  0.56980  0.26269  1.0000
  C   C2244     1.0  0.74365  0.70044  0.47701  1.0000
  C   C2245     1.0  0.93245  0.71465  0.19816  1.0000
  H   H3995     1.0  0.74637  0.69170  0.46271  1.0000
  H   H3996     1.0  0.93896  0.62480  0.47331  1.0000
  C   C2246     1.0  0.84931  0.49545  0.23393  1.0000
  C   C2247     1.0  0.95038  0.49627  0.28081  1.0000
  H   H3997     1.0  0.92565  0.73671  0.28003  1.0000
  H   H3998     1.0  0.90334  0.71411  0.99344  1.0000
  C   C2248     1.0  0.65016  0.52361  0.05229  1.0000
  C   C2249     1.0  0.92558  0.61917  0.47738  1.0000
  H   H3999     1.0  0.72597  0.72594  0.27787  1.0000
  C   C2250     1.0  0.92264  0.59073  0.46054  1.0000
  H   H4000     1.0  0.65067  0.57964  0.15385  1.0000
  H   H4001     1.0  0.94462  0.73447  0.24815  1.0000
  H   H4002     1.0  0.82337  0.68607  0.98772  1.0000
  H   H4003     1.0  0.85092  0.68413  0.99609  1.0000
  H   H4004     1.0  0.83698  0.53055  0.46744  1.0000
  H   H4005     1.0  0.97807  0.72396  0.37068  1.0000
  H   H4006     1.0  0.93466  0.59376  0.99851  1.0000
  H   H4007     1.0  0.73509  0.55589  0.98572  1.0000
  H   H4008     1.0  0.69505  0.72067  0.48217  1.0000
  H   H4009     1.0  0.74771  0.72327  0.98520  1.0000
  H   H4010     1.0  0.74850  0.70387  0.98540  1.0000
  H   H4011     1.0  0.77103  0.63113  0.48463  1.0000
  H   H4012     1.0  0.83621  0.48900  0.23947  1.0000
  H   H4013     1.0  0.91422  0.56649  0.64446  1.0000
  C   C2251     1.0  0.95766  0.50243  0.80340  1.0000
  S   S499      1.0  0.86343  0.56821  0.93652  1.0000
  Fe  Fe247     1.0  0.86579  0.60213  0.54661  1.0000
  S   S500      1.0  0.84547  0.58108  0.56701  1.0000
  S   S501      1.0  0.87593  0.62548  0.57592  1.0000
  Fe  Fe248     1.0  0.85955  0.56633  0.55255  1.0000
  S   S502      1.0  0.86659  0.54789  0.57822  1.0000
  Fe  Fe249     1.0  0.83276  0.57577  0.52108  1.0000
  H   H4014     1.0  0.69964  0.66523  0.50065  1.0000
  S   S503      1.0  0.88045  0.58761  0.53446  1.0000
  H   H4015     1.0  0.71441  0.54474  0.91502  1.0000
  Fe  Fe250     1.0  0.93061  0.72078  0.57268  1.0000
  S   S504      1.0  0.92342  0.69771  0.54312  1.0000
  Fe  Fe251     1.0  0.90051  0.53536  0.74403  1.0000
  S   S505      1.0  0.91397  0.54968  0.78603  1.0000
  S   S506      1.0  0.88855  0.54936  0.71600  1.0000
  Fe  Fe252     1.0  0.90751  0.50523  0.76093  1.0000
  S   S507      1.0  0.92090  0.51753  0.80398  1.0000
  Fe  Fe253     1.0  0.90063  0.52650  0.80954  1.0000
  S   S508      1.0  0.88928  0.52471  0.85502  1.0000
  Fe  Fe254     1.0  0.93316  0.53983  0.77726  1.0000
  S   S509      1.0  0.96086  0.55384  0.78707  1.0000
  S   S510      1.0  0.88610  0.51239  0.76807  1.0000
  S   S511      1.0  0.92086  0.52737  0.73373  1.0000
  C   C2252     1.0  0.97182  0.72814  0.51269  1.0000
  S   S512      1.0  0.68861  0.54928  0.52637  1.0000
  S   S513      1.0  0.66685  0.54993  0.96655  1.0000
  Fe  Fe255     1.0  0.70315  0.59618  0.51993  1.0000
  S   S514      1.0  0.70543  0.58474  0.56276  1.0000
  S   S515      1.0  0.71232  0.62349  0.51257  1.0000
  Fe  Fe256     1.0  0.71448  0.56916  0.53444  1.0000
  S   S516      1.0  0.73800  0.56702  0.55416  1.0000
  Fe  Fe257     1.0  0.67954  0.56580  0.55132  1.0000
  H   H4016     1.0  0.81447  0.72620  0.69144  1.0000
  H   H4017     1.0  0.74774  0.72470  0.93189  1.0000
  S   S517      1.0  0.67669  0.57878  0.51012  1.0000
  S   S518      1.0  0.78819  0.72346  0.62493  1.0000
  S   S519      1.0  0.75381  0.72709  0.60524  1.0000
  Fe  Fe258     1.0  0.76470  0.70867  0.59756  1.0000
  S   S520      1.0  0.75022  0.68180  0.60735  1.0000
  S   S521      1.0  0.77520  0.71879  0.55435  1.0000
  C   C2253     1.0  0.72367  0.63927  0.53918  1.0000
  C   C2254     1.0  0.72373  0.63648  0.56959  1.0000
  C   C2255     1.0  0.73197  0.64965  0.59014  1.0000
  C   C2256     1.0  0.74029  0.66567  0.58051  1.0000
  C   C2257     1.0  0.74054  0.66838  0.55007  1.0000
  C   C2258     1.0  0.73223  0.65521  0.52952  1.0000
  H   H4018     1.0  0.71714  0.62428  0.57729  1.0000
  H   H4019     1.0  0.73180  0.64749  0.61365  1.0000
  H   H4020     1.0  0.74702  0.68062  0.54241  1.0000
  C   C2259     1.0  0.88696  0.54154  0.51282  1.0000
  H   H4021     1.0  0.87512  0.60619  0.91571  1.0000
  H   H4022     1.0  0.79520  0.57074  0.56431  1.0000
  C   C2260     1.0  0.84136  0.50062  0.85487  1.0000
  C   C2261     1.0  0.84364  0.50661  0.74150  1.0000
  H   H4023     1.0  0.71798  0.60660  0.66678  1.0000
  C   C2262     1.0  0.65344  0.56489  0.88748  1.0000
  H   H4024     1.0  0.87604  0.54363  0.50413  1.0000
  C   C2263     1.0  0.65750  0.55055  0.93072  1.0000
  H   H4025     1.0  0.85569  0.67268  0.51711  1.0000
  H   H4026     1.0  0.71053  0.56675  0.67046  1.0000
  H   H4027     1.0  0.79595  0.65577  0.57299  1.0000
  C   C2264     1.0  0.78083  0.66589  0.59447  1.0000
  H   H4028     1.0  0.98083  0.62294  0.66933  1.0000
  H   H4029     1.0  0.66639  0.53677  0.61713  1.0000
  H   H4030     1.0  0.95627  0.55821  0.72398  1.0000
  H   H4031     1.0  0.75708  0.63998  0.49590  1.0000
  C   C2265     1.0  0.78557  0.62742  0.53575  1.0000
  C   C2266     1.0  0.78746  0.57002  0.51820  1.0000
  C   C2267     1.0  0.78529  0.57019  0.54874  1.0000
  C   C2268     1.0  0.77010  0.56922  0.55919  1.0000
  C   C2269     1.0  0.75692  0.56835  0.53940  1.0000
  C   C2270     1.0  0.75922  0.56855  0.50887  1.0000
  H   H4032     1.0  0.93319  0.61038  0.71712  1.0000
  H   H4033     1.0  0.93361  0.60051  0.62260  1.0000
  H   H4034     1.0  0.91262  0.60637  0.59025  1.0000
  H   H4035     1.0  0.69032  0.71012  0.53798  1.0000
  C   C2271     1.0  0.71085  0.51852  0.95174  1.0000
  C   C2272     1.0  0.87240  0.54833  0.61670  1.0000
  C   C2273     1.0  0.87897  0.53723  0.62694  1.0000
  C   C2274     1.0  0.88377  0.53716  0.65725  1.0000
  C   C2275     1.0  0.88196  0.54815  0.67776  1.0000
  C   C2276     1.0  0.87521  0.55910  0.66759  1.0000
  C   C2277     1.0  0.87056  0.55928  0.63727  1.0000
  H   H4036     1.0  0.88035  0.52863  0.61128  1.0000
  H   H4037     1.0  0.88887  0.52862  0.66470  1.0000
  H   H4038     1.0  0.87372  0.56765  0.68321  1.0000
  H   H4039     1.0  0.86548  0.56783  0.62982  1.0000
  C   C2278     1.0  0.87122  0.55617  0.91499  1.0000
  C   C2279     1.0  0.87229  0.54190  0.92521  1.0000
  C   C2280     1.0  0.87796  0.53255  0.90668  1.0000
  C   C2281     1.0  0.88307  0.53750  0.87800  1.0000
  C   C2282     1.0  0.88255  0.55207  0.86822  1.0000
  C   C2283     1.0  0.87634  0.56112  0.88630  1.0000
  H   H4040     1.0  0.86836  0.53784  0.94710  1.0000
  H   H4041     1.0  0.87829  0.52131  0.91459  1.0000
  H   H4042     1.0  0.88681  0.55628  0.84663  1.0000
  H   H4043     1.0  0.87558  0.57211  0.87803  1.0000
  C   C2284     1.0  0.88955  0.64532  0.56635  1.0000
  C   C2285     1.0  0.89475  0.64884  0.53752  1.0000
  C   C2286     1.0  0.90520  0.66494  0.53080  1.0000
  C   C2287     1.0  0.91054  0.67763  0.55279  1.0000
  C   C2288     1.0  0.90543  0.67409  0.58163  1.0000
  C   C2289     1.0  0.89495  0.65801  0.58833  1.0000
  H   H4044     1.0  0.89066  0.63918  0.52042  1.0000
  H   H4045     1.0  0.90916  0.66759  0.50845  1.0000
  H   H4046     1.0  0.90962  0.68372  0.59879  1.0000
  H   H4047     1.0  0.89102  0.65538  0.61071  1.0000
  H   H4048     1.0  0.75281  0.70436  0.49635  1.0000
  H   H4049     1.0  0.88947  0.69896  0.64065  1.0000
  C   C2290     1.0  0.72123  0.67609  0.94609  1.0000
  C   C2291     1.0  0.77431  0.56923  0.49841  1.0000
  C   C2292     1.0  0.71182  0.55276  0.93119  1.0000
  C   C2293     1.0  0.86079  0.54312  0.79764  1.0000
  C   C2294     1.0  0.71174  0.71478  0.56761  1.0000
  H   H4050     1.0  0.69217  0.58024  0.68522  1.0000
  H   H4051     1.0  0.88307  0.71501  0.65081  1.0000
  H   H4052     1.0  0.84976  0.49965  0.75363  1.0000
  C   C2295     1.0  0.81487  0.51578  0.77531  1.0000
  H   H4053     1.0  0.66990  0.57654  0.92603  1.0000
  C   C2296     1.0  0.70348  0.71213  0.53566  1.0000
  H   H4054     1.0  0.95136  0.61132  0.68334  1.0000
  H   H4055     1.0  0.74361  0.61830  0.52924  1.0000
  H   H4056     1.0  0.76106  0.60143  0.56311  1.0000
  H   H4057     1.0  0.85938  0.64202  0.52542  1.0000
  C   C2297     1.0  0.97466  0.56472  0.76019  1.0000
  H   H4058     1.0  0.66420  0.61053  0.62522  1.0000
  H   H4059     1.0  0.75803  0.64205  0.56122  1.0000
  H   H4060     1.0  0.84292  0.63164  0.54919  1.0000
  C   C2298     1.0  0.71506  0.70739  0.94877  1.0000
  H   H4061     1.0  0.78832  0.50872  0.77347  1.0000
  C   C2299     1.0  0.64937  0.54838  0.61294  1.0000
  C   C2300     1.0  0.74270  0.71111  0.97308  1.0000
  N   N126      1.0  0.70451  0.69842  0.51678  1.0000
  H   H4062     1.0  0.79120  0.67288  0.61078  1.0000
  H   H4063     1.0  0.95829  0.50386  0.82800  1.0000
  H   H4064     1.0  0.72036  0.52131  0.93494  1.0000
  H   H4065     1.0  0.73467  0.67928  0.94490  1.0000
  H   H4066     1.0  0.80312  0.60375  0.50003  1.0000
  H   H4067     1.0  0.70937  0.72404  0.52477  1.0000
  C   C2301     1.0  0.71203  0.73014  0.91902  1.0000
  H   H4068     1.0  0.73699  0.54735  0.95100  1.0000
  H   H4069     1.0  0.78169  0.60155  0.53545  1.0000
  H   H4070     1.0  0.73663  0.60247  0.62778  1.0000
  H   H4071     1.0  0.93312  0.57572  0.51346  1.0000
  C   C2302     1.0  0.96364  0.51894  0.72112  1.0000
  H   H4072     1.0  0.86057  0.51172  0.70567  1.0000
  H   H4073     1.0  0.80021  0.53030  0.76956  1.0000
  C   C2303     1.0  0.69390  0.51098  0.93366  1.0000
  H   H4074     1.0  0.98006  0.72695  0.53101  1.0000
  C   C2304     1.0  0.91100  0.59005  0.97463  1.0000
  H   H4075     1.0  0.81445  0.51334  0.75102  1.0000
  H   H4076     1.0  0.66912  0.58505  0.61522  1.0000
  H   H4077     1.0  0.86804  0.69409  0.64773  1.0000
  H   H4078     1.0  0.88306  0.52823  0.51609  1.0000
  H   H4079     1.0  0.84923  0.69524  0.52520  1.0000
  H   H4080     1.0  0.65528  0.52303  0.66370  1.0000
  H   H4081     1.0  0.96543  0.51028  0.73682  1.0000
  H   H4082     1.0  0.67955  0.66418  0.50794  1.0000
  H   H4083     1.0  0.71745  0.65325  0.96752  1.0000
  H   H4084     1.0  0.95106  0.50970  0.79396  1.0000
  C   C2305     1.0  0.69951  0.55870  0.91624  1.0000
  H   H4085     1.0  0.66371  0.60024  0.57309  1.0000
  H   H4086     1.0  0.81360  0.50460  0.78714  1.0000
  H   H4087     1.0  0.97038  0.50745  0.79546  1.0000
  C   C2306     1.0  0.69110  0.49443  0.91907  1.0000
  C   C2307     1.0  0.77031  0.64253  0.55551  1.0000
  H   H4088     1.0  0.65521  0.58055  0.65847  1.0000
  H   H4089     1.0  0.87013  0.70560  0.49770  1.0000
  C   C2308     1.0  0.97846  0.52616  0.70182  1.0000
  H   H4090     1.0  0.67091  0.62219  0.57649  1.0000
  H   H4091     1.0  0.87461  0.67285  0.53275  1.0000
  H   H4092     1.0  0.88646  0.60010  0.96294  1.0000
  H   H4093     1.0  0.97617  0.57398  0.68715  1.0000
  C   C2309     1.0  0.85059  0.52459  0.75389  1.0000
  H   H4094     1.0  0.68030  0.65206  0.55608  1.0000
  H   H4095     1.0  0.70504  0.70435  0.58166  1.0000
  H   H4096     1.0  0.84083  0.51229  0.69515  1.0000
  C   C2310     1.0  0.65394  0.73638  0.90549  1.0000
  H   H4097     1.0  0.69902  0.72198  0.91227  1.0000
  H   H4098     1.0  0.66232  0.60153  0.66995  1.0000
  H   H4099     1.0  0.77782  0.60834  0.49965  1.0000
  H   H4100     1.0  0.67416  0.56778  0.66333  1.0000
  H   H4101     1.0  0.83700  0.50194  0.79568  1.0000
  H   H4102     1.0  0.96133  0.58695  0.64862  1.0000
  H   H4103     1.0  0.83700  0.73584  0.62388  1.0000
  H   H4104     1.0  0.69344  0.51913  0.91565  1.0000
  N   N127      1.0  0.76902  0.62578  0.54607  1.0000
  H   H4105     1.0  0.89136  0.54810  0.53475  1.0000
  H   H4106     1.0  0.68768  0.54819  0.90971  1.0000
  C   C2311     1.0  0.74655  0.60181  0.61440  1.0000
  H   H4107     1.0  0.70464  0.56527  0.89592  1.0000
  H   H4108     1.0  0.70132  0.65440  0.55195  1.0000
  H   H4109     1.0  0.69119  0.55075  0.65616  1.0000
  C   C2312     1.0  0.67390  0.61164  0.58241  1.0000
  H   H4110     1.0  0.70152  0.69975  0.94873  1.0000
  H   H4111     1.0  0.75347  0.62640  0.60128  1.0000
  H   H4112     1.0  0.88260  0.58389  0.77908  1.0000
  H   H4113     1.0  0.73886  0.61123  0.57576  1.0000
  C   C2313     1.0  0.64994  0.53076  0.65339  1.0000
  H   H4114     1.0  0.77376  0.65093  0.53670  1.0000
  C   C2314     1.0  0.75555  0.61878  0.52162  1.0000
  N   N128      1.0  0.68173  0.59391  0.65788  1.0000
  C   C2315     1.0  0.67945  0.59610  0.62506  1.0000
  C   C2316     1.0  0.68575  0.57913  0.66293  1.0000
  H   H4115     1.0  0.97554  0.53387  0.68534  1.0000
  C   C2317     1.0  0.69475  0.60908  0.67313  1.0000
  C   C2318     1.0  0.71218  0.61517  0.66088  1.0000
  H   H4116     1.0  0.84231  0.49295  0.70044  1.0000
  C   C2319     1.0  0.72215  0.70391  0.50812  1.0000
  C   C2320     1.0  0.72346  0.63198  0.67458  1.0000
  C   C2321     1.0  0.78589  0.61192  0.52039  1.0000
  H   H4117     1.0  0.76853  0.56906  0.58283  1.0000
  H   H4118     1.0  0.79920  0.52140  0.80563  1.0000
  C   C2322     1.0  0.75029  0.61428  0.59006  1.0000
  H   H4119     1.0  0.80838  0.62533  0.49754  1.0000
  H   H4120     1.0  0.76921  0.66156  0.60631  1.0000
  C   C2323     1.0  0.80337  0.61477  0.51217  1.0000
  C   C2324     1.0  0.84705  0.50590  0.70869  1.0000
  H   H4121     1.0  0.71873  0.70457  0.92693  1.0000
  C   C2325     1.0  0.84852  0.64267  0.53584  1.0000
  H   H4122     1.0  0.77554  0.61669  0.58710  1.0000
  C   C2326     1.0  0.75854  0.62830  0.49245  1.0000
  H   H4123     1.0  0.95943  0.71796  0.51383  1.0000
  H   H4124     1.0  0.73601  0.63584  0.66609  1.0000
  H   H4125     1.0  0.71860  0.64127  0.66844  1.0000
  C   C2327     1.0  0.74989  0.71441  0.94191  1.0000
  H   H4126     1.0  0.75309  0.60574  0.51621  1.0000
  H   H4127     1.0  0.77494  0.72982  0.95933  1.0000
  H   H4128     1.0  0.77347  0.72222  0.92161  1.0000
  C   C2328     1.0  0.94878  0.59846  0.67638  1.0000
  C   C2329     1.0  0.66430  0.58614  0.70457  1.0000
  H   H4129     1.0  0.82220  0.69673  0.53875  1.0000
  H   H4130     1.0  0.72467  0.71611  0.56727  1.0000
  Fe  Fe259     1.0  0.79827  0.73493  0.58221  1.0000
  H   H4131     1.0  0.91790  0.53953  0.64244  1.0000
  H   H4132     1.0  0.93154  0.60021  0.88946  1.0000
  H   H4133     1.0  0.72027  0.72939  0.90175  1.0000
  C   C2330     1.0  0.71185  0.73023  0.58292  1.0000
  S   S522      1.0  0.65639  0.55815  0.57886  1.0000
  C   C2331     1.0  0.66542  0.59067  0.67135  1.0000
  H   H4134     1.0  0.95221  0.51219  0.70686  1.0000
  H   H4135     1.0  0.89485  0.59194  0.91768  1.0000
  S   S523      1.0  0.80611  0.57058  0.50337  1.0000
  H   H4136     1.0  0.82968  0.53528  0.80738  1.0000
  H   H4137     1.0  0.65640  0.57625  0.87625  1.0000
  H   H4138     1.0  0.71638  0.67950  0.92538  1.0000
  C   C2332     1.0  0.92166  0.58802  0.89274  1.0000
  H   H4139     1.0  0.83176  0.54041  0.76974  1.0000
  H   H4140     1.0  0.70938  0.72759  0.96590  1.0000
  H   H4141     1.0  0.90482  0.69899  0.96821  1.0000
  H   H4142     1.0  0.84664  0.53185  0.73783  1.0000
  C   C2333     1.0  0.78333  0.65126  0.58134  1.0000
  C   C2334     1.0  0.93063  0.54604  0.65266  1.0000
  H   H4143     1.0  0.93825  0.61686  0.92765  1.0000
  H   H4144     1.0  0.95157  0.59296  0.69682  1.0000
  H   H4145     1.0  0.70113  0.49574  0.90410  1.0000
  C   C2335     1.0  0.91913  0.58443  0.92621  1.0000
  H   H4146     1.0  0.91056  0.61160  0.91250  1.0000
  H   H4147     1.0  0.68614  0.62270  0.62426  1.0000
  H   H4148     1.0  0.97990  0.51598  0.68956  1.0000
  C   C2336     1.0  0.69951  0.68331  0.53515  1.0000
  H   H4149     1.0  0.68979  0.68296  0.55032  1.0000
  H   H4150     1.0  0.74926  0.56786  0.49329  1.0000
  C   C2337     1.0  0.71276  0.65747  0.94750  1.0000
  C   C2338     1.0  0.79977  0.51934  0.78141  1.0000
  C   C2339     1.0  0.92758  0.57311  0.65115  1.0000
  H   H4151     1.0  0.68335  0.50914  0.94749  1.0000
  H   H4152     1.0  0.92420  0.57379  0.98030  1.0000
  C   C2340     1.0  0.76462  0.61426  0.57151  1.0000
  H   H4153     1.0  0.73020  0.73382  0.95504  1.0000
  H   H4154     1.0  0.95972  0.64255  0.95732  1.0000
  H   H4155     1.0  0.72351  0.56371  0.93645  1.0000
  C   C2341     1.0  0.71720  0.72550  0.94912  1.0000
  H   H4156     1.0  0.87754  0.62126  0.94466  1.0000
  C   C2342     1.0  0.76165  0.54513  0.98058  1.0000
  H   H4157     1.0  0.91140  0.54522  0.50079  1.0000
  C   C2343     1.0  0.88090  0.70328  0.50623  1.0000
  Fe  Fe260     1.0  0.86529  0.58121  0.49073  1.0000
  H   H4158     1.0  0.69059  0.61930  0.67287  1.0000
  H   H4159     1.0  0.89218  0.62620  0.91614  1.0000
  C   C2344     1.0  0.84607  0.51395  0.80487  1.0000
  H   H4160     1.0  0.69706  0.56726  0.93147  1.0000
  N   N129      1.0  0.93087  0.58958  0.66557  1.0000
  C   C2345     1.0  0.92674  0.59983  0.64289  1.0000
  H   H4161     1.0  0.96188  0.52880  0.73394  1.0000
  C   C2346     1.0  0.92036  0.58693  0.69191  1.0000
  C   C2347     1.0  0.92057  0.60255  0.70773  1.0000
  C   C2348     1.0  0.90822  0.59376  0.63214  1.0000
  H   H4162     1.0  0.79487  0.63079  0.55494  1.0000
  C   C2349     1.0  0.90902  0.59803  0.73333  1.0000
  C   C2350     1.0  0.90549  0.60545  0.61026  1.0000
  H   H4163     1.0  0.93102  0.61274  0.65136  1.0000
  H   H4164     1.0  0.68552  0.61308  0.57205  1.0000
  H   H4165     1.0  0.90735  0.57885  0.68541  1.0000
  H   H4166     1.0  0.92424  0.58023  0.70920  1.0000
  H   H4167     1.0  0.91639  0.60984  0.69231  1.0000
  S   S524      1.0  0.84516  0.55906  0.50789  1.0000
  H   H4168     1.0  0.90381  0.58158  0.62053  1.0000
  H   H4169     1.0  0.90028  0.59289  0.65088  1.0000
  H   H4170     1.0  0.92344  0.55695  0.68897  1.0000
  N   N130      1.0  0.71412  0.53345  0.97165  1.0000
  H   H4171     1.0  0.77127  0.70865  0.95181  1.0000
  H   H4172     1.0  0.93343  0.53754  0.66743  1.0000
  C   C2351     1.0  0.89492  0.60981  0.94931  1.0000
  H   H4173     1.0  0.89611  0.59045  0.72490  1.0000
  H   H4174     1.0  0.79059  0.63775  0.52054  1.0000
  H   H4175     1.0  0.89216  0.60080  0.60303  1.0000
  H   H4176     1.0  0.90921  0.61784  0.62086  1.0000
  C   C2352     1.0  0.72608  0.69218  0.48742  1.0000
  N   N131      1.0  0.86667  0.69013  0.55414  1.0000
  C   C2353     1.0  0.87107  0.68947  0.58670  1.0000
  C   C2354     1.0  0.86288  0.67375  0.53858  1.0000
  C   C2355     1.0  0.88166  0.70278  0.54074  1.0000
  C   C2356     1.0  0.85261  0.69547  0.54928  1.0000
  C   C2357     1.0  0.83627  0.68528  0.56370  1.0000
  C   C2358     1.0  0.87572  0.70552  0.60548  1.0000
  H   H4177     1.0  0.81166  0.61696  0.53251  1.0000
  C   C2359     1.0  0.85382  0.65807  0.55601  1.0000
  S   S525      1.0  0.95741  0.73658  0.58352  1.0000
  C   C2360     1.0  0.82454  0.69401  0.56205  1.0000
  C   C2361     1.0  0.87926  0.70316  0.63816  1.0000
  H   H4178     1.0  0.83018  0.50019  0.74366  1.0000
  H   H4179     1.0  0.88166  0.68580  0.58917  1.0000
  H   H4180     1.0  0.86089  0.67991  0.59776  1.0000
  C   C2362     1.0  0.70537  0.54380  0.96019  1.0000
  S   S526      1.0  0.71304  0.58141  0.49200  1.0000
  H   H4181     1.0  0.89295  0.70082  0.54766  1.0000
  H   H4182     1.0  0.88399  0.71534  0.54923  1.0000
  H   H4183     1.0  0.85659  0.70852  0.55680  1.0000
  H   H4184     1.0  0.66774  0.57568  0.70879  1.0000
  H   H4185     1.0  0.83828  0.68325  0.58744  1.0000
  H   H4186     1.0  0.82993  0.67332  0.55142  1.0000
  H   H4187     1.0  0.88705  0.71524  0.59768  1.0000
  H   H4188     1.0  0.86553  0.70973  0.60432  1.0000
  H   H4189     1.0  0.96395  0.58617  0.52883  1.0000
  C   C2363     1.0  0.76853  0.71905  0.94391  1.0000
  H   H4190     1.0  0.86228  0.65704  0.57411  1.0000
  H   H4191     1.0  0.84273  0.65807  0.56623  1.0000
  H   H4192     1.0  0.91293  0.59105  0.74994  1.0000
  H   H4193     1.0  0.85369  0.50008  0.85526  1.0000
  H   H4194     1.0  0.69644  0.60701  0.69708  1.0000
  H   H4195     1.0  0.82984  0.70564  0.57561  1.0000
  N   N132      1.0  0.72408  0.70294  0.97408  1.0000
  H   H4196     1.0  0.81256  0.68621  0.57101  1.0000
  H   H4197     1.0  0.73231  0.65740  0.50600  1.0000
  C   C2364     1.0  0.88433  0.61626  0.93013  1.0000
  H   H4198     1.0  0.83843  0.50199  0.87817  1.0000
  H   H4199     1.0  0.73071  0.70616  0.52813  1.0000
  H   H4200     1.0  0.94482  0.56702  0.68080  1.0000
  H   H4201     1.0  0.71223  0.50868  0.96498  1.0000
  C   C2365     1.0  0.66115  0.56510  0.91580  1.0000
  H   H4202     1.0  0.87894  0.57580  0.81564  1.0000
  H   H4203     1.0  0.78279  0.64302  0.59972  1.0000
  C   C2366     1.0  0.73248  0.54404  0.97359  1.0000
  C   C2367     1.0  0.88031  0.57284  0.79216  1.0000
  H   H4204     1.0  0.89116  0.56963  0.79091  1.0000
  H   H4205     1.0  0.71181  0.61632  0.63646  1.0000
  H   H4206     1.0  0.69038  0.59706  0.61299  1.0000
  S   S527      1.0  0.92351  0.72463  0.61850  1.0000
  C   C2368     1.0  0.96919  0.56492  0.73069  1.0000
  H   H4207     1.0  0.69185  0.53657  0.95677  1.0000
  H   H4208     1.0  0.72455  0.63158  0.69917  1.0000
  H   H4209     1.0  0.92755  0.60111  0.50669  1.0000
  C   C2369     1.0  0.93204  0.56120  0.67078  1.0000
  H   H4210     1.0  0.89870  0.57960  0.97057  1.0000
  H   H4211     1.0  0.75772  0.60439  0.62937  1.0000
  H   H4212     1.0  0.69915  0.65338  0.94812  1.0000
  H   H4213     1.0  0.71767  0.73170  0.60577  1.0000
  Fe  Fe261     1.0  0.85755  0.57243  0.98465  1.0000
  C   C2370     1.0  0.69599  0.57498  0.63963  1.0000
  H   H4214     1.0  0.74227  0.58920  0.60456  1.0000
  C   C2371     1.0  0.67585  0.61109  0.61623  1.0000
  H   H4215     1.0  0.78024  0.67423  0.57686  1.0000
  H   H4216     1.0  0.71540  0.65165  0.92760  1.0000
  S   S528      1.0  0.82355  0.73864  0.56425  1.0000
  C   C2372     1.0  0.96174  0.59931  0.65374  1.0000
  H   H4217     1.0  0.91724  0.56271  0.88050  1.0000
  H   H4218     1.0  0.87237  0.54098  0.80030  1.0000
  H   H4219     1.0  0.76279  0.54257  0.95681  1.0000
  H   H4220     1.0  0.90805  0.57262  0.92709  1.0000
  H   H4221     1.0  0.70700  0.58581  0.63406  1.0000
  C   C2373     1.0  0.70186  0.56202  0.65056  1.0000
  H   H4222     1.0  0.71024  0.68383  0.54984  1.0000
  H   H4223     1.0  0.90645  0.57216  0.50645  1.0000
  H   H4224     1.0  0.90931  0.60933  0.74449  1.0000
  S   S529      1.0  0.85239  0.59777  0.50167  1.0000
  C   C2374     1.0  0.65631  0.53858  0.62694  1.0000
  H   H4225     1.0  0.68815  0.56997  0.61884  1.0000
  H   H4226     1.0  0.67255  0.59675  0.71898  1.0000
  C   C2375     1.0  0.86465  0.55872  0.77939  1.0000
  H   H4227     1.0  0.85830  0.54646  0.82015  1.0000
  H   H4228     1.0  0.85050  0.52636  0.84937  1.0000
  H   H4229     1.0  0.86656  0.55663  0.75585  1.0000
  H   H4230     1.0  0.74418  0.70373  0.92625  1.0000
  H   H4231     1.0  0.69906  0.72941  0.58442  1.0000
  H   H4232     1.0  0.91008  0.58754  0.88129  1.0000
  H   H4233     1.0  0.70843  0.55878  0.63278  1.0000
  C   C2376     1.0  0.92639  0.57533  0.87709  1.0000
  H   H4234     1.0  0.92983  0.58191  0.93484  1.0000
  H   H4235     1.0  0.93958  0.54951  0.63493  1.0000
  H   H4236     1.0  0.93878  0.57643  0.88568  1.0000
  H   H4237     1.0  0.85824  0.51293  0.80569  1.0000
  H   H4238     1.0  0.86419  0.52902  0.75222  1.0000
  H   H4239     1.0  0.85439  0.56283  0.78004  1.0000
  H   H4240     1.0  0.65678  0.50104  0.49042  1.0000
  H   H4241     1.0  0.82902  0.51526  0.83802  1.0000
  H   H4242     1.0  0.95960  0.60456  0.63268  1.0000
  C   C2377     1.0  0.83107  0.53057  0.78509  1.0000
  H   H4243     1.0  0.92681  0.57732  0.85283  1.0000
  H   H4244     1.0  0.93402  0.57462  0.63009  1.0000
  C   C2378     1.0  0.84150  0.51519  0.83738  1.0000
  C   C2379     1.0  0.90464  0.60267  0.92979  1.0000
  N   N133      1.0  0.84673  0.52771  0.78519  1.0000
  N   N134      1.0  0.91720  0.59755  0.94544  1.0000
  H   H4245     1.0  0.87580  0.69211  0.98002  1.0000
  C   C2380     1.0  0.69262  0.69542  0.48999  1.0000
  C   C2381     1.0  0.71818  0.68454  0.97404  1.0000
  H   H4246     1.0  0.65765  0.72921  0.92101  1.0000
  H   H4247     1.0  0.72621  0.71594  0.49751  1.0000
  H   H4248     1.0  0.97033  0.72769  0.85246  1.0000
  C   C2382     1.0  0.69192  0.66634  0.51837  1.0000
  C   C2383     1.0  0.65655  0.51306  0.49638  1.0000
  C   C2384     1.0  0.68947  0.65255  0.53975  1.0000
  H   H4249     1.0  0.88010  0.69161  0.49587  1.0000
  H   H4250     1.0  0.65950  0.51551  0.52065  1.0000
  H   H4251     1.0  0.83932  0.64255  0.51816  1.0000
  H   H4252     1.0  0.97857  0.59792  0.50279  1.0000
  H   H4253     1.0  0.90759  0.71496  0.50257  1.0000
  C   C2385     1.0  0.95280  0.63801  0.97753  1.0000
  C   C2386     1.0  0.93388  0.61174  0.94943  1.0000
  H   H4254     1.0  0.94340  0.60749  0.95808  1.0000
  H   H4255     1.0  0.70645  0.55335  0.97727  1.0000
  C   C2387     1.0  0.89635  0.71688  0.49534  1.0000
  H   H4256     1.0  0.76612  0.55856  0.98454  1.0000
  H   H4257     1.0  0.68492  0.64062  0.52712  1.0000
  H   H4258     1.0  0.70469  0.67883  0.97774  1.0000
  C   C2388     1.0  0.90075  0.54742  0.49112  1.0000
  H   H4259     1.0  0.76622  0.62919  0.97789  1.0000
  H   H4260     1.0  0.73950  0.52328  0.98266  1.0000
  C   C2389     1.0  0.96670  0.58719  0.50498  1.0000
  H   H4261     1.0  0.95250  0.60112  0.49432  1.0000
  H   H4262     1.0  0.93779  0.56335  0.48767  1.0000
  C   C2390     1.0  0.93487  0.62651  0.96904  1.0000
  H   H4263     1.0  0.96820  0.57604  0.49713  1.0000
  H   H4264     1.0  0.92920  0.63372  0.95644  1.0000
  C   C2391     1.0  0.93596  0.57494  0.48980  1.0000
  C   C2392     1.0  0.97925  0.61002  0.66618  1.0000
  C   C2393     1.0  0.98048  0.57385  0.70994  1.0000
  Fe  Fe262     1.0  0.68647  0.56293  0.48553  1.0000
  H   H4265     1.0  0.90712  0.59673  0.49093  1.0000
  H   H4266     1.0  0.64876  0.72326  0.79231  1.0000
  H   H4267     1.0  0.92324  0.62630  0.49568  1.0000
  C   C2394     1.0  0.95291  0.58946  0.48644  1.0000
  C   C2395     1.0  0.92037  0.60140  0.48602  1.0000
  H   H4268     1.0  0.89747  0.72902  0.50397  1.0000
  H   H4269     1.0  0.90301  0.61987  0.96472  1.0000
  H   H4270     1.0  0.72551  0.68137  0.49974  1.0000
  H   H4271     1.0  0.67977  0.69137  0.49736  1.0000
  H   H4272     1.0  0.67914  0.48957  0.90568  1.0000
  Fe  Fe263     1.0  0.76575  0.73832  0.56317  1.0000
  C   C2396     1.0  0.98143  0.73798  0.86255  1.0000
  C   C2397     1.0  0.84681  0.73884  0.60883  1.0000
  H   H4273     1.0  0.83189  0.48897  0.84490  1.0000
  H   H4274     1.0  0.76436  0.85368  0.27013  1.0000
  S   S530      1.0  0.94706  0.76334  0.08792  1.0000
  H   H4275     1.0  0.80096  0.98709  0.33249  1.0000
  H   H4276     1.0  0.77751  0.97725  0.08231  1.0000
  C   C2398     1.0  0.71610  0.88755  0.42588  1.0000
  H   H4277     1.0  0.66521  0.93776  0.34885  1.0000
  H   H4278     1.0  0.78769  0.84218  0.23687  1.0000
  S   S531      1.0  0.90059  0.76062  0.09980  1.0000
  H   H4279     1.0  0.80180  0.86932  0.26268  1.0000
  C   C2399     1.0  0.77497  0.84120  0.23982  1.0000
  C   C2400     1.0  0.65577  0.88971  0.99302  1.0000
  H   H4280     1.0  0.66710  0.83190  0.35345  1.0000
  C   C2401     1.0  0.93856  0.76803  0.19417  1.0000
  H   H4281     1.0  0.69532  0.83620  0.33363  1.0000
  H   H4282     1.0  0.68787  0.76800  0.46232  1.0000
  H   H4283     1.0  0.92581  0.77132  0.23132  1.0000
  N   N135      1.0  0.76282  0.82355  0.24082  1.0000
  Fe  Fe264     1.0  0.72871  0.77744  0.30854  1.0000
  S   S532      1.0  0.74796  0.79852  0.33538  1.0000
  S   S533      1.0  0.73012  0.76727  0.26172  1.0000
  Fe  Fe265     1.0  0.70165  0.77581  0.35197  1.0000
  S   S534      1.0  0.71934  0.79678  0.38138  1.0000
  S   S535      1.0  0.67362  0.76641  0.35228  1.0000
  Fe  Fe266     1.0  0.72915  0.80947  0.33926  1.0000
  S   S536      1.0  0.73153  0.83446  0.32233  1.0000
  Fe  Fe267     1.0  0.73673  0.78412  0.37558  1.0000
  S   S537      1.0  0.75556  0.78299  0.41118  1.0000
  S   S538      1.0  0.71050  0.78910  0.31036  1.0000
  S   S539      1.0  0.71836  0.76236  0.34838  1.0000
  Fe  Fe268     1.0  0.73730  0.92605  0.36242  1.0000
  S   S540      1.0  0.71969  0.92393  0.32344  1.0000
  S   S541      1.0  0.74800  0.90711  0.37424  1.0000
  Fe  Fe269     1.0  0.73384  0.95651  0.38943  1.0000
  S   S542      1.0  0.71516  0.95526  0.35242  1.0000
  H   H4284     1.0  0.77951  0.84754  0.28798  1.0000
  Fe  Fe270     1.0  0.70387  0.92811  0.35767  1.0000
  S   S543      1.0  0.67667  0.91018  0.35400  1.0000
  Fe  Fe271     1.0  0.73254  0.95155  0.32088  1.0000
  S   S544      1.0  0.73483  0.96554  0.27692  1.0000
  S   S545      1.0  0.72103  0.92943  0.39674  1.0000
  S   S546      1.0  0.75157  0.95351  0.35783  1.0000
  C   C2402     1.0  0.66208  0.90765  0.38110  1.0000
  H   H4285     1.0  0.92660  0.78429  0.18136  1.0000
  C   C2403     1.0  0.78355  0.81481  0.27066  1.0000
  H   H4286     1.0  0.69454  0.80949  0.34703  1.0000
  C   C2404     1.0  0.66510  0.91899  0.40477  1.0000
  C   C2405     1.0  0.73626  0.75225  0.47883  1.0000
  Fe  Fe272     1.0  0.91923  0.74934  0.09114  1.0000
  H   H4287     1.0  0.67688  0.92942  0.40739  1.0000
  H   H4288     1.0  0.78655  0.87529  0.24420  1.0000
  C   C2406     1.0  0.65268  0.91706  0.42467  1.0000
  H   H4289     1.0  0.65950  0.95174  0.32723  1.0000
  H   H4290     1.0  0.78243  0.83120  0.18688  1.0000
  Fe  Fe273     1.0  0.94990  0.74650  0.12254  1.0000
  H   H4291     1.0  0.73103  0.79917  0.22110  1.0000
  H   H4292     1.0  0.74654  0.94249  0.00934  1.0000
  C   C2407     1.0  0.73546  0.85427  0.33809  1.0000
  C   C2408     1.0  0.74193  0.85917  0.36728  1.0000
  C   C2409     1.0  0.74561  0.87532  0.37800  1.0000
  C   C2410     1.0  0.74244  0.88665  0.36007  1.0000
  C   C2411     1.0  0.73571  0.88162  0.33110  1.0000
  C   C2412     1.0  0.73241  0.86562  0.32013  1.0000
  H   H4293     1.0  0.74452  0.85070  0.38132  1.0000
  H   H4294     1.0  0.75107  0.87912  0.40029  1.0000
  H   H4295     1.0  0.73358  0.89026  0.31683  1.0000
  H   H4296     1.0  0.72755  0.86207  0.29745  1.0000
  C   C2413     1.0  0.77276  0.98627  0.09029  1.0000
  H   H4297     1.0  0.65281  0.89932  0.05731  1.0000
  H   H4298     1.0  0.77521  0.75366  0.98809  1.0000
  H   H4299     1.0  0.93707  0.77906  0.15220  1.0000
  H   H4300     1.0  0.68605  0.87296  0.28003  1.0000
  H   H4301     1.0  0.97659  0.78522  0.17368  1.0000
  C   C2414     1.0  0.75311  0.77042  0.44237  1.0000
  C   C2415     1.0  0.73754  0.76048  0.45200  1.0000
  H   H4302     1.0  0.75054  0.75811  0.16629  1.0000
  H   H4303     1.0  0.75347  0.94999  0.06343  1.0000
  Fe  Fe274     1.0  0.94494  0.74350  0.05411  1.0000
  H   H4304     1.0  0.72651  0.75953  0.43927  1.0000
  H   H4305     1.0  0.72690  0.88456  0.42214  1.0000
  C   C2416     1.0  0.76926  0.76282  0.20148  1.0000
  C   C2417     1.0  0.77322  0.76703  0.23197  1.0000
  C   C2418     1.0  0.76157  0.76873  0.25066  1.0000
  C   C2419     1.0  0.74576  0.76628  0.23911  1.0000
  C   C2420     1.0  0.74192  0.76239  0.20851  1.0000
  C   C2421     1.0  0.75359  0.76078  0.18980  1.0000
  H   H4306     1.0  0.75391  0.81532  0.19517  1.0000
  H   H4307     1.0  0.76471  0.77153  0.27413  1.0000
  C   C2422     1.0  0.74826  0.98054  0.25310  1.0000
  H   H4308     1.0  0.69073  0.89400  0.29048  1.0000
  H   H4309     1.0  0.74357  0.83113  0.22521  1.0000
  C   C2423     1.0  0.86893  0.75875  0.10670  1.0000
  S   S547      1.0  0.78443  0.76068  0.17897  1.0000
  C   C2424     1.0  0.97287  0.76775  0.45086  1.0000
  C   C2425     1.0  0.68834  0.86226  0.33713  1.0000
  H   H4310     1.0  0.70988  0.88120  0.44565  1.0000
  H   H4311     1.0  0.87476  0.76827  0.12377  1.0000
  H   H4312     1.0  0.78261  0.98535  0.13553  1.0000
  H   H4313     1.0  0.76496  0.96618  0.03944  1.0000
  H   H4314     1.0  0.76873  0.83900  0.40229  1.0000
  C   C2426     1.0  0.66898  0.85970  0.37672  1.0000
  H   H4315     1.0  0.68399  0.94175  0.05180  1.0000
  C   C2427     1.0  0.73107  0.80662  0.24104  1.0000
  H   H4316     1.0  0.77639  0.84697  0.43953  1.0000
  H   H4317     1.0  0.68199  0.80859  0.37777  1.0000
  H   H4318     1.0  0.67308  0.87595  0.32632  1.0000
  H   H4319     1.0  0.71063  0.89003  0.37997  1.0000
  H   H4320     1.0  0.67897  0.74985  0.40479  1.0000
  H   H4321     1.0  0.72981  0.76062  0.19918  1.0000
  H   H4322     1.0  0.74491  0.82936  0.26446  1.0000
  N   N136      1.0  0.75435  0.97812  0.09373  1.0000
  C   C2428     1.0  0.76730  0.77139  0.45920  1.0000
  H   H4323     1.0  0.70313  0.83674  0.37135  1.0000
  H   H4324     1.0  0.98017  0.81481  0.12218  1.0000
  H   H4325     1.0  0.70428  0.79610  0.23973  1.0000
  C   C2429     1.0  0.91878  0.75714  0.28773  1.0000
  H   H4326     1.0  0.96418  0.76025  0.43340  1.0000
  C   C2430     1.0  0.95923  0.76109  0.28489  1.0000
  H   H4327     1.0  0.95035  0.75260  0.29969  1.0000
  H   H4328     1.0  0.78968  0.82014  0.21266  1.0000
  H   H4329     1.0  0.65569  0.93175  0.02979  1.0000
  Fe  Fe275     1.0  0.78185  0.74848  0.13239  1.0000
  H   H4330     1.0  0.68057  0.92176  0.06489  1.0000
  H   H4331     1.0  0.69310  0.88840  0.34344  1.0000
  H   H4332     1.0  0.72407  0.98427  0.07832  1.0000
  H   H4333     1.0  0.78643  0.98036  0.36110  1.0000
  S   S548      1.0  0.73885  0.97806  0.42289  1.0000
  H   H4334     1.0  0.70132  0.86412  0.33375  1.0000
  H   H4335     1.0  0.91558  0.75213  0.21247  1.0000
  H   H4336     1.0  0.67237  0.85814  0.42531  1.0000
  H   H4337     1.0  0.78436  0.80610  0.25360  1.0000
  H   H4338     1.0  0.78012  0.82992  0.42425  1.0000
  H   H4339     1.0  0.76590  0.82905  0.48194  1.0000
  H   H4340     1.0  0.78973  0.81104  0.16061  1.0000
  H   H4341     1.0  0.76639  0.97276  0.45387  1.0000
  H   H4342     1.0  0.65481  0.87340  0.41876  1.0000
  H   H4343     1.0  0.73852  0.94413  0.16319  1.0000
  S   S549      1.0  0.79549  0.76066  0.09213  1.0000
  H   H4344     1.0  0.70618  0.88592  0.29700  1.0000
  H   H4345     1.0  0.90251  0.75638  0.32271  1.0000
  H   H4346     1.0  0.76773  0.80529  0.15565  1.0000
  H   H4347     1.0  0.95023  0.77849  0.20141  1.0000
  H   H4348     1.0  0.78534  0.76880  0.24128  1.0000
  H   H4349     1.0  0.75800  0.80073  0.21651  1.0000
  H   H4350     1.0  0.69562  0.78565  0.43974  1.0000
  C   C2431     1.0  0.78944  0.86964  0.26424  1.0000
  Fe  Fe276     1.0  0.77110  0.74705  0.06600  1.0000
  C   C2432     1.0  0.66627  0.74853  0.40345  1.0000
  H   H4351     1.0  0.97790  0.77161  0.32110  1.0000
  C   C2433     1.0  0.75028  0.96458  0.11565  1.0000
  H   H4352     1.0  0.77119  0.98135  0.27269  1.0000
  C   C2434     1.0  0.69836  0.86418  0.39028  1.0000
  C   C2435     1.0  0.78545  0.81861  0.99718  1.0000
  H   H4353     1.0  0.76088  0.95400  0.16844  1.0000
  H   H4354     1.0  0.73267  0.96401  0.06508  1.0000
  C   C2436     1.0  0.74922  0.95582  0.16940  1.0000
  H   H4355     1.0  0.69600  0.85739  0.41122  1.0000
  H   H4356     1.0  0.67383  0.80804  0.33998  1.0000
  H   H4357     1.0  0.73610  0.76943  0.00097  1.0000
  H   H4358     1.0  0.72047  0.82381  0.46978  1.0000
  C   C2437     1.0  0.70403  0.88263  0.39848  1.0000
  H   H4359     1.0  0.68062  0.85266  0.32018  1.0000
  H   H4360     1.0  0.66726  0.93827  0.30935  1.0000
  H   H4361     1.0  0.91758  0.76419  0.16298  1.0000
  H   H4362     1.0  0.73807  0.95446  0.10936  1.0000
  H   H4363     1.0  0.75930  0.95880  0.11464  1.0000
  C   C2438     1.0  0.74621  0.97094  0.06351  1.0000
  C   C2439     1.0  0.69177  0.83213  0.35635  1.0000
  H   H4364     1.0  0.74762  0.98093  0.04789  1.0000
  H   H4365     1.0  0.97487  0.78106  0.01233  1.0000
  H   H4366     1.0  0.72739  0.74063  0.13310  1.0000
  C   C2440     1.0  0.64921  0.85985  0.41569  1.0000
  H   H4367     1.0  0.75987  0.98073  0.15674  1.0000
  C   C2441     1.0  0.68634  0.87800  0.32765  1.0000
  H   H4368     1.0  0.65503  0.92606  0.44258  1.0000
  C   C2442     1.0  0.74117  0.95006  0.02109  1.0000
  H   H4369     1.0  0.79570  0.83088  0.00141  1.0000
  C   C2443     1.0  0.67450  0.93020  0.05957  1.0000
  C   C2444     1.0  0.72903  0.98492  0.10165  1.0000
  C   C2445     1.0  0.75168  0.98687  0.45594  1.0000
  C   C2446     1.0  0.66234  0.85369  0.40750  1.0000
  H   H4370     1.0  0.70943  0.86292  0.38194  1.0000
  H   H4371     1.0  0.72878  0.94189  0.02814  1.0000
  H   H4372     1.0  0.72797  0.98265  0.22780  1.0000
  H   H4373     1.0  0.79103  0.81066  0.04005  1.0000
  H   H4374     1.0  0.77590  0.79472  0.18145  1.0000
  C   C2447     1.0  0.76627  0.81531  0.26765  1.0000
  C   C2448     1.0  0.78660  0.80881  0.30097  1.0000
  H   H4375     1.0  0.76420  0.82097  0.28836  1.0000
  H   H4376     1.0  0.75728  0.80231  0.26760  1.0000
  H   H4377     1.0  0.73155  0.79976  0.26096  1.0000
  H   H4378     1.0  0.78648  0.81736  0.31905  1.0000
  H   H4379     1.0  0.77702  0.79641  0.30451  1.0000
  H   H4380     1.0  0.79886  0.80812  0.30217  1.0000
  H   H4381     1.0  0.71313  0.81473  0.21984  1.0000
  H   H4382     1.0  0.79363  0.82702  0.26835  1.0000
  C   C2449     1.0  0.76271  0.81410  0.21250  1.0000
  C   C2450     1.0  0.67876  0.83819  0.36756  1.0000
  H   H4383     1.0  0.78990  0.87742  0.28404  1.0000
  N   N137      1.0  0.68375  0.85651  0.36814  1.0000
  H   H4384     1.0  0.97386  0.80230  0.08835  1.0000
  H   H4385     1.0  0.77182  0.84686  0.21992  1.0000
  C   C2451     1.0  0.78816  0.98482  0.33814  1.0000
  H   H4386     1.0  0.67159  0.87294  0.37644  1.0000
  C   C2452     1.0  0.66073  0.92253  0.03524  1.0000
  N   N138      1.0  0.93531  0.75338  0.24428  1.0000
  C   C2453     1.0  0.77800  0.80678  0.17216  1.0000
  H   H4387     1.0  0.97997  0.78491  0.29061  1.0000
  H   H4388     1.0  0.70340  0.76985  0.43651  1.0000
  C   C2454     1.0  0.77617  0.85240  0.26737  1.0000
  C   C2455     1.0  0.71460  0.80842  0.24009  1.0000
  H   H4389     1.0  0.74600  0.82949  0.43598  1.0000
  H   H4390     1.0  0.72313  0.97252  0.11053  1.0000
  C   C2456     1.0  0.69274  0.88295  0.29688  1.0000
  H   H4391     1.0  0.96020  0.77199  0.24278  1.0000
  H   H4392     1.0  0.77941  0.77901  0.45197  1.0000
  H   H4393     1.0  0.94788  0.77708  0.26710  1.0000
  H   H4394     1.0  0.73315  0.78985  0.44927  1.0000
  C   C2457     1.0  0.92802  0.76101  0.22115  1.0000
  H   H4395     1.0  0.95082  0.74622  0.21661  1.0000
  C   C2458     1.0  0.78941  0.80653  0.01631  1.0000
  S   S550      1.0  0.95913  0.74484  0.01176  1.0000
  C   C2459     1.0  0.74942  0.96930  0.14881  1.0000
  H   H4396     1.0  0.66641  0.92044  0.01514  1.0000
  C   C2460     1.0  0.87871  0.75240  0.09135  1.0000
  C   C2461     1.0  0.75258  0.95916  0.04795  1.0000
  S   S551      1.0  0.75672  0.75832  0.03710  1.0000
  H   H4397     1.0  0.80098  0.80565  0.00976  1.0000
  C   C2462     1.0  0.95061  0.76661  0.25911  1.0000
  H   H4398     1.0  0.84440  0.75800  0.11217  1.0000
  H   H4399     1.0  0.96659  0.75475  0.27559  1.0000
  H   H4400     1.0  0.67600  0.83335  0.39015  1.0000
  C   C2463     1.0  0.68504  0.81344  0.35530  1.0000
  C   C2464     1.0  0.77927  0.81913  0.19703  1.0000
  C   C2465     1.0  0.92238  0.74535  0.26632  1.0000
  C   C2466     1.0  0.85167  0.75296  0.10012  1.0000
  H   H4401     1.0  0.69368  0.88598  0.40373  1.0000
  H   H4402     1.0  0.71384  0.81547  0.26010  1.0000
  C   C2467     1.0  0.74584  0.82361  0.24294  1.0000
  H   H4403     1.0  0.72075  0.90095  0.43051  1.0000
  H   H4404     1.0  0.72495  0.80475  0.44697  1.0000
  H   H4405     1.0  0.94156  0.75864  0.18254  1.0000
  H   H4406     1.0  0.76504  0.81066  0.46470  1.0000
  C   C2468     1.0  0.75572  0.76108  0.99827  1.0000
  H   H4407     1.0  0.92980  0.76424  0.30265  1.0000
  C   C2469     1.0  0.66066  0.75555  0.38029  1.0000
  C   C2470     1.0  0.90473  0.74768  0.30746  1.0000
  H   H4408     1.0  0.73345  0.98585  0.32463  1.0000
  C   C2471     1.0  0.74410  0.76676  0.98633  1.0000
  H   H4409     1.0  0.74814  0.95942  0.19267  1.0000
  H   H4410     1.0  0.77912  0.79419  0.01401  1.0000
  H   H4411     1.0  0.66948  0.93307  0.07999  1.0000
  H   H4412     1.0  0.91513  0.76587  0.27525  1.0000
  C   C2472     1.0  0.76431  0.98223  0.46602  1.0000
  C   C2473     1.0  0.74127  0.98684  0.23031  1.0000
  C   C2474     1.0  0.98056  0.76468  0.19072  1.0000
  H   H4413     1.0  0.78774  0.98573  0.98884  1.0000
  H   H4414     1.0  0.74994  0.81289  0.42092  1.0000
  C   C2475     1.0  0.65952  0.93931  0.32729  1.0000
  S   S552      1.0  0.96908  0.75027  0.16150  1.0000
  C   C2476     1.0  0.72862  0.79744  0.46309  1.0000
  C   C2477     1.0  0.96797  0.76656  0.48044  1.0000
  H   H4415     1.0  0.96893  0.79304  0.12405  1.0000
  C   C2478     1.0  0.76552  0.98617  0.25579  1.0000
  C   C2479     1.0  0.87094  0.74025  0.06903  1.0000
  C   C2480     1.0  0.97495  0.75937  0.99106  1.0000
  H   H4416     1.0  0.77944  0.97523  0.32233  1.0000
  C   C2481     1.0  0.97096  0.77572  0.30429  1.0000
  C   C2482     1.0  0.77107  0.83564  0.42513  1.0000
  H   H4417     1.0  0.96394  0.78160  0.31615  1.0000
  C   C2483     1.0  0.97840  0.80279  0.11189  1.0000
  H   H4418     1.0  0.66630  0.89597  0.00942  1.0000
  C   C2484     1.0  0.75486  0.82363  0.43675  1.0000
  C   C2485     1.0  0.71255  0.78560  0.47662  1.0000
  H   H4419     1.0  0.73798  0.97123  0.15198  1.0000
  C   C2486     1.0  0.92934  0.77427  0.17141  1.0000
  H   H4420     1.0  0.89312  0.74075  0.29376  1.0000
  H   H4421     1.0  0.77403  0.81917  0.00493  1.0000
  C   C2487     1.0  0.69908  0.77678  0.45226  1.0000
  H   H4422     1.0  0.65989  0.86723  0.99548  1.0000
  H   H4423     1.0  0.65854  0.85382  0.35976  1.0000
  C   C2488     1.0  0.94010  0.74052  0.23057  1.0000
  C   C2489     1.0  0.75761  0.81804  0.46829  1.0000
  C   C2490     1.0  0.65530  0.73956  0.42467  1.0000
  H   H4424     1.0  0.70645  0.98708  0.32021  1.0000
  C   C2491     1.0  0.84392  0.74086  0.07770  1.0000
  H   H4425     1.0  0.73981  0.95887  0.00518  1.0000
  H   H4426     1.0  0.65647  0.84011  0.40729  1.0000
  C   C2492     1.0  0.98029  0.77632  0.99554  1.0000
  H   H4427     1.0  0.74084  0.84027  0.47556  1.0000
  H   H4428     1.0  0.90799  0.73904  0.32109  1.0000
  H   H4429     1.0  0.71326  0.98893  0.35892  1.0000
  N   N139      1.0  0.74237  0.80828  0.48475  1.0000
  H   H4430     1.0  0.78366  0.76597  0.73705  1.0000
  S   S553      1.0  0.94556  0.76399  0.61074  1.0000
  H   H4431     1.0  0.71911  0.97031  0.55535  1.0000
  S   S554      1.0  0.89628  0.74903  0.61550  1.0000
  Fe  Fe277     1.0  0.95192  0.75722  0.56568  1.0000
  H   H4432     1.0  0.65375  0.93694  0.91104  1.0000
  H   H4433     1.0  0.75443  0.78568  0.55834  1.0000
  H   H4434     1.0  0.72123  0.91719  0.57884  1.0000
  H   H4435     1.0  0.73241  0.76806  0.69262  1.0000
  H   H4436     1.0  0.92910  0.76329  0.77224  1.0000
  C   C2493     1.0  0.87586  0.74469  0.60015  1.0000
  H   H4437     1.0  0.74996  0.80450  0.98110  1.0000
  H   H4438     1.0  0.75471  0.98324  0.66018  1.0000
  H   H4439     1.0  0.66731  0.83601  0.89118  1.0000
  C   C2494     1.0  0.75047  0.75341  0.49588  1.0000
  S   S555      1.0  0.92520  0.74117  0.55246  1.0000
  S   S556      1.0  0.78939  0.75532  0.58796  1.0000
  Fe  Fe278     1.0  0.73172  0.78392  0.80288  1.0000
  S   S557      1.0  0.75021  0.79795  0.84027  1.0000
  S   S558      1.0  0.73534  0.77954  0.75349  1.0000
  Fe  Fe279     1.0  0.70243  0.77624  0.84329  1.0000
  S   S559      1.0  0.71900  0.78888  0.88343  1.0000
  S   S560      1.0  0.67439  0.76800  0.84005  1.0000
  Fe  Fe280     1.0  0.73241  0.80914  0.85284  1.0000
  S   S561      1.0  0.73935  0.83459  0.87553  1.0000
  Fe  Fe281     1.0  0.73554  0.77696  0.86863  1.0000
  S   S562      1.0  0.74976  0.76527  0.89707  1.0000
  S   S563      1.0  0.71513  0.79694  0.81332  1.0000
  S   S564      1.0  0.71777  0.76247  0.83060  1.0000
  Fe  Fe282     1.0  0.73218  0.92499  0.85802  1.0000
  S   S565      1.0  0.71605  0.93518  0.83210  1.0000
  S   S566      1.0  0.73042  0.90007  0.83889  1.0000
  Fe  Fe283     1.0  0.74576  0.95527  0.90144  1.0000
  S   S567      1.0  0.73060  0.96679  0.87802  1.0000
  S   S568      1.0  0.76373  0.96802  0.94179  1.0000
  Fe  Fe284     1.0  0.70986  0.94175  0.87689  1.0000
  S   S569      1.0  0.68490  0.94132  0.88856  1.0000
  Fe  Fe285     1.0  0.73810  0.95953  0.83469  1.0000
  H   H4440     1.0  0.98000  0.76348  0.83250  1.0000
  S   S570      1.0  0.72458  0.93035  0.90283  1.0000
  S   S571      1.0  0.75467  0.94915  0.85820  1.0000
  C   C2495     1.0  0.66848  0.92365  0.90000  1.0000
  C   C2496     1.0  0.73388  0.92532  0.58768  1.0000
  C   C2497     1.0  0.65685  0.80628  0.86186  1.0000
  H   H4441     1.0  0.76900  0.97344  0.76650  1.0000
  C   C2498     1.0  0.66909  0.90826  0.89875  1.0000
  H   H4442     1.0  0.96121  0.78260  0.92014  1.0000
  C   C2499     1.0  0.69124  0.81969  0.79017  1.0000
  H   H4443     1.0  0.67996  0.90705  0.89108  1.0000
  H   H4444     1.0  0.96446  0.81131  0.66756  1.0000
  H   H4445     1.0  0.95964  0.74896  0.83832  1.0000
  C   C2500     1.0  0.76445  0.98353  0.96814  1.0000
  C   C2501     1.0  0.65427  0.92504  0.90996  1.0000
  C   C2502     1.0  0.75237  0.95432  0.60610  1.0000
  C   C2503     1.0  0.73466  0.94242  0.59465  1.0000
  H   H4446     1.0  0.74274  0.92580  0.57068  1.0000
  C   C2504     1.0  0.73655  0.85258  0.86491  1.0000
  C   C2505     1.0  0.73167  0.85469  0.83587  1.0000
  C   C2506     1.0  0.72987  0.86925  0.82849  1.0000
  C   C2507     1.0  0.73296  0.88198  0.84990  1.0000
  C   C2508     1.0  0.73780  0.87985  0.87900  1.0000
  C   C2509     1.0  0.73960  0.86528  0.88638  1.0000
  H   H4447     1.0  0.72959  0.84526  0.81895  1.0000
  H   H4448     1.0  0.72619  0.87072  0.80588  1.0000
  H   H4449     1.0  0.74024  0.88947  0.89576  1.0000
  H   H4450     1.0  0.74345  0.86389  0.90890  1.0000
  H   H4451     1.0  0.70303  0.87604  0.88313  1.0000
  H   H4452     1.0  0.67796  0.74724  0.88699  1.0000
  H   H4453     1.0  0.94342  0.77404  0.87513  1.0000
  H   H4454     1.0  0.96628  0.76526  0.91880  1.0000
  H   H4455     1.0  0.80844  0.97946  0.89026  1.0000
  C   C2510     1.0  0.76434  0.75954  0.94828  1.0000
  C   C2511     1.0  0.75241  0.76478  0.93625  1.0000
  C   C2512     1.0  0.74243  0.76857  0.95550  1.0000
  H   H4456     1.0  0.79786  0.98577  0.91780  1.0000
  H   H4457     1.0  0.77217  0.75664  0.93357  1.0000
  H   H4458     1.0  0.72529  0.94126  0.61083  1.0000
  H   H4459     1.0  0.73302  0.77232  0.94652  1.0000
  C   C2513     1.0  0.65555  0.89439  0.90722  1.0000
  C   C2514     1.0  0.76795  0.76159  0.69699  1.0000
  C   C2515     1.0  0.75331  0.76209  0.68482  1.0000
  C   C2516     1.0  0.74350  0.76744  0.70252  1.0000
  C   C2517     1.0  0.74791  0.77209  0.73282  1.0000
  C   C2518     1.0  0.76239  0.77128  0.74513  1.0000
  C   C2519     1.0  0.77238  0.76624  0.72728  1.0000
  C   C2520     1.0  0.68181  0.82365  0.81443  1.0000
  H   H4460     1.0  0.67563  0.79353  0.94699  1.0000
  H   H4461     1.0  0.76607  0.77486  0.76826  1.0000
  C   C2521     1.0  0.72998  0.98219  0.55488  1.0000
  H   H4462     1.0  0.79597  0.84655  0.95369  1.0000
  H   H4463     1.0  0.83880  0.74883  0.67405  1.0000
  H   H4464     1.0  0.65586  0.89824  0.97543  1.0000
  H   H4465     1.0  0.76876  0.98547  0.86458  1.0000
  H   H4466     1.0  0.66843  0.83794  0.85236  1.0000
  S   S572      1.0  0.74324  0.97914  0.79876  1.0000
  H   H4467     1.0  0.95108  0.75782  0.79800  1.0000
  H   H4468     1.0  0.74818  0.97186  0.55808  1.0000
  H   H4469     1.0  0.77614  0.87500  0.93094  1.0000
  H   H4470     1.0  0.78425  0.98639  0.49906  1.0000
  H   H4471     1.0  0.93704  0.74674  0.92563  1.0000
  C   C2522     1.0  0.74522  0.98112  0.57033  1.0000
  H   H4472     1.0  0.73400  0.94597  0.65826  1.0000
  H   H4473     1.0  0.77743  0.86840  0.96815  1.0000
  H   H4474     1.0  0.72806  0.81562  0.93999  1.0000
  H   H4475     1.0  0.75258  0.82546  0.97633  1.0000
  N   N140      1.0  0.67446  0.81832  0.86933  1.0000
  C   C2523     1.0  0.67466  0.83525  0.87234  1.0000
  H   H4476     1.0  0.96692  0.74573  0.89025  1.0000
  C   C2524     1.0  0.68120  0.81447  0.89818  1.0000
  C   C2525     1.0  0.68505  0.81721  0.84481  1.0000
  H   H4477     1.0  0.76146  0.84518  0.93274  1.0000
  C   C2526     1.0  0.69195  0.84950  0.87802  1.0000
  C   C2527     1.0  0.68026  0.79680  0.90005  1.0000
  H   H4478     1.0  0.74778  0.82772  0.51806  1.0000
  H   H4479     1.0  0.75503  0.80064  0.93047  1.0000
  S   S573      1.0  0.78157  0.75614  0.67520  1.0000
  C   C2528     1.0  0.69067  0.86607  0.87766  1.0000
  C   C2529     1.0  0.68493  0.79338  0.93143  1.0000
  H   H4480     1.0  0.95562  0.75829  0.48544  1.0000
  C   C2530     1.0  0.97856  0.80356  0.87602  1.0000
  C   C2531     1.0  0.79700  0.98124  0.89442  1.0000
  C   C2532     1.0  0.94167  0.76009  0.93088  1.0000
  H   H4481     1.0  0.67498  0.81706  0.91729  1.0000
  H   H4482     1.0  0.69452  0.82268  0.90222  1.0000
  H   H4483     1.0  0.69846  0.82379  0.85149  1.0000
  H   H4484     1.0  0.68327  0.80426  0.84076  1.0000
  C   C2533     1.0  0.97039  0.75931  0.84923  1.0000
  C   C2534     1.0  0.76543  0.79336  0.54635  1.0000
  H   H4485     1.0  0.69758  0.84861  0.90007  1.0000
  H   H4486     1.0  0.70049  0.84950  0.86091  1.0000
  H   H4487     1.0  0.68897  0.79511  0.88487  1.0000
  C   C2535     1.0  0.97891  0.77635  0.50332  1.0000
  H   H4488     1.0  0.81271  0.98710  0.62825  1.0000
  H   H4489     1.0  0.66852  0.81805  0.80708  1.0000
  C   C2536     1.0  0.78139  0.86804  0.94524  1.0000
  H   H4490     1.0  0.77650  0.80015  0.96119  1.0000
  H   H4491     1.0  0.73090  0.94680  0.57384  1.0000
  C   C2537     1.0  0.76185  0.80587  0.52783  1.0000
  H   H4492     1.0  0.78425  0.96650  0.62486  1.0000
  H   H4493     1.0  0.76026  0.95564  0.58692  1.0000
  H   H4494     1.0  0.72418  0.74515  0.48663  1.0000
  H   H4495     1.0  0.68629  0.86816  0.85524  1.0000
  H   H4496     1.0  0.79509  0.87411  0.94531  1.0000
  C   C2538     1.0  0.84343  0.74039  0.57871  1.0000
  H   H4497     1.0  0.68529  0.78109  0.93151  1.0000
  C   C2539     1.0  0.95996  0.77887  0.82983  1.0000
  N   N141      1.0  0.77706  0.82251  0.94213  1.0000
  H   H4498     1.0  0.73558  0.97389  0.70077  1.0000
  H   H4499     1.0  0.93157  0.76426  0.92636  1.0000
  C   C2540     1.0  0.78447  0.82263  0.91256  1.0000
  C   C2541     1.0  0.75853  0.81364  0.93760  1.0000
  S   S574      1.0  0.97316  0.77604  0.54092  1.0000
  H   H4500     1.0  0.65612  0.88252  0.90621  1.0000
  C   C2542     1.0  0.78256  0.80574  0.89949  1.0000
  H   H4501     1.0  0.67048  0.88067  0.96676  1.0000
  H   H4502     1.0  0.77418  0.98395  0.58954  1.0000
  H   H4503     1.0  0.65138  0.81045  0.84270  1.0000
  H   H4504     1.0  0.72497  0.79474  0.94757  1.0000
  C   C2543     1.0  0.79209  0.80760  0.87142  1.0000
  H   H4505     1.0  0.95870  0.78954  0.66518  1.0000
  H   H4506     1.0  0.71304  0.74294  0.92046  1.0000
  H   H4507     1.0  0.93235  0.78028  0.79757  1.0000
  C   C2544     1.0  0.97618  0.75541  0.70147  1.0000
  H   H4508     1.0  0.79794  0.83070  0.91424  1.0000
  H   H4509     1.0  0.77878  0.82777  0.89521  1.0000
  H   H4510     1.0  0.75379  0.81877  0.91879  1.0000
  H   H4511     1.0  0.66772  0.78742  0.89395  1.0000
  C   C2545     1.0  0.72376  0.83954  0.50791  1.0000
  C   C2546     1.0  0.78614  0.97943  0.62892  1.0000
  H   H4512     1.0  0.74135  0.98433  0.95326  1.0000
  H   H4513     1.0  0.72507  0.96067  0.65076  1.0000
  H   H4514     1.0  0.75948  0.81423  0.54358  1.0000
  H   H4515     1.0  0.96602  0.80128  0.88314  1.0000
  H   H4516     1.0  0.72349  0.80794  0.97672  1.0000
  H   H4517     1.0  0.98022  0.81010  0.85485  1.0000
  C   C2547     1.0  0.87229  0.74539  0.56975  1.0000
  H   H4518     1.0  0.68210  0.86678  0.89431  1.0000
  H   H4519     1.0  0.69728  0.80267  0.93917  1.0000
  H   H4520     1.0  0.77582  0.79978  0.56300  1.0000
  H   H4521     1.0  0.78632  0.96922  0.89127  1.0000
  H   H4522     1.0  0.76941  0.79824  0.89333  1.0000
  H   H4523     1.0  0.95548  0.78853  0.83517  1.0000
  Fe  Fe286     1.0  0.91918  0.74584  0.59890  1.0000
  H   H4524     1.0  0.72968  0.96862  0.60565  1.0000
  C   C2548     1.0  0.73448  0.96129  0.69547  1.0000
  H   H4525     1.0  0.78966  0.79528  0.86168  1.0000
  H   H4526     1.0  0.78804  0.81437  0.85459  1.0000
  Fe  Fe287     1.0  0.77787  0.74279  0.62947  1.0000
  H   H4527     1.0  0.86539  0.74032  0.64297  1.0000
  H   H4528     1.0  0.71480  0.77600  0.48906  1.0000
  C   C2549     1.0  0.86292  0.74122  0.61950  1.0000
  H   H4529     1.0  0.70763  0.79225  0.49171  1.0000
  H   H4530     1.0  0.77886  0.85092  0.90976  1.0000
  C   C2550     1.0  0.64922  0.94815  0.51304  1.0000
  S   S575      1.0  0.74801  0.74381  0.53065  1.0000
  C   C2551     1.0  0.77517  0.85040  0.93298  1.0000
  C   C2552     1.0  0.75240  0.97069  0.65153  1.0000
  H   H4531     1.0  0.73682  0.91999  0.60811  1.0000
  H   H4532     1.0  0.97055  0.78475  0.81552  1.0000
  H   H4533     1.0  0.76168  0.96724  0.66362  1.0000
  H   H4534     1.0  0.94819  0.78126  0.77273  1.0000
  H   H4535     1.0  0.68588  0.83715  0.81584  1.0000
  H   H4536     1.0  0.73619  0.79037  0.51919  1.0000
  C   C2553     1.0  0.98079  0.78733  0.87100  1.0000
  H   H4537     1.0  0.72772  0.81210  0.51881  1.0000
  H   H4538     1.0  0.78409  0.98626  0.72211  1.0000
  C   C2554     1.0  0.74270  0.97723  0.60363  1.0000
  H   H4539     1.0  0.68906  0.82482  0.76894  1.0000
  C   C2555     1.0  0.66068  0.75559  0.86568  1.0000
  Fe  Fe288     1.0  0.95008  0.74261  0.62793  1.0000
  N   N142      1.0  0.75453  0.97094  0.61847  1.0000
  N   N143      1.0  0.83994  0.78029  0.65736  1.0000
  C   C2556     1.0  0.85653  0.77939  0.65566  1.0000
  C   C2557     1.0  0.83136  0.77656  0.62673  1.0000
  C   C2558     1.0  0.84260  0.79721  0.66877  1.0000
  C   C2559     1.0  0.82919  0.76807  0.67839  1.0000
  C   C2560     1.0  0.77194  0.98310  0.61367  1.0000
  C   C2561     1.0  0.86637  0.78089  0.68573  1.0000
  C   C2562     1.0  0.82718  0.80141  0.66657  1.0000
  C   C2563     1.0  0.84029  0.78868  0.60257  1.0000
  C   C2564     1.0  0.82944  0.78545  0.57383  1.0000
  H   H4540     1.0  0.66168  0.93846  0.82270  1.0000
  C   C2565     1.0  0.88276  0.77948  0.68102  1.0000
  C   C2566     1.0  0.83110  0.81838  0.68048  1.0000
  H   H4541     1.0  0.86470  0.78934  0.64195  1.0000
  H   H4542     1.0  0.85520  0.76788  0.64377  1.0000
  H   H4543     1.0  0.82997  0.76429  0.61816  1.0000
  H   H4544     1.0  0.81847  0.77566  0.62757  1.0000
  H   H4545     1.0  0.85269  0.80678  0.65730  1.0000
  H   H4546     1.0  0.84703  0.79897  0.69260  1.0000
  H   H4547     1.0  0.83389  0.77176  0.70187  1.0000
  H   H4548     1.0  0.81657  0.76792  0.67723  1.0000
  H   H4549     1.0  0.71950  0.84787  0.49539  1.0000
  H   H4550     1.0  0.74445  0.95919  0.70823  1.0000
  H   H4551     1.0  0.86927  0.79293  0.69708  1.0000
  H   H4552     1.0  0.85937  0.77113  0.70077  1.0000
  H   H4553     1.0  0.81679  0.79249  0.67831  1.0000
  H   H4554     1.0  0.82288  0.80145  0.64307  1.0000
  H   H4555     1.0  0.84363  0.80158  0.60982  1.0000
  H   H4556     1.0  0.85175  0.78724  0.59714  1.0000
  H   H4557     1.0  0.83641  0.79384  0.55667  1.0000
  H   H4558     1.0  0.82579  0.77267  0.56526  1.0000
  H   H4559     1.0  0.81818  0.78764  0.57757  1.0000
  H   H4560     1.0  0.82213  0.74293  0.71878  1.0000
  H   H4561     1.0  0.77706  0.76380  0.49840  1.0000
  H   H4562     1.0  0.78707  0.79887  0.91531  1.0000
  H   H4563     1.0  0.89054  0.78931  0.66672  1.0000
  H   H4564     1.0  0.88966  0.78066  0.70276  1.0000
  H   H4565     1.0  0.88055  0.76741  0.67040  1.0000
  H   H4566     1.0  0.81989  0.82108  0.67844  1.0000
  H   H4567     1.0  0.83486  0.81887  0.70446  1.0000
  H   H4568     1.0  0.84113  0.82791  0.66895  1.0000
  C   C2567     1.0  0.97059  0.76699  0.71205  1.0000
  C   C2568     1.0  0.73718  0.81938  0.50338  1.0000
  S   S576      1.0  0.96767  0.74324  0.66795  1.0000
  H   H4569     1.0  0.77319  0.81299  0.51625  1.0000
  N   N144      1.0  0.96564  0.77316  0.85797  1.0000
  H   H4570     1.0  0.66512  0.92487  0.79646  1.0000
  C   C2569     1.0  0.74857  0.81325  0.96512  1.0000
  H   H4571     1.0  0.96304  0.80128  0.63191  1.0000
  C   C2570     1.0  0.95164  0.76744  0.87880  1.0000
  C   C2571     1.0  0.95649  0.76952  0.91274  1.0000
  H   H4572     1.0  0.80558  0.81419  0.87674  1.0000
  C   C2572     1.0  0.73016  0.80753  0.95669  1.0000
  H   H4573     1.0  0.75693  0.94794  0.62304  1.0000
  H   H4574     1.0  0.74970  0.75868  0.66163  1.0000
  C   C2573     1.0  0.65819  0.92540  0.81605  1.0000
  H   H4575     1.0  0.96057  0.76864  0.69994  1.0000
  H   H4576     1.0  0.88204  0.74810  0.55450  1.0000
  C   C2574     1.0  0.66547  0.74658  0.88626  1.0000
  H   H4577     1.0  0.76902  0.78528  0.53198  1.0000
  H   H4578     1.0  0.70472  0.82512  0.79618  1.0000
  C   C2575     1.0  0.81616  0.73904  0.69612  1.0000
  H   H4579     1.0  0.68696  0.80622  0.78673  1.0000
  C   C2576     1.0  0.82684  0.75008  0.67293  1.0000
  C   C2577     1.0  0.78222  0.84018  0.95233  1.0000
  H   H4580     1.0  0.73348  0.84697  0.52501  1.0000
  C   C2578     1.0  0.76628  0.98279  0.75543  1.0000
  H   H4581     1.0  0.82049  0.74538  0.65090  1.0000
  H   H4582     1.0  0.85380  0.74446  0.53577  1.0000
  H   H4583     1.0  0.94348  0.75433  0.87367  1.0000
  H   H4584     1.0  0.73235  0.98525  0.53132  1.0000
  C   C2579     1.0  0.74672  0.79727  0.50548  1.0000
  C   C2580     1.0  0.78393  0.81363  0.96367  1.0000
  C   C2581     1.0  0.73552  0.95882  0.66211  1.0000
  H   H4585     1.0  0.72239  0.95250  0.70271  1.0000
  H   H4586     1.0  0.71308  0.83060  0.51905  1.0000
  C   C2582     1.0  0.94600  0.76552  0.81018  1.0000
  C   C2583     1.0  0.93848  0.77312  0.78680  1.0000
  H   H4587     1.0  0.79672  0.81549  0.95830  1.0000
  H   H4588     1.0  0.93595  0.75753  0.82378  1.0000
  H   H4589     1.0  0.94549  0.76222  0.95496  1.0000
  H   H4590     1.0  0.65647  0.79420  0.85414  1.0000
  C   C2584     1.0  0.85624  0.74339  0.55920  1.0000
  H   H4591     1.0  0.74918  0.78791  0.49239  1.0000
  C   C2585     1.0  0.97792  0.77640  0.73849  1.0000
  C   C2586     1.0  0.76602  0.76277  0.48557  1.0000
  C   C2587     1.0  0.96664  0.80139  0.65588  1.0000
  H   H4592     1.0  0.98024  0.77877  0.65402  1.0000
  H   H4593     1.0  0.65471  0.94764  0.53546  1.0000
  H   H4594     1.0  0.66195  0.91933  0.83453  1.0000
  H   H4595     1.0  0.77858  0.84125  0.97516  1.0000
  C   C2588     1.0  0.75430  0.98761  0.76635  1.0000
  H   H4596     1.0  0.65195  0.94002  0.49721  1.0000
  H   H4597     1.0  0.65510  0.96091  0.50558  1.0000
  H   H4598     1.0  0.78701  0.98197  0.65326  1.0000
  C   C2589     1.0  0.76603  0.75774  0.97912  1.0000
  C   C2590     1.0  0.65881  0.87566  0.97849  1.0000
  C   C2591     1.0  0.97674  0.75154  0.87462  1.0000
  H   H4599     1.0  0.97355  0.78538  0.74623  1.0000
  H   H4600     1.0  0.64869  0.79826  0.90681  1.0000
  H   H4601     1.0  0.97819  0.74052  0.96506  1.0000
  H   H4602     1.0  0.80291  0.98852  0.59302  1.0000
  H   H4603     1.0  0.71918  0.74123  0.57057  1.0000
  C   C2592     1.0  0.73060  0.83069  0.48651  1.0000
  H   H4604     1.0  0.97046  0.73988  0.51599  1.0000
  H   H4605     1.0  0.80375  0.73942  0.69534  1.0000
  H   H4606     1.0  0.64858  0.86863  0.96194  1.0000
  H   H4607     1.0  0.74366  0.98869  0.61537  1.0000
  H   H4608     1.0  0.79514  0.98888  0.84998  1.0000
