data_image0
_chemical_formula_structural       FeS2H2FeCS2HFeS2FeS2FeSFeS3H2C6H5C6H8NHC4H4C2H2C2H6SCHCH6CH2SC2H3CNH3CHC2H3C2SH2CFeHCH2CHC2H2CH4CHCHC2HCHNCHC2HNH5C2HC3H2C2H4CH6CHCHC2H3CH3CHCH4C2H10CHC2HCH2CNC3HCHCH7C2H3FeS2FeS2FeSFeS4FeHSHC2HCHC4H2C6H4C4HNH2CHCH5CSH3CH5CH2C3HCHC2H2CH3CH4CH3CH2CHC2SH3CNCHCH3NCNHC3H4C3H6NH2CH2CH6C2H2CH2CH3CH2C2HCH12CH7C3H3C2HCH2C2H2C2H2CH3CH3C2H3CH4C2H3CHCH8FeS2C2SFeHFeS2FeS2Fe2HS2C2H5C7H7SH6CSCHCH4CSHNC2HC6H11CH9CHC3HC3H2FeH2CH4C2H2CH2CHFeS2HSFeSFeS3FeS2H3CSC2H2SC6H4FeH2CH4CH2CH4CH6NH3C2HSHC2HCH4CH7CNC3HCHFeCHFeH3C2H2CHCH3C3HCHCHCFeSFeSCFeSFeS3HCSH3CHC3H2C6H5NC7H4CH11CH6CHC2HC2H7CH11C2H2CH2SH2CHFeH2C2HCHCNH2CH3C3HCH6CHCH4C2FeS2FeS2FeSHS2HNSC6H4C3H3C4H8CHFeH2SH5CH2C2H3FeH2C4HCHCH2CHCH5C2H6CHSHC2HCH2CH2CH11FeS2FeS2FeSFeS4HFeS2H9CH2C2H2C7H4C6H4CH2C3HCH5NH4C2H5C5H2FeH2CH2CH6CSH2C2FeHCHCHCNHNCHCHCH5C2SH11NC2H4C3HC2H2C2H3CHCH3CHCHC2HC2H3CH9CH3CHCHC2H3C2H6CH3CNH4CH2C2HC2HSFeS2FeS2FeSFeS3FeS2CH2C7H4C6H4C2NH4NC8HC3H16SC2H12CH7CH8CH3C2HCH2CH2C4HCNH2CHSHC4H2CSH4CH3CH2C4H3CH7CH8CHC2H4CH2C2
_chemical_formula_sum              "Fe48 S96 H768 C432 N24"
_cell_length_a       44.0942
_cell_length_b       35.452
_cell_length_c       34.3782
_cell_angle_alpha    90.0526
_cell_angle_beta     89.9346
_cell_angle_gamma    89.1178

_space_group_name_H-M_alt    "P 1"
_space_group_IT_number       1

loop_
  _space_group_symop_operation_xyz
  'x, y, z'

loop_
  _atom_site_type_symbol
  _atom_site_label
  _atom_site_symmetry_multiplicity
  _atom_site_fract_x
  _atom_site_fract_y
  _atom_site_fract_z
  _atom_site_occupancy
  Fe  Fe1       1.0  0.12523  0.43718  0.15785  1.0000
  S   S1        1.0  0.13311  0.44468  0.09344  1.0000
  S   S2        1.0  0.14187  0.38418  0.18993  1.0000
  H   H1        1.0  0.21150  0.08235  0.34235  1.0000
  H   H2        1.0  0.11187  0.16399  0.20068  1.0000
  Fe  Fe2       1.0  0.08981  0.47988  0.09262  1.0000
  C   C1        1.0  0.01932  0.17206  0.25192  1.0000
  S   S3        1.0  0.15097  0.48916  0.17430  1.0000
  S   S4        1.0  0.08059  0.46865  0.15652  1.0000
  H   H3        1.0  0.11326  0.28759  0.37284  1.0000
  Fe  Fe3       1.0  0.16283  0.16255  0.32911  1.0000
  S   S5        1.0  0.13031  0.15527  0.27952  1.0000
  S   S6        1.0  0.21078  0.16206  0.30524  1.0000
  Fe  Fe4       1.0  0.11113  0.16637  0.38835  1.0000
  S   S7        1.0  0.07562  0.15983  0.34263  1.0000
  S   S8        1.0  0.09851  0.16925  0.45240  1.0000
  Fe  Fe5       1.0  0.10648  0.11461  0.31852  1.0000
  S   S9        1.0  0.08501  0.06058  0.29736  1.0000
  Fe  Fe6       1.0  0.10284  0.20122  0.30790  1.0000
  S   S10       1.0  0.07698  0.24685  0.27446  1.0000
  S   S11       1.0  0.14077  0.11838  0.36629  1.0000
  S   S12       1.0  0.13657  0.21130  0.35557  1.0000
  H   H4        1.0  0.26421  0.03568  0.36408  1.0000
  H   H5        1.0  0.01800  0.20007  0.23747  1.0000
  C   C2        1.0  0.24287  0.16983  0.33433  1.0000
  C   C3        1.0  0.24058  0.17435  0.37459  1.0000
  C   C4        1.0  0.26690  0.17957  0.39690  1.0000
  C   C5        1.0  0.29555  0.18001  0.37910  1.0000
  C   C6        1.0  0.29780  0.17573  0.33880  1.0000
  C   C7        1.0  0.27150  0.17075  0.31647  1.0000
  H   H6        1.0  0.21858  0.17367  0.38855  1.0000
  H   H7        1.0  0.26507  0.18287  0.42812  1.0000
  H   H8        1.0  0.31978  0.17604  0.32493  1.0000
  H   H9        1.0  0.27332  0.16728  0.28528  1.0000
  H   H10       1.0  0.08536  0.05514  0.38579  1.0000
  C   C8        1.0  0.12295  0.34641  0.21305  1.0000
  C   C9        1.0  0.14052  0.31839  0.23179  1.0000
  C   C10       1.0  0.12679  0.28778  0.25063  1.0000
  C   C11       1.0  0.09523  0.28469  0.25069  1.0000
  C   C12       1.0  0.07758  0.31264  0.23196  1.0000
  C   C13       1.0  0.09135  0.34342  0.21327  1.0000
  H   H11       1.0  0.16497  0.32044  0.23173  1.0000
  H   H12       1.0  0.14065  0.26655  0.26499  1.0000
  H   H13       1.0  0.05314  0.31055  0.23195  1.0000
  H   H14       1.0  0.07757  0.36475  0.19895  1.0000
  H   H15       1.0  0.30081  0.06377  0.27498  1.0000
  H   H16       1.0  0.06775  0.35966  0.41894  1.0000
  H   H17       1.0  0.02056  0.17674  0.28379  1.0000
  H   H18       1.0  0.30068  0.48932  0.26070  1.0000
  N   N1        1.0  0.30582  0.05532  0.33742  1.0000
  H   H19       1.0  0.26664  0.08552  0.36164  1.0000
  C   C14       1.0  0.10398  0.01695  0.30525  1.0000
  C   C15       1.0  0.31428  0.07443  0.29972  1.0000
  C   C16       1.0  0.09875  0.33952  0.34470  1.0000
  C   C17       1.0  0.05283  0.28052  0.36642  1.0000
  H   H20       1.0  0.14520  0.04099  0.32685  1.0000
  H   H21       1.0  0.12047  0.03219  0.22158  1.0000
  H   H22       1.0  0.05624  0.08871  0.13783  1.0000
  H   H23       1.0  0.08629  0.24882  0.42073  1.0000
  C   C18       1.0  0.04703  0.12071  0.06843  1.0000
  C   C19       1.0  0.26648  0.30759  0.27130  1.0000
  H   H24       1.0  0.20227  0.06190  0.29602  1.0000
  H   H25       1.0  0.06773  0.16733  0.24534  1.0000
  C   C20       1.0  0.29232  0.51208  0.11140  1.0000
  C   C21       1.0  0.03738  0.18612  0.44240  1.0000
  H   H26       1.0  0.14156  0.07163  0.24031  1.0000
  H   H27       1.0  0.32877  0.24936  0.19946  1.0000
  H   H28       1.0  0.30472  0.30532  0.32863  1.0000
  H   H29       1.0  0.01859  0.25412  0.40405  1.0000
  H   H30       1.0  0.25797  0.29761  0.29991  1.0000
  H   H31       1.0  0.27571  0.33624  0.27546  1.0000
  S   S13       1.0  0.04880  0.46979  0.05190  1.0000
  C   C22       1.0  0.08368  0.20321  0.16975  1.0000
  H   H32       1.0  0.22178  0.32976  0.25649  1.0000
  C   C23       1.0  0.23672  0.50956  0.11066  1.0000
  H   H33       1.0  0.02375  0.39398  0.45335  1.0000
  H   H34       1.0  0.22896  0.28226  0.23976  1.0000
  H   H35       1.0  0.03496  0.16456  0.17937  1.0000
  H   H36       1.0  0.28198  0.25068  0.25985  1.0000
  H   H37       1.0  0.11324  0.32836  0.40301  1.0000
  H   H38       1.0  0.11434  0.15865  0.14984  1.0000
  C   C24       1.0  0.06091  0.17851  0.46859  1.0000
  H   H39       1.0  0.04912  0.12387  0.25584  1.0000
  H   H40       1.0  0.14559  0.32783  0.32747  1.0000
  S   S14       1.0  0.32808  0.18504  0.40816  1.0000
  C   C25       1.0  0.05192  0.33722  0.40950  1.0000
  C   C26       1.0  0.07028  0.11455  0.13558  1.0000
  H   H41       1.0  0.09550  0.10882  0.22928  1.0000
  H   H42       1.0  0.02999  0.11678  0.19152  1.0000
  H   H43       1.0  0.29240  0.28312  0.22366  1.0000
  C   C27       1.0  0.08106  0.03911  0.41293  1.0000
  N   N2        1.0  0.07612  0.13020  0.17570  1.0000
  H   H44       1.0  0.08985  0.32468  0.31894  1.0000
  H   H45       1.0  0.06625  0.25478  0.35817  1.0000
  H   H46       1.0  0.04169  0.18501  0.41152  1.0000
  C   C28       1.0  0.23716  0.50156  0.15050  1.0000
  H   H47       1.0  0.01303  0.30961  0.43904  1.0000
  C   C29       1.0  0.13352  0.01524  0.31999  1.0000
  C   C30       1.0  0.04759  0.15027  0.23847  1.0000
  H   H48       1.0  0.14048  0.36956  0.35749  1.0000
  H   H49       1.0  0.29250  0.05121  0.41611  1.0000
  H   H50       1.0  0.13687  0.10382  0.17590  1.0000
  C   C31       1.0  0.09774  0.16293  0.17395  1.0000
  C   C32       1.0  0.21717  0.05895  0.32193  1.0000
  S   S15       1.0  0.32632  0.50587  0.17958  1.0000
  H   H51       1.0  0.00909  0.25478  0.31552  1.0000
  H   H52       1.0  0.32992  0.22231  0.27128  1.0000
  C   C33       1.0  0.04613  0.14052  0.19447  1.0000
  Fe  Fe7       1.0  0.15659  0.49830  0.11046  1.0000
  H   H53       1.0  0.33216  0.34115  0.28709  1.0000
  C   C34       1.0  0.29108  0.27961  0.25564  1.0000
  H   H54       1.0  0.03661  0.14079  0.04736  1.0000
  H   H55       1.0  0.12014  0.22688  0.13480  1.0000
  C   C35       1.0  0.33779  0.31910  0.26499  1.0000
  H   H56       1.0  0.25337  0.08778  0.29362  1.0000
  C   C36       1.0  0.27196  0.05907  0.34509  1.0000
  C   C37       1.0  0.00922  0.36928  0.44754  1.0000
  H   H57       1.0  0.07154  0.21157  0.19673  1.0000
  H   H58       1.0  0.03367  0.15430  0.11736  1.0000
  C   C38       1.0  0.02995  0.48799  0.00956  1.0000
  H   H59       1.0  0.03981  0.34927  0.38380  1.0000
  H   H60       1.0  0.31569  0.10605  0.36959  1.0000
  H   H61       1.0  0.11624  0.06401  0.15740  1.0000
  H   H62       1.0  0.24617  0.32180  0.21517  1.0000
  C   C39       1.0  0.33085  0.33756  0.22490  1.0000
  H   H63       1.0  0.09781  0.26112  0.16160  1.0000
  C   C40       1.0  0.31801  0.48665  0.28401  1.0000
  H   H64       1.0  0.30702  0.11316  0.44129  1.0000
  C   C41       1.0  0.13574  0.05561  0.21360  1.0000
  C   C42       1.0  0.23925  0.31040  0.24389  1.0000
  H   H65       1.0  0.33132  0.03509  0.41649  1.0000
  C   C43       1.0  0.32193  0.07554  0.36999  1.0000
  H   H66       1.0  0.07417  0.07519  0.20347  1.0000
  N   N3        1.0  0.06938  0.30200  0.39764  1.0000
  C   C44       1.0  0.07557  0.27564  0.43133  1.0000
  H   H67       1.0  0.21242  0.03157  0.33617  1.0000
  C   C45       1.0  0.09969  0.31320  0.38087  1.0000
  C   C46       1.0  0.31624  0.05997  0.41159  1.0000
  H   H68       1.0  0.06774  0.10810  0.05491  1.0000
  N   N4        1.0  0.32197  0.28253  0.27431  1.0000
  H   H69       1.0  0.06130  0.05229  0.42800  1.0000
  H   H70       1.0  0.33471  0.31767  0.20053  1.0000
  H   H71       1.0  0.12076  0.28827  0.45403  1.0000
  H   H72       1.0  0.08442  0.36498  0.35006  1.0000
  H   H73       1.0  0.30863  0.10507  0.30160  1.0000
  C   C47       1.0  0.32336  0.08905  0.44291  1.0000
  C   C48       1.0  0.13053  0.35253  0.33372  1.0000
  H   H74       1.0  0.30314  0.25538  0.32536  1.0000
  C   C49       1.0  0.02858  0.33340  0.44323  1.0000
  C   C50       1.0  0.12056  0.08149  0.18357  1.0000
  C   C51       1.0  0.09040  0.09873  0.19949  1.0000
  H   H75       1.0  0.12504  0.23186  0.18686  1.0000
  H   H76       1.0  0.09191  0.10553  0.12149  1.0000
  C   C52       1.0  0.10825  0.23241  0.16277  1.0000
  C   C53       1.0  0.25042  0.06071  0.30940  1.0000
  H   H77       1.0  0.05050  0.29745  0.33946  1.0000
  H   H78       1.0  0.12925  0.37020  0.30705  1.0000
  H   H79       1.0  0.07087  0.16425  0.09784  1.0000
  H   H80       1.0  0.03052  0.09806  0.07440  1.0000
  C   C54       1.0  0.00836  0.19651  0.45622  1.0000
  H   H81       1.0  0.26476  0.49455  0.20176  1.0000
  H   H82       1.0  0.21613  0.49739  0.16588  1.0000
  H   H83       1.0  0.02165  0.21509  0.34471  1.0000
  H   H84       1.0  0.15698  0.04325  0.20135  1.0000
  H   H85       1.0  0.30691  0.34752  0.22348  1.0000
  H   H86       1.0  0.10139  0.04142  0.43179  1.0000
  C   C55       1.0  0.02006  0.26861  0.37578  1.0000
  H   H87       1.0  0.25487  0.03720  0.28886  1.0000
  C   C56       1.0  0.31744  0.28004  0.31785  1.0000
  H   H88       1.0  0.06722  0.20532  0.14562  1.0000
  C   C57       1.0  0.26485  0.49997  0.17082  1.0000
  C   C58       1.0  0.05498  0.14158  0.10592  1.0000
  H   H89       1.0  0.32141  0.07603  0.47214  1.0000
  H   H90       1.0  0.30674  0.47921  0.31181  1.0000
  H   H91       1.0  0.01672  0.47180  0.13481  1.0000
  C   C59       1.0  0.09671  0.29126  0.46349  1.0000
  H   H92       1.0  0.09207  0.32158  0.46927  1.0000
  H   H93       1.0  0.05420  0.26660  0.44527  1.0000
  H   H94       1.0  0.00955  0.03979  0.40944  1.0000
  C   C60       1.0  0.29258  0.50516  0.15146  1.0000
  H   H95       1.0  0.04037  0.32866  0.47133  1.0000
  C   C61       1.0  0.00806  0.24170  0.34486  1.0000
  H   H96       1.0  0.33397  0.46338  0.27585  1.0000
  H   H97       1.0  0.33342  0.31599  0.38886  1.0000
  H   H98       1.0  0.32191  0.26782  0.39687  1.0000
  H   H99       1.0  0.33961  0.08151  0.22504  1.0000
  C   C62       1.0  0.31599  0.01456  0.33798  1.0000
  C   C63       1.0  0.05478  0.17993  0.50872  1.0000
  H   H100      1.0  0.05018  0.46975  0.87046  1.0000
  H   H101      1.0  0.07282  0.17406  0.52924  1.0000
  H   H102      1.0  0.10070  0.23984  0.49780  1.0000
  H   H103      1.0  0.02786  0.38044  0.93663  1.0000
  H   H104      1.0  0.05069  0.50504  0.80867  1.0000
  H   H105      1.0  0.07746  0.42028  0.88995  1.0000
  H   H106      1.0  0.05753  0.34423  0.78194  1.0000
  H   H107      1.0  0.01608  0.39104  0.79412  1.0000
  H   H108      1.0  0.03579  0.08379  0.57363  1.0000
  H   H109      1.0  0.07654  0.37297  0.90805  1.0000
  C   C64       1.0  0.03829  0.45766  0.84496  1.0000
  H   H110      1.0  0.02622  0.43025  0.93055  1.0000
  C   C65       1.0  0.06850  0.40240  0.91347  1.0000
  C   C66       1.0  0.00991  0.43635  0.85900  1.0000
  H   H111      1.0  0.05530  0.38009  0.84496  1.0000
  C   C67       1.0  0.02566  0.19012  0.52256  1.0000
  H   H112      1.0  0.05412  0.43911  0.82850  1.0000
  H   H113      1.0  0.01764  0.11214  0.53664  1.0000
  C   C68       1.0  0.03333  0.40348  0.91581  1.0000
  N   N5        1.0  0.01572  0.39871  0.87833  1.0000
  C   C69       1.0  0.08258  0.41554  0.95172  1.0000
  C   C70       1.0  0.01655  0.36461  0.81139  1.0000
  C   C71       1.0  0.02983  0.49047  0.81812  1.0000
  H   H114      1.0  0.02245  0.33113  0.75908  1.0000
  C   C72       1.0  0.03186  0.37121  0.85147  1.0000
  H   H115      1.0  0.01511  0.51124  0.83359  1.0000
  C   C73       1.0  0.09348  0.26972  0.50171  1.0000
  H   H116      1.0  0.06963  0.27080  0.51223  1.0000
  H   H117      1.0  0.10818  0.28243  0.52423  1.0000
  H   H118      1.0  0.01118  0.04479  0.52290  1.0000
  H   H119      1.0  0.02145  0.19226  0.55351  1.0000
  H   H120      1.0  0.10767  0.41277  0.95012  1.0000
  H   H121      1.0  0.03448  0.30746  0.80291  1.0000
  H   H122      1.0  0.01793  0.48003  0.79183  1.0000
  C   C74       1.0  0.01356  0.09231  0.56099  1.0000
  C   C75       1.0  0.03396  0.33502  0.78754  1.0000
  H   H123      1.0  0.03458  0.34335  0.86619  1.0000
  H   H124      1.0  0.07663  0.44562  0.95734  1.0000
  H   H125      1.0  0.07448  0.39828  0.97651  1.0000
  Fe  Fe8       1.0  0.14148  0.77253  0.36923  1.0000
  S   S16       1.0  0.15364  0.79339  0.31006  1.0000
  S   S17       1.0  0.17581  0.74245  0.40757  1.0000
  Fe  Fe9       1.0  0.07642  0.80386  0.36440  1.0000
  S   S18       1.0  0.08449  0.82667  0.30400  1.0000
  S   S19       1.0  0.02959  0.81854  0.38917  1.0000
  Fe  Fe10      1.0  0.10828  0.77080  0.29226  1.0000
  S   S20       1.0  0.10496  0.73917  0.23441  1.0000
  Fe  Fe11      1.0  0.12890  0.84672  0.32760  1.0000
  S   S21       1.0  0.15287  0.90292  0.32319  1.0000
  S   S22       1.0  0.09720  0.74667  0.35096  1.0000
  S   S23       1.0  0.11957  0.82711  0.38842  1.0000
  S   S24       1.0  0.31501  0.72608  0.36472  1.0000
  Fe  Fe12      1.0  0.10714  0.52135  0.16788  1.0000
  H   H126      1.0  0.07969  0.98529  0.46479  1.0000
  S   S25       1.0  0.09205  0.56098  0.21670  1.0000
  H   H127      1.0  0.21928  0.56377  0.25444  1.0000
  C   C76       1.0  0.04909  0.60540  0.09348  1.0000
  C   C77       1.0  0.29256  0.84059  0.46740  1.0000
  H   H128      1.0  0.10396  0.59975  0.05289  1.0000
  C   C78       1.0  0.25545  0.64975  0.33673  1.0000
  H   H129      1.0  0.22664  0.71196  0.44861  1.0000
  C   C79       1.0  0.01821  0.81359  0.43822  1.0000
  C   C80       1.0  0.13337  0.94637  0.31636  1.0000
  C   C81       1.0  0.10374  0.94805  0.30196  1.0000
  C   C82       1.0  0.14819  0.98008  0.32528  1.0000
  H   H130      1.0  0.09228  0.92224  0.29459  1.0000
  H   H131      1.0  0.17113  0.97897  0.33633  1.0000
  C   C83       1.0  0.10179  0.68950  0.23015  1.0000
  C   C84       1.0  0.09674  0.66656  0.26250  1.0000
  C   C85       1.0  0.09403  0.62725  0.25786  1.0000
  C   C86       1.0  0.09690  0.61035  0.22102  1.0000
  C   C87       1.0  0.10240  0.63316  0.18871  1.0000
  C   C88       1.0  0.10453  0.67258  0.19322  1.0000
  H   H132      1.0  0.09458  0.67914  0.29107  1.0000
  H   H133      1.0  0.08967  0.60984  0.28303  1.0000
  H   H134      1.0  0.10465  0.62049  0.16026  1.0000
  H   H135      1.0  0.10849  0.69013  0.16805  1.0000
  C   C89       1.0  0.21495  0.74211  0.39626  1.0000
  C   C90       1.0  0.22632  0.75822  0.36212  1.0000
  C   C91       1.0  0.25756  0.75575  0.35357  1.0000
  C   C92       1.0  0.27770  0.73781  0.37945  1.0000
  H   H136      1.0  0.18249  0.82044  0.44290  1.0000
  N   N6        1.0  0.06807  0.93247  0.43744  1.0000
  H   H137      1.0  0.21101  0.77159  0.34174  1.0000
  H   H138      1.0  0.26585  0.76628  0.32610  1.0000
  C   C93       1.0  0.17616  0.53993  0.26789  1.0000
  H   H139      1.0  0.23986  0.63592  0.31604  1.0000
  C   C94       1.0  0.02262  0.65002  0.15839  1.0000
  H   H140      1.0  0.15162  0.54765  0.26781  1.0000
  H   H141      1.0  0.01346  0.90267  0.39756  1.0000
  H   H142      1.0  0.28437  0.86053  0.29623  1.0000
  H   H143      1.0  0.27838  0.98460  0.31121  1.0000
  H   H144      1.0  0.29885  0.62873  0.13279  1.0000
  C   C95       1.0  0.05501  0.59104  0.05162  1.0000
  S   S26       1.0  0.11404  0.53444  0.10456  1.0000
  H   H145      1.0  0.18000  0.51514  0.24862  1.0000
  H   H146      1.0  0.03416  0.64930  0.22011  1.0000
  H   H147      1.0  0.29265  0.81354  0.39337  1.0000
  C   C96       1.0  0.17902  0.66841  0.24110  1.0000
  H   H148      1.0  0.04672  0.54006  0.12948  1.0000
  H   H149      1.0  0.24548  0.80518  0.42720  1.0000
  H   H150      1.0  0.06669  0.88658  0.39595  1.0000
  H   H151      1.0  0.30553  0.91913  0.40194  1.0000
  H   H152      1.0  0.04105  0.59460  0.17159  1.0000
  C   C97       1.0  0.24292  0.83584  0.43322  1.0000
  H   H153      1.0  0.19651  0.68036  0.29920  1.0000
  H   H154      1.0  0.05676  0.99707  0.38107  1.0000
  C   C98       1.0  0.31383  0.55703  0.29774  1.0000
  C   C99       1.0  0.29029  0.96210  0.44139  1.0000
  C   C100      1.0  0.19519  0.57313  0.25438  1.0000
  H   H155      1.0  0.27324  0.97377  0.42071  1.0000
  C   C101      1.0  0.25560  0.62963  0.16319  1.0000
  H   H156      1.0  0.19221  0.59589  0.27629  1.0000
  C   C102      1.0  0.12639  0.93136  0.42582  1.0000
  C   C103      1.0  0.04498  0.91568  0.46476  1.0000
  H   H157      1.0  0.16466  0.70919  0.28458  1.0000
  H   H158      1.0  0.22879  0.84684  0.40882  1.0000
  C   C104      1.0  0.22344  0.84166  0.47048  1.0000
  H   H159      1.0  0.02366  0.53463  0.08841  1.0000
  H   H160      1.0  0.19612  0.66070  0.15106  1.0000
  H   H161      1.0  0.24644  0.59083  0.20934  1.0000
  C   C105      1.0  0.29561  0.85058  0.32331  1.0000
  H   H162      1.0  0.30576  0.00161  0.27646  1.0000
  H   H163      1.0  0.18273  0.53181  0.29794  1.0000
  H   H164      1.0  0.16730  0.68497  0.21805  1.0000
  H   H165      1.0  0.20154  0.71811  0.26430  1.0000
  C   C106      1.0  0.18610  0.69561  0.27427  1.0000
  H   H166      1.0  0.16302  0.64729  0.25245  1.0000
  H   H167      1.0  0.05876  0.78458  0.45717  1.0000
  H   H168      1.0  0.22299  0.63998  0.24877  1.0000
  C   C107      1.0  0.20832  0.64972  0.22437  1.0000
  H   H169      1.0  0.31389  0.65359  0.30242  1.0000
  H   H170      1.0  0.04772  0.63663  0.09090  1.0000
  C   C108      1.0  0.08403  0.60765  0.03483  1.0000
  H   H171      1.0  0.31371  0.85510  0.39734  1.0000
  C   C109      1.0  0.06162  0.91747  0.39718  1.0000
  C   C110      1.0  0.30411  0.62491  0.30544  1.0000
  S   S27       1.0  0.20203  0.51583  0.08495  1.0000
  H   H172      1.0  0.16068  0.59488  0.21529  1.0000
  H   H173      1.0  0.28148  0.70727  0.43332  1.0000
  H   H174      1.0  0.22107  0.67296  0.21043  1.0000
  C   C111      1.0  0.18513  0.58678  0.21341  1.0000
  N   N7        1.0  0.27347  0.85434  0.43362  1.0000
  C   C112      1.0  0.15588  0.91250  0.43957  1.0000
  H   H175      1.0  0.18570  0.56154  0.19411  1.0000
  C   C113      1.0  0.08921  0.98327  0.29615  1.0000
  H   H176      1.0  0.27367  0.59157  0.11897  1.0000
  H   H177      1.0  0.16279  0.60438  0.06890  1.0000
  H   H178      1.0  0.08214  0.63889  0.03321  1.0000
  N   N8        1.0  0.20344  0.61814  0.19575  1.0000
  C   C114      1.0  0.18629  0.63370  0.16118  1.0000
  N   N9        1.0  0.32865  0.59474  0.30399  1.0000
  H   H179      1.0  0.16274  0.64145  0.16983  1.0000
  C   C115      1.0  0.23386  0.60195  0.18372  1.0000
  C   C116      1.0  0.26858  0.89635  0.43759  1.0000
  C   C117      1.0  0.26635  0.72236  0.41383  1.0000
  H   H180      1.0  0.23088  0.57694  0.16466  1.0000
  H   H181      1.0  0.25098  0.90670  0.41678  1.0000
  H   H182      1.0  0.30024  0.81980  0.32059  1.0000
  H   H183      1.0  0.25334  0.84416  0.35299  1.0000
  C   C118      1.0  0.23521  0.72464  0.42226  1.0000
  C   C119      1.0  0.30287  0.98918  0.30576  1.0000
  C   C120      1.0  0.27506  0.85875  0.35822  1.0000
  H   H184      1.0  0.05768  0.55995  0.05098  1.0000
  H   H185      1.0  0.29671  0.55878  0.27398  1.0000
  H   H186      1.0  0.30079  0.54882  0.32401  1.0000
  H   H187      1.0  0.04447  0.88439  0.46115  1.0000
  H   H188      1.0  0.03479  0.88731  0.33168  1.0000
  H   H189      1.0  0.12938  0.96222  0.42889  1.0000
  N   N10       1.0  0.02138  0.59057  0.11395  1.0000
  H   H190      1.0  0.30350  0.78282  0.44711  1.0000
  H   H191      1.0  0.17347  0.57974  0.13425  1.0000
  C   C121      1.0  0.29005  0.84459  0.39644  1.0000
  H   H192      1.0  0.26135  0.67806  0.32547  1.0000
  H   H193      1.0  0.06568  0.52423  0.99046  1.0000
  C   C122      1.0  0.02849  0.92308  0.38278  1.0000
  H   H194      1.0  0.31905  0.62638  0.22680  1.0000
  H   H195      1.0  0.06973  0.59895  0.11108  1.0000
  H   H196      1.0  0.07690  0.92968  0.37512  1.0000
  H   H197      1.0  0.31751  0.86537  0.32646  1.0000
  H   H198      1.0  0.29675  0.63731  0.36743  1.0000
  H   H199      1.0  0.12352  0.92408  0.39483  1.0000
  C   C123      1.0  0.29719  0.92068  0.43233  1.0000
  C   C124      1.0  0.06591  0.97508  0.43986  1.0000
  H   H200      1.0  0.14065  0.62986  0.10469  1.0000
  H   H201      1.0  0.09582  0.98637  0.38881  1.0000
  C   C125      1.0  0.28399  0.62541  0.34255  1.0000
  H   H202      1.0  0.15444  0.88138  0.43711  1.0000
  H   H203      1.0  0.24407  0.64629  0.14017  1.0000
  C   C126      1.0  0.31875  0.95054  0.30554  1.0000
  H   H204      1.0  0.31149  0.97829  0.43867  1.0000
  H   H205      1.0  0.09940  0.88690  0.45102  1.0000
  H   H206      1.0  0.17493  0.92191  0.42094  1.0000
  C   C127      1.0  0.16401  0.62431  0.09380  1.0000
  H   H207      1.0  0.03846  0.93733  0.32256  1.0000
  H   H208      1.0  0.04533  0.66028  0.14982  1.0000
  C   C128      1.0  0.28202  0.60840  0.14391  1.0000
  C   C129      1.0  0.09899  0.91839  0.45025  1.0000
  H   H209      1.0  0.26515  0.64949  0.18480  1.0000
  C   C130      1.0  0.18377  0.60685  0.12572  1.0000
  H   H210      1.0  0.17390  0.65110  0.08334  1.0000
  H   H211      1.0  0.21519  0.87137  0.47222  1.0000
  H   H212      1.0  0.24343  0.65351  0.36493  1.0000
  H   H213      1.0  0.25926  0.90316  0.46691  1.0000
  H   H214      1.0  0.08785  0.59645  0.00500  1.0000
  H   H215      1.0  0.27051  0.88957  0.35889  1.0000
  H   H216      1.0  0.03635  0.60009  0.03205  1.0000
  H   H217      1.0  0.20641  0.60085  0.11276  1.0000
  H   H218      1.0  0.29345  0.58911  0.16486  1.0000
  H   H219      1.0  0.33145  0.58411  0.36596  1.0000
  H   H220      1.0  0.06651  0.98445  0.28431  1.0000
  H   H221      1.0  0.28873  0.62209  0.27997  1.0000
  C   C131      1.0  0.19570  0.81646  0.47014  1.0000
  H   H222      1.0  0.31637  0.85010  0.46402  1.0000
  H   H223      1.0  0.27660  0.59677  0.35074  1.0000
  H   H224      1.0  0.01795  0.73026  0.40858  1.0000
  H   H225      1.0  0.00729  0.53048  0.17433  1.0000
  H   H226      1.0  0.30830  0.93219  0.28323  1.0000
  H   H227      1.0  0.31576  0.91124  0.45191  1.0000
  H   H228      1.0  0.20282  0.78637  0.47257  1.0000
  C   C132      1.0  0.02580  0.91587  0.33913  1.0000
  C   C133      1.0  0.03664  0.79544  0.46565  1.0000
  C   C134      1.0  0.02413  0.54823  0.11735  1.0000
  H   H229      1.0  0.16075  0.92022  0.47022  1.0000
  H   H230      1.0  0.00782  0.68714  0.43260  1.0000
  H   H231      1.0  0.01983  0.95197  0.38910  1.0000
  C   C135      1.0  0.33551  0.52331  0.28824  1.0000
  C   C136      1.0  0.07517  0.99777  0.40306  1.0000
  H   H232      1.0  0.32563  0.57639  0.22318  1.0000
  C   C137      1.0  0.02143  0.60640  0.15485  1.0000
  H   H233      1.0  0.01994  0.69390  0.20243  1.0000
  H   H234      1.0  0.28177  0.96546  0.47164  1.0000
  C   C138      1.0  0.26447  0.51467  0.09122  1.0000
  C   C139      1.0  0.01731  0.66284  0.20035  1.0000
  H   H235      1.0  0.31669  0.93671  0.33435  1.0000
  H   H236      1.0  0.30981  0.00106  0.36599  1.0000
  C   C140      1.0  0.33642  0.60359  0.22987  1.0000
  C   C141      1.0  0.29430  0.79717  0.47333  1.0000
  H   H237      1.0  0.02178  0.92615  0.45741  1.0000
  H   H238      1.0  0.31346  0.51638  0.09615  1.0000
  C   C142      1.0  0.04306  0.51435  0.98457  1.0000
  H   H239      1.0  0.26441  0.52084  0.06040  1.0000
  H   H240      1.0  0.04228  0.98450  0.44667  1.0000
  H   H241      1.0  0.06894  0.90718  0.52027  1.0000
  C   C143      1.0  0.04939  0.92383  0.50876  1.0000
  H   H242      1.0  0.07825  0.59708  0.84009  1.0000
  H   H243      1.0  0.03152  0.58538  0.80362  1.0000
  H   H244      1.0  0.04034  0.77579  0.52487  1.0000
  C   C144      1.0  0.02517  0.64339  0.78065  1.0000
  C   C145      1.0  0.07083  0.61726  0.81715  1.0000
  H   H245      1.0  0.31615  0.75560  0.51060  1.0000
  H   H246      1.0  0.08286  0.60979  0.78971  1.0000
  H   H247      1.0  0.03753  0.54800  0.93254  1.0000
  C   C146      1.0  0.02707  0.52759  0.95147  1.0000
  H   H248      1.0  0.10400  0.92790  0.48033  1.0000
  H   H249      1.0  0.03015  0.67176  0.79259  1.0000
  H   H250      1.0  0.05336  0.95422  0.51411  1.0000
  H   H251      1.0  0.02691  0.58913  0.72207  1.0000
  C   C147      1.0  0.31491  0.78678  0.50753  1.0000
  C   C148      1.0  0.03652  0.61490  0.81171  1.0000
  H   H252      1.0  0.03994  0.64064  0.75451  1.0000
  H   H253      1.0  0.02594  0.62155  0.84025  1.0000
  H   H254      1.0  0.07728  0.64612  0.82629  1.0000
  C   C149      1.0  0.02612  0.79045  0.50396  1.0000
  H   H255      1.0  0.18075  0.82344  0.49523  1.0000
  C   C150      1.0  0.02153  0.91239  0.53224  1.0000
  H   H256      1.0  0.01721  0.88179  0.52857  1.0000
  H   H257      1.0  0.28470  0.85352  0.49521  1.0000
  H   H258      1.0  0.23635  0.83511  0.49731  1.0000
  H   H259      1.0  0.30581  0.79897  0.53502  1.0000
  H   H260      1.0  0.02541  0.91795  0.56364  1.0000
  H   H261      1.0  0.33825  0.79716  0.50266  1.0000
  H   H262      1.0  0.00864  0.71916  0.76272  1.0000
  H   H263      1.0  0.27165  0.78546  0.47972  1.0000
  Fe  Fe13      1.0  0.42930  0.45299  0.19918  1.0000
  S   S28       1.0  0.40090  0.44607  0.14514  1.0000
  S   S29       1.0  0.43601  0.41362  0.25165  1.0000
  C   C151      1.0  0.55802  0.17315  0.46462  1.0000
  C   C152      1.0  0.34026  0.28590  0.38544  1.0000
  S   S30       1.0  0.45033  0.47897  0.05104  1.0000
  Fe  Fe14      1.0  0.43492  0.48469  0.11549  1.0000
  H   H264      1.0  0.36367  0.08063  0.30875  1.0000
  Fe  Fe15      1.0  0.42354  0.19874  0.32694  1.0000
  S   S31       1.0  0.40986  0.21893  0.38627  1.0000
  S   S32       1.0  0.43111  0.23494  0.27304  1.0000
  Fe  Fe16      1.0  0.41913  0.11512  0.35058  1.0000
  S   S33       1.0  0.40497  0.12951  0.41148  1.0000
  S   S34       1.0  0.42580  0.05575  0.32603  1.0000
  Fe  Fe17      1.0  0.37495  0.17365  0.38383  1.0000
  Fe  Fe18      1.0  0.44124  0.17342  0.40928  1.0000
  H   H265      1.0  0.63259  0.13596  0.44851  1.0000
  S   S35       1.0  0.38625  0.15629  0.32287  1.0000
  S   S36       1.0  0.45782  0.15620  0.34984  1.0000
  C   C153      1.0  0.53641  0.27469  0.45201  1.0000
  C   C154      1.0  0.36292  0.20708  0.20864  1.0000
  H   H266      1.0  0.45763  0.27807  0.38851  1.0000
  H   H267      1.0  0.36991  0.20631  0.17760  1.0000
  H   H268      1.0  0.36350  0.24885  0.27693  1.0000
  H   H269      1.0  0.41477  0.29287  0.43394  1.0000
  H   H270      1.0  0.66866  0.11391  0.43731  1.0000
  C   C155      1.0  0.65111  0.11766  0.46024  1.0000
  C   C156      1.0  0.43240  0.36396  0.25648  1.0000
  C   C157      1.0  0.42841  0.34851  0.29386  1.0000
  C   C158      1.0  0.42719  0.30912  0.29942  1.0000
  C   C159      1.0  0.43044  0.28474  0.26766  1.0000
  C   C160      1.0  0.43393  0.30016  0.23027  1.0000
  C   C161      1.0  0.43485  0.33953  0.22465  1.0000
  H   H271      1.0  0.42654  0.36718  0.31867  1.0000
  H   H272      1.0  0.42431  0.29764  0.32829  1.0000
  H   H273      1.0  0.43644  0.28152  0.20550  1.0000
  H   H274      1.0  0.43810  0.35095  0.19579  1.0000
  H   H275      1.0  0.53613  0.22852  0.29755  1.0000
  H   H276      1.0  0.35576  0.24737  0.34136  1.0000
  H   H277      1.0  0.52848  0.04982  0.41426  1.0000
  S   S37       1.0  0.46575  0.18632  0.46579  1.0000
  H   H278      1.0  0.62867  0.06626  0.44600  1.0000
  H   H279      1.0  0.36096  0.28055  0.40304  1.0000
  H   H280      1.0  0.52164  0.16679  0.42281  1.0000
  H   H281      1.0  0.57880  0.30069  0.46970  1.0000
  H   H282      1.0  0.36443  0.29614  0.33226  1.0000
  H   H283      1.0  0.37795  0.08935  0.24106  1.0000
  C   C162      1.0  0.51371  0.47953  0.04110  1.0000
  S   S38       1.0  0.40357  0.50473  0.21910  1.0000
  C   C163      1.0  0.43183  0.29331  0.45766  1.0000
  H   H284      1.0  0.51543  0.47460  0.07205  1.0000
  C   C164      1.0  0.48503  0.48217  0.02378  1.0000
  H   H285      1.0  0.51124  0.40252  0.98198  1.0000
  H   H286      1.0  0.35380  0.04012  0.28049  1.0000
  H   H287      1.0  0.39003  0.03790  0.39549  1.0000
  H   H288      1.0  0.34690  0.07455  0.36611  1.0000
  C   C165      1.0  0.54658  0.03245  0.42833  1.0000
  S   S39       1.0  0.46481  0.48781  0.16858  1.0000
  H   H289      1.0  0.34794  0.39283  0.24187  1.0000
  N   N11       1.0  0.50453  0.29449  0.39190  1.0000
  C   C166      1.0  0.49720  0.32840  0.36690  1.0000
  C   C167      1.0  0.47558  0.28166  0.41085  1.0000
  H   H290      1.0  0.52022  0.33145  0.43767  1.0000
  C   C168      1.0  0.51735  0.26226  0.36801  1.0000
  C   C169      1.0  0.49834  0.25067  0.33210  1.0000
  C   C170      1.0  0.52334  0.34289  0.34088  1.0000
  C   C171      1.0  0.54032  0.48299  0.01836  1.0000
  C   C172      1.0  0.51416  0.21887  0.30947  1.0000
  C   C173      1.0  0.51207  0.37436  0.31389  1.0000
  H   H291      1.0  0.48993  0.35272  0.38529  1.0000
  H   H292      1.0  0.47736  0.32280  0.34795  1.0000
  H   H293      1.0  0.54845  0.25083  0.43754  1.0000
  H   H294      1.0  0.56511  0.02775  0.40685  1.0000
  H   H295      1.0  0.54083  0.26837  0.35817  1.0000
  H   H296      1.0  0.51969  0.23643  0.38625  1.0000
  H   H297      1.0  0.49482  0.27445  0.31160  1.0000
  H   H298      1.0  0.47579  0.24049  0.34132  1.0000
  H   H299      1.0  0.54177  0.35450  0.35906  1.0000
  H   H300      1.0  0.53306  0.32026  0.32220  1.0000
  H   H301      1.0  0.45780  0.33689  0.43116  1.0000
  C   C174      1.0  0.34669  0.27676  0.34272  1.0000
  H   H302      1.0  0.51822  0.19396  0.32846  1.0000
  H   H303      1.0  0.49957  0.21015  0.28481  1.0000
  H   H304      1.0  0.49491  0.36345  0.29324  1.0000
  H   H305      1.0  0.50181  0.39804  0.33081  1.0000
  H   H306      1.0  0.53132  0.38538  0.29666  1.0000
  H   H307      1.0  0.38329  0.20137  0.22678  1.0000
  H   H308      1.0  0.34674  0.09965  0.43941  1.0000
  H   H309      1.0  0.36287  0.31510  0.26713  1.0000
  H   H310      1.0  0.54934  0.31336  0.40731  1.0000
  C   C175      1.0  0.35365  0.09234  0.24929  1.0000
  H   H311      1.0  0.57575  0.16629  0.44392  1.0000
  C   C176      1.0  0.55839  0.05306  0.46420  1.0000
  C   C177      1.0  0.52777  0.30556  0.42181  1.0000
  C   C178      1.0  0.34785  0.07009  0.28655  1.0000
  H   H312      1.0  0.37481  0.36335  0.21560  1.0000
  C   C179      1.0  0.63883  0.07927  0.47218  1.0000
  C   C180      1.0  0.46203  0.30810  0.44264  1.0000
  C   C181      1.0  0.52742  0.17341  0.45258  1.0000
  H   H313      1.0  0.56710  0.08057  0.45422  1.0000
  H   H314      1.0  0.51621  0.26358  0.46710  1.0000
  Fe  Fe19      1.0  0.37659  0.49950  0.16387  1.0000
  H   H315      1.0  0.47869  0.25318  0.42391  1.0000
  H   H316      1.0  0.47748  0.31006  0.46798  1.0000
  C   C182      1.0  0.35061  0.37198  0.21792  1.0000
  H   H317      1.0  0.59933  0.01811  0.46329  1.0000
  H   H318      1.0  0.36592  0.26734  0.21054  1.0000
  H   H319      1.0  0.56226  0.48107  0.03236  1.0000
  H   H320      1.0  0.34841  0.12278  0.25384  1.0000
  C   C183      1.0  0.48363  0.48718  0.98311  1.0000
  C   C184      1.0  0.34895  0.24573  0.21825  1.0000
  H   H321      1.0  0.45736  0.40450  0.00012  1.0000
  H   H322      1.0  0.34618  0.18450  0.21363  1.0000
  C   C185      1.0  0.34111  0.24886  0.26206  1.0000
  H   H323      1.0  0.47204  0.35692  0.00284  1.0000
  H   H324      1.0  0.34394  0.38594  0.19023  1.0000
  C   C186      1.0  0.46635  0.38042  0.98264  1.0000
  H   H325      1.0  0.43476  0.26435  0.46961  1.0000
  Fe  Fe20      1.0  0.61609  0.18193  0.58203  1.0000
  S   S40       1.0  0.58424  0.16264  0.62874  1.0000
  S   S41       1.0  0.60431  0.18210  0.51755  1.0000
  H   H326      1.0  0.64642  0.51141  0.66313  1.0000
  S   S42       1.0  0.63984  0.17315  0.69007  1.0000
  Fe  Fe21      1.0  0.62378  0.12698  0.65011  1.0000
  S   S43       1.0  0.63410  0.06501  0.66414  1.0000
  Fe  Fe22      1.0  0.60383  0.21077  0.66390  1.0000
  S   S44       1.0  0.57482  0.25675  0.69311  1.0000
  S   S45       1.0  0.65455  0.14396  0.60133  1.0000
  S   S46       1.0  0.63362  0.23158  0.61571  1.0000
  Fe  Fe23      1.0  0.61576  0.44149  0.82444  1.0000
  S   S47       1.0  0.63656  0.46035  0.88098  1.0000
  S   S48       1.0  0.61975  0.37723  0.81794  1.0000
  H   H327      1.0  0.53864  0.05780  0.48371  1.0000
  H   H328      1.0  0.54556  0.26229  0.85753  1.0000
  H   H329      1.0  0.51700  0.07814  0.57183  1.0000
  C   C187      1.0  0.55764  0.29012  0.48311  1.0000
  S   S49       1.0  0.57298  0.47617  0.83306  1.0000
  C   C188      1.0  0.56146  0.09527  0.55150  1.0000
  C   C189      1.0  0.49449  0.39267  0.96030  1.0000
  H   H330      1.0  0.49465  0.19890  0.53838  1.0000
  H   H331      1.0  0.64395  0.21938  0.80973  1.0000
  S   S50       1.0  0.57364  0.49275  0.95088  1.0000
  C   C190      1.0  0.58897  0.29072  0.72622  1.0000
  C   C191      1.0  0.58368  0.32951  0.71987  1.0000
  C   C192      1.0  0.59297  0.35665  0.74740  1.0000
  C   C193      1.0  0.60727  0.34511  0.78183  1.0000
  C   C194      1.0  0.61214  0.30636  0.78831  1.0000
  C   C195      1.0  0.60286  0.27937  0.76086  1.0000
  H   H332      1.0  0.57220  0.33857  0.69361  1.0000
  H   H333      1.0  0.58888  0.38637  0.74209  1.0000
  H   H334      1.0  0.62304  0.29710  0.81487  1.0000
  H   H335      1.0  0.60599  0.24960  0.76669  1.0000
  Fe  Fe24      1.0  0.66862  0.19134  0.63992  1.0000
  H   H336      1.0  0.55644  0.40568  0.95385  1.0000
  H   H337      1.0  0.51374  0.01516  0.59990  1.0000
  C   C196      1.0  0.54271  0.19086  0.52975  1.0000
  H   H338      1.0  0.54362  0.08897  0.61039  1.0000
  H   H339      1.0  0.63881  0.03545  0.55415  1.0000
  H   H340      1.0  0.54833  0.19793  0.55947  1.0000
  H   H341      1.0  0.63929  0.39273  0.93697  1.0000
  C   C197      1.0  0.54341  0.33559  0.88616  1.0000
  H   H342      1.0  0.52614  0.12620  0.58236  1.0000
  H   H343      1.0  0.58413  0.27804  0.86333  1.0000
  C   C198      1.0  0.56102  0.37818  0.93907  1.0000
  H   H344      1.0  0.59126  0.05647  0.57993  1.0000
  H   H345      1.0  0.47563  0.43585  0.81875  1.0000
  H   H346      1.0  0.56171  0.34287  0.86512  1.0000
  H   H347      1.0  0.57768  0.11765  0.55922  1.0000
  C   C199      1.0  0.56360  0.26855  0.87904  1.0000
  H   H348      1.0  0.59269  0.40367  0.89784  1.0000
  H   H349      1.0  0.56944  0.24218  0.89496  1.0000
  H   H350      1.0  0.50856  0.49491  0.92924  1.0000
  H   H351      1.0  0.55186  0.10260  0.52279  1.0000
  H   H352      1.0  0.62654  0.09696  0.53058  1.0000
  H   H353      1.0  0.51611  0.43748  0.81310  1.0000
  N   N12       1.0  0.53546  0.36901  0.91162  1.0000
  H   H354      1.0  0.56390  0.26726  0.50383  1.0000
  H   H355      1.0  0.46172  0.48825  0.96903  1.0000
  H   H356      1.0  0.57147  0.30356  0.92869  1.0000
  C   C200      1.0  0.52970  0.40268  0.88567  1.0000
  C   C201      1.0  0.50072  0.40121  0.86004  1.0000
  H   H357      1.0  0.51321  0.33660  0.95628  1.0000
  S   S51       1.0  0.63915  0.48668  0.79027  1.0000
  H   H358      1.0  0.49774  0.46241  0.85298  1.0000
  C   C202      1.0  0.59285  0.38140  0.92037  1.0000
  C   C203      1.0  0.49746  0.43648  0.83480  1.0000
  H   H359      1.0  0.61752  0.36978  0.97420  1.0000
  C   C204      1.0  0.51227  0.19143  0.51769  1.0000
  H   H360      1.0  0.53319  0.28737  0.92396  1.0000
  H   H361      1.0  0.48952  0.34858  0.91664  1.0000
  H   H362      1.0  0.52379  0.32803  0.86761  1.0000
  H   H363      1.0  0.66153  0.13204  0.48556  1.0000
  C   C205      1.0  0.61659  0.39143  0.95089  1.0000
  H   H364      1.0  0.66151  0.26499  0.76010  1.0000
  H   H365      1.0  0.52877  0.42926  0.90300  1.0000
  H   H366      1.0  0.54911  0.40628  0.86537  1.0000
  H   H367      1.0  0.47993  0.39948  0.87804  1.0000
  H   H368      1.0  0.50148  0.37656  0.84017  1.0000
  H   H369      1.0  0.56257  0.35714  0.96303  1.0000
  H   H370      1.0  0.59840  0.10500  0.49509  1.0000
  C   C206      1.0  0.53553  0.09697  0.58094  1.0000
  N   N13       1.0  0.59962  0.04799  0.51824  1.0000
  C   C207      1.0  0.50783  0.35977  0.93548  1.0000
  C   C208      1.0  0.55280  0.29883  0.90778  1.0000
  C   C209      1.0  0.57842  0.05651  0.55195  1.0000
  H   H371      1.0  0.65173  0.29183  0.70303  1.0000
  C   C210      1.0  0.56575  0.18201  0.50324  1.0000
  H   H372      1.0  0.56936  0.04709  0.65475  1.0000
  Fe  Fe25      1.0  0.59422  0.49633  0.88881  1.0000
  C   C211      1.0  0.66365  0.20180  0.80016  1.0000
  H   H373      1.0  0.42309  0.31194  0.48126  1.0000
  Fe  Fe26      1.0  0.65667  0.50779  0.84732  1.0000
  H   H374      1.0  0.54629  0.31323  0.49972  1.0000
  H   H375      1.0  0.44833  0.37139  0.96225  1.0000
  H   H376      1.0  0.60034  0.35454  0.90659  1.0000
  C   C212      1.0  0.51025  0.49067  0.96032  1.0000
  C   C213      1.0  0.58245  0.02108  0.65502  1.0000
  H   H377      1.0  0.64148  0.34189  0.65621  1.0000
  H   H378      1.0  0.61127  0.41945  0.96398  1.0000
  C   C214      1.0  0.53892  0.48868  0.97780  1.0000
  H   H379      1.0  0.66947  0.18171  0.82387  1.0000
  C   C215      1.0  0.61508  0.08358  0.50527  1.0000
  H   H380      1.0  0.56143  0.03383  0.55504  1.0000
  H   H381      1.0  0.48772  0.41692  0.94182  1.0000
  H   H382      1.0  0.67114  0.31090  0.63840  1.0000
  C   C216      1.0  0.61394  0.02218  0.65979  1.0000
  C   C217      1.0  0.62409  0.02104  0.53246  1.0000
  C   C218      1.0  0.66530  0.33228  0.66098  1.0000
  H   H383      1.0  0.65717  0.18535  0.77405  1.0000
  C   C219      1.0  0.58297  0.02914  0.48536  1.0000
  H   H384      1.0  0.65857  0.06188  0.48168  1.0000
  C   C220      1.0  0.66820  0.31513  0.70157  1.0000
  H   H385      1.0  0.66154  0.33723  0.72291  1.0000
  C   C221      1.0  0.50444  0.18289  0.47913  1.0000
  Fe  Fe27      1.0  0.35584  0.76331  0.37380  1.0000
  S   S52       1.0  0.37031  0.80289  0.32661  1.0000
  Fe  Fe28      1.0  0.41427  0.77639  0.42147  1.0000
  S   S53       1.0  0.43278  0.81628  0.37723  1.0000
  C   C222      1.0  0.51698  0.78822  0.33269  1.0000
  Fe  Fe29      1.0  0.38552  0.84124  0.37518  1.0000
  S   S54       1.0  0.37056  0.90190  0.38848  1.0000
  Fe  Fe30      1.0  0.41580  0.77384  0.33333  1.0000
  S   S55       1.0  0.44550  0.75297  0.28375  1.0000
  S   S56       1.0  0.36773  0.80297  0.42202  1.0000
  S   S57       1.0  0.40068  0.73254  0.37787  1.0000
  H   H386      1.0  0.38196  0.63522  0.33386  1.0000
  C   C223      1.0  0.37481  0.62709  0.39491  1.0000
  S   S58       1.0  0.46179  0.59120  0.20446  1.0000
  H   H387      1.0  0.44286  0.64059  0.46633  1.0000
  H   H388      1.0  0.43120  0.97945  0.29914  1.0000
  H   H389      1.0  0.38665  0.65347  0.40251  1.0000
  C   C224      1.0  0.49438  0.78578  0.46155  1.0000
  H   H390      1.0  0.48515  0.79531  0.43411  1.0000
  C   C225      1.0  0.38812  0.94382  0.37240  1.0000
  C   C226      1.0  0.40616  0.94458  0.33897  1.0000
  C   C227      1.0  0.38234  0.97772  0.39262  1.0000
  H   H391      1.0  0.41067  0.91879  0.32300  1.0000
  H   H392      1.0  0.53832  0.71774  0.33129  1.0000
  C   C228      1.0  0.44780  0.70690  0.26359  1.0000
  C   C229      1.0  0.47261  0.69880  0.23946  1.0000
  C   C230      1.0  0.47623  0.66325  0.22225  1.0000
  C   C231      1.0  0.45468  0.63520  0.22773  1.0000
  C   C232      1.0  0.42976  0.64280  0.25217  1.0000
  C   C233      1.0  0.42636  0.67863  0.27035  1.0000
  H   H393      1.0  0.48933  0.72023  0.23413  1.0000
  H   H394      1.0  0.49589  0.65758  0.20417  1.0000
  H   H395      1.0  0.41359  0.62092  0.25742  1.0000
  H   H396      1.0  0.40715  0.68459  0.28907  1.0000
  H   H397      1.0  0.41583  0.65839  0.15667  1.0000
  N   N14       1.0  0.47055  0.61333  0.06874  1.0000
  C   C234      1.0  0.45688  0.58265  0.04408  1.0000
  C   C235      1.0  0.48980  0.59634  0.10093  1.0000
  C   C236      1.0  0.44467  0.63507  0.08759  1.0000
  C   C237      1.0  0.48877  0.64055  0.04483  1.0000
  C   C238      1.0  0.51474  0.62320  0.01993  1.0000
  C   C239      1.0  0.43458  0.59595  0.01180  1.0000
  C   C240      1.0  0.45379  0.66627  0.11697  1.0000
  H   H398      1.0  0.37121  0.63820  0.20304  1.0000
  H   H399      1.0  0.43102  0.68143  0.43872  1.0000
  H   H400      1.0  0.51879  0.55847  0.06451  1.0000
  H   H401      1.0  0.37892  0.58792  0.20103  1.0000
  C   C241      1.0  0.42614  0.68132  0.13930  1.0000
  H   H402      1.0  0.44433  0.56271  0.06299  1.0000
  H   H403      1.0  0.47463  0.56491  0.02991  1.0000
  H   H404      1.0  0.50682  0.61693  0.11136  1.0000
  H   H405      1.0  0.41303  0.60646  0.02490  1.0000
  H   H406      1.0  0.42944  0.61515  0.10302  1.0000
  H   H407      1.0  0.43042  0.64960  0.06536  1.0000
  H   H408      1.0  0.47368  0.65752  0.02548  1.0000
  H   H409      1.0  0.49961  0.66167  0.06408  1.0000
  H   H410      1.0  0.49340  0.64179  0.43363  1.0000
  H   H411      1.0  0.53290  0.61182  0.03907  1.0000
  H   H412      1.0  0.46215  0.68448  0.47278  1.0000
  C   C242      1.0  0.45093  0.66613  0.45107  1.0000
  H   H413      1.0  0.46406  0.69038  0.10143  1.0000
  H   H414      1.0  0.46246  0.63310  0.40080  1.0000
  H   H415      1.0  0.51709  0.76096  0.38811  1.0000
  H   H416      1.0  0.47030  0.65570  0.13875  1.0000
  H   H417      1.0  0.35075  0.60871  0.16963  1.0000
  H   H418      1.0  0.53990  0.52084  0.11894  1.0000
  C   C243      1.0  0.52916  0.65306  0.99406  1.0000
  H   H419      1.0  0.55873  0.67533  0.37317  1.0000
  C   C244      1.0  0.51458  0.71719  0.34235  1.0000
  C   C245      1.0  0.57136  0.68557  0.45112  1.0000
  H   H420      1.0  0.54207  0.78776  0.32987  1.0000
  C   C246      1.0  0.35018  0.60375  0.27135  1.0000
  C   C247      1.0  0.41770  0.97906  0.32544  1.0000
  H   H421      1.0  0.43320  0.70387  0.15970  1.0000
  H   H422      1.0  0.59221  0.68257  0.43316  1.0000
  H   H423      1.0  0.48149  0.65306  0.32792  1.0000
  H   H424      1.0  0.53849  0.67627  0.01196  1.0000
  H   H425      1.0  0.50972  0.81589  0.34503  1.0000
  H   H426      1.0  0.34758  0.52795  0.26044  1.0000
  H   H427      1.0  0.40894  0.69327  0.11900  1.0000
  C   C248      1.0  0.36088  0.61007  0.19914  1.0000
  H   H428      1.0  0.35599  0.62334  0.41601  1.0000
  H   H429      1.0  0.53773  0.64530  0.40330  1.0000
  H   H430      1.0  0.48164  0.75952  0.36294  1.0000
  H   H431      1.0  0.54010  0.80265  0.44823  1.0000
  H   H432      1.0  0.47545  0.59002  0.12664  1.0000
  H   H433      1.0  0.35963  0.63243  0.27540  1.0000
  H   H434      1.0  0.36453  0.57120  0.33987  1.0000
  H   H435      1.0  0.48968  0.53551  0.09188  1.0000
  H   H436      1.0  0.50008  0.71514  0.31594  1.0000
  H   H437      1.0  0.49805  0.60315  0.27914  1.0000
  H   H438      1.0  0.50663  0.78535  0.30340  1.0000
  C   C249      1.0  0.54499  0.70108  0.42678  1.0000
  C   C250      1.0  0.50660  0.75655  0.35949  1.0000
  H   H439      1.0  0.46233  0.69629  0.37509  1.0000
  H   H440      1.0  0.37014  0.58410  0.27186  1.0000
  C   C251      1.0  0.52932  0.54892  0.12470  1.0000
  H   H441      1.0  0.52602  0.58050  0.30990  1.0000
  H   H442      1.0  0.50271  0.62339  0.35998  1.0000
  S   S59       1.0  0.40797  0.53768  0.13086  1.0000
  H   H443      1.0  0.39122  0.60312  0.39746  1.0000
  H   H444      1.0  0.57610  0.70538  0.47537  1.0000
  C   C252      1.0  0.50403  0.64971  0.34245  1.0000
  H   H445      1.0  0.48468  0.71386  0.41315  1.0000
  Fe  Fe31      1.0  0.43630  0.53882  0.18516  1.0000
  H   H446      1.0  0.56560  0.65781  0.46389  1.0000
  H   H447      1.0  0.52650  0.66447  0.28733  1.0000
  C   C253      1.0  0.47340  0.65481  0.41916  1.0000
  C   C254      1.0  0.48230  0.68909  0.39368  1.0000
  H   H448      1.0  0.36859  0.97735  0.41866  1.0000
  C   C255      1.0  0.52771  0.64199  0.30978  1.0000
  H   H449      1.0  0.53714  0.60097  0.26414  1.0000
  C   C256      1.0  0.52181  0.60436  0.28960  1.0000
  N   N15       1.0  0.51000  0.68329  0.36837  1.0000
  H   H450      1.0  0.55114  0.64070  0.32134  1.0000
  H   H451      1.0  0.55198  0.72911  0.41620  1.0000
  C   C257      1.0  0.53821  0.67469  0.39197  1.0000
  H   H452      1.0  0.43865  0.88273  0.43356  1.0000
  H   H453      1.0  0.41760  0.53931  0.00120  1.0000
  H   H454      1.0  0.51779  0.54797  0.15346  1.0000
  C   C258      1.0  0.34629  0.59312  0.34155  1.0000
  C   C259      1.0  0.39437  0.01210  0.37949  1.0000
  C   C260      1.0  0.50652  0.55846  0.09257  1.0000
  H   H455      1.0  0.50664  0.60055  0.00047  1.0000
  C   C261      1.0  0.36245  0.62996  0.35348  1.0000
  H   H456      1.0  0.52538  0.70432  0.44674  1.0000
  H   H457      1.0  0.34322  0.95343  0.29847  1.0000
  H   H458      1.0  0.43771  0.84240  0.46541  1.0000
  H   H459      1.0  0.54751  0.57022  0.12562  1.0000
  H   H460      1.0  0.35264  0.51884  0.31139  1.0000
  H   H461      1.0  0.48752  0.87435  0.46731  1.0000
  C   C262      1.0  0.52543  0.79015  0.46976  1.0000
  H   H462      1.0  0.34702  0.65480  0.35225  1.0000
  C   C263      1.0  0.43904  0.87358  0.46446  1.0000
  H   H463      1.0  0.53681  0.00487  0.43658  1.0000
  H   H464      1.0  0.57877  0.91276  0.47088  1.0000
  H   H465      1.0  0.44438  0.61857  0.99371  1.0000
  H   H466      1.0  0.34116  0.01247  0.33684  1.0000
  C   C264      1.0  0.41174  0.01302  0.34542  1.0000
  C   C265      1.0  0.42656  0.56359  0.98453  1.0000
  Fe  Fe32      1.0  0.61060  0.77108  0.65862  1.0000
  S   S60       1.0  0.63690  0.76257  0.60270  1.0000
  S   S61       1.0  0.61315  0.73090  0.71118  1.0000
  Fe  Fe33      1.0  0.59261  0.85373  0.63667  1.0000
  S   S62       1.0  0.61774  0.84977  0.58042  1.0000
  S   S63       1.0  0.56559  0.90840  0.64673  1.0000
  Fe  Fe34      1.0  0.59681  0.79274  0.57443  1.0000
  S   S64       1.0  0.57700  0.78298  0.51407  1.0000
  H   H467      1.0  0.58578  0.89072  0.51726  1.0000
  S   S65       1.0  0.56950  0.79770  0.62946  1.0000
  S   S66       1.0  0.63093  0.82811  0.67088  1.0000
  H   H468      1.0  0.66002  0.66278  0.82888  1.0000
  N   N16       1.0  0.49306  0.89269  0.55256  1.0000
  S   S67       1.0  0.58049  0.55986  0.75291  1.0000
  C   C266      1.0  0.60272  0.68357  0.72185  1.0000
  C   C267      1.0  0.60692  0.67005  0.75999  1.0000
  C   C268      1.0  0.60075  0.63225  0.76980  1.0000
  C   C269      1.0  0.58942  0.60759  0.74175  1.0000
  C   C270      1.0  0.58459  0.62129  0.70374  1.0000
  C   C271      1.0  0.59141  0.65893  0.69372  1.0000
  H   H469      1.0  0.63188  0.93339  0.57842  1.0000
  H   H470      1.0  0.60429  0.62238  0.79924  1.0000
  H   H471      1.0  0.57558  0.60261  0.68185  1.0000
  H   H472      1.0  0.58781  0.66887  0.66433  1.0000
  C   C272      1.0  0.61590  0.95307  0.65785  1.0000
  C   C273      1.0  0.58452  0.95188  0.65263  1.0000
  C   C274      1.0  0.50111  0.99960  0.57724  1.0000
  H   H473      1.0  0.62902  0.92704  0.65905  1.0000
  H   H474      1.0  0.54371  0.93779  0.52079  1.0000
  H   H475      1.0  0.49564  0.95164  0.61413  1.0000
  C   C275      1.0  0.48884  0.87760  0.59333  1.0000
  C   C276      1.0  0.48750  0.75758  0.52482  1.0000
  C   C277      1.0  0.51843  0.76254  0.53331  1.0000
  C   C278      1.0  0.53760  0.77855  0.50566  1.0000
  H   H476      1.0  0.49033  0.94788  0.52524  1.0000
  H   H477      1.0  0.47294  0.74465  0.54620  1.0000
  H   H478      1.0  0.52757  0.75326  0.56096  1.0000
  H   H479      1.0  0.52886  0.94941  0.58383  1.0000
  H   H480      1.0  0.52633  0.85400  0.52806  1.0000
  H   H481      1.0  0.50614  0.88950  0.61326  1.0000
  H   H482      1.0  0.61536  0.68889  0.78210  1.0000
  H   H483      1.0  0.46913  0.83192  0.65472  1.0000
  C   C279      1.0  0.50440  0.95722  0.58439  1.0000
  H   H484      1.0  0.50996  0.83616  0.65703  1.0000
  Fe  Fe35      1.0  0.59837  0.52369  0.80353  1.0000
  H   H485      1.0  0.51303  0.82339  0.58537  1.0000
  H   H486      1.0  0.65398  0.95053  0.53832  1.0000
  S   S68       1.0  0.61657  0.54635  0.85977  1.0000
  H   H487      1.0  0.59959  0.96698  0.53097  1.0000
  H   H488      1.0  0.57096  0.00389  0.49616  1.0000
  H   H489      1.0  0.54342  0.98532  0.64949  1.0000
  H   H490      1.0  0.49338  0.79187  0.64367  1.0000
  H   H491      1.0  0.59916  0.98983  0.57763  1.0000
  C   C280      1.0  0.46992  0.87392  0.52685  1.0000
  H   H492      1.0  0.65011  0.57470  0.74768  1.0000
  H   H493      1.0  0.64936  0.67295  0.64411  1.0000
  C   C281      1.0  0.52505  0.88342  0.53933  1.0000
  C   C282      1.0  0.49092  0.82300  0.64106  1.0000
  H   H494      1.0  0.66300  0.64451  0.75955  1.0000
  H   H495      1.0  0.46634  0.88667  0.60523  1.0000
  H   H496      1.0  0.51224  0.66486  0.97326  1.0000
  Fe  Fe36      1.0  0.65503  0.82069  0.61370  1.0000
  H   H497      1.0  0.51041  0.00712  0.54828  1.0000
  H   H498      1.0  0.47223  0.81986  0.58393  1.0000
  C   C283      1.0  0.48631  0.93454  0.55384  1.0000
  C   C284      1.0  0.49150  0.83418  0.59812  1.0000
  C   C285      1.0  0.61315  0.98392  0.55149  1.0000
  C   C286      1.0  0.64017  0.95924  0.56394  1.0000
  H   H499      1.0  0.54107  0.88364  0.56444  1.0000
  C   C287      1.0  0.56923  0.89358  0.49311  1.0000
  H   H500      1.0  0.65451  0.98833  0.66681  1.0000
  C   C288      1.0  0.64412  0.53227  0.68709  1.0000
  H   H501      1.0  0.44688  0.87737  0.53997  1.0000
  H   H502      1.0  0.47431  0.84300  0.52523  1.0000
  C   C289      1.0  0.56780  0.98604  0.65196  1.0000
  H   H503      1.0  0.46175  0.93970  0.56002  1.0000
  C   C290      1.0  0.47539  0.76891  0.48883  1.0000
  H   H504      1.0  0.65158  0.62204  0.69706  1.0000
  H   H505      1.0  0.63599  0.55947  0.67473  1.0000
  H   H506      1.0  0.47688  0.00857  0.57875  1.0000
  H   H507      1.0  0.62679  0.52181  0.70770  1.0000
  H   H508      1.0  0.44691  0.55433  0.96782  1.0000
  C   C291      1.0  0.63037  0.98796  0.66195  1.0000
  C   C292      1.0  0.53909  0.90966  0.50818  1.0000
  H   H509      1.0  0.63916  0.01210  0.50810  1.0000
  H   H510      1.0  0.40895  0.57315  0.96353  1.0000
  H   H511      1.0  0.65475  0.97453  0.58482  1.0000
  H   H512      1.0  0.54804  0.64000  0.97706  1.0000
  H   H513      1.0  0.46832  0.91789  0.48049  1.0000
  H   H514      1.0  0.52400  0.91392  0.48291  1.0000
  C   C293      1.0  0.46818  0.88690  0.48382  1.0000
  H   H515      1.0  0.56597  0.86545  0.47957  1.0000
  S   S69       1.0  0.43652  0.76147  0.47914  1.0000
  H   H516      1.0  0.41876  0.88601  0.47912  1.0000
  C   C294      1.0  0.97873  0.07044  0.44847  1.0000
  C   C295      1.0  0.00070  0.47505  0.00062  1.0000
  H   H517      1.0  0.97318  0.05211  0.38836  1.0000
  C   C296      1.0  0.96796  0.03397  0.46892  1.0000
  H   H518      1.0  0.90965  0.04052  0.46861  1.0000
  H   H519      1.0  0.98655  0.48581  0.10223  1.0000
  C   C297      1.0  0.99146  0.06185  0.40798  1.0000
  H   H520      1.0  0.98413  0.23474  0.35145  1.0000
  H   H521      1.0  0.99014  0.45484  0.01971  1.0000
  C   C298      1.0  0.99514  0.48811  0.13251  1.0000
  H   H522      1.0  0.99046  0.20324  0.43577  1.0000
  H   H523      1.0  0.97834  0.47540  0.15247  1.0000
  H   H524      1.0  0.00130  0.08784  0.39542  1.0000
  H   H525      1.0  0.99696  0.08388  0.46567  1.0000
  H   H526      1.0  0.99853  0.15594  0.24544  1.0000
  H   H527      1.0  0.95985  0.09123  0.44512  1.0000
  H   H528      1.0  0.99572  0.37447  0.42075  1.0000
  H   H529      1.0  0.99326  0.36605  0.47233  1.0000
  H   H530      1.0  0.00481  0.29382  0.37616  1.0000
  H   H531      1.0  0.98832  0.01584  0.47446  1.0000
  H   H532      1.0  0.95454  0.01786  0.44726  1.0000
  Fe  Fe37      1.0  0.94298  0.20031  0.56768  1.0000
  S   S70       1.0  0.96103  0.18952  0.62806  1.0000
  S   S71       1.0  0.96693  0.21754  0.51187  1.0000
  Fe  Fe38      1.0  0.87881  0.17578  0.58951  1.0000
  S   S72       1.0  0.89199  0.16211  0.65090  1.0000
  S   S73       1.0  0.83329  0.16388  0.56206  1.0000
  Fe  Fe39      1.0  0.91735  0.21718  0.64909  1.0000
  S   S74       1.0  0.90829  0.25445  0.70255  1.0000
  Fe  Fe40      1.0  0.93409  0.13589  0.62511  1.0000
  S   S75       1.0  0.95577  0.07926  0.64076  1.0000
  S   S76       1.0  0.90124  0.23215  0.58875  1.0000
  S   S77       1.0  0.91895  0.14538  0.56378  1.0000
  S   S78       1.0  0.71583  0.20649  0.65969  1.0000
  H   H533      1.0  0.91068  0.44730  0.63388  1.0000
  Fe  Fe41      1.0  0.93204  0.45737  0.79080  1.0000
  S   S79       1.0  0.92182  0.45327  0.85450  1.0000
  S   S80       1.0  0.95831  0.41504  0.75347  1.0000
  H   H534      1.0  0.70578  0.12318  0.67312  1.0000
  H   H535      1.0  0.86434  0.40977  0.64181  1.0000
  H   H536      1.0  0.72688  0.40320  0.80678  1.0000
  H   H537      1.0  0.80053  0.27800  0.76982  1.0000
  H   H538      1.0  0.71810  0.03129  0.57045  1.0000
  H   H539      1.0  0.99788  0.45593  0.87919  1.0000
  H   H540      1.0  0.75142  0.05878  0.56442  1.0000
  H   H541      1.0  0.85412  0.31157  0.68700  1.0000
  H   H542      1.0  0.91966  0.40086  0.65215  1.0000
  C   C299      1.0  0.70218  0.31340  0.78050  1.0000
  H   H543      1.0  0.86402  0.32973  0.81686  1.0000
  H   H544      1.0  0.85600  0.33719  0.74510  1.0000
  C   C300      1.0  0.93460  0.03757  0.63620  1.0000
  C   C301      1.0  0.84605  0.33055  0.66349  1.0000
  H   H545      1.0  0.73831  0.23735  0.73903  1.0000
  H   H546      1.0  0.89177  0.06627  0.62908  1.0000
  C   C302      1.0  0.84637  0.35196  0.82147  1.0000
  C   C303      1.0  0.92385  0.29832  0.71643  1.0000
  C   C304      1.0  0.94377  0.31822  0.69265  1.0000
  C   C305      1.0  0.95454  0.35366  0.70467  1.0000
  C   C306      1.0  0.94485  0.37000  0.73995  1.0000
  C   C307      1.0  0.92530  0.34986  0.76397  1.0000
  C   C308      1.0  0.91514  0.31408  0.75238  1.0000
  H   H547      1.0  0.95087  0.30630  0.66505  1.0000
  H   H548      1.0  0.97005  0.36878  0.68615  1.0000
  H   H549      1.0  0.91838  0.36159  0.79169  1.0000
  H   H550      1.0  0.90029  0.29844  0.77128  1.0000
  C   C309      1.0  0.80070  0.17684  0.58876  1.0000
  C   C310      1.0  0.80310  0.19258  0.62588  1.0000
  C   C311      1.0  0.77681  0.20146  0.64725  1.0000
  C   C312      1.0  0.74801  0.19503  0.63156  1.0000
  C   C313      1.0  0.74553  0.17969  0.59427  1.0000
  C   C314      1.0  0.77186  0.17044  0.57298  1.0000
  H   H551      1.0  0.82524  0.19755  0.63824  1.0000
  H   H552      1.0  0.77883  0.21313  0.67610  1.0000
  H   H553      1.0  0.72337  0.17511  0.58184  1.0000
  H   H554      1.0  0.76995  0.15842  0.54416  1.0000
  C   C315      1.0  0.82511  0.08747  0.63104  1.0000
  H   H555      1.0  0.85150  0.36699  0.84902  1.0000
  H   H556      1.0  0.74591  0.34129  0.78562  1.0000
  C   C316      1.0  0.72198  0.07678  0.61369  1.0000
  C   C317      1.0  0.98533  0.38188  0.88830  1.0000
  C   C318      1.0  0.71071  0.08403  0.54158  1.0000
  H   H557      1.0  0.97000  0.38253  0.86259  1.0000
  C   C319      1.0  0.79778  0.47628  0.85280  1.0000
  H   H558      1.0  0.77373  0.42473  0.86311  1.0000
  H   H559      1.0  0.78104  0.46472  0.76711  1.0000
  H   H560      1.0  0.68594  0.08499  0.54747  1.0000
  H   H561      1.0  0.92031  0.08534  0.48568  1.0000
  H   H562      1.0  0.78140  0.06930  0.67874  1.0000
  N   N17       1.0  0.70697  0.28404  0.74909  1.0000
  H   H563      1.0  0.82385  0.33868  0.82448  1.0000
  H   H564      1.0  0.74583  0.26387  0.78189  1.0000
  H   H565      1.0  0.71053  0.20756  0.78534  1.0000
  H   H566      1.0  0.67798  0.32277  0.78160  1.0000
  C   C320      1.0  0.76403  0.28593  0.72759  1.0000
  C   C321      1.0  0.73848  0.26665  0.75100  1.0000
  H   H567      1.0  0.76709  0.10990  0.65385  1.0000
  H   H568      1.0  0.82372  0.11688  0.64210  1.0000
  H   H569      1.0  0.82882  0.40200  0.79479  1.0000
  H   H570      1.0  0.72586  0.10768  0.61234  1.0000
  H   H571      1.0  0.86860  0.39377  0.78722  1.0000
  C   C322      1.0  0.72208  0.34891  0.77836  1.0000
  C   C323      1.0  0.84618  0.38012  0.78784  1.0000
  C   C324      1.0  0.79396  0.07395  0.61799  1.0000
  C   C325      1.0  0.83903  0.36038  0.74866  1.0000
  C   C326      1.0  0.71161  0.37862  0.80794  1.0000
  H   H572      1.0  0.78707  0.09146  0.59266  1.0000
  H   H573      1.0  0.88583  0.37190  0.70153  1.0000
  Fe  Fe42      1.0  0.94027  0.51194  0.86040  1.0000
  H   H574      1.0  0.81702  0.34596  0.75220  1.0000
  H   H575      1.0  0.71452  0.07146  0.51236  1.0000
  C   C327      1.0  0.96452  0.06794  0.53221  1.0000
  H   H576      1.0  0.84430  0.28362  0.62303  1.0000
  H   H577      1.0  0.76422  0.31683  0.73163  1.0000
  C   C328      1.0  0.81921  0.42017  0.71968  1.0000
  H   H578      1.0  0.70762  0.09361  0.75737  1.0000
  H   H579      1.0  0.67997  0.50873  0.72182  1.0000
  H   H580      1.0  0.67435  0.09744  0.72667  1.0000
  H   H581      1.0  0.88015  0.41307  0.72918  1.0000
  H   H582      1.0  0.72239  0.45484  0.85926  1.0000
  H   H583      1.0  0.86433  0.45063  0.67305  1.0000
  C   C329      1.0  0.91870  0.05524  0.49464  1.0000
  S   S81       1.0  0.88685  0.48238  0.77493  1.0000
  H   H584      1.0  0.71660  0.32317  0.70202  1.0000
  H   H585      1.0  0.68818  0.38867  0.80126  1.0000
  C   C330      1.0  0.90326  0.03915  0.63054  1.0000
  C   C331      1.0  0.93718  0.38146  0.92907  1.0000
  Fe  Fe43      1.0  0.87745  0.48240  0.83900  1.0000
  H   H586      1.0  0.76949  0.46959  0.71679  1.0000
  C   C332      1.0  0.87474  0.42233  0.66803  1.0000
  H   H587      1.0  0.83443  0.06891  0.65430  1.0000
  C   C333      1.0  0.79512  0.26994  0.73940  1.0000
  H   H588      1.0  0.99302  0.35447  0.81455  1.0000
  C   C334      1.0  0.87062  0.39706  0.70443  1.0000
  N   N18       1.0  0.74027  0.05951  0.64649  1.0000
  H   H589      1.0  0.70566  0.27819  0.68670  1.0000
  N   N19       1.0  0.83858  0.38530  0.71307  1.0000
  C   C335      1.0  0.86486  0.07418  0.51377  1.0000
  H   H590      1.0  0.86630  0.34185  0.64853  1.0000
  C   C336      1.0  0.82903  0.30655  0.63393  1.0000
  H   H591      1.0  0.73472  0.05057  0.70852  1.0000
  C   C337      1.0  0.00245  0.19909  0.49629  1.0000
  H   H592      1.0  0.96226  0.43097  0.91502  1.0000
  H   H593      1.0  0.80367  0.35059  0.68820  1.0000
  H   H594      1.0  0.78484  0.39529  0.75901  1.0000
  H   H595      1.0  0.82157  0.32397  0.60876  1.0000
  H   H596      1.0  0.74586  0.44503  0.75096  1.0000
  C   C338      1.0  0.82562  0.36319  0.67956  1.0000
  C   C339      1.0  0.70091  0.30009  0.70910  1.0000
  S   S82       1.0  0.83390  0.45437  0.85791  1.0000
  H   H597      1.0  0.83014  0.43919  0.74118  1.0000
  H   H598      1.0  0.80897  0.29327  0.64749  1.0000
  H   H599      1.0  0.95084  0.07189  0.55902  1.0000
  H   H600      1.0  0.86926  0.10463  0.50909  1.0000
  H   H601      1.0  0.81754  0.43707  0.69250  1.0000
  H   H602      1.0  0.81984  0.38212  0.65475  1.0000
  H   H603      1.0  0.98000  0.40027  0.94980  1.0000
  H   H604      1.0  0.76090  0.28031  0.69601  1.0000
  H   H605      1.0  0.96471  0.09645  0.51859  1.0000
  H   H606      1.0  0.77319  0.39924  0.70910  1.0000
  H   H607      1.0  0.96189  0.47896  0.96211  1.0000
  N   N20       1.0  0.94970  0.03983  0.50566  1.0000
  C   C340      1.0  0.96731  0.40112  0.92197  1.0000
  C   C341      1.0  0.68453  0.25289  0.75598  1.0000
  H   H608      1.0  0.92430  0.39660  0.95225  1.0000
  H   H609      1.0  0.70005  0.05253  0.68210  1.0000
  H   H610      1.0  0.79569  0.23868  0.73705  1.0000
  H   H611      1.0  0.90149  0.06653  0.55401  1.0000
  C   C342      1.0  0.90831  0.42820  0.65924  1.0000
  C   C343      1.0  0.78600  0.41324  0.73270  1.0000
  C   C344      1.0  0.76969  0.45048  0.74237  1.0000
  H   H612      1.0  0.73872  0.12096  0.70420  1.0000
  C   C345      1.0  0.71719  0.10695  0.69665  1.0000
  C   C346      1.0  0.69086  0.22662  0.79141  1.0000
  H   H613      1.0  0.91981  0.44118  0.68457  1.0000
  H   H614      1.0  0.94121  0.35188  0.93860  1.0000
  C   C347      1.0  0.77154  0.45462  0.85727  1.0000
  C   C348      1.0  0.74244  0.47156  0.85505  1.0000
  H   H615      1.0  0.79703  0.04430  0.60858  1.0000
  H   H616      1.0  0.81294  0.28104  0.71998  1.0000
  H   H617      1.0  0.92311  0.38145  0.90227  1.0000
  C   C349      1.0  0.77040  0.07882  0.65115  1.0000
  H   H618      1.0  0.84105  0.08682  0.60604  1.0000
  C   C350      1.0  0.72290  0.06532  0.68408  1.0000
  H   H619      1.0  0.72114  0.36244  0.74937  1.0000
  H   H620      1.0  0.70651  0.30110  0.80967  1.0000
  H   H621      1.0  0.69719  0.07418  0.61948  1.0000
  C   C351      1.0  0.89382  0.05348  0.52659  1.0000
  H   H622      1.0  0.71946  0.11325  0.54133  1.0000
  C   C352      1.0  0.72715  0.06027  0.57232  1.0000
  H   H623      1.0  0.68037  0.35690  0.65790  1.0000
  C   C353      1.0  0.74573  0.01762  0.64145  1.0000
  C   C354      1.0  0.99705  0.05753  0.54621  1.0000
  H   H624      1.0  0.71213  0.36699  0.83794  1.0000
  C   C355      1.0  0.69704  0.10927  0.73279  1.0000
  C   C356      1.0  0.98471  0.48833  0.96758  1.0000
  H   H625      1.0  0.98823  0.35155  0.89632  1.0000
  H   H626      1.0  0.99401  0.43327  0.83407  1.0000
  H   H627      1.0  0.88771  0.02384  0.53291  1.0000
  C   C357      1.0  0.73945  0.51042  0.84890  1.0000
  H   H628      1.0  0.84728  0.07185  0.53675  1.0000
  H   H629      1.0  0.69584  0.24275  0.81817  1.0000
  H   H630      1.0  0.68305  0.23432  0.72984  1.0000
  H   H631      1.0  0.00006  0.10711  0.58382  1.0000
  H   H632      1.0  0.69398  0.13925  0.74146  1.0000
  H   H633      1.0  0.99577  0.03699  0.57057  1.0000
  H   H634      1.0  0.85588  0.06176  0.48653  1.0000
  H   H635      1.0  0.96623  0.75536  0.41452  1.0000
  H   H636      1.0  0.94651  0.57597  0.01534  1.0000
  C   C358      1.0  0.89388  0.69514  0.46584  1.0000
  H   H637      1.0  0.90586  0.75873  0.42369  1.0000
  H   H638      1.0  0.86327  0.63187  0.43782  1.0000
  H   H639      1.0  0.95398  0.67700  0.44814  1.0000
  C   C359      1.0  0.97986  0.57642  0.06165  1.0000
  H   H640      1.0  0.97759  0.54427  0.14147  1.0000
  C   C360      1.0  0.98953  0.82760  0.44969  1.0000
  H   H641      1.0  0.97383  0.60782  0.11454  1.0000
  C   C361      1.0  0.99267  0.60331  0.09333  1.0000
  C   C362      1.0  0.95565  0.59620  0.03692  1.0000
  H   H642      1.0  0.86354  0.76340  0.47081  1.0000
  H   H643      1.0  0.87591  0.82134  0.43450  1.0000
  H   H644      1.0  0.96912  0.55171  0.07547  1.0000
  C   C363      1.0  0.91204  0.75884  0.45515  1.0000
  C   C364      1.0  0.94513  0.70522  0.43971  1.0000
  H   H645      1.0  0.93468  0.70090  0.41056  1.0000
  H   H646      1.0  0.93665  0.60667  0.05545  1.0000
  H   H647      1.0  0.96557  0.62020  0.02078  1.0000
  H   H648      1.0  0.97519  0.84182  0.42862  1.0000
  H   H649      1.0  0.99199  0.69869  0.38529  1.0000
  H   H650      1.0  0.99598  0.63152  0.07986  1.0000
  C   C365      1.0  0.86926  0.63112  0.46920  1.0000
  H   H651      1.0  0.00085  0.59750  0.17098  1.0000
  H   H652      1.0  0.99748  0.56523  0.04166  1.0000
  H   H653      1.0  0.88400  0.69669  0.43601  1.0000
  C   C366      1.0  0.97274  0.73121  0.43353  1.0000
  N   N21       1.0  0.92154  0.71966  0.46819  1.0000
  H   H654      1.0  0.93134  0.77849  0.45789  1.0000
  H   H655      1.0  0.00524  0.66384  0.13969  1.0000
  H   H656      1.0  0.00160  0.91754  0.33032  1.0000
  H   H657      1.0  0.99409  0.65564  0.21010  1.0000
  C   C367      1.0  0.88094  0.81892  0.46606  1.0000
  H   H658      1.0  0.91661  0.63931  0.45950  1.0000
  H   H659      1.0  0.90159  0.83521  0.47285  1.0000
  C   C368      1.0  0.99985  0.52942  0.14344  1.0000
  C   C369      1.0  0.99915  0.71035  0.41378  1.0000
  H   H660      1.0  0.98090  0.74273  0.46151  1.0000
  C   C370      1.0  0.88519  0.77754  0.47762  1.0000
  C   C371      1.0  0.89827  0.65306  0.47668  1.0000
  H   H661      1.0  0.87272  0.60120  0.47793  1.0000
  S   S83       1.0  0.70242  0.84532  0.61214  1.0000
  Fe  Fe44      1.0  0.93793  0.80821  0.58858  1.0000
  S   S84       1.0  0.93585  0.83620  0.64762  1.0000
  S   S85       1.0  0.98458  0.79481  0.56318  1.0000
  Fe  Fe45      1.0  0.86914  0.79830  0.58582  1.0000
  S   S86       1.0  0.86300  0.82576  0.64364  1.0000
  S   S87       1.0  0.82819  0.77257  0.55681  1.0000
  Fe  Fe46      1.0  0.89613  0.86860  0.62243  1.0000
  S   S88       1.0  0.87914  0.92925  0.62755  1.0000
  Fe  Fe47      1.0  0.90274  0.79043  0.66290  1.0000
  S   S89       1.0  0.89868  0.75936  0.72086  1.0000
  S   S90       1.0  0.90000  0.84305  0.56263  1.0000
  S   S91       1.0  0.90741  0.76056  0.60585  1.0000
  Fe  Fe48      1.0  0.90707  0.53932  0.78550  1.0000
  S   S92       1.0  0.89482  0.54129  0.84927  1.0000
  S   S93       1.0  0.90044  0.57981  0.73446  1.0000
  C   C372      1.0  0.71698  0.99296  0.64359  1.0000
  H   H662      1.0  0.96158  0.73040  0.69750  1.0000
  H   H663      1.0  0.72861  0.95466  0.59581  1.0000
  C   C373      1.0  0.72441  0.59593  0.72242  1.0000
  C   C374      1.0  0.89835  0.70940  0.72431  1.0000
  C   C375      1.0  0.90221  0.68646  0.69154  1.0000
  C   C376      1.0  0.90237  0.64692  0.69528  1.0000
  C   C377      1.0  0.89899  0.62976  0.73183  1.0000
  C   C378      1.0  0.89475  0.65260  0.76464  1.0000
  C   C379      1.0  0.89447  0.69227  0.76086  1.0000
  H   H664      1.0  0.90524  0.69915  0.66329  1.0000
  H   H665      1.0  0.90547  0.62950  0.66968  1.0000
  H   H666      1.0  0.89175  0.63974  0.79288  1.0000
  H   H667      1.0  0.89135  0.70978  0.78639  1.0000
  C   C380      1.0  0.73666  0.82380  0.59609  1.0000
  C   C381      1.0  0.73778  0.78827  0.57826  1.0000
  C   C382      1.0  0.76585  0.77288  0.56563  1.0000
  C   C383      1.0  0.79293  0.79261  0.57142  1.0000
  C   C384      1.0  0.79165  0.82792  0.58948  1.0000
  C   C385      1.0  0.76372  0.84341  0.60164  1.0000
  H   H668      1.0  0.71704  0.77297  0.57375  1.0000
  H   H669      1.0  0.76661  0.74556  0.55161  1.0000
  H   H670      1.0  0.81214  0.84383  0.59338  1.0000
  H   H671      1.0  0.76306  0.87096  0.61524  1.0000
  C   C386      1.0  0.93288  0.96861  0.63492  1.0000
  C   C387      1.0  0.90138  0.97028  0.63012  1.0000
  N   N22       1.0  0.99219  0.64109  0.76943  1.0000
  H   H672      1.0  0.94437  0.94151  0.63696  1.0000
  H   H673      1.0  0.96838  0.54758  0.70069  1.0000
  H   H674      1.0  0.91374  0.72046  0.53028  1.0000
  H   H675      1.0  0.73547  0.56636  0.77740  1.0000
  N   N23       1.0  0.78347  0.76172  0.70339  1.0000
  C   C388      1.0  0.79064  0.73755  0.66829  1.0000
  C   C389      1.0  0.75154  0.77737  0.69965  1.0000
  C   C390      1.0  0.80459  0.79489  0.70247  1.0000
  C   C391      1.0  0.78780  0.74089  0.74141  1.0000
  C   C392      1.0  0.78091  0.69799  0.74157  1.0000
  C   C393      1.0  0.82437  0.72501  0.66377  1.0000
  C   C394      1.0  0.79926  0.82572  0.73398  1.0000
  C   C395      1.0  0.72561  0.74852  0.69888  1.0000
  H   H676      1.0  0.97031  0.99209  0.53535  1.0000
  C   C396      1.0  0.77974  0.68260  0.78306  1.0000
  C   C397      1.0  0.82791  0.69229  0.63509  1.0000
  C   C398      1.0  0.82531  0.85369  0.73479  1.0000
  H   H677      1.0  0.78439  0.75300  0.64122  1.0000
  H   H678      1.0  0.77661  0.71193  0.66765  1.0000
  H   H679      1.0  0.74589  0.79638  0.72442  1.0000
  H   H680      1.0  0.74964  0.79512  0.67292  1.0000
  H   H681      1.0  0.80324  0.80917  0.67360  1.0000
  H   H682      1.0  0.82854  0.78505  0.70600  1.0000
  H   H683      1.0  0.81172  0.74312  0.75168  1.0000
  H   H684      1.0  0.77385  0.75466  0.76460  1.0000
  H   H685      1.0  0.79900  0.68205  0.72583  1.0000
  H   H686      1.0  0.75916  0.69150  0.72734  1.0000
  H   H687      1.0  0.83780  0.74876  0.65220  1.0000
  H   H688      1.0  0.83445  0.71640  0.69200  1.0000
  H   H689      1.0  0.79732  0.81309  0.76337  1.0000
  H   H690      1.0  0.77827  0.84231  0.72765  1.0000
  H   H691      1.0  0.72933  0.72657  0.67641  1.0000
  H   H692      1.0  0.72324  0.73522  0.72791  1.0000
  S   S94       1.0  0.95317  0.51418  0.79695  1.0000
  C   C399      1.0  0.76571  0.53194  0.84408  1.0000
  C   C400      1.0  0.88672  0.00567  0.62761  1.0000
  H   H693      1.0  0.77526  0.65187  0.78244  1.0000
  H   H694      1.0  0.80174  0.68699  0.79803  1.0000
  H   H695      1.0  0.76127  0.69675  0.79988  1.0000
  H   H696      1.0  0.85236  0.68557  0.63085  1.0000
  H   H697      1.0  0.81661  0.66678  0.64644  1.0000
  H   H698      1.0  0.81801  0.70009  0.60643  1.0000
  H   H699      1.0  0.84720  0.83896  0.74115  1.0000
  H   H700      1.0  0.82710  0.86851  0.70642  1.0000
  H   H701      1.0  0.82110  0.87514  0.75780  1.0000
  H   H702      1.0  0.81475  0.53192  0.84234  1.0000
  H   H703      1.0  0.70204  0.93624  0.63046  1.0000
  H   H704      1.0  0.95998  0.60198  0.74648  1.0000
  C   C401      1.0  0.98686  0.71176  0.74886  1.0000
  H   H705      1.0  0.69542  0.77912  0.65961  1.0000
  H   H706      1.0  0.72856  0.58889  0.69125  1.0000
  H   H707      1.0  0.78016  0.55917  0.70901  1.0000
  H   H708      1.0  0.76362  0.56209  0.83985  1.0000
  H   H709      1.0  0.93870  0.68085  0.57984  1.0000
  H   H710      1.0  0.71354  0.60961  0.80983  1.0000
  H   H711      1.0  0.95053  0.66470  0.79344  1.0000
  C   C402      1.0  0.72280  0.95338  0.62722  1.0000
  H   H712      1.0  0.94662  0.92691  0.54496  1.0000
  H   H713      1.0  0.93729  0.60878  0.88418  1.0000
  H   H714      1.0  0.68667  0.64212  0.86265  1.0000
  H   H715      1.0  0.78468  0.53964  0.75710  1.0000
  H   H716      1.0  0.90802  0.94410  0.55029  1.0000
  H   H717      1.0  0.94360  0.74955  0.51538  1.0000
  H   H718      1.0  0.88899  0.77620  0.50947  1.0000
  H   H719      1.0  0.73163  0.53580  0.73666  1.0000
  C   C403      1.0  0.68828  0.65836  0.68044  1.0000
  H   H720      1.0  0.97832  0.66876  0.57420  1.0000
  H   H721      1.0  0.78433  0.58994  0.75072  1.0000
  H   H722      1.0  0.87588  0.70565  0.48602  1.0000
  C   C404      1.0  0.97906  0.82274  0.48808  1.0000
  C   C405      1.0  0.97191  0.65107  0.80369  1.0000
  H   H723      1.0  0.68338  0.55442  0.76651  1.0000
  C   C406      1.0  0.93283  0.97041  0.50311  1.0000
  H   H724      1.0  0.95692  0.83340  0.49661  1.0000
  H   H725      1.0  0.99967  0.52889  0.72918  1.0000
  C   C407      1.0  0.98451  0.60262  0.75372  1.0000
  H   H726      1.0  0.96346  0.66442  0.72408  1.0000
  H   H727      1.0  0.86158  0.83142  0.48262  1.0000
  C   C408      1.0  0.69531  0.76797  0.68974  1.0000
  C   C409      1.0  0.96036  0.68966  0.56632  1.0000
  C   C410      1.0  0.67666  0.61923  0.69329  1.0000
  C   C411      1.0  0.69009  0.61952  0.80419  1.0000
  H   H728      1.0  0.97367  0.00083  0.64265  1.0000
  C   C412      1.0  0.92605  0.93657  0.52897  1.0000
  N   N24       1.0  0.69093  0.60313  0.72978  1.0000
  H   H729      1.0  0.74156  0.93899  0.64319  1.0000
  H   H730      1.0  0.76174  0.00693  0.66415  1.0000
  C   C413      1.0  0.99719  0.80364  0.51523  1.0000
  H   H731      1.0  0.96682  0.71747  0.57832  1.0000
  S   S95       1.0  0.97856  0.53299  0.90058  1.0000
  H   H732      1.0  0.75715  0.01124  0.61343  1.0000
  C   C414      1.0  0.94940  0.00221  0.63819  1.0000
  C   C415      1.0  0.93313  0.72171  0.50955  1.0000
  C   C416      1.0  0.77436  0.56325  0.74019  1.0000
  C   C417      1.0  0.98292  0.73698  0.71306  1.0000
  H   H733      1.0  0.70171  0.65653  0.75730  1.0000
  H   H734      1.0  0.92542  0.65104  0.85892  1.0000
  C   C418      1.0  0.73998  0.56372  0.74603  1.0000
  S   S96       1.0  0.70366  0.53375  0.84793  1.0000
  H   H735      1.0  0.71333  0.65789  0.67733  1.0000
  H   H736      1.0  0.68030  0.64967  0.61836  1.0000
  H   H737      1.0  0.86239  0.00717  0.62378  1.0000
  H   H738      1.0  0.90333  0.65040  0.50818  1.0000
  C   C419      1.0  0.98616  0.66936  0.73728  1.0000
  H   H739      1.0  0.97983  0.59915  0.83900  1.0000
  H   H740      1.0  0.94430  0.60100  0.81380  1.0000
  H   H741      1.0  0.73746  0.62210  0.72743  1.0000
  C   C420      1.0  0.68627  0.63233  0.76150  1.0000
  H   H742      1.0  0.69057  0.79147  0.71038  1.0000
  H   H743      1.0  0.70991  0.98970  0.67443  1.0000
  C   C421      1.0  0.94532  0.63295  0.86660  1.0000
  C   C422      1.0  0.99323  0.54912  0.70582  1.0000
  C   C423      1.0  0.67458  0.53631  0.70785  1.0000
  C   C424      1.0  0.96105  0.61817  0.82989  1.0000
  H   H744      1.0  0.99669  0.60757  0.69172  1.0000
  H   H745      1.0  0.98173  0.76705  0.72215  1.0000
  H   H746      1.0  0.98786  0.58042  0.77595  1.0000
  C   C425      1.0  0.95728  0.69166  0.52208  1.0000
  H   H747      1.0  0.98284  0.67259  0.82246  1.0000
  H   H748      1.0  0.68165  0.68028  0.70202  1.0000
  H   H749      1.0  0.95199  0.66300  0.51173  1.0000
  H   H750      1.0  0.96817  0.71908  0.76931  1.0000
  H   H751      1.0  0.96135  0.64934  0.88461  1.0000
  H   H752      1.0  0.69262  0.54055  0.68589  1.0000
  H   H753      1.0  0.00518  0.54053  0.67870  1.0000
  C   C426      1.0  0.94743  0.00270  0.52673  1.0000
  H   H754      1.0  0.93511  0.00642  0.55480  1.0000
  H   H755      1.0  0.69785  0.00609  0.62733  1.0000
  H   H756      1.0  0.97981  0.69897  0.51007  1.0000
  H   H757      1.0  0.91124  0.97957  0.48931  1.0000
  H   H758      1.0  0.00295  0.66562  0.71334  1.0000
  H   H759      1.0  0.91784  0.91288  0.51086  1.0000
  H   H760      1.0  0.85009  0.64316  0.48646  1.0000
  H   H761      1.0  0.69966  0.67561  0.82708  1.0000
  C   C427      1.0  0.99786  0.51452  0.94248  1.0000
  H   H762      1.0  0.00233  0.73317  0.69274  1.0000
  C   C428      1.0  0.67445  0.67036  0.64155  1.0000
  C   C429      1.0  0.68373  0.65217  0.83226  1.0000
  H   H763      1.0  0.67663  0.74754  0.69205  1.0000
  H   H764      1.0  0.94859  0.96069  0.47981  1.0000
  H   H765      1.0  0.68011  0.59987  0.66818  1.0000
  H   H766      1.0  0.68332  0.69830  0.63295  1.0000
  C   C430      1.0  0.00208  0.58924  0.71701  1.0000
  H   H767      1.0  0.00118  0.92878  0.52287  1.0000
  H   H768      1.0  0.67371  0.59719  0.81154  1.0000
  C   C431      1.0  0.67408  0.56767  0.73972  1.0000
  C   C432      1.0  0.79473  0.51493  0.84555  1.0000
