data_image0
_chemical_formula_structural       FeS2FeS2Fe2S3FeS2CSFeS2H2FeHSFeS2CHCH2C2H2C3HSH2C6H4C6H2S2C6H10FeHC2H3CHCH18CH2CHCHC2H2CHC3H8CH2CH6CHCNH2NC12H8C3H2NH4FeH3C2HCHCHCHCH2CHCH2CH2SH3C2HCH2NH3CH8CH3CHCS2H2SHCH6C6H4FeS2FeS2Fe2S3FeSFeHSNHC6H4C6H4CH7NCHC2H3C2HCH5CH2C5HC2HCH2FeH3CH2CH6CH2CH10SNHC3HNC3HC2H3CH3C4H7CH5CSH2C2H2CH3FeCH4CH2CHCH2CH6CHCH3SCHC3H4NC2H3SHFeS2FeS2FeSFeS3HC8H4C6H5C3H4C6H3CH3Fe2H2CNC12H16SH8NCHC3H3C2H10CH5SHCH2CSC2H9C2H2CH3CSH3CHSH3CH6C3H3C2H2C2H4NCH2CHCH2CHC2HC2H9CHCH2CH8CH4SCHSFeS2FeS2FeSFeS3FeS2C6H4C6H4C6H5C2SH4NC2H4C2HCH4CHCHCH9CHCHNCHC2HNH3C6H2CH2C2H6CH8CH2CH4CH7CHCH2C2HC2H2CH3CH3CH7CH3CH3CHSH2FeH3CHCH7CH2FeS2FeSFeSFeS3CSHS2H2C6H4C6H4SC2HSH2SH5C6H4NC8HC2H16CNFeH4CH8NH5CHCHCHC2H5SH2C2HCHC2SH4SH3CHC2H7CH2C3FeH4NC2HCH2FeH3C2H3CH3CH3CHC5H2C2H3FeS2FeSFeSFeS2H2SFeS2FeS2CHFeS2FeCHSHC2H2C8H2C6H4C4HFeH4C6H10C4HCH2NH5SH2CHCH7C2HCH3CNCH2C2HFeHC2HC2H6CHSH2C2HFeHNH6CHCH2C2HCHC3HC4HCHCH13CH9SNH5CHC2H2CH4CH4CH2CH4SCHCHC2H2CFeS2FeS2FeSFeS3FeHSHS2C6H4C6H4C6H5C4H3C2HNHCH2CH2CH2C2HCH3CH4C2HC2H2NH11CHCH7NC10H22CHCFeH5CH2CHC2H2S2H2CH3CH2CH3CH2CHCH5CH5CH2C2H3CH3CH2FeS2FeSFeSFeS3FeSFeS2CHC6H4C6H4S2H5SCH4C6H5CH2C2HCH2C2SCHCHCH15C2HNCH3CH8CHC3H2CH13CH4CH5CH3CH4CH4C2H2C2H10SFeCH3NC3HNC8HCH3C3HC4HCH2SH9FeS2FeSFeSFeHSCHSFeS2FeHFeS3HCSHS2HC2H2C8H2C6H5C4H5C6H3CSH5C2HC5HFeCHCHFeCH6CHC2FeHC2HSH2CH3CHCH2CH2SCNH4CNHC2H2CHCHCH2CH5CH7SH4C2NC12H29NCHCH6CNCH2CH6FeH4CHCHCH7SCH2SFeS2FeS2FeSFeS2CFeS2FeSH3CSHFeS2C6H3NH2CHNC6H4C6H4C6H5CHCHSH4CH3CHCH2CH5CHCH5C3H2CH2NH2CHFeHSH2CH2FeCH6C3H3SCH2CH3C2H5C5H11CH3NCH2CH11C2SH5NC12H9C4HC2FeH2CHCH4SH2CHSCH2C3HC2HCSFeSHFeHSHCH3C6H4CSFeS2FeS2FeSFeS2H2SH2C6H4C6H3NC6HC4H3CH12C2H2CH11CNH6CHSFeHC2SHCHSH3CH4CH4C3HCH3NC11H28CHCFeCH4NH10CH2CHC2H3CHCH3CHFeS2FeS2FeSFeS3FeS2FeS2C6H4C6H5C3H2CHC6HCH3CH3CH2NHCH2CH3C2H2CH3NC8HC2H4CH27C2HNH4CHCH6C2H2C2HC3H3CHCH4C2H2NHCH3CH6C3HC2HCH4CH2CH3CH11CH3CHSH5C2H2C2H3CH5CHCH7C2N
_chemical_formula_sum              "Fe96 S192 C864 H1536 N48"
_cell_length_a       43.1939
_cell_length_b       42.8338
_cell_length_c       47.1019
_cell_angle_alpha    89.9647
_cell_angle_beta     89.8328
_cell_angle_gamma    90.2931

_space_group_name_H-M_alt    "P 1"
_space_group_IT_number       1

loop_
  _space_group_symop_operation_xyz
  'x, y, z'

loop_
  _atom_site_type_symbol
  _atom_site_label
  _atom_site_symmetry_multiplicity
  _atom_site_fract_x
  _atom_site_fract_y
  _atom_site_fract_z
  _atom_site_occupancy
  Fe  Fe1       1.0  0.27251  0.25796  0.10483  1.0000
  S   S1        1.0  0.28246  0.21734  0.07554  1.0000
  S   S2        1.0  0.22973  0.25736  0.13388  1.0000
  Fe  Fe2       1.0  0.33074  0.29403  0.08507  1.0000
  S   S3        1.0  0.34586  0.25535  0.05588  1.0000
  S   S4        1.0  0.35145  0.34226  0.09426  1.0000
  Fe  Fe3       1.0  0.29537  0.25351  0.04239  1.0000
  Fe  Fe4       1.0  0.33185  0.22166  0.09091  1.0000
  S   S5        1.0  0.35674  0.18159  0.11440  1.0000
  S   S6        1.0  0.28120  0.29356  0.07049  1.0000
  S   S7        1.0  0.32082  0.26103  0.12123  1.0000
  Fe  Fe5       1.0  0.48039  0.46037  0.02820  1.0000
  S   S8        1.0  0.47059  0.41001  0.04190  1.0000
  S   S9        1.0  0.19111  0.22641  0.32852  1.0000
  C   C1        1.0  0.31557  0.36709  0.02472  1.0000
  S   S10       1.0  0.01422  0.03387  0.24038  1.0000
  Fe  Fe6       1.0  0.46751  0.02871  0.10809  1.0000
  S   S11       1.0  0.46817  0.02936  0.15570  1.0000
  S   S12       1.0  0.43872  0.06239  0.08097  1.0000
  H   H1        1.0  0.33960  0.02690  0.06894  1.0000
  H   H2        1.0  0.00508  0.12504  0.23771  1.0000
  Fe  Fe7       1.0  0.18555  0.26772  0.29930  1.0000
  H   H3        1.0  0.01674  0.16147  0.26879  1.0000
  S   S13       1.0  0.22409  0.28132  0.26806  1.0000
  Fe  Fe8       1.0  0.14172  0.21504  0.31654  1.0000
  S   S14       1.0  0.13156  0.16518  0.30227  1.0000
  S   S15       1.0  0.13757  0.25471  0.28556  1.0000
  C   C2        1.0  0.07788  0.43025  0.23664  1.0000
  H   H4        1.0  0.21677  0.36873  0.16935  1.0000
  C   C3        1.0  0.03499  0.39615  0.32453  1.0000
  H   H5        1.0  0.36303  0.40497  0.03515  1.0000
  H   H6        1.0  0.00795  0.11527  0.17178  1.0000
  C   C4        1.0  0.38424  0.03403  0.18870  1.0000
  C   C5        1.0  0.04648  0.10041  0.31073  1.0000
  H   H7        1.0  0.42553  0.42904  0.08501  1.0000
  H   H8        1.0  0.06079  0.43922  0.25231  1.0000
  C   C6        1.0  0.09791  0.14142  0.30537  1.0000
  C   C7        1.0  0.09721  0.11265  0.29102  1.0000
  C   C8        1.0  0.07153  0.09239  0.29341  1.0000
  H   H9        1.0  0.20933  0.20440  0.25330  1.0000
  S   S16       1.0  0.07695  0.31157  0.32125  1.0000
  H   H10       1.0  0.11669  0.10593  0.27793  1.0000
  H   H11       1.0  0.07139  0.07032  0.28223  1.0000
  C   C9        1.0  0.22851  0.26477  0.17109  1.0000
  C   C10       1.0  0.25397  0.27687  0.18582  1.0000
  C   C11       1.0  0.25200  0.28227  0.21535  1.0000
  C   C12       1.0  0.22477  0.27527  0.23064  1.0000
  C   C13       1.0  0.19925  0.26331  0.21589  1.0000
  C   C14       1.0  0.20110  0.25828  0.18629  1.0000
  H   H12       1.0  0.27512  0.28227  0.17442  1.0000
  H   H13       1.0  0.27186  0.29165  0.22647  1.0000
  H   H14       1.0  0.17818  0.25768  0.22729  1.0000
  H   H15       1.0  0.18126  0.24891  0.17514  1.0000
  C   C15       1.0  0.43575  0.39284  0.05487  1.0000
  C   C16       1.0  0.42679  0.36318  0.04494  1.0000
  C   C17       1.0  0.40092  0.34743  0.05651  1.0000
  C   C18       1.0  0.38387  0.36111  0.07845  1.0000
  C   C19       1.0  0.39260  0.39093  0.08820  1.0000
  C   C20       1.0  0.41842  0.40668  0.07654  1.0000
  H   H16       1.0  0.43985  0.35225  0.02820  1.0000
  H   H17       1.0  0.39439  0.32457  0.04874  1.0000
  S   S17       1.0  0.05276  0.45808  0.33041  1.0000
  S   S18       1.0  0.01438  0.07487  0.31546  1.0000
  C   C21       1.0  0.38044  0.14936  0.10426  1.0000
  C   C22       1.0  0.38330  0.13939  0.07610  1.0000
  C   C23       1.0  0.40138  0.11294  0.06944  1.0000
  C   C24       1.0  0.41705  0.09617  0.09072  1.0000
  C   C25       1.0  0.41417  0.10612  0.11890  1.0000
  C   C26       1.0  0.39591  0.13243  0.12557  1.0000
  H   H18       1.0  0.37146  0.15195  0.05945  1.0000
  H   H19       1.0  0.40332  0.10546  0.04757  1.0000
  H   H20       1.0  0.42603  0.09357  0.13555  1.0000
  H   H21       1.0  0.39398  0.13993  0.14739  1.0000
  H   H22       1.0  0.33694  0.35349  0.02882  1.0000
  H   H23       1.0  0.19188  0.28135  0.03376  1.0000
  H   H24       1.0  0.32017  0.07498  0.06975  1.0000
  H   H25       1.0  0.28050  0.11474  0.07768  1.0000
  H   H26       1.0  0.31587  0.12577  0.09519  1.0000
  H   H27       1.0  0.02482  0.09082  0.19902  1.0000
  Fe  Fe9       1.0  0.12162  0.28343  0.32297  1.0000
  H   H28       1.0  0.29981  0.18933  0.15309  1.0000
  C   C27       1.0  0.07253  0.14982  0.32219  1.0000
  C   C28       1.0  0.32321  0.39681  0.00800  1.0000
  H   H29       1.0  0.34000  0.04769  0.17306  1.0000
  H   H30       1.0  0.38085  0.11950  0.23345  1.0000
  H   H31       1.0  0.35408  0.17010  0.22972  1.0000
  C   C29       1.0  0.29829  0.01247  0.14644  1.0000
  H   H32       1.0  0.06535  0.42373  0.21694  1.0000
  C   C30       1.0  0.36797  0.02912  0.13694  1.0000
  H   H33       1.0  0.37757  0.00942  0.19323  1.0000
  H   H34       1.0  0.37118  0.07228  0.16171  1.0000
  H   H35       1.0  0.22965  0.14839  0.12695  1.0000
  H   H36       1.0  0.36372  0.20536  0.19276  1.0000
  H   H37       1.0  0.20096  0.34655  0.25473  1.0000
  H   H38       1.0  0.29946  0.35211  0.01234  1.0000
  H   H39       1.0  0.21533  0.16498  0.24126  1.0000
  H   H40       1.0  0.30446  0.37279  0.04537  1.0000
  H   H41       1.0  0.40547  0.01259  0.04811  1.0000
  H   H42       1.0  0.17429  0.32815  0.27882  1.0000
  H   H43       1.0  0.28372  0.11025  0.11560  1.0000
  H   H44       1.0  0.26520  0.16751  0.11663  1.0000
  H   H45       1.0  0.16936  0.39581  0.25629  1.0000
  H   H46       1.0  0.38324  0.13449  0.19780  1.0000
  H   H47       1.0  0.28939  0.03636  0.14997  1.0000
  H   H48       1.0  0.23920  0.16096  0.17712  1.0000
  H   H49       1.0  0.02218  0.34791  0.31804  1.0000
  H   H50       1.0  0.32791  0.13886  0.23876  1.0000
  C   C31       1.0  0.18409  0.35088  0.27206  1.0000
  H   H51       1.0  0.27003  0.13820  0.16214  1.0000
  H   H52       1.0  0.23380  0.18986  0.13179  1.0000
  C   C32       1.0  0.30871  0.07550  0.09088  1.0000
  H   H53       1.0  0.37381  0.04651  0.08005  1.0000
  C   C33       1.0  0.04109  0.36403  0.32167  1.0000
  H   H54       1.0  0.02445  0.20224  0.30474  1.0000
  C   C34       1.0  0.29652  0.10859  0.09520  1.0000
  C   C35       1.0  0.20218  0.36454  0.29701  1.0000
  H   H55       1.0  0.37965  0.40164  0.10527  1.0000
  H   H56       1.0  0.33897  0.21967  0.16542  1.0000
  C   C36       1.0  0.15815  0.37331  0.26238  1.0000
  H   H57       1.0  0.23793  0.20431  0.20800  1.0000
  C   C37       1.0  0.00351  0.09559  0.18663  1.0000
  C   C38       1.0  0.34414  0.41896  0.02552  1.0000
  C   C39       1.0  0.00451  0.20387  0.28997  1.0000
  H   H58       1.0  0.21355  0.38685  0.29081  1.0000
  H   H59       1.0  0.36040  0.45496  0.07240  1.0000
  H   H60       1.0  0.35642  0.10314  0.20625  1.0000
  H   H61       1.0  0.14021  0.34017  0.19740  1.0000
  H   H62       1.0  0.32088  0.07278  0.13506  1.0000
  H   H63       1.0  0.17313  0.12214  0.33560  1.0000
  H   H64       1.0  0.22042  0.34782  0.30357  1.0000
  H   H65       1.0  0.35204  0.08282  0.11255  1.0000
  C   C40       1.0  0.20437  0.29808  0.01974  1.0000
  H   H66       1.0  0.28848  0.05949  0.09069  1.0000
  H   H67       1.0  0.07254  0.17204  0.33301  1.0000
  C   C41       1.0  0.33191  0.06661  0.11460  1.0000
  H   H68       1.0  0.37582  0.26002  0.18116  1.0000
  H   H69       1.0  0.36158  0.25716  0.21714  1.0000
  H   H70       1.0  0.23863  0.18094  0.26984  1.0000
  H   H71       1.0  0.21420  0.33438  0.19123  1.0000
  H   H72       1.0  0.26085  0.22021  0.23642  1.0000
  H   H73       1.0  0.38135  0.04785  0.20845  1.0000
  C   C42       1.0  0.05937  0.41730  0.32838  1.0000
  H   H74       1.0  0.05250  0.29101  0.23068  1.0000
  C   C43       1.0  0.36408  0.04756  0.16515  1.0000
  N   N1        1.0  0.34323  0.03330  0.11455  1.0000
  H   H75       1.0  0.21464  0.31672  0.03318  1.0000
  H   H76       1.0  0.33679  0.27167  0.18914  1.0000
  N   N2        1.0  0.29916  0.18264  0.19872  1.0000
  C   C44       1.0  0.27664  0.17430  0.22210  1.0000
  C   C45       1.0  0.32193  0.15631  0.19517  1.0000
  C   C46       1.0  0.31543  0.21268  0.20656  1.0000
  C   C47       1.0  0.28271  0.18740  0.17076  1.0000
  C   C48       1.0  0.25916  0.16154  0.16225  1.0000
  C   C49       1.0  0.25068  0.19845  0.22764  1.0000
  C   C50       1.0  0.34417  0.22132  0.18831  1.0000
  C   C51       1.0  0.34228  0.14897  0.22145  1.0000
  C   C52       1.0  0.36717  0.12504  0.21417  1.0000
  C   C53       1.0  0.24623  0.16727  0.13258  1.0000
  C   C54       1.0  0.22715  0.18627  0.24934  1.0000
  C   C55       1.0  0.35518  0.25459  0.19444  1.0000
  H   H77       1.0  0.28896  0.17193  0.24267  1.0000
  H   H78       1.0  0.26594  0.15101  0.21817  1.0000
  H   H79       1.0  0.30963  0.13421  0.19002  1.0000
  H   H80       1.0  0.33738  0.16071  0.17656  1.0000
  H   H81       1.0  0.32275  0.21246  0.22920  1.0000
  H   H82       1.0  0.29906  0.23258  0.20500  1.0000
  H   H83       1.0  0.27023  0.21008  0.17041  1.0000
  H   H84       1.0  0.14424  0.37883  0.28164  1.0000
  C   C56       1.0  0.15582  0.34779  0.21483  1.0000
  C   C57       1.0  0.35761  0.02718  0.08578  1.0000
  C   C58       1.0  0.99595  0.17126  0.27932  1.0000
  H   H85       1.0  0.10312  0.30840  0.21377  1.0000
  H   H86       1.0  0.09474  0.44923  0.23190  1.0000
  N   N3        1.0  0.13733  0.36144  0.23899  1.0000
  H   H87       1.0  0.07832  0.34134  0.22006  1.0000
  H   H88       1.0  0.40899  0.03482  0.18251  1.0000
  H   H89       1.0  0.01136  0.21921  0.27196  1.0000
  H   H90       1.0  0.16777  0.32606  0.22176  1.0000
  Fe  Fe10      1.0  0.00566  0.03247  0.28718  1.0000
  H   H91       1.0  0.01152  0.40467  0.32306  1.0000
  H   H92       1.0  0.10658  0.38229  0.20797  1.0000
  H   H93       1.0  0.05514  0.31554  0.26162  1.0000
  C   C59       1.0  0.09584  0.37356  0.32748  1.0000
  C   C60       1.0  0.09187  0.32272  0.23047  1.0000
  H   H94       1.0  0.10552  0.40960  0.26912  1.0000
  C   C61       1.0  0.11861  0.38853  0.22805  1.0000
  H   H95       1.0  0.39103  0.03670  0.12855  1.0000
  C   C62       1.0  0.07136  0.35248  0.32370  1.0000
  H   H96       1.0  0.18626  0.34063  0.16330  1.0000
  C   C63       1.0  0.11666  0.33615  0.25102  1.0000
  H   H97       1.0  0.19528  0.38115  0.21668  1.0000
  C   C64       1.0  0.09434  0.40194  0.24914  1.0000
  H   H98       1.0  0.08093  0.28267  0.25750  1.0000
  H   H99       1.0  0.10493  0.34430  0.27069  1.0000
  C   C65       1.0  0.17989  0.37002  0.20083  1.0000
  H   H100      1.0  0.13068  0.31591  0.25800  1.0000
  C   C66       1.0  0.06879  0.30170  0.24611  1.0000
  H   H101      1.0  0.07628  0.38434  0.25445  1.0000
  H   H102      1.0  0.16790  0.38875  0.18890  1.0000
  C   C67       1.0  0.20042  0.35230  0.17990  1.0000
  H   H103      1.0  0.13423  0.40825  0.22210  1.0000
  H   H104      1.0  0.37055  0.00393  0.14219  1.0000
  S   S19       1.0  0.16937  0.29942  0.33498  1.0000
  H   H105      1.0  0.18662  0.36865  0.31545  1.0000
  H   H106      1.0  0.11929  0.36500  0.32903  1.0000
  H   H107      1.0  0.16429  0.32518  0.01002  1.0000
  C   C68       1.0  0.04714  0.12919  0.32515  1.0000
  C   C69       1.0  0.37980  0.46322  0.02979  1.0000
  H   H108      1.0  0.22352  0.28571  0.00886  1.0000
  C   C70       1.0  0.31720  0.01006  0.11863  1.0000
  H   H109      1.0  0.30092  0.01079  0.10040  1.0000
  H   H110      1.0  0.34428  0.48852  0.05491  1.0000
  N   N4        1.0  0.35740  0.44690  0.01008  1.0000
  H   H111      1.0  0.12526  0.01079  0.29860  1.0000
  H   H112      1.0  0.31283  0.00523  0.16467  1.0000
  H   H113      1.0  0.32983  0.42649  0.04392  1.0000
  C   C71       1.0  0.08988  0.40589  0.32920  1.0000
  H   H114      1.0  0.19442  0.15818  0.33049  1.0000
  H   H115      1.0  0.45451  0.29371  0.00680  1.0000
  H   H116      1.0  0.39087  0.48343  0.01869  1.0000
  H   H117      1.0  0.10894  0.42214  0.33171  1.0000
  H   H118      1.0  0.49171  0.32952  0.02838  1.0000
  H   H119      1.0  0.39915  0.44767  0.03575  1.0000
  H   H120      1.0  0.41033  0.48371  0.07857  1.0000
  H   H121      1.0  0.99782  0.07442  0.17400  1.0000
  C   C72       1.0  0.36580  0.47504  0.05826  1.0000
  H   H122      1.0  0.31354  0.46950  0.01912  1.0000
  H   H123      1.0  0.49111  0.27444  0.01155  1.0000
  H   H124      1.0  0.30100  0.40851  0.00318  1.0000
  C   C73       1.0  0.38843  0.49623  0.07408  1.0000
  H   H125      1.0  0.34154  0.49450  0.00322  1.0000
  C   C74       1.0  0.33222  0.47011  0.00276  1.0000
  S   S20       1.0  0.28760  0.22850  0.49999  1.0000
  S   S21       1.0  0.47573  0.46463  0.48111  1.0000
  H   H126      1.0  0.21116  0.15643  0.38140  1.0000
  H   H127      1.0  0.41813  0.38721  0.46552  1.0000
  S   S22       1.0  0.17983  0.26044  0.41116  1.0000
  H   H128      1.0  0.35681  0.09062  0.62945  1.0000
  C   C75       1.0  0.39937  0.39988  0.47678  1.0000
  H   H129      1.0  0.39321  0.04158  0.64026  1.0000
  H   H130      1.0  0.38745  0.41567  0.46167  1.0000
  H   H131      1.0  0.27248  0.34841  0.54089  1.0000
  H   H132      1.0  0.02786  0.13558  0.33861  1.0000
  H   H133      1.0  0.06121  0.43079  0.43428  1.0000
  H   H134      1.0  0.35894  0.39068  0.50194  1.0000
  C   C76       1.0  0.21094  0.25262  0.43503  1.0000
  C   C77       1.0  0.23756  0.23645  0.42676  1.0000
  C   C78       1.0  0.26082  0.22961  0.44687  1.0000
  C   C79       1.0  0.25795  0.23891  0.47546  1.0000
  C   C80       1.0  0.23149  0.25536  0.48365  1.0000
  C   C81       1.0  0.20813  0.26199  0.46360  1.0000
  H   H135      1.0  0.24013  0.22897  0.40495  1.0000
  H   H136      1.0  0.28114  0.21683  0.44026  1.0000
  H   H137      1.0  0.22880  0.26258  0.50552  1.0000
  H   H138      1.0  0.18763  0.27438  0.47034  1.0000
  Fe  Fe11      1.0  0.27319  0.24917  0.60959  1.0000
  S   S23       1.0  0.29009  0.20712  0.58521  1.0000
  S   S24       1.0  0.23080  0.24730  0.63905  1.0000
  Fe  Fe12      1.0  0.32314  0.29235  0.58290  1.0000
  S   S25       1.0  0.34444  0.25295  0.55844  1.0000
  S   S26       1.0  0.33282  0.34464  0.57745  1.0000
  Fe  Fe13      1.0  0.29521  0.23953  0.54733  1.0000
  Fe  Fe14      1.0  0.33759  0.22373  0.59793  1.0000
  S   S27       1.0  0.37169  0.19353  0.62272  1.0000
  S   S28       1.0  0.27431  0.27983  0.57062  1.0000
  S   S29       1.0  0.32020  0.26473  0.62360  1.0000
  Fe  Fe15      1.0  0.47329  0.46138  0.52886  1.0000
  S   S30       1.0  0.46076  0.41430  0.54930  1.0000
  Fe  Fe16      1.0  0.46789  0.03527  0.61824  1.0000
  H   H139      1.0  0.25255  0.35998  0.50878  1.0000
  S   S31       1.0  0.43982  0.06677  0.58923  1.0000
  N   N5        1.0  0.34488  0.04167  0.62766  1.0000
  H   H140      1.0  0.38935  0.36251  0.50561  1.0000
  C   C82       1.0  0.42465  0.39536  0.55597  1.0000
  C   C83       1.0  0.42444  0.36318  0.56216  1.0000
  C   C84       1.0  0.39658  0.34721  0.56844  1.0000
  C   C85       1.0  0.36855  0.36339  0.56903  1.0000
  C   C86       1.0  0.36869  0.39556  0.56289  1.0000
  C   C87       1.0  0.39652  0.41144  0.55619  1.0000
  H   H141      1.0  0.44605  0.35053  0.56219  1.0000
  H   H142      1.0  0.39689  0.32252  0.57325  1.0000
  H   H143      1.0  0.34716  0.40834  0.56329  1.0000
  H   H144      1.0  0.39628  0.43619  0.55161  1.0000
  C   C88       1.0  0.38962  0.15786  0.61305  1.0000
  C   C89       1.0  0.38681  0.14508  0.58585  1.0000
  C   C90       1.0  0.40234  0.11720  0.57895  1.0000
  C   C91       1.0  0.42063  0.10168  0.59916  1.0000
  C   C92       1.0  0.42283  0.11403  0.62655  1.0000
  C   C93       1.0  0.40750  0.14204  0.63338  1.0000
  H   H145      1.0  0.37310  0.15697  0.57002  1.0000
  H   H146      1.0  0.40041  0.10777  0.55772  1.0000
  H   H147      1.0  0.43670  0.10230  0.64234  1.0000
  H   H148      1.0  0.29246  0.04403  0.66550  1.0000
  C   C94       1.0  0.32777  0.31197  0.45343  1.0000
  H   H149      1.0  0.21359  0.18812  0.47489  1.0000
  H   H150      1.0  0.05884  0.31792  0.38835  1.0000
  H   H151      1.0  0.08035  0.45249  0.38816  1.0000
  H   H152      1.0  0.37840  0.34690  0.45268  1.0000
  H   H153      1.0  0.36973  0.33004  0.65380  1.0000
  H   H154      1.0  0.19101  0.33321  0.59100  1.0000
  H   H155      1.0  0.08261  0.23087  0.40201  1.0000
  N   N6        1.0  0.33969  0.33073  0.47825  1.0000
  C   C95       1.0  0.33565  0.07556  0.63016  1.0000
  H   H156      1.0  0.27850  0.32104  0.39507  1.0000
  C   C96       1.0  0.31349  0.34526  0.49479  1.0000
  C   C97       1.0  0.31334  0.08810  0.60710  1.0000
  H   H157      1.0  0.14056  0.10080  0.37866  1.0000
  H   H158      1.0  0.37419  0.05595  0.59261  1.0000
  H   H159      1.0  0.32492  0.08859  0.58602  1.0000
  C   C98       1.0  0.00955  0.35722  0.39461  1.0000
  C   C99       1.0  0.26406  0.38625  0.66046  1.0000
  H   H160      1.0  0.21771  0.30189  0.59689  1.0000
  C   C100      1.0  0.35767  0.03684  0.59806  1.0000
  H   H161      1.0  0.32127  0.34705  0.41988  1.0000
  H   H162      1.0  0.30362  0.36549  0.48312  1.0000
  H   H163      1.0  0.08207  0.15925  0.40497  1.0000
  H   H164      1.0  0.05005  0.39813  0.46934  1.0000
  H   H165      1.0  0.02239  0.35008  0.37525  1.0000
  C   C101      1.0  0.05202  0.34642  0.42710  1.0000
  H   H166      1.0  0.24291  0.32356  0.52589  1.0000
  H   H167      1.0  0.32232  0.35539  0.51501  1.0000
  C   C102      1.0  0.04957  0.39719  0.40102  1.0000
  C   C103      1.0  0.07349  0.41520  0.41922  1.0000
  C   C104      1.0  0.07288  0.32986  0.40480  1.0000
  C   C105      1.0  0.10437  0.08070  0.40395  1.0000
  C   C106      1.0  0.30072  0.02029  0.66019  1.0000
  H   H168      1.0  0.33883  0.03823  0.58203  1.0000
  C   C107      1.0  0.09435  0.43593  0.40087  1.0000
  C   C108      1.0  0.09310  0.30501  0.41873  1.0000
  H   H169      1.0  0.15564  0.11291  0.42675  1.0000
  C   C109      1.0  0.12222  0.10927  0.39324  1.0000
  H   H170      1.0  0.06782  0.35527  0.44379  1.0000
  H   H171      1.0  0.29046  0.12258  0.63407  1.0000
  Fe  Fe17      1.0  0.01308  0.48113  0.35489  1.0000
  H   H172      1.0  0.18969  0.12090  0.38623  1.0000
  H   H173      1.0  0.09903  0.18163  0.37622  1.0000
  H   H174      1.0  0.06156  0.38754  0.38214  1.0000
  C   C110      1.0  0.19316  0.13630  0.34304  1.0000
  H   H175      1.0  0.08882  0.39927  0.43114  1.0000
  H   H176      1.0  0.16716  0.18814  0.37690  1.0000
  C   C111      1.0  0.19004  0.14346  0.37467  1.0000
  H   H177      1.0  0.08872  0.34671  0.39421  1.0000
  H   H178      1.0  0.34265  0.28797  0.50254  1.0000
  H   H179      1.0  0.08467  0.08795  0.41762  1.0000
  H   H180      1.0  0.40538  0.31649  0.48367  1.0000
  H   H181      1.0  0.99923  0.33540  0.40354  1.0000
  H   H182      1.0  0.25561  0.00592  0.64367  1.0000
  C   C112      1.0  0.00656  0.40738  0.48958  1.0000
  H   H183      1.0  0.03390  0.41521  0.39223  1.0000
  H   H184      1.0  0.26052  0.44620  0.63737  1.0000
  C   C113      1.0  0.30713  0.32993  0.43205  1.0000
  H   H185      1.0  0.31020  0.29415  0.39913  1.0000
  H   H186      1.0  0.10874  0.31572  0.43472  1.0000
  H   H187      1.0  0.07854  0.28683  0.42910  1.0000
  H   H188      1.0  0.10769  0.29358  0.40230  1.0000
  H   H189      1.0  0.27458  0.31375  0.48382  1.0000
  H   H190      1.0  0.05094  0.20559  0.39224  1.0000
  H   H191      1.0  0.41016  0.41441  0.49364  1.0000
  H   H192      1.0  0.29512  0.30287  0.51535  1.0000
  H   H193      1.0  0.14264  0.15787  0.36575  1.0000
  H   H194      1.0  0.31724  0.33274  0.63524  1.0000
  S   S32       1.0  0.01592  0.48185  0.40258  1.0000
  N   N7        1.0  0.14902  0.16039  0.41156  1.0000
  H   H195      1.0  0.28815  0.13029  0.59652  1.0000
  C   C114      1.0  0.12439  0.18468  0.41663  1.0000
  C   C115      1.0  0.17580  0.16788  0.43110  1.0000
  C   C116      1.0  0.13686  0.12799  0.41825  1.0000
  H   H196      1.0  0.36113  0.32007  0.51880  1.0000
  N   N8        1.0  0.03127  0.37195  0.41598  1.0000
  C   C117      1.0  0.16802  0.17027  0.46323  1.0000
  C   C118      1.0  0.09421  0.18126  0.39930  1.0000
  C   C119      1.0  0.07170  0.20775  0.40598  1.0000
  H   H197      1.0  0.34691  0.37298  0.45388  1.0000
  C   C120      1.0  0.19730  0.16928  0.48134  1.0000
  C   C121      1.0  0.35703  0.30898  0.49775  1.0000
  H   H198      1.0  0.29210  0.07355  0.60571  1.0000
  H   H199      1.0  0.11669  0.18443  0.43915  1.0000
  H   H200      1.0  0.13411  0.20849  0.41271  1.0000
  C   C122      1.0  0.36040  0.35648  0.46718  1.0000
  H   H201      1.0  0.19426  0.14999  0.42902  1.0000
  H   H202      1.0  0.34734  0.30251  0.44079  1.0000
  H   H203      1.0  0.11951  0.12916  0.43578  1.0000
  C   C123      1.0  0.37642  0.37686  0.49014  1.0000
  C   C124      1.0  0.01186  0.38559  0.43972  1.0000
  C   C125      1.0  0.16091  0.16336  0.38150  1.0000
  C   C126      1.0  0.28649  0.32296  0.50292  1.0000
  H   H204      1.0  0.15255  0.15096  0.47017  1.0000
  H   H205      1.0  0.15649  0.19290  0.46773  1.0000
  H   H206      1.0  0.03767  0.32814  0.43779  1.0000
  H   H207      1.0  0.42646  0.26701  0.49943  1.0000
  H   H208      1.0  0.23149  0.33911  0.58311  1.0000
  H   H209      1.0  0.06414  0.20659  0.42852  1.0000
  H   H210      1.0  0.11014  0.44972  0.41464  1.0000
  C   C127      1.0  0.26217  0.33990  0.52072  1.0000
  H   H211      1.0  0.10864  0.42146  0.38639  1.0000
  H   H212      1.0  0.19123  0.17279  0.50404  1.0000
  H   H213      1.0  0.39569  0.00382  0.60582  1.0000
  H   H214      1.0  0.18687  0.19043  0.42481  1.0000
  H   H215      1.0  0.24112  0.39720  0.66451  1.0000
  C   C128      1.0  0.25356  0.33362  0.63855  1.0000
  S   S33       1.0  0.46670  0.03587  0.66585  1.0000
  H   H216      1.0  0.20904  0.14640  0.47914  1.0000
  H   H217      1.0  0.10613  0.12335  0.38033  1.0000
  C   C129      1.0  0.21983  0.33898  0.62825  1.0000
  C   C130      1.0  0.38510  0.00306  0.56154  1.0000
  H   H218      1.0  0.38602  0.28480  0.46593  1.0000
  H   H219      1.0  0.11984  0.06502  0.41616  1.0000
  C   C131      1.0  0.21490  0.32762  0.59790  1.0000
  H   H220      1.0  0.40072  0.02280  0.55585  1.0000
  H   H221      1.0  0.25619  0.30808  0.64209  1.0000
  H   H222      1.0  0.26959  0.33871  0.62068  1.0000
  Fe  Fe18      1.0  0.17108  0.25669  0.36307  1.0000
  C   C132      1.0  0.29225  0.30761  0.41073  1.0000
  H   H223      1.0  0.40606  0.28488  0.52857  1.0000
  H   H224      1.0  0.30033  0.02348  0.61423  1.0000
  H   H225      1.0  0.31489  0.29088  0.46099  1.0000
  H   H226      1.0  0.25527  0.39362  0.61487  1.0000
  C   C133      1.0  0.40325  0.27400  0.50730  1.0000
  H   H227      1.0  0.20339  0.32574  0.64198  1.0000
  H   H228      1.0  0.21355  0.36402  0.62928  1.0000
  C   C134      1.0  0.31768  0.01972  0.63127  1.0000
  H   H229      1.0  0.38869  0.25265  0.50923  1.0000
  C   C135      1.0  0.38867  0.29699  0.48653  1.0000
  H   H230      1.0  0.27639  0.29114  0.42183  1.0000
  H   H231      1.0  0.32467  0.08052  0.65091  1.0000
  C   C136      1.0  0.27409  0.39777  0.63042  1.0000
  H   H232      1.0  0.36479  0.00313  0.54714  1.0000
  H   H233      1.0  0.28746  0.44034  0.60856  1.0000
  H   H234      1.0  0.01698  0.40789  0.51110  1.0000
  H   H235      1.0  0.28815  0.34267  0.44276  1.0000
  H   H236      1.0  0.40974  0.15172  0.65449  1.0000
  H   H237      1.0  0.32391  0.13726  0.61499  1.0000
  C   C137      1.0  0.30341  0.12155  0.61368  1.0000
  H   H238      1.0  0.30093  0.43807  0.64462  1.0000
  C   C138      1.0  0.37012  0.03438  0.64886  1.0000
  H   H239      1.0  0.29483  0.38567  0.62227  1.0000
  H   H240      1.0  0.09490  0.06753  0.38557  1.0000
  H   H241      1.0  0.02839  0.36398  0.47905  1.0000
  S   S34       1.0  0.12202  0.24241  0.35275  1.0000
  C   C139      1.0  0.02659  0.38773  0.46969  1.0000
  H   H242      1.0  0.00366  0.40932  0.43364  1.0000
  C   C140      1.0  0.37470  0.00554  0.59250  1.0000
  C   C141      1.0  0.32140  0.34322  0.65630  1.0000
  C   C142      1.0  0.28112  0.43277  0.63039  1.0000
  H   H243      1.0  0.21465  0.12284  0.33914  1.0000
  H   H244      1.0  0.37165  0.00870  0.65212  1.0000
  H   H245      1.0  0.00495  0.43176  0.48161  1.0000
  H   H246      1.0  0.32720  0.36832  0.65384  1.0000
  N   N9        1.0  0.26246  0.35131  0.66507  1.0000
  C   C143      1.0  0.35000  0.32756  0.66886  1.0000
  C   C144      1.0  0.27258  0.99846  0.65997  1.0000
  H   H247      1.0  0.20057  0.19086  0.96062  1.0000
  H   H248      1.0  0.06166  0.00398  0.82478  1.0000
  H   H249      1.0  0.35650  0.33870  0.68928  1.0000
  S   S35       1.0  0.02553  0.06146  0.81486  1.0000
  H   H250      1.0  0.40958  0.02829  0.69511  1.0000
  Fe  Fe19      1.0  0.13170  0.28840  0.84245  1.0000
  S   S36       1.0  0.11839  0.24082  0.85909  1.0000
  S   S37       1.0  0.11292  0.32930  0.86878  1.0000
  Fe  Fe20      1.0  0.18205  0.26001  0.80305  1.0000
  S   S38       1.0  0.17261  0.21118  0.81867  1.0000
  S   S39       1.0  0.22354  0.26924  0.77358  1.0000
  Fe  Fe21      1.0  0.12234  0.22381  0.81402  1.0000
  S   S40       1.0  0.08930  0.19314  0.78796  1.0000
  Fe  Fe22      1.0  0.16968  0.23237  0.86251  1.0000
  S   S41       1.0  0.18771  0.20934  0.90310  1.0000
  S   S42       1.0  0.13190  0.27237  0.79665  1.0000
  S   S43       1.0  0.18294  0.28009  0.84746  1.0000
  H   H251      1.0  0.05581  0.32123  0.99030  1.0000
  C   C145      1.0  0.24512  0.35543  0.71798  1.0000
  C   C146      1.0  0.11694  0.31156  0.97284  1.0000
  C   C147      1.0  0.04912  0.41370  0.85228  1.0000
  C   C148      1.0  0.05859  0.39459  0.82957  1.0000
  C   C149      1.0  0.07781  0.36848  0.83414  1.0000
  C   C150      1.0  0.08807  0.36139  0.86152  1.0000
  C   C151      1.0  0.07874  0.38066  0.88419  1.0000
  C   C152      1.0  0.05913  0.40641  0.87968  1.0000
  H   H252      1.0  0.05094  0.39995  0.80828  1.0000
  H   H253      1.0  0.08479  0.35398  0.81647  1.0000
  H   H254      1.0  0.08664  0.37564  0.90543  1.0000
  H   H255      1.0  0.05182  0.42068  0.89735  1.0000
  C   C153      1.0  0.04435  0.09735  0.80671  1.0000
  C   C154      1.0  0.06047  0.11334  0.82821  1.0000
  C   C155      1.0  0.07488  0.14240  0.82280  1.0000
  C   C156      1.0  0.07304  0.15592  0.79582  1.0000
  C   C157      1.0  0.05741  0.13961  0.77418  1.0000
  C   C158      1.0  0.04324  0.11047  0.77955  1.0000
  H   H256      1.0  0.06153  0.10337  0.84930  1.0000
  H   H257      1.0  0.08687  0.15462  0.83963  1.0000
  H   H258      1.0  0.05621  0.14966  0.75314  1.0000
  H   H259      1.0  0.03115  0.09837  0.76279  1.0000
  H   H260      1.0  0.07858  0.03680  0.78083  1.0000
  C   C159      1.0  0.25404  0.26305  0.72224  1.0000
  C   C160      1.0  0.22524  0.26172  0.73634  1.0000
  C   C161      1.0  0.19869  0.25519  0.72042  1.0000
  H   H261      1.0  0.39700  0.39207  0.94619  1.0000
  H   H262      1.0  0.26302  0.34034  0.72777  1.0000
  H   H263      1.0  0.27477  0.26811  0.73423  1.0000
  H   H264      1.0  0.17635  0.25415  0.73085  1.0000
  C   C162      1.0  0.21382  0.22466  0.92883  1.0000
  C   C163      1.0  0.23346  0.24985  0.92282  1.0000
  C   C164      1.0  0.25497  0.26029  0.94327  1.0000
  C   C165      1.0  0.25684  0.24607  0.97020  1.0000
  C   C166      1.0  0.23672  0.22126  0.97642  1.0000
  C   C167      1.0  0.21557  0.21046  0.95574  1.0000
  H   H265      1.0  0.23230  0.26103  0.90229  1.0000
  H   H266      1.0  0.27033  0.27955  0.93823  1.0000
  H   H267      1.0  0.07149  0.35814  0.97778  1.0000
  C   C168      1.0  0.23807  0.34422  0.68736  1.0000
  H   H268      1.0  0.10672  0.08476  0.77913  1.0000
  H   H269      1.0  0.99678  0.22947  0.74750  1.0000
  H   H270      1.0  0.12918  0.13847  0.76946  1.0000
  Fe  Fe23      1.0  0.00263  0.48033  0.87659  1.0000
  Fe  Fe24      1.0  0.00111  0.02948  0.78320  1.0000
  H   H271      1.0  0.27983  0.39713  0.67635  1.0000
  H   H272      1.0  0.11322  0.45746  0.84636  1.0000
  C   C169      1.0  0.29296  0.33909  0.67595  1.0000
  N   N10       1.0  0.27872  0.21357  0.83570  1.0000
  C   C170      1.0  0.26247  0.20127  0.86189  1.0000
  C   C171      1.0  0.27197  0.24804  0.83307  1.0000
  C   C172      1.0  0.26432  0.19776  0.81016  1.0000
  C   C173      1.0  0.31313  0.20741  0.83584  1.0000
  C   C174      1.0  0.32968  0.20779  0.86514  1.0000
  C   C175      1.0  0.26338  0.16525  0.86596  1.0000
  C   C176      1.0  0.27938  0.20489  0.78079  1.0000
  C   C177      1.0  0.28624  0.26983  0.85578  1.0000
  C   C178      1.0  0.27385  0.30304  0.85290  1.0000
  C   C179      1.0  0.36485  0.20726  0.86153  1.0000
  C   C180      1.0  0.25935  0.15582  0.89707  1.0000
  C   C181      1.0  0.26205  0.18801  0.75699  1.0000
  H   H273      1.0  0.23757  0.20798  0.86155  1.0000
  H   H274      1.0  0.27163  0.21240  0.88139  1.0000
  H   H275      1.0  0.28048  0.25748  0.81256  1.0000
  H   H276      1.0  0.24643  0.25183  0.83286  1.0000
  H   H277      1.0  0.23927  0.20367  0.80881  1.0000
  H   H278      1.0  0.26530  0.17196  0.81225  1.0000
  H   H279      1.0  0.31809  0.18396  0.82670  1.0000
  H   H280      1.0  0.32515  0.22433  0.82152  1.0000
  H   H281      1.0  0.32309  0.18691  0.87776  1.0000
  H   H282      1.0  0.32381  0.22845  0.87806  1.0000
  H   H283      1.0  0.24417  0.15430  0.85376  1.0000
  H   H284      1.0  0.28538  0.15515  0.85813  1.0000
  H   H285      1.0  0.30381  0.19704  0.78015  1.0000
  H   H286      1.0  0.27904  0.23002  0.77555  1.0000
  H   H287      1.0  0.28099  0.26190  0.87763  1.0000
  H   H288      1.0  0.31174  0.27111  0.85286  1.0000
  S   S44       1.0  0.02569  0.44686  0.84521  1.0000
  H   H289      1.0  0.24848  0.30339  0.85668  1.0000
  H   H290      1.0  0.37209  0.18619  0.84951  1.0000
  H   H291      1.0  0.37298  0.22851  0.85015  1.0000
  H   H292      1.0  0.37605  0.20670  0.88273  1.0000
  H   H293      1.0  0.27788  0.16626  0.91040  1.0000
  H   H294      1.0  0.23650  0.16351  0.90520  1.0000
  H   H295      1.0  0.26049  0.13003  0.89905  1.0000
  H   H296      1.0  0.26288  0.16232  0.76007  1.0000
  N   N11       1.0  0.12489  0.04089  0.76343  1.0000
  C   C182      1.0  0.09095  0.48851  0.89741  1.0000
  H   H297      1.0  0.13816  0.48690  0.88122  1.0000
  C   C183      1.0  0.38511  0.03202  0.70122  1.0000
  C   C184      1.0  0.12931  0.07258  0.77683  1.0000
  C   C185      1.0  0.15273  0.09456  0.76157  1.0000
  H   H298      1.0  0.23356  0.31862  0.68856  1.0000
  H   H299      1.0  0.34416  0.05375  0.68609  1.0000
  H   H300      1.0  0.22240  0.35966  0.75901  1.0000
  C   C186      1.0  0.15181  0.12746  0.77406  1.0000
  C   C187      1.0  0.09947  0.46649  0.92168  1.0000
  H   H301      1.0  0.11219  0.47928  0.93857  1.0000
  H   H302      1.0  0.13160  0.00440  0.81325  1.0000
  H   H303      1.0  0.17202  0.03548  0.74873  1.0000
  H   H304      1.0  0.04215  0.33814  0.95759  1.0000
  H   H305      1.0  0.42525  0.42345  0.94816  1.0000
  H   H306      1.0  0.43353  0.38574  0.96352  1.0000
  H   H307      1.0  0.13791  0.07014  0.79895  1.0000
  H   H308      1.0  0.11397  0.44702  0.91365  1.0000
  H   H309      1.0  0.17664  0.08564  0.76417  1.0000
  H   H310      1.0  0.35967  0.42761  0.96744  1.0000
  C   C188      1.0  0.28896  0.48910  0.97071  1.0000
  H   H311      1.0  0.09409  0.00121  0.76893  1.0000
  H   H312      1.0  0.02143  0.22290  0.71719  1.0000
  H   H313      1.0  0.10671  0.02033  0.72488  1.0000
  H   H314      1.0  0.13364  0.05071  0.71880  1.0000
  H   H315      1.0  0.11366  0.43612  0.79862  1.0000
  S   S45       1.0  0.00207  0.03825  0.73639  1.0000
  H   H316      1.0  0.20709  0.32891  0.73706  1.0000
  C   C189      1.0  0.06284  0.33477  0.97120  1.0000
  H   H317      1.0  0.27865  0.25828  0.68227  1.0000
  H   H318      1.0  0.07800  0.45692  0.80381  1.0000
  C   C190      1.0  0.20090  0.25056  0.69079  1.0000
  S   S46       1.0  0.01140  0.48605  0.92353  1.0000
  C   C191      1.0  0.21634  0.35318  0.73688  1.0000
  C   C192      1.0  0.22965  0.25186  0.67668  1.0000
  H   H319      1.0  0.15544  0.12698  0.79740  1.0000
  H   H320      1.0  0.30850  0.44314  0.96894  1.0000
  H   H321      1.0  0.37385  0.00890  0.70447  1.0000
  H   H322      1.0  0.15576  0.26130  0.92788  1.0000
  H   H323      1.0  0.06875  0.04229  0.69032  1.0000
  H   H324      1.0  0.07860  0.47465  0.88112  1.0000
  H   H325      1.0  0.18272  0.34875  0.88869  1.0000
  H   H326      1.0  0.10867  0.03723  0.82429  1.0000
  H   H327      1.0  0.13703  0.23017  0.96643  1.0000
  C   C193      1.0  0.08698  0.06623  0.72762  1.0000
  C   C194      1.0  0.18239  0.31245  0.99803  1.0000
  H   H328      1.0  0.38568  0.45869  0.97368  1.0000
  H   H329      1.0  0.27877  0.31248  0.83135  1.0000
  C   C195      1.0  0.18912  0.31621  0.92378  1.0000
  H   H330      1.0  0.42064  0.42368  0.00052  1.0000
  H   H331      1.0  0.23749  0.19563  0.75634  1.0000
  H   H332      1.0  0.18683  0.27398  0.96814  1.0000
  C   C196      1.0  0.16778  0.28695  0.97879  1.0000
  S   S47       1.0  0.47600  0.46470  0.98106  1.0000
  H   H333      1.0  0.27288  0.19377  0.73620  1.0000
  H   H334      1.0  0.09327  0.33135  0.93537  1.0000
  H   H335      1.0  0.07737  0.29492  0.94729  1.0000
  C   C197      1.0  0.08769  0.31733  0.95447  1.0000
  H   H336      1.0  0.18638  0.29588  0.90951  1.0000
  S   S48       1.0  0.28512  0.25998  0.99471  1.0000
  H   H337      1.0  0.08634  0.23271  0.92063  1.0000
  H   H338      1.0  0.38461  0.04496  0.72164  1.0000
  H   H339      1.0  0.19803  0.36922  0.72924  1.0000
  C   C198      1.0  0.10351  0.45963  0.80188  1.0000
  H   H340      1.0  0.12017  0.27937  0.92095  1.0000
  H   H341      1.0  0.22228  0.33761  0.89500  1.0000
  H   H342      1.0  0.06657  0.05954  0.74052  1.0000
  H   H343      1.0  0.00708  0.09948  0.68535  1.0000
  H   H344      1.0  0.34572  0.30227  0.67246  1.0000
  H   H345      1.0  0.12312  0.33432  0.98278  1.0000
  C   C199      1.0  0.07739  0.06581  0.69644  1.0000
  C   C200      1.0  0.10451  0.22076  0.93320  1.0000
  C   C201      1.0  0.11422  0.04358  0.73301  1.0000
  H   H346      1.0  0.14164  0.33035  0.92199  1.0000
  H   H347      1.0  0.10116  0.25104  0.96908  1.0000
  H   H348      1.0  0.09362  0.20105  0.94492  1.0000
  C   C202      1.0  0.20004  0.34362  0.90547  1.0000
  C   C203      1.0  0.37521  0.43760  0.98377  1.0000
  H   H349      1.0  0.27899  0.48740  0.94906  1.0000
  H   H350      1.0  0.28511  0.31842  0.86884  1.0000
  C   C204      1.0  0.13523  0.27130  0.93866  1.0000
  C   C205      1.0  0.11947  0.24340  0.95418  1.0000
  H   H351      1.0  0.14789  0.09657  0.73856  1.0000
  H   H352      1.0  0.12216  0.21104  0.91856  1.0000
  H   H353      1.0  0.16674  0.02586  0.78480  1.0000
  H   H354      1.0  0.20769  0.31114  0.93928  1.0000
  N   N12       1.0  0.14458  0.29834  0.95732  1.0000
  C   C206      1.0  0.15818  0.32386  0.93894  1.0000
  H   H355      1.0  0.16167  0.34567  0.95137  1.0000
  H   H356      1.0  0.20368  0.36477  0.91869  1.0000
  C   C207      1.0  0.25632  0.25767  0.69270  1.0000
  H   H357      1.0  0.19592  0.32957  0.98533  1.0000
  C   C208      1.0  0.15547  0.02400  0.76365  1.0000
  H   H358      1.0  0.09342  0.09064  0.73291  1.0000
  H   H359      1.0  0.17022  0.14214  0.76425  1.0000
  C   C209      1.0  0.11693  0.47432  0.82875  1.0000
  H   H360      1.0  0.07808  0.45643  0.93118  1.0000
  C   C210      1.0  0.36811  0.05057  0.67841  1.0000
  C   C211      1.0  0.10046  0.02327  0.78001  1.0000
  H   H361      1.0  0.10886  0.47429  0.78303  1.0000
  C   C212      1.0  0.41506  0.40314  0.95962  1.0000
  C   C213      1.0  0.40143  0.41346  0.98803  1.0000
  H   H362      1.0  0.31630  0.01163  0.67713  1.0000
  H   H363      1.0  0.25342  0.37999  0.71807  1.0000
  H   H364      1.0  0.09722  0.07233  0.68254  1.0000
  H   H365      1.0  0.29959  0.35096  0.69601  1.0000
  H   H366      1.0  0.05856  0.08288  0.69302  1.0000
  H   H367      1.0  0.47948  0.28770  0.97660  1.0000
  H   H368      1.0  0.23788  0.21002  0.99696  1.0000
  H   H369      1.0  0.48106  0.34263  0.99329  1.0000
  H   H370      1.0  0.00310  0.16882  0.71310  1.0000
  C   C214      1.0  0.47905  0.29318  0.99965  1.0000
  H   H371      1.0  0.21554  0.35482  0.68134  1.0000
  C   C215      1.0  0.01008  0.21150  0.73571  1.0000
  H   H372      1.0  0.18010  0.24602  0.67869  1.0000
  H   H373      1.0  0.14219  0.47725  0.82545  1.0000
  C   C216      1.0  0.10865  0.01558  0.81133  1.0000
  H   H374      1.0  0.15679  0.26959  0.99329  1.0000
  H   H375      1.0  0.02848  0.20214  0.74975  1.0000
  H   H376      1.0  0.11004  0.29634  0.99097  1.0000
  H   H377      1.0  0.27072  0.48264  0.98636  1.0000
  H   H378      1.0  0.48303  0.39976  0.94424  1.0000
  H   H379      1.0  0.29066  0.31380  0.68113  1.0000
  H   H380      1.0  0.37880  0.07422  0.67696  1.0000
  H   H381      1.0  0.33350  0.47390  0.95632  1.0000
  C   C217      1.0  0.31667  0.46720  0.97321  1.0000
  H   H382      1.0  0.26103  0.99888  0.68106  1.0000
  H   H383      1.0  0.33441  0.38942  0.98794  1.0000
  H   H384      1.0  0.39283  0.39216  0.99891  1.0000
  H   H385      1.0  0.28141  0.83082  0.07684  1.0000
  S   S49       1.0  0.45876  0.50721  0.03658  1.0000
  C   C218      1.0  0.15692  0.67083  0.01381  1.0000
  H   H386      1.0  0.11560  0.69739  0.00291  1.0000
  S   S50       1.0  0.07965  0.97441  0.22778  1.0000
  Fe  Fe25      1.0  0.25261  0.81007  0.22858  1.0000
  S   S51       1.0  0.21444  0.78789  0.20315  1.0000
  S   S52       1.0  0.27372  0.79219  0.27034  1.0000
  Fe  Fe26      1.0  0.26471  0.86058  0.18271  1.0000
  S   S53       1.0  0.22624  0.84224  0.15478  1.0000
  S   S54       1.0  0.29205  0.90069  0.16201  1.0000
  Fe  Fe27      1.0  0.19876  0.83755  0.19532  1.0000
  S   S55       1.0  0.14668  0.84588  0.19891  1.0000
  Fe  Fe28      1.0  0.24471  0.79457  0.16438  1.0000
  S   S56       1.0  0.25819  0.75678  0.13211  1.0000
  S   S57       1.0  0.23556  0.85957  0.22274  1.0000
  S   S58       1.0  0.28435  0.81299  0.19044  1.0000
  Fe  Fe29      1.0  0.46195  0.97719  0.15228  1.0000
  S   S59       1.0  0.43023  0.94951  0.18205  1.0000
  S   S60       1.0  0.45910  0.97657  0.10472  1.0000
  C   C219      1.0  0.33072  0.91332  0.16796  1.0000
  C   C220      1.0  0.34534  0.90977  0.19419  1.0000
  C   C221      1.0  0.37575  0.92107  0.19810  1.0000
  C   C222      1.0  0.39199  0.93580  0.17584  1.0000
  C   C223      1.0  0.37754  0.93893  0.14947  1.0000
  C   C224      1.0  0.34696  0.92802  0.14567  1.0000
  H   H387      1.0  0.33307  0.89872  0.21159  1.0000
  H   H388      1.0  0.38674  0.91852  0.21858  1.0000
  H   H389      1.0  0.38999  0.94967  0.13206  1.0000
  H   H390      1.0  0.33594  0.93050  0.12522  1.0000
  C   C225      1.0  0.09731  0.93873  0.21773  1.0000
  C   C226      1.0  0.12949  0.93830  0.21298  1.0000
  C   C227      1.0  0.14498  0.91015  0.20700  1.0000
  C   C228      1.0  0.12826  0.88221  0.20497  1.0000
  C   C229      1.0  0.09595  0.88278  0.20887  1.0000
  C   C230      1.0  0.08054  0.91084  0.21536  1.0000
  H   H391      1.0  0.14264  0.95979  0.21455  1.0000
  H   H392      1.0  0.16981  0.91007  0.20392  1.0000
  H   H393      1.0  0.08281  0.86129  0.20719  1.0000
  H   H394      1.0  0.05574  0.91089  0.21860  1.0000
  C   C231      1.0  0.23183  0.74463  0.03776  1.0000
  C   C232      1.0  0.25531  0.72677  0.04999  1.0000
  C   C233      1.0  0.26365  0.73148  0.07864  1.0000
  C   C234      1.0  0.24875  0.75410  0.09542  1.0000
  C   C235      1.0  0.22591  0.77261  0.08294  1.0000
  C   C236      1.0  0.21747  0.76782  0.05431  1.0000
  H   H395      1.0  0.26684  0.70910  0.03749  1.0000
  H   H396      1.0  0.28147  0.71715  0.08801  1.0000
  H   H397      1.0  0.21424  0.79013  0.09553  1.0000
  H   H398      1.0  0.19935  0.78187  0.04509  1.0000
  H   H399      1.0  0.22239  0.86076  0.32405  1.0000
  C   C237      1.0  0.22664  0.76176  0.30063  1.0000
  C   C238      1.0  0.25831  0.76825  0.29807  1.0000
  S   S61       1.0  0.21875  0.73813  0.00240  1.0000
  H   H400      1.0  0.46545  0.65048  0.01681  1.0000
  H   H401      1.0  0.21078  0.77065  0.28487  1.0000
  H   H402      1.0  0.27168  0.64756  0.04188  1.0000
  H   H403      1.0  0.18591  0.60354  0.09041  1.0000
  N   N13       1.0  0.11102  0.90055  0.30183  1.0000
  C   C239      1.0  0.12541  0.87296  0.28683  1.0000
  C   C240      1.0  0.07777  0.90496  0.29239  1.0000
  H   H404      1.0  0.46411  0.88882  0.09614  1.0000
  H   H405      1.0  0.25288  0.83244  0.32134  1.0000
  H   H406      1.0  0.13145  0.93027  0.26973  1.0000
  H   H407      1.0  0.38198  0.79900  0.09622  1.0000
  C   C241      1.0  0.05893  0.87531  0.28431  1.0000
  C   C242      1.0  0.37795  0.74254  0.11879  1.0000
  H   H408      1.0  0.35495  0.80520  0.18166  1.0000
  C   C243      1.0  0.43852  0.88696  0.09408  1.0000
  H   H409      1.0  0.12378  0.87628  0.26344  1.0000
  H   H410      1.0  0.11242  0.85108  0.29110  1.0000
  H   H411      1.0  0.06440  0.91805  0.30875  1.0000
  H   H412      1.0  0.07681  0.91993  0.27308  1.0000
  C   C244      1.0  0.02472  0.88296  0.28017  1.0000
  H   H413      1.0  0.16788  0.83711  0.25648  1.0000
  C   C245      1.0  0.21541  0.74399  0.32379  1.0000
  H   H414      1.0  0.49121  0.63531  0.04339  1.0000
  C   C246      1.0  0.42637  0.86049  0.11292  1.0000
  H   H415      1.0  0.38561  0.85254  0.08786  1.0000
  H   H416      1.0  0.06774  0.86560  0.26397  1.0000
  H   H417      1.0  0.20070  0.70704  0.08344  1.0000
  H   H418      1.0  0.16355  0.86388  0.31688  1.0000
  H   H419      1.0  0.37069  0.99253  0.03658  1.0000
  H   H420      1.0  0.47980  0.70452  0.02920  1.0000
  H   H421      1.0  0.13996  0.68569  0.11280  1.0000
  H   H422      1.0  0.19556  0.83200  0.28442  1.0000
  H   H423      1.0  0.43374  0.86588  0.13494  1.0000
  C   C247      1.0  0.16156  0.68632  0.04339  1.0000
  H   H424      1.0  0.13291  0.64945  0.07889  1.0000
  C   C248      1.0  0.18487  0.68793  0.09044  1.0000
  H   H425      1.0  0.36053  0.97556  0.08625  1.0000
  N   N14       1.0  0.17779  0.66683  0.06558  1.0000
  C   C249      1.0  0.15675  0.70349  0.10515  1.0000
  H   H426      1.0  0.30307  0.76118  0.31708  1.0000
  C   C250      1.0  0.15630  0.64032  0.07355  1.0000
  C   C251      1.0  0.29138  0.83573  0.09809  1.0000
  H   H427      1.0  0.17504  0.88522  0.28542  1.0000
  N   N15       1.0  0.37539  0.83309  0.12950  1.0000
  H   H428      1.0  0.18160  0.66462  0.27061  1.0000
  H   H429      1.0  0.38849  0.85561  0.21669  1.0000
  H   H430      1.0  0.28047  0.81950  0.11359  1.0000
  C   C252      1.0  0.15989  0.86627  0.29372  1.0000
  C   C253      1.0  0.26149  0.63148  0.05793  1.0000
  C   C254      1.0  0.37571  0.99610  0.08258  1.0000
  C   C255      1.0  0.20138  0.65382  0.28192  1.0000
  C   C256      1.0  0.36377  0.82929  0.18411  1.0000
  C   C257      1.0  0.37964  0.83156  0.21299  1.0000
  H   H431      1.0  0.15723  0.81565  0.28814  1.0000
  H   H432      1.0  0.20614  0.63045  0.27273  1.0000
  C   C258      1.0  0.14049  0.59688  0.10721  1.0000
  H   H433      1.0  0.40259  0.97081  0.05122  1.0000
  H   H434      1.0  0.39521  0.99508  0.09773  1.0000
  C   C259      1.0  0.27039  0.99036  0.14590  1.0000
  C   C260      1.0  0.34078  0.83716  0.12702  1.0000
  H   H435      1.0  0.13492  0.98805  0.26776  1.0000
  H   H436      1.0  0.22213  0.66887  0.27865  1.0000
  H   H437      1.0  0.33442  0.86121  0.13347  1.0000
  H   H438      1.0  0.20732  0.58698  0.33516  1.0000
  H   H439      1.0  0.32639  0.98593  0.11853  1.0000
  H   H440      1.0  0.14617  0.64129  0.30715  1.0000
  C   C261      1.0  0.16680  0.61866  0.09793  1.0000
  H   H441      1.0  0.27989  0.62549  0.07339  1.0000
  H   H442      1.0  0.15333  0.92824  0.30148  1.0000
  H   H443      1.0  0.05360  0.59174  0.33127  1.0000
  H   H444      1.0  0.17429  0.63189  0.11691  1.0000
  H   H445      1.0  0.15251  0.62468  0.05505  1.0000
  H   H446      1.0  0.36269  0.82581  0.23002  1.0000
  H   H447      1.0  0.08352  0.56294  0.33481  1.0000
  H   H448      1.0  0.18351  0.74148  0.12416  1.0000
  C   C262      1.0  0.16542  0.63049  0.31927  1.0000
  H   H449      1.0  0.19777  0.67549  0.10728  1.0000
  H   H450      1.0  0.22735  0.63185  0.09101  1.0000
  C   C263      1.0  0.38935  0.99292  0.05275  1.0000
  H   H451      1.0  0.13230  0.58254  0.08903  1.0000
  H   H452      1.0  0.32801  0.82174  0.14190  1.0000
  H   H453      1.0  0.40338  0.73900  0.11768  1.0000
  H   H454      1.0  0.17857  0.70775  0.14682  1.0000
  C   C264      1.0  0.17065  0.83590  0.27986  1.0000
  H   H455      1.0  0.21537  0.64138  0.32395  1.0000
  H   H456      1.0  0.42832  0.90959  0.10071  1.0000
  H   H457      1.0  0.47950  0.80851  0.06514  1.0000
  H   H458      1.0  0.43792  0.83869  0.10605  1.0000
  H   H459      1.0  0.16910  0.60739  0.30903  1.0000
  H   H460      1.0  0.45766  0.65784  0.05380  1.0000
  H   H461      1.0  0.12079  0.61053  0.11587  1.0000
  C   C265      1.0  0.11275  0.89760  0.33369  1.0000
  H   H462      1.0  0.14885  0.58090  0.12409  1.0000
  C   C266      1.0  0.23460  0.64720  0.07337  1.0000
  H   H463      1.0  0.33076  0.80679  0.09032  1.0000
  H   H464      1.0  0.39915  0.81483  0.21427  1.0000
  C   C267      1.0  0.16710  0.72277  0.13079  1.0000
  C   C268      1.0  0.38590  0.83921  0.15969  1.0000
  H   H465      1.0  0.33590  0.84749  0.08125  1.0000
  C   C269      1.0  0.13527  0.98830  0.29137  1.0000
  C   C270      1.0  0.32646  0.83112  0.09734  1.0000
  H   H466      1.0  0.09197  0.96459  0.29590  1.0000
  H   H467      1.0  0.37949  0.77056  0.15626  1.0000
  C   C271      1.0  0.19449  0.65117  0.31367  1.0000
  H   H468      1.0  0.28563  0.86009  0.10416  1.0000
  H   H469      1.0  0.25367  0.60969  0.04730  1.0000
  H   H470      1.0  0.24383  0.66901  0.08289  1.0000
  C   C272      1.0  0.39054  0.85736  0.11059  1.0000
  H   H471      1.0  0.43288  0.88252  0.07145  1.0000
  H   H472      1.0  0.06047  0.85678  0.30058  1.0000
  H   H473      1.0  0.34476  0.77461  0.13522  1.0000
  C   C273      1.0  0.38560  0.80131  0.11952  1.0000
  H   H474      1.0  0.34357  0.84519  0.18459  1.0000
  H   H475      1.0  0.14671  0.73396  0.14088  1.0000
  H   H476      1.0  0.38957  0.86474  0.16313  1.0000
  H   H477      1.0  0.20296  0.63372  0.03948  1.0000
  H   H478      1.0  0.36741  0.72248  0.13034  1.0000
  H   H479      1.0  0.40881  0.82818  0.16354  1.0000
  H   H480      1.0  0.38060  0.88082  0.11508  1.0000
  C   C274      1.0  0.37034  0.77284  0.13437  1.0000
  H   H481      1.0  0.41095  0.79852  0.12254  1.0000
  H   H482      1.0  0.17439  0.70862  0.03984  1.0000
  H   H483      1.0  0.15961  0.98693  0.29879  1.0000
  C   C275      1.0  0.27852  0.75641  0.31886  1.0000
  H   H484      1.0  0.21752  0.67253  0.03784  1.0000
  H   H485      1.0  0.13811  0.69318  0.05087  1.0000
  H   H486      1.0  0.37808  0.50355  0.09461  1.0000
  C   C276      1.0  0.12926  0.92928  0.29325  1.0000
  H   H487      1.0  0.25789  0.99146  0.16652  1.0000
  S   S62       1.0  0.02512  0.98428  0.29256  1.0000
  H   H488      1.0  0.19103  0.67519  0.32177  1.0000
  H   H489      1.0  0.36825  0.74292  0.09695  1.0000
  Fe  Fe30      1.0  0.03122  0.98437  0.24511  1.0000
  H   H490      1.0  0.14483  0.71969  0.09045  1.0000
  H   H491      1.0  0.27797  0.96588  0.14253  1.0000
  H   H492      1.0  0.19084  0.73937  0.32558  1.0000
  C   C277      1.0  0.20762  0.65480  0.05271  1.0000
  H   H493      1.0  0.01433  0.89085  0.30050  1.0000
  C   C278      1.0  0.11607  0.96117  0.30322  1.0000
  H   H494      1.0  0.01199  0.86182  0.27297  1.0000
  H   H495      1.0  0.17947  0.66588  0.00347  1.0000
  H   H496      1.0  0.48794  0.74783  0.07684  1.0000
  H   H497      1.0  0.39355  0.51751  0.06136  1.0000
  H   H498      1.0  0.02184  0.90156  0.26394  1.0000
  H   H499      1.0  0.10253  0.61420  0.31467  1.0000
  H   H500      1.0  0.14373  0.64865  0.01542  1.0000
  C   C279      1.0  0.47632  0.65548  0.03768  1.0000
  H   H501      1.0  0.11642  0.96299  0.32670  1.0000
  H   H502      1.0  0.25409  0.99700  0.12874  1.0000
  Fe  Fe31      1.0  0.20257  0.63888  0.45367  1.0000
  S   S63       1.0  0.24335  0.63792  0.42374  1.0000
  S   S64       1.0  0.17181  0.59555  0.44804  1.0000
  Fe  Fe32      1.0  0.22471  0.70110  0.48097  1.0000
  S   S65       1.0  0.26602  0.70363  0.45178  1.0000
  Fe  Fe33      1.0  0.23376  0.68906  0.41652  1.0000
  S   S66       1.0  0.21967  0.71063  0.37363  1.0000
  Fe  Fe34      1.0  0.27213  0.65232  0.46146  1.0000
  S   S67       1.0  0.31649  0.63363  0.48205  1.0000
  S   S68       1.0  0.19191  0.68925  0.44520  1.0000
  S   S69       1.0  0.23185  0.65048  0.49202  1.0000
  C   C280      1.0  0.43974  0.59303  0.57406  1.0000
  S   S70       1.0  0.42715  0.53876  0.45678  1.0000
  H   H503      1.0  0.48452  0.90551  0.66000  1.0000
  S   S71       1.0  0.21532  0.85948  0.66742  1.0000
  S   S72       1.0  0.02794  0.57429  0.42237  1.0000
  H   H504      1.0  0.09358  0.84465  0.38758  1.0000
  H   H505      1.0  0.48626  0.67912  0.48433  1.0000
  C   C281      1.0  0.34493  0.60482  0.47431  1.0000
  C   C282      1.0  0.35327  0.59686  0.44653  1.0000
  C   C283      1.0  0.37825  0.57636  0.44158  1.0000
  C   C284      1.0  0.39491  0.56322  0.46426  1.0000
  C   C285      1.0  0.38598  0.57047  0.49203  1.0000
  C   C286      1.0  0.36145  0.59145  0.49698  1.0000
  H   H506      1.0  0.34100  0.60708  0.42886  1.0000
  H   H507      1.0  0.38482  0.57079  0.42000  1.0000
  H   H508      1.0  0.39798  0.55995  0.50967  1.0000
  H   H509      1.0  0.35516  0.59734  0.51856  1.0000
  C   C287      1.0  0.13180  0.59081  0.44023  1.0000
  C   C288      1.0  0.10990  0.61379  0.44645  1.0000
  C   C289      1.0  0.07826  0.60844  0.44067  1.0000
  C   C290      1.0  0.06815  0.58014  0.42857  1.0000
  C   C291      1.0  0.09009  0.55731  0.42204  1.0000
  C   C292      1.0  0.12166  0.56256  0.42807  1.0000
  H   H510      1.0  0.11728  0.63545  0.45617  1.0000
  H   H511      1.0  0.06149  0.62620  0.44592  1.0000
  H   H512      1.0  0.08267  0.53540  0.41282  1.0000
  H   H513      1.0  0.13836  0.54451  0.42342  1.0000
  S   S73       1.0  0.21975  0.74539  0.50816  1.0000
  C   C293      1.0  0.44041  0.60183  0.54262  1.0000
  C   C294      1.0  0.38521  0.67938  0.50453  1.0000
  H   H514      1.0  0.11057  0.64251  0.39232  1.0000
  S   S74       1.0  0.20945  0.76696  0.64267  1.0000
  H   H515      1.0  0.21990  0.57454  0.39838  1.0000
  H   H516      1.0  0.22797  0.79979  0.54311  1.0000
  S   S75       1.0  0.45882  0.98356  0.61454  1.0000
  H   H517      1.0  0.36069  0.80763  0.66452  1.0000
  H   H518      1.0  0.35314  0.83423  0.63537  1.0000
  H   H519      1.0  0.06961  0.58370  0.36572  1.0000
  H   H520      1.0  0.39171  0.95598  0.63742  1.0000
  H   H521      1.0  0.34010  0.93349  0.62556  1.0000
  C   C295      1.0  0.21908  0.75030  0.54584  1.0000
  C   C296      1.0  0.21305  0.72554  0.56450  1.0000
  C   C297      1.0  0.21055  0.73105  0.59402  1.0000
  C   C298      1.0  0.21466  0.76120  0.60540  1.0000
  C   C299      1.0  0.22156  0.78580  0.58683  1.0000
  C   C300      1.0  0.22341  0.78041  0.55726  1.0000
  H   H522      1.0  0.20948  0.70229  0.55612  1.0000
  H   H523      1.0  0.20508  0.71182  0.60808  1.0000
  H   H524      1.0  0.22463  0.80914  0.59515  1.0000
  H   H525      1.0  0.10280  0.69913  0.38553  1.0000
  N   N16       1.0  0.24810  0.80472  0.40835  1.0000
  C   C301      1.0  0.21510  0.79301  0.40983  1.0000
  C   C302      1.0  0.25539  0.81676  0.37882  1.0000
  C   C303      1.0  0.26898  0.77725  0.41430  1.0000
  C   C304      1.0  0.25476  0.82926  0.43053  1.0000
  C   C305      1.0  0.23384  0.85844  0.43042  1.0000
  C   C306      1.0  0.20478  0.77859  0.43858  1.0000
  C   C307      1.0  0.30411  0.78230  0.40838  1.0000
  C   C308      1.0  0.22900  0.83310  0.36223  1.0000
  H   H526      1.0  0.46325  0.62917  0.44504  1.0000
  C   C309      1.0  0.24007  0.87885  0.45643  1.0000
  C   C310      1.0  0.17039  0.77010  0.43821  1.0000
  H   H527      1.0  0.21129  0.77496  0.39313  1.0000
  H   H528      1.0  0.19837  0.81171  0.40485  1.0000
  H   H529      1.0  0.27585  0.83268  0.37939  1.0000
  H   H530      1.0  0.26223  0.79712  0.36472  1.0000
  H   H531      1.0  0.26150  0.75658  0.40166  1.0000
  H   H532      1.0  0.26703  0.77006  0.43695  1.0000
  H   H533      1.0  0.25397  0.81882  0.45220  1.0000
  H   H534      1.0  0.27883  0.83818  0.42823  1.0000
  H   H535      1.0  0.20893  0.85219  0.43085  1.0000
  H   H536      1.0  0.23897  0.87290  0.41143  1.0000
  H   H537      1.0  0.21771  0.75683  0.44295  1.0000
  H   H538      1.0  0.20849  0.79505  0.45642  1.0000
  H   H539      1.0  0.31345  0.80211  0.42087  1.0000
  H   H540      1.0  0.30856  0.78695  0.38554  1.0000
  H   H541      1.0  0.02600  0.63900  0.34757  1.0000
  H   H542      1.0  0.21665  0.85059  0.37516  1.0000
  C   C311      1.0  0.37849  0.94364  0.65342  1.0000
  N   N17       1.0  0.44909  0.84769  0.64660  1.0000
  Fe  Fe35      1.0  0.46060  0.51471  0.48737  1.0000
  H   H543      1.0  0.26472  0.88640  0.45699  1.0000
  H   H544      1.0  0.22532  0.89999  0.45561  1.0000
  H   H545      1.0  0.23447  0.86588  0.47627  1.0000
  H   H546      1.0  0.42169  0.93208  0.58648  1.0000
  C   C312      1.0  0.43487  0.64924  0.49607  1.0000
  H   H547      1.0  0.99462  0.62568  0.48561  1.0000
  H   H548      1.0  0.34750  0.75709  0.41105  1.0000
  H   H549      1.0  0.32078  0.74863  0.43950  1.0000
  H   H550      1.0  0.10715  0.84630  0.33688  1.0000
  H   H551      1.0  0.37106  0.65815  0.50848  1.0000
  H   H552      1.0  0.46165  0.64686  0.55170  1.0000
  H   H553      1.0  0.20118  0.63414  0.36955  1.0000
  H   H554      1.0  0.37463  0.69894  0.51653  1.0000
  N   N18       1.0  0.15627  0.62655  0.35002  1.0000
  H   H555      1.0  0.14834  0.64967  0.40719  1.0000
  H   H556      1.0  0.31427  0.73259  0.40444  1.0000
  H   H557      1.0  0.23687  0.55433  0.36869  1.0000
  H   H558      1.0  0.13023  0.86414  0.38231  1.0000
  H   H559      1.0  0.40964  0.82639  0.62544  1.0000
  C   C313      1.0  0.28690  0.73599  0.64162  1.0000
  H   H560      1.0  0.47376  0.80784  0.60133  1.0000
  C   C314      1.0  0.24159  0.84951  0.33574  1.0000
  H   H561      1.0  0.25868  0.86784  0.34161  1.0000
  C   C315      1.0  0.41761  0.83179  0.64740  1.0000
  H   H562      1.0  0.12925  0.66894  0.34634  1.0000
  C   C316      1.0  0.13133  0.65776  0.39126  1.0000
  C   C317      1.0  0.22688  0.57689  0.37573  1.0000
  H   H563      1.0  0.18263  0.56496  0.35880  1.0000
  H   H564      1.0  0.07256  0.86857  0.34444  1.0000
  H   H565      1.0  0.35969  0.98510  0.59700  1.0000
  H   H566      1.0  0.42241  0.57415  0.57756  1.0000
  H   H567      1.0  0.14128  0.70691  0.39914  1.0000
  S   S76       1.0  0.29547  0.89855  0.65758  1.0000
  H   H568      1.0  0.38856  0.87337  0.65654  1.0000
  H   H569      1.0  0.46011  0.59405  0.48643  1.0000
  C   C318      1.0  0.07520  0.58584  0.34276  1.0000
  C   C319      1.0  0.00723  0.65416  0.35574  1.0000
  H   H570      1.0  0.46266  0.58434  0.58101  1.0000
  C   C320      1.0  0.32269  0.75333  0.41636  1.0000
  H   H571      1.0  0.47729  0.87563  0.61805  1.0000
  C   C321      1.0  0.10491  0.86582  0.37857  1.0000
  C   C322      1.0  0.47066  0.79731  0.62268  1.0000
  S   S77       1.0  0.45546  0.51058  0.53483  1.0000
  H   H572      1.0  0.01796  0.67488  0.36601  1.0000
  H   H573      1.0  0.16583  0.67423  0.36222  1.0000
  H   H574      1.0  0.17564  0.61093  0.38975  1.0000
  H   H575      1.0  0.15604  0.79132  0.43554  1.0000
  S   S78       1.0  0.00566  0.53330  0.35103  1.0000
  H   H576      1.0  0.16398  0.75880  0.45868  1.0000
  H   H577      1.0  0.43657  0.65949  0.47441  1.0000
  H   H578      1.0  0.47393  0.81021  0.66716  1.0000
  C   C323      1.0  0.34930  0.93081  0.64676  1.0000
  H   H579      1.0  0.44789  0.78524  0.62331  1.0000
  C   C324      1.0  0.41829  0.67404  0.51464  1.0000
  C   C325      1.0  0.46513  0.62735  0.53646  1.0000
  H   H580      1.0  0.44926  0.85204  0.60089  1.0000
  H   H581      1.0  0.28327  0.72914  0.35737  1.0000
  H   H582      1.0  0.16543  0.75345  0.42073  1.0000
  H   H583      1.0  0.39798  0.98096  0.55836  1.0000
  H   H584      1.0  0.24506  0.59519  0.37370  1.0000
  H   H585      1.0  0.41688  0.66684  0.53721  1.0000
  H   H586      1.0  0.11206  0.69003  0.42194  1.0000
  C   C326      1.0  0.43108  0.89487  0.61647  1.0000
  H   H587      1.0  0.38461  0.68508  0.48152  1.0000
  H   H588      1.0  0.41681  0.60981  0.53715  1.0000
  C   C327      1.0  0.47356  0.82252  0.64629  1.0000
  C   C328      1.0  0.14589  0.65782  0.36118  1.0000
  C   C329      1.0  0.26733  0.73831  0.34184  1.0000
  Fe  Fe36      1.0  0.00606  0.53316  0.39875  1.0000
  H   H589      1.0  0.43070  0.69675  0.51338  1.0000
  H   H590      1.0  0.13717  0.89943  0.34097  1.0000
  H   H591      1.0  0.40668  0.88689  0.61562  1.0000
  H   H592      1.0  0.48267  0.57469  0.43978  1.0000
  N   N19       1.0  0.46638  0.63923  0.50629  1.0000
  C   C330      1.0  0.33204  0.91420  0.66721  1.0000
  C   C331      1.0  0.12125  0.69055  0.39988  1.0000
  H   H593      1.0  0.43411  0.91183  0.63403  1.0000
  C   C332      1.0  0.43748  0.91182  0.58847  1.0000
  H   H594      1.0  0.27203  0.72079  0.62820  1.0000
  H   H595      1.0  0.27735  0.76000  0.64158  1.0000
  Fe  Fe37      1.0  0.46011  0.98379  0.66202  1.0000
  H   H596      1.0  0.31042  0.73689  0.63208  1.0000
  H   H597      1.0  0.09569  0.88660  0.38984  1.0000
  H   H598      1.0  0.43334  0.89603  0.57015  1.0000
  C   C333      1.0  0.19898  0.58496  0.35736  1.0000
  C   C334      1.0  0.18323  0.61550  0.36761  1.0000
  H   H599      1.0  0.12610  0.59620  0.37462  1.0000
  H   H600      1.0  0.48036  0.68499  0.52098  1.0000
  H   H601      1.0  0.43319  0.61346  0.58723  1.0000
  C   C335      1.0  0.09810  0.86786  0.34679  1.0000
  H   H602      1.0  0.44561  0.58042  0.53033  1.0000
  H   H603      1.0  0.41925  0.62871  0.49336  1.0000
  H   H604      1.0  0.32522  0.99514  0.62859  1.0000
  C   C336      1.0  0.45303  0.86682  0.61995  1.0000
  H   H605      1.0  0.10080  0.91756  0.34400  1.0000
  H   H606      1.0  0.46181  0.92038  0.58762  1.0000
  H   H607      1.0  0.13797  0.58033  0.34183  1.0000
  C   C337      1.0  0.35977  0.83256  0.65809  1.0000
  H   H608      1.0  0.21177  0.81537  0.35510  1.0000
  C   C338      1.0  0.47768  0.61317  0.48740  1.0000
  C   C339      1.0  0.13069  0.60251  0.35204  1.0000
  C   C340      1.0  0.23562  0.73224  0.34462  1.0000
  C   C341      1.0  0.48481  0.62230  0.45612  1.0000
  C   C342      1.0  0.48780  0.66715  0.50526  1.0000
  H   H609      1.0  0.48780  0.61710  0.54252  1.0000
  H   H610      1.0  0.41911  0.80878  0.65841  1.0000
  C   C343      1.0  0.39088  0.84877  0.66319  1.0000
  C   C344      1.0  0.09953  0.61138  0.33793  1.0000
  H   H611      1.0  0.09009  0.63338  0.34670  1.0000
  H   H612      1.0  0.00332  0.62883  0.39446  1.0000
  H   H613      1.0  0.27978  0.97403  0.65554  1.0000
  Fe  Fe38      1.0  0.21573  0.63445  0.94762  1.0000
  S   S79       1.0  0.25214  0.63730  0.91318  1.0000
  S   S80       1.0  0.18584  0.59079  0.95384  1.0000
  Fe  Fe39      1.0  0.23311  0.69898  0.97209  1.0000
  S   S81       1.0  0.26992  0.70664  0.93902  1.0000
  Fe  Fe40      1.0  0.23628  0.68709  0.90721  1.0000
  S   S82       1.0  0.21896  0.70912  0.86574  1.0000
  Fe  Fe41      1.0  0.28312  0.65642  0.94770  1.0000
  S   S83       1.0  0.33443  0.64832  0.95653  1.0000
  S   S84       1.0  0.19814  0.68266  0.93983  1.0000
  H   H614      1.0  0.30311  0.69788  0.71922  1.0000
  H   H615      1.0  0.04120  0.91021  0.67830  1.0000
  S   S85       1.0  0.40929  0.52067  0.96847  1.0000
  Fe  Fe42      1.0  0.01669  0.98808  0.73272  1.0000
  S   S86       1.0  0.01822  0.98016  0.77946  1.0000
  S   S87       1.0  0.05661  0.97464  0.70365  1.0000
  Fe  Fe43      1.0  0.25574  0.81521  0.72974  1.0000
  S   S88       1.0  0.20679  0.80620  0.71670  1.0000
  S   S89       1.0  0.28053  0.78924  0.76559  1.0000
  C   C345      1.0  0.31436  0.69260  0.77420  1.0000
  H   H616      1.0  0.18604  0.81010  0.89935  1.0000
  Fe  Fe44      1.0  0.20228  0.85849  0.71384  1.0000
  S   S90       1.0  0.16331  0.88050  0.73995  1.0000
  S   S91       1.0  0.25094  0.86759  0.72919  1.0000
  Fe  Fe45      1.0  0.22409  0.80779  0.67134  1.0000
  C   C346      1.0  0.03725  0.86997  0.72395  1.0000
  H   H617      1.0  0.24546  0.79543  0.85163  1.0000
  S   S92       1.0  0.04121  0.57880  0.92777  1.0000
  H   H618      1.0  0.31457  0.76498  0.93171  1.0000
  C   C347      1.0  0.34426  0.91056  0.69446  1.0000
  C   C348      1.0  0.37336  0.92361  0.70118  1.0000
  H   H619      1.0  0.33121  0.89783  0.71039  1.0000
  H   H620      1.0  0.38254  0.92082  0.72237  1.0000
  C   C349      1.0  0.08637  0.94868  0.71395  1.0000
  C   C350      1.0  0.10761  0.93800  0.69352  1.0000
  C   C351      1.0  0.13145  0.91718  0.70101  1.0000
  C   C352      1.0  0.13435  0.90709  0.72911  1.0000
  C   C353      1.0  0.11335  0.91815  0.74957  1.0000
  C   C354      1.0  0.08940  0.93869  0.74205  1.0000
  C   C355      1.0  0.39056  0.94028  0.68075  1.0000
  C   C356      1.0  0.22709  0.71645  0.73061  1.0000
  H   H621      1.0  0.11569  0.91080  0.77143  1.0000
  H   H622      1.0  0.07338  0.94683  0.75800  1.0000
  C   C357      1.0  0.23694  0.73088  0.83803  1.0000
  C   C358      1.0  0.21808  0.74461  0.81719  1.0000
  C   C359      1.0  0.23098  0.76279  0.79514  1.0000
  C   C360      1.0  0.26303  0.76733  0.79350  1.0000
  C   C361      1.0  0.28191  0.75373  0.81441  1.0000
  C   C362      1.0  0.26900  0.73547  0.83647  1.0000
  H   H623      1.0  0.19324  0.74135  0.81826  1.0000
  H   H624      1.0  0.21612  0.77348  0.77952  1.0000
  H   H625      1.0  0.30671  0.75722  0.81347  1.0000
  H   H626      1.0  0.28383  0.72498  0.85226  1.0000
  C   C363      1.0  0.35410  0.61230  0.96115  1.0000
  C   C364      1.0  0.34053  0.58358  0.95417  1.0000
  C   C365      1.0  0.35770  0.55577  0.95675  1.0000
  C   C366      1.0  0.38839  0.55626  0.96673  1.0000
  H   H627      1.0  0.14494  0.54742  0.82794  1.0000
  Fe  Fe46      1.0  0.01059  0.53782  0.91392  1.0000
  H   H628      1.0  0.31708  0.58290  0.94618  1.0000
  H   H629      1.0  0.34728  0.53382  0.95060  1.0000
  H   H630      1.0  0.14806  0.73311  0.72408  1.0000
  H   H631      1.0  0.10918  0.58502  0.83391  1.0000
  C   C367      1.0  0.14551  0.58808  0.94697  1.0000
  C   C368      1.0  0.13022  0.55935  0.95117  1.0000
  C   C369      1.0  0.09828  0.55607  0.94563  1.0000
  C   C370      1.0  0.08125  0.58161  0.93592  1.0000
  C   C371      1.0  0.09645  0.61048  0.93224  1.0000
  C   C372      1.0  0.12843  0.61366  0.93745  1.0000
  H   H632      1.0  0.14318  0.53950  0.95880  1.0000
  H   H633      1.0  0.08675  0.53399  0.94929  1.0000
  H   H634      1.0  0.08344  0.63044  0.92493  1.0000
  H   H635      1.0  0.13984  0.63590  0.93414  1.0000
  H   H636      1.0  0.03672  0.85206  0.70677  1.0000
  H   H637      1.0  0.16187  0.74304  0.94374  1.0000
  H   H638      1.0  0.29949  0.79871  0.87584  1.0000
  H   H639      1.0  0.13576  0.68076  0.97309  1.0000
  H   H640      1.0  0.20722  0.77694  0.94352  1.0000
  H   H641      1.0  0.21026  0.82675  0.95137  1.0000
  C   C373      1.0  0.23809  0.83617  0.91342  1.0000
  C   C374      1.0  0.11079  0.81078  0.76082  1.0000
  C   C375      1.0  0.23472  0.83219  0.94595  1.0000
  C   C376      1.0  0.26066  0.78363  0.90319  1.0000
  H   H642      1.0  0.23853  0.65693  0.72740  1.0000
  C   C377      1.0  0.19910  0.76826  0.92278  1.0000
  H   H643      1.0  0.29967  0.81601  0.91084  1.0000
  H   H644      1.0  0.02087  0.91819  0.72802  1.0000
  N   N20       1.0  0.23592  0.80695  0.89558  1.0000
  H   H645      1.0  0.24993  0.81369  0.95445  1.0000
  H   H646      1.0  0.26767  0.86872  0.95771  1.0000
  H   H647      1.0  0.20379  0.85832  0.81081  1.0000
  H   H648      1.0  0.10139  0.51979  0.81540  1.0000
  H   H649      1.0  0.21980  0.85295  0.90726  1.0000
  S   S93       1.0  0.24792  0.65015  0.98258  1.0000
  H   H650      1.0  0.26021  0.84870  0.90905  1.0000
  H   H651      1.0  0.10767  0.79310  0.74380  1.0000
  C   C378      1.0  0.24092  0.81639  0.86491  1.0000
  H   H652      1.0  0.13539  0.81854  0.76056  1.0000
  C   C379      1.0  0.29465  0.79443  0.89868  1.0000
  H   H653      1.0  0.01705  0.89774  0.77212  1.0000
  H   H654      1.0  0.22798  0.88183  0.95436  1.0000
  H   H655      1.0  0.00694  0.86051  0.81000  1.0000
  H   H656      1.0  0.23176  0.82762  0.80725  1.0000
  H   H657      1.0  0.20606  0.85429  0.86318  1.0000
  H   H658      1.0  0.10235  0.56392  0.88542  1.0000
  H   H659      1.0  0.07451  0.56366  0.82497  1.0000
  C   C380      1.0  0.09375  0.55108  0.86659  1.0000
  C   C381      1.0  0.20428  0.79186  0.89809  1.0000
  H   H660      1.0  0.30038  0.70043  0.67090  1.0000
  C   C382      1.0  0.16489  0.75959  0.92579  1.0000
  H   H661      1.0  0.09157  0.98793  0.84674  1.0000
  H   H662      1.0  0.15644  0.74813  0.90610  1.0000
  H   H663      1.0  0.26196  0.83135  0.86277  1.0000
  C   C383      1.0  0.08976  0.83886  0.75576  1.0000
  N   N21       1.0  0.03155  0.85460  0.75240  1.0000
  C   C384      1.0  0.05515  0.82889  0.75570  1.0000
  H   H664      1.0  0.08017  0.61494  0.87042  1.0000
  H   H665      1.0  0.05219  0.81149  0.73830  1.0000
  C   C385      1.0  0.03479  0.87925  0.77502  1.0000
  C   C386      1.0  0.03117  0.86810  0.80605  1.0000
  H   H666      1.0  0.16645  0.71279  0.75300  1.0000
  Fe  Fe47      1.0  0.26464  0.86506  0.68308  1.0000
  H   H667      1.0  0.07074  0.54184  0.87307  1.0000
  C   C387      1.0  0.27110  0.64940  0.69286  1.0000
  C   C388      1.0  0.03819  0.89469  0.82675  1.0000
  H   H668      1.0  0.00241  0.92528  0.67967  1.0000
  C   C389      1.0  0.01474  0.89675  0.71596  1.0000
  C   C390      1.0  0.48496  0.88547  0.67498  1.0000
  H   H669      1.0  0.05144  0.81576  0.77572  1.0000
  H   H670      1.0  0.19781  0.97655  0.77552  1.0000
  H   H671      1.0  0.27409  0.65720  0.67056  1.0000
  H   H672      1.0  0.23957  0.85909  0.98470  1.0000
  H   H673      1.0  0.27682  0.66489  0.75831  1.0000
  H   H674      1.0  0.05730  0.89163  0.77287  1.0000
  C   C391      1.0  0.24570  0.66904  0.70750  1.0000
  H   H675      1.0  0.04715  0.84872  0.81104  1.0000
  S   S94       1.0  0.27379  0.81336  0.68471  1.0000
  H   H676      1.0  0.25928  0.60532  0.71362  1.0000
  H   H677      1.0  0.09451  0.85599  0.77284  1.0000
  C   C392      1.0  0.38473  0.61273  0.97129  1.0000
  C   C393      1.0  0.31734  0.76944  0.90860  1.0000
  H   H678      1.0  0.30372  0.73937  0.68432  1.0000
  Fe  Fe48      1.0  0.45638  0.51246  0.98915  1.0000
  H   H679      1.0  0.09675  0.84904  0.73505  1.0000
  N   N22       1.0  0.25339  0.70282  0.71343  1.0000
  H   H680      1.0  0.07617  0.50116  0.83971  1.0000
  H   H681      1.0  0.06251  0.90284  0.82427  1.0000
  H   H682      1.0  0.47026  0.91257  0.71193  1.0000
  H   H683      1.0  0.03480  0.88642  0.84890  1.0000
  H   H684      1.0  0.21199  0.74647  0.91834  1.0000
  H   H685      1.0  0.04533  0.59334  0.86201  1.0000
  C   C394      1.0  0.22375  0.84680  0.82125  1.0000
  H   H686      1.0  0.39516  0.84856  0.68645  1.0000
  C   C395      1.0  0.14647  0.53719  0.84961  1.0000
  H   H687      1.0  0.24273  0.86423  0.82344  1.0000
  H   H688      1.0  0.10585  0.79994  0.78178  1.0000
  C   C396      1.0  0.13886  0.69231  0.99400  1.0000
  C   C397      1.0  0.28256  0.69005  0.76022  1.0000
  H   H689      1.0  0.22527  0.66727  0.69331  1.0000
  C   C398      1.0  0.21395  0.83420  0.85034  1.0000
  H   H690      1.0  0.02233  0.91464  0.82305  1.0000
  C   C399      1.0  0.16184  0.56199  0.86928  1.0000
  C   C400      1.0  0.17014  0.73017  0.73579  1.0000
  C   C401      1.0  0.06776  0.60204  0.85342  1.0000
  H   H691      1.0  0.25730  0.76194  0.89053  1.0000
  C   C402      1.0  0.19370  0.57174  0.85813  1.0000
  C   C403      1.0  0.19536  0.71911  0.71531  1.0000
  C   C404      1.0  0.49015  0.89821  0.70491  1.0000
  C   C405      1.0  0.10116  0.50598  0.83542  1.0000
  H   H692      1.0  0.15080  0.78064  0.93029  1.0000
  C   C406      1.0  0.24302  0.86240  0.96150  1.0000
  H   H693      1.0  0.20947  0.55136  0.85729  1.0000
  C   C407      1.0  0.08743  0.57497  0.84255  1.0000
  H   H694      1.0  0.16510  0.55287  0.89109  1.0000
  H   H695      1.0  0.00014  0.81298  0.79175  1.0000
  H   H696      1.0  0.14768  0.58349  0.87065  1.0000
  H   H697      1.0  0.31326  0.68265  0.79598  1.0000
  H   H698      1.0  0.24955  0.74606  0.68967  1.0000
  H   H699      1.0  0.19177  0.58226  0.83665  1.0000
  H   H700      1.0  0.06290  0.61849  0.83579  1.0000
  H   H701      1.0  0.43571  0.88508  0.67543  1.0000
  H   H702      1.0  0.25856  0.77592  0.92558  1.0000
  H   H703      1.0  0.19915  0.77797  0.87859  1.0000
  H   H704      1.0  0.20397  0.58943  0.87264  1.0000
  H   H705      1.0  0.17649  0.75294  0.74542  1.0000
  H   H706      1.0  0.00857  0.88466  0.67134  1.0000
  C   C408      1.0  0.08497  0.99320  0.82449  1.0000
  H   H707      1.0  0.19386  0.81837  0.84693  1.0000
  H   H708      1.0  0.18755  0.69640  0.70664  1.0000
  H   H709      1.0  0.08402  0.97093  0.81242  1.0000
  H   H710      1.0  0.29352  0.65089  0.70415  1.0000
  H   H711      1.0  0.14039  0.97533  0.77069  1.0000
  H   H712      1.0  0.23932  0.71232  0.67006  1.0000
  H   H713      1.0  0.22281  0.70242  0.75012  1.0000
  H   H714      1.0  0.28727  0.73172  0.73451  1.0000
  H   H715      1.0  0.34150  0.84415  0.67089  1.0000
  S   S95       1.0  0.42713  0.95600  0.69030  1.0000
  N   N23       1.0  0.11534  0.52478  0.85920  1.0000
  H   H716      1.0  0.19671  0.73608  0.69756  1.0000
  H   H717      1.0  0.34147  0.77741  0.90462  1.0000
  H   H718      1.0  0.07463  0.50600  0.90603  1.0000
  H   H719      1.0  0.31353  0.74728  0.89681  1.0000
  H   H720      1.0  0.12956  0.51929  0.90287  1.0000
  C   C409      1.0  0.26185  0.61492  0.69181  1.0000
  H   H721      1.0  0.26567  0.70111  0.77483  1.0000
  C   C410      1.0  0.18664  0.97488  0.75436  1.0000
  C   C411      1.0  0.40173  0.58488  0.97429  1.0000
  H   H722      1.0  0.06069  0.88072  0.72293  1.0000
  H   H723      1.0  0.14749  0.90888  0.68505  1.0000
  C   C412      1.0  0.25616  0.72124  0.68606  1.0000
  H   H724      1.0  0.14389  0.98596  0.73382  1.0000
  H   H725      1.0  0.15168  0.71458  0.99069  1.0000
  H   H726      1.0  0.23344  0.74038  0.73798  1.0000
  H   H727      1.0  0.42533  0.58564  0.98189  1.0000
  C   C413      1.0  0.28251  0.70644  0.73083  1.0000
  H   H728      1.0  0.33189  0.67948  0.76177  1.0000
  H   H729      1.0  0.18502  0.94981  0.74846  1.0000
  H   H730      1.0  0.32173  0.71743  0.77578  1.0000
  H   H731      1.0  0.28006  0.60144  0.68058  1.0000
  C   C414      1.0  0.15424  0.98902  0.75517  1.0000
  H   H732      1.0  0.39547  0.63481  0.97666  1.0000
  H   H733      1.0  0.45175  0.85191  0.69218  1.0000
  C   C415      1.0  0.28869  0.72327  0.67190  1.0000
  H   H734      1.0  0.10550  0.94566  0.67172  1.0000
  H   H735      1.0  0.00621  0.79099  0.75970  1.0000
  H   H736      1.0  0.20132  0.98690  0.73829  1.0000
  H   H737      1.0  0.23970  0.61184  0.68015  1.0000
  S   S96       1.0  0.00421  0.53190  0.86673  1.0000
  C   C416      1.0  0.99891  0.84118  0.75226  1.0000
  H   H738      1.0  0.29621  0.51371  0.97437  1.0000
  C   C417      1.0  0.45396  0.86709  0.67304  1.0000
  H   H739      1.0  0.16330  0.51774  0.84756  1.0000
  C   C418      1.0  0.12020  0.50492  0.88525  1.0000
  C   C419      1.0  0.01692  0.90458  0.68436  1.0000
  H   H740      1.0  0.49331  0.87876  0.72022  1.0000
  H   H741      1.0  0.76551  0.21416  0.28504  1.0000
  C   C420      1.0  0.56059  0.40326  0.06837  1.0000
  Fe  Fe49      1.0  0.73057  0.19367  0.22255  1.0000
  S   S97       1.0  0.77968  0.19946  0.20789  1.0000
  S   S98       1.0  0.70668  0.22472  0.25561  1.0000
  Fe  Fe50      1.0  0.71768  0.14169  0.17840  1.0000
  S   S99       1.0  0.76679  0.14380  0.16142  1.0000
  S   S100      1.0  0.68430  0.11024  0.15339  1.0000
  Fe  Fe51      1.0  0.78121  0.14674  0.20743  1.0000
  S   S101      1.0  0.81868  0.12222  0.23368  1.0000
  Fe  Fe52      1.0  0.76109  0.19613  0.16306  1.0000
  S   S102      1.0  0.77523  0.23344  0.13030  1.0000
  S   S103      1.0  0.73236  0.14108  0.22426  1.0000
  S   S104      1.0  0.71180  0.19386  0.17785  1.0000
  Fe  Fe53      1.0  0.51959  0.02071  0.15157  1.0000
  H   H742      1.0  0.66758  0.03383  0.17286  1.0000
  S   S105      1.0  0.93181  0.03222  0.20400  1.0000
  H   H743      1.0  0.81669  0.35333  0.06392  1.0000
  S   S106      1.0  0.55484  0.04386  0.18125  1.0000
  S   S107      1.0  0.51939  0.02318  0.10397  1.0000
  C   C421      1.0  0.64713  0.09453  0.16163  1.0000
  C   C422      1.0  0.62849  0.08324  0.13937  1.0000
  C   C423      1.0  0.59963  0.06886  0.14491  1.0000
  C   C424      1.0  0.58952  0.06459  0.17289  1.0000
  C   C425      1.0  0.60789  0.07641  0.19511  1.0000
  C   C426      1.0  0.63638  0.09159  0.18955  1.0000
  H   H744      1.0  0.63650  0.08545  0.11768  1.0000
  H   H745      1.0  0.58534  0.06071  0.12760  1.0000
  H   H746      1.0  0.60018  0.07349  0.21683  1.0000
  H   H747      1.0  0.65043  0.10012  0.20690  1.0000
  C   C427      1.0  0.84937  0.09665  0.22454  1.0000
  C   C428      1.0  0.85653  0.08886  0.19644  1.0000
  C   C429      1.0  0.88174  0.06902  0.19048  1.0000
  C   C430      1.0  0.89997  0.05669  0.21247  1.0000
  C   C431      1.0  0.89256  0.06428  0.24054  1.0000
  C   C432      1.0  0.86750  0.08416  0.24650  1.0000
  H   H748      1.0  0.84279  0.09830  0.17931  1.0000
  H   H749      1.0  0.88721  0.06327  0.16867  1.0000
  H   H750      1.0  0.90622  0.05490  0.25766  1.0000
  H   H751      1.0  0.86208  0.08995  0.26830  1.0000
  C   C433      1.0  0.74586  0.24730  0.03670  1.0000
  C   C434      1.0  0.75870  0.27187  0.05237  1.0000
  C   C435      1.0  0.76741  0.26726  0.08095  1.0000
  C   C436      1.0  0.76275  0.23826  0.09450  1.0000
  C   C437      1.0  0.74942  0.21385  0.07897  1.0000
  C   C438      1.0  0.74123  0.21830  0.05023  1.0000
  H   H752      1.0  0.76186  0.29439  0.04245  1.0000
  H   H753      1.0  0.77761  0.28634  0.09275  1.0000
  H   H754      1.0  0.74611  0.19133  0.08895  1.0000
  H   H755      1.0  0.73141  0.19908  0.03834  1.0000
  H   H756      1.0  0.87506  0.01639  0.30492  1.0000
  C   C439      1.0  0.70593  0.26148  0.30367  1.0000
  C   C440      1.0  0.72310  0.24012  0.28733  1.0000
  C   C441      1.0  0.75203  0.23057  0.29733  1.0000
  C   C442      1.0  0.56069  0.16384  0.07383  1.0000
  H   H757      1.0  0.91765  0.31578  0.04705  1.0000
  H   H758      1.0  0.68359  0.26913  0.29609  1.0000
  H   H759      1.0  0.54554  0.18445  0.07690  1.0000
  C   C443      1.0  0.83809  0.35867  0.02142  1.0000
  C   C444      1.0  0.86704  0.32045  0.04978  1.0000
  H   H760      1.0  0.81758  0.37622  0.29217  1.0000
  N   N24       1.0  0.85626  0.32859  0.02019  1.0000
  H   H761      1.0  0.92366  0.27606  0.08419  1.0000
  C   C445      1.0  0.89722  0.30107  0.05239  1.0000
  H   H762      1.0  0.87872  0.17493  0.20434  1.0000
  H   H763      1.0  0.79171  0.34231  0.03525  1.0000
  C   C446      1.0  0.93062  0.12435  0.29181  1.0000
  H   H764      1.0  0.78652  0.01935  0.25033  1.0000
  H   H765      1.0  0.93396  0.19252  0.21134  1.0000
  C   C447      1.0  0.79474  0.39135  0.04229  1.0000
  H   H766      1.0  0.59457  0.48717  0.06639  1.0000
  H   H767      1.0  0.77415  0.39090  0.05649  1.0000
  C   C448      1.0  0.69415  0.16870  0.31995  1.0000
  C   C449      1.0  0.84029  0.36537  0.29614  1.0000
  H   H768      1.0  0.70325  0.03323  0.15306  1.0000
  C   C450      1.0  0.84106  0.34638  0.32427  1.0000
  H   H769      1.0  0.55784  0.15538  0.05169  1.0000
  H   H770      1.0  0.89794  0.18552  0.17166  1.0000
  H   H771      1.0  0.83814  0.02906  0.27198  1.0000
  C   C451      1.0  0.59914  0.00552  0.07311  1.0000
  H   H772      1.0  0.80377  0.24668  0.00276  1.0000
  H   H773      1.0  0.69816  0.27952  0.09227  1.0000
  H   H774      1.0  0.84795  0.35887  0.25095  1.0000
  H   H775      1.0  0.86494  0.44574  0.32142  1.0000
  C   C452      1.0  0.67733  0.26635  0.08523  1.0000
  C   C453      1.0  0.83472  0.30376  0.00864  1.0000
  H   H776      1.0  0.78699  0.39800  0.02064  1.0000
  C   C454      1.0  0.92830  0.14586  0.23020  1.0000
  C   C455      1.0  0.81845  0.02299  0.28598  1.0000
  H   H777      1.0  0.77692  0.35094  0.31060  1.0000
  H   H778      1.0  0.69795  0.14368  0.32494  1.0000
  N   N25       1.0  0.95860  0.14168  0.24557  1.0000
  H   H779      1.0  0.97407  0.18956  0.24181  1.0000
  H   H780      1.0  0.90234  0.30886  0.09795  1.0000
  H   H781      1.0  0.88231  0.27303  0.08868  1.0000
  H   H782      1.0  0.65875  0.28327  0.08017  1.0000
  H   H783      1.0  0.81448  0.30032  0.02286  1.0000
  H   H784      1.0  0.85307  0.37831  0.02855  1.0000
  H   H785      1.0  0.87106  0.33389  0.27317  1.0000
  H   H786      1.0  0.90697  0.12665  0.28299  1.0000
  H   H787      1.0  0.61068  0.01375  0.11657  1.0000
  H   H788      1.0  0.58387  0.02628  0.07213  1.0000
  H   H789      1.0  0.82046  0.03778  0.30528  1.0000
  C   C456      1.0  0.95434  0.11680  0.26795  1.0000
  H   H790      1.0  0.97198  0.08222  0.21960  1.0000
  C   C457      1.0  0.56305  0.39588  0.03670  1.0000
  H   H791      1.0  0.87137  0.34207  0.06235  1.0000
  H   H792      1.0  0.91036  0.15528  0.24481  1.0000
  H   H793      1.0  0.64814  0.49052  0.00870  1.0000
  H   H794      1.0  0.53599  0.40688  0.07453  1.0000
  H   H795      1.0  0.76820  0.02796  0.28414  1.0000
  H   H796      1.0  0.68354  0.25315  0.06575  1.0000
  H   H797      1.0  0.89235  0.14495  0.18044  1.0000
  N   N26       1.0  0.63113  0.19624  0.11744  1.0000
  C   C458      1.0  0.63747  0.22530  0.10016  1.0000
  C   C459      1.0  0.59948  0.18355  0.10998  1.0000
  C   C460      1.0  0.63006  0.20582  0.14837  1.0000
  C   C461      1.0  0.65567  0.17156  0.11349  1.0000
  C   C462      1.0  0.67180  0.16966  0.08399  1.0000
  C   C463      1.0  0.66690  0.24408  0.10879  1.0000
  C   C464      1.0  0.62176  0.17971  0.17006  1.0000
  C   C465      1.0  0.59460  0.17250  0.07903  1.0000
  C   C466      1.0  0.69290  0.14120  0.08215  1.0000
  C   C467      1.0  0.62551  0.19109  0.20064  1.0000
  H   H798      1.0  0.61751  0.24162  0.10173  1.0000
  H   H799      1.0  0.63933  0.21978  0.07723  1.0000
  H   H800      1.0  0.59391  0.16264  0.12306  1.0000
  H   H801      1.0  0.58143  0.20124  0.11505  1.0000
  H   H802      1.0  0.61327  0.22522  0.15150  1.0000
  H   H803      1.0  0.65290  0.21519  0.15514  1.0000
  H   H804      1.0  0.67472  0.17478  0.12908  1.0000
  H   H805      1.0  0.64579  0.14810  0.11834  1.0000
  H   H806      1.0  0.68648  0.19053  0.08027  1.0000
  H   H807      1.0  0.65514  0.16834  0.06630  1.0000
  H   H808      1.0  0.66191  0.25839  0.12793  1.0000
  H   H809      1.0  0.68653  0.22849  0.11404  1.0000
  H   H810      1.0  0.63693  0.15921  0.16715  1.0000
  H   H811      1.0  0.59729  0.17214  0.16783  1.0000
  H   H812      1.0  0.60103  0.19073  0.06338  1.0000
  H   H813      1.0  0.60833  0.15111  0.07505  1.0000
  H   H814      1.0  0.71093  0.14224  0.09893  1.0000
  H   H815      1.0  0.67926  0.11932  0.08475  1.0000
  H   H816      1.0  0.70464  0.14073  0.06115  1.0000
  H   H817      1.0  0.61939  0.17190  0.21553  1.0000
  H   H818      1.0  0.64982  0.19821  0.20489  1.0000
  H   H819      1.0  0.61003  0.21119  0.20488  1.0000
  C   C468      1.0  0.76303  0.24139  0.32375  1.0000
  H   H820      1.0  0.81125  0.40924  0.05028  1.0000
  C   C469      1.0  0.68526  0.01833  0.16330  1.0000
  Fe  Fe54      1.0  0.96644  0.01314  0.23620  1.0000
  H   H821      1.0  0.92367  0.07568  0.30375  1.0000
  H   H822      1.0  0.99057  0.15675  0.29823  1.0000
  H   H823      1.0  0.85772  0.38447  0.29661  1.0000
  H   H824      1.0  0.94660  0.16138  0.18849  1.0000
  H   H825      1.0  0.97686  0.11086  0.27790  1.0000
  C   C470      1.0  0.92928  0.09833  0.31395  1.0000
  H   H826      1.0  0.83016  0.32588  0.26838  1.0000
  H   H827      1.0  0.63603  0.42543  0.01663  1.0000
  C   C471      1.0  0.84786  0.34464  0.27067  1.0000
  H   H828      1.0  0.94807  0.18308  0.27022  1.0000
  C   C472      1.0  0.78884  0.03242  0.27059  1.0000
  C   C473      1.0  0.90375  0.36209  0.00494  1.0000
  H   H829      1.0  0.57365  0.42505  0.07307  1.0000
  H   H830      1.0  0.84824  0.30783  0.06144  1.0000
  S   S108      1.0  0.52894  0.48027  0.02854  1.0000
  S   S109      1.0  0.95673  0.01447  0.28286  1.0000
  H   H831      1.0  0.89758  0.28069  0.03804  1.0000
  H   H832      1.0  0.95588  0.10716  0.19289  1.0000
  C   C474      1.0  0.89756  0.16839  0.18937  1.0000
  H   H833      1.0  0.78980  0.05777  0.26547  1.0000
  H   H834      1.0  0.93663  0.14628  0.30303  1.0000
  H   H835      1.0  0.69628  0.00452  0.18044  1.0000
  C   C475      1.0  0.92893  0.16828  0.20436  1.0000
  H   H836      1.0  0.67883  0.17029  0.30110  1.0000
  H   H837      1.0  0.55358  0.41618  0.02516  1.0000
  C   C476      1.0  0.96793  0.17242  0.25871  1.0000
  H   H838      1.0  0.55315  0.14490  0.08849  1.0000
  H   H839      1.0  0.82867  0.32382  0.32063  1.0000
  H   H840      1.0  0.91892  0.12290  0.22316  1.0000
  C   C477      1.0  0.77288  0.36606  0.32939  1.0000
  H   H841      1.0  0.71671  0.17963  0.31443  1.0000
  H   H842      1.0  0.88448  0.00292  0.25962  1.0000
  C   C478      1.0  0.90156  0.28910  0.08270  1.0000
  H   H843      1.0  0.86578  0.33989  0.32739  1.0000
  C   C479      1.0  0.80978  0.35911  0.04187  1.0000
  H   H844      1.0  0.99143  0.15121  0.21159  1.0000
  H   H845      1.0  0.57042  0.38400  0.08125  1.0000
  H   H846      1.0  0.94649  0.09463  0.25809  1.0000
  H   H847      1.0  0.85311  0.26013  0.02578  1.0000
  H   H848      1.0  0.90898  0.36489  0.02784  1.0000
  C   C480      1.0  0.84832  0.27068  0.00473  1.0000
  H   H849      1.0  0.98474  0.21448  0.30153  1.0000
  H   H850      1.0  0.55354  0.34666  0.04301  1.0000
  H   H851      1.0  0.78505  0.23314  0.33156  1.0000
  H   H852      1.0  0.66326  0.01145  0.12307  1.0000
  H   H853      1.0  0.62232  0.01223  0.06480  1.0000
  C   C481      1.0  0.98400  0.13155  0.22555  1.0000
  H   H854      1.0  0.52062  0.37010  0.03617  1.0000
  H   H855      1.0  0.58873  0.45520  0.00463  1.0000
  C   C482      1.0  0.97645  0.10310  0.20640  1.0000
  C   C483      1.0  0.71724  0.27279  0.32983  1.0000
  H   H856      1.0  0.72409  0.36730  0.31850  1.0000
  H   H857      1.0  0.95177  0.09642  0.32514  1.0000
  H   H858      1.0  0.58794  0.39352  0.03143  1.0000
  C   C484      1.0  0.54475  0.36579  0.02918  1.0000
  H   H859      1.0  0.91107  0.10355  0.32991  1.0000
  H   H860      1.0  0.82273  0.40817  0.33223  1.0000
  H   H861      1.0  0.77670  0.39081  0.32350  1.0000
  C   C485      1.0  0.49424  0.32487  0.00532  1.0000
  H   H862      1.0  0.59381  0.34590  0.00831  1.0000
  H   H863      1.0  0.54084  0.30729  0.00992  1.0000
  Fe  Fe55      1.0  0.76899  0.36150  0.44397  1.0000
  S   S110      1.0  0.72981  0.35353  0.41300  1.0000
  S   S111      1.0  0.79689  0.40559  0.43325  1.0000
  Fe  Fe56      1.0  0.75294  0.30217  0.47830  1.0000
  S   S112      1.0  0.71434  0.29049  0.44838  1.0000
  Fe  Fe57      1.0  0.74584  0.30368  0.41233  1.0000
  S   S113      1.0  0.75984  0.27293  0.37445  1.0000
  Fe  Fe58      1.0  0.70139  0.34120  0.45174  1.0000
  S   S114      1.0  0.65038  0.34740  0.46357  1.0000
  S   S115      1.0  0.78590  0.31207  0.44199  1.0000
  S   S116      1.0  0.73916  0.35261  0.48296  1.0000
  Fe  Fe59      1.0  0.52456  0.48174  0.48763  1.0000
  S   S117      1.0  0.56862  0.47135  0.46242  1.0000
  Fe  Fe60      1.0  0.96407  0.47431  0.40155  1.0000
  S   S118      1.0  0.96200  0.47044  0.35404  1.0000
  S   S119      1.0  0.94195  0.43627  0.42904  1.0000
  C   C486      1.0  0.68796  0.38373  0.54507  1.0000
  H   H864      1.0  0.69619  0.23895  0.49148  1.0000
  C   C487      1.0  0.62879  0.38260  0.46438  1.0000
  C   C488      1.0  0.64010  0.41041  0.45261  1.0000
  C   C489      1.0  0.62139  0.43732  0.45224  1.0000
  C   C490      1.0  0.59138  0.43690  0.46398  1.0000
  C   C491      1.0  0.58041  0.40931  0.47646  1.0000
  C   C492      1.0  0.59897  0.38231  0.47652  1.0000
  H   H865      1.0  0.66292  0.41096  0.44309  1.0000
  H   H866      1.0  0.63009  0.45846  0.44245  1.0000
  H   H867      1.0  0.55737  0.40863  0.48554  1.0000
  H   H868      1.0  0.58994  0.36092  0.48561  1.0000
  C   C493      1.0  0.83742  0.41335  0.43254  1.0000
  C   C494      1.0  0.84790  0.44182  0.42098  1.0000
  C   C495      1.0  0.87978  0.44899  0.41944  1.0000
  C   C496      1.0  0.90160  0.42785  0.42976  1.0000
  C   C497      1.0  0.89115  0.39939  0.44142  1.0000
  C   C498      1.0  0.85926  0.39208  0.44270  1.0000
  H   H869      1.0  0.83125  0.45848  0.41312  1.0000
  H   H870      1.0  0.88743  0.47101  0.41053  1.0000
  H   H871      1.0  0.90782  0.38298  0.44967  1.0000
  H   H872      1.0  0.85156  0.37020  0.45184  1.0000
  S   S120      1.0  0.75864  0.26270  0.51073  1.0000
  S   S121      1.0  0.52318  0.47640  0.53489  1.0000
  H   H873      1.0  0.71557  0.04453  0.65602  1.0000
  H   H874      1.0  0.75571  0.22395  0.45906  1.0000
  H   H875      1.0  0.68152  0.03392  0.61568  1.0000
  H   H876      1.0  0.60986  0.28137  0.54777  1.0000
  H   H877      1.0  0.75137  0.21045  0.54829  1.0000
  S   S122      1.0  0.51963  0.02932  0.61556  1.0000
  C   C499      1.0  0.62231  0.08765  0.64512  1.0000
  H   H878      1.0  0.68300  0.34568  0.51620  1.0000
  H   H879      1.0  0.58415  0.48626  0.56036  1.0000
  H   H880      1.0  0.62610  0.09410  0.62316  1.0000
  H   H881      1.0  0.57635  0.06907  0.63759  1.0000
  C   C500      1.0  0.75436  0.26072  0.54832  1.0000
  C   C501      1.0  0.75455  0.28734  0.56550  1.0000
  C   C502      1.0  0.75249  0.28438  0.59532  1.0000
  C   C503      1.0  0.75001  0.25485  0.60836  1.0000
  C   C504      1.0  0.74907  0.22829  0.59112  1.0000
  C   C505      1.0  0.75142  0.23124  0.56133  1.0000
  H   H882      1.0  0.75721  0.31014  0.55588  1.0000
  H   H883      1.0  0.75336  0.30509  0.60845  1.0000
  H   H884      1.0  0.74719  0.20542  0.60077  1.0000
  H   H885      1.0  0.89854  0.02077  0.36761  1.0000
  H   H886      1.0  0.75332  0.18547  0.40383  1.0000
  C   C506      1.0  0.59855  0.42038  0.55657  1.0000
  H   H887      1.0  0.61633  0.41614  0.57309  1.0000
  H   H888      1.0  0.96683  0.38410  0.40222  1.0000
  C   C507      1.0  0.84137  0.31284  0.38086  1.0000
  C   C508      1.0  0.60856  0.47921  0.55625  1.0000
  H   H889      1.0  0.61769  0.48996  0.49997  1.0000
  C   C509      1.0  0.66433  0.26171  0.63007  1.0000
  H   H890      1.0  0.64399  0.01636  0.58302  1.0000
  H   H891      1.0  0.98048  0.09820  0.65597  1.0000
  C   C510      1.0  0.62727  0.00730  0.59916  1.0000
  C   C511      1.0  0.70198  0.18807  0.37057  1.0000
  S   S123      1.0  0.74840  0.25250  0.64612  1.0000
  C   C512      1.0  0.60728  0.44872  0.53849  1.0000
  H   H892      1.0  0.71728  0.46851  0.53966  1.0000
  C   C513      1.0  0.64521  0.09446  0.66538  1.0000
  H   H893      1.0  0.60876  0.15193  0.62472  1.0000
  C   C514      1.0  0.74559  0.26227  0.34033  1.0000
  H   H894      1.0  0.62464  0.02605  0.61524  1.0000
  H   H895      1.0  0.89572  0.44964  0.34691  1.0000
  H   H896      1.0  0.63800  0.16431  0.66892  1.0000
  H   H897      1.0  0.64727  0.35921  0.53150  1.0000
  H   H898      1.0  0.85723  0.31438  0.42479  1.0000
  H   H899      1.0  0.94244  0.37570  0.35639  1.0000
  H   H900      1.0  0.81747  0.30637  0.38708  1.0000
  H   H901      1.0  0.66615  0.48778  0.52005  1.0000
  H   H902      1.0  0.86958  0.35363  0.37559  1.0000
  H   H903      1.0  0.77198  0.23546  0.42522  1.0000
  H   H904      1.0  0.72051  0.46243  0.57739  1.0000
  H   H905      1.0  0.63220  0.24946  0.51822  1.0000
  H   H906      1.0  0.62964  0.44393  0.52771  1.0000
  H   H907      1.0  0.61713  0.26316  0.39796  1.0000
  H   H908      1.0  0.60351  0.30943  0.59196  1.0000
  C   C515      1.0  0.66412  0.24790  0.38840  1.0000
  C   C516      1.0  0.61876  0.17968  0.66244  1.0000
  H   H909      1.0  0.69964  0.32267  0.56174  1.0000
  N   N27       1.0  0.82835  0.36199  0.35059  1.0000
  C   C517      1.0  0.74240  0.19392  0.42373  1.0000
  H   H910      1.0  0.61885  0.31538  0.52826  1.0000
  H   H911      1.0  0.64362  0.25684  0.57768  1.0000
  H   H912      1.0  0.64122  0.20314  0.38518  1.0000
  C   C518      1.0  0.67047  0.23897  0.49120  1.0000
  H   H913      1.0  0.56257  0.03318  0.56158  1.0000
  H   H914      1.0  0.67429  0.26223  0.40565  1.0000
  H   H915      1.0  0.70366  0.28911  0.34209  1.0000
  H   H916      1.0  0.63810  0.28775  0.37343  1.0000
  H   H917      1.0  0.68428  0.26207  0.57389  1.0000
  H   H918      1.0  0.66687  0.45445  0.56210  1.0000
  H   H919      1.0  0.59219  0.00498  0.65028  1.0000
  H   H920      1.0  0.71645  0.16662  0.37114  1.0000
  C   C519      1.0  0.59421  0.07327  0.65316  1.0000
  H   H921      1.0  0.59719  0.19245  0.62227  1.0000
  C   C520      1.0  0.86259  0.30181  0.40475  1.0000
  C   C521      1.0  0.71175  0.21138  0.41745  1.0000
  C   C522      1.0  0.66554  0.28803  0.60811  1.0000
  H   H922      1.0  0.66231  0.21477  0.48714  1.0000
  H   H923      1.0  0.98282  0.39739  0.49123  1.0000
  C   C523      1.0  0.98215  0.37778  0.38432  1.0000
  H   H924      1.0  0.66533  0.23336  0.53601  1.0000
  H   H925      1.0  0.70146  0.21821  0.43825  1.0000
  H   H926      1.0  0.63388  0.15496  0.39726  1.0000
  H   H927      1.0  0.61757  0.34560  0.57657  1.0000
  H   H928      1.0  0.85295  0.00857  0.33613  1.0000
  H   H929      1.0  0.66387  0.29864  0.50792  1.0000
  H   H930      1.0  0.78552  0.36644  0.37408  1.0000
  H   H931      1.0  0.63899  0.12210  0.44044  1.0000
  H   H932      1.0  0.71867  0.23357  0.40688  1.0000
  H   H933      1.0  0.66473  0.13325  0.38033  1.0000
  H   H934      1.0  0.68008  0.24873  0.37008  1.0000
  H   H935      1.0  0.61771  0.47340  0.57754  1.0000
  H   H936      1.0  0.56890  0.18211  0.66792  1.0000
  C   C524      1.0  0.96183  0.36038  0.36298  1.0000
  H   H937      1.0  0.88726  0.30587  0.39907  1.0000
  H   H938      1.0  0.59706  0.39943  0.54275  1.0000
  H   H939      1.0  0.66188  0.02813  0.64872  1.0000
  H   H940      1.0  0.60250  0.04343  0.55523  1.0000
  C   C525      1.0  0.76561  0.21523  0.43880  1.0000
  H   H941      1.0  0.57327  0.34515  0.54275  1.0000
  H   H942      1.0  0.55915  0.30939  0.55878  1.0000
  H   H943      1.0  0.67710  0.39331  0.56458  1.0000
  H   H944      1.0  0.64736  0.30504  0.61355  1.0000
  H   H945      1.0  0.69528  0.28303  0.52740  1.0000
  C   C526      1.0  0.86787  0.40774  0.35220  1.0000
  H   H946      1.0  0.78703  0.20207  0.44368  1.0000
  H   H947      1.0  0.68590  0.40131  0.52781  1.0000
  H   H948      1.0  0.56093  0.34485  0.57929  1.0000
  C   C527      1.0  0.67541  0.47884  0.56388  1.0000
  H   H949      1.0  0.71295  0.37948  0.54897  1.0000
  H   H950      1.0  0.58924  0.45117  0.52195  1.0000
  H   H951      1.0  0.63755  0.18198  0.61978  1.0000
  H   H952      1.0  0.68832  0.29999  0.61032  1.0000
  C   C528      1.0  0.65596  0.14252  0.40081  1.0000
  H   H953      1.0  0.66216  0.25417  0.47371  1.0000
  H   H954      1.0  0.67346  0.16863  0.43693  1.0000
  H   H955      1.0  0.64859  0.21522  0.42024  1.0000
  H   H956      1.0  0.66985  0.10038  0.42351  1.0000
  C   C529      1.0  0.59535  0.00450  0.58450  1.0000
  C   C530      1.0  0.84432  0.34866  0.37640  1.0000
  H   H957      1.0  0.57563  0.42393  0.56682  1.0000
  H   H958      1.0  0.93522  0.00271  0.35977  1.0000
  C   C531      1.0  0.68077  0.16379  0.41462  1.0000
  C   C532      1.0  0.57280  0.33105  0.56257  1.0000
  H   H959      1.0  0.85898  0.27643  0.40841  1.0000
  H   H960      1.0  0.84752  0.29970  0.36138  1.0000
  H   H961      1.0  0.99042  0.39958  0.37408  1.0000
  H   H962      1.0  0.63123  0.09920  0.40916  1.0000
  H   H963      1.0  0.73825  0.17380  0.43811  1.0000
  H   H964      1.0  0.83546  0.36009  0.39601  1.0000
  H   H965      1.0  0.71855  0.20701  0.36455  1.0000
  H   H966      1.0  0.87671  0.40518  0.37417  1.0000
  H   H967      1.0  0.64108  0.25054  0.63037  1.0000
  H   H968      1.0  0.70174  0.14894  0.41603  1.0000
  S   S124      1.0  0.67989  0.11320  0.65435  1.0000
  Fe  Fe61      1.0  0.51798  0.02631  0.66305  1.0000
  C   C533      1.0  0.63366  0.26316  0.37983  1.0000
  H   H969      1.0  0.66755  0.33879  0.57953  1.0000
  H   H970      1.0  0.67227  0.20898  0.33799  1.0000
  H   H971      1.0  0.68204  0.24373  0.62525  1.0000
  N   N28       1.0  0.68816  0.19410  0.39961  1.0000
  C   C534      1.0  0.65929  0.21385  0.39870  1.0000
  C   C535      1.0  0.64867  0.11438  0.41973  1.0000
  C   C536      1.0  0.87132  0.44212  0.34400  1.0000
  H   H972      1.0  0.62543  0.20424  0.66677  1.0000
  N   N29       1.0  0.65684  0.29809  0.55368  1.0000
  C   C537      1.0  0.67457  0.32794  0.55917  1.0000
  C   C538      1.0  0.66220  0.27497  0.57752  1.0000
  C   C539      1.0  0.66950  0.28387  0.52665  1.0000
  C   C540      1.0  0.62271  0.30384  0.54919  1.0000
  C   C541      1.0  0.60568  0.32317  0.57211  1.0000
  C   C542      1.0  0.67178  0.35353  0.53605  1.0000
  C   C543      1.0  0.65778  0.25032  0.51963  1.0000
  C   C544      1.0  0.58565  0.03576  0.57170  1.0000
  H   H973      1.0  0.82159  0.40747  0.36956  1.0000
  C   C545      1.0  0.71055  0.01989  0.65010  1.0000
  H   H974      1.0  0.73367  0.33858  0.34498  1.0000
  H   H975      1.0  0.85646  0.45696  0.35770  1.0000
  H   H976      1.0  0.58401  0.05398  0.58837  1.0000
  C   C546      1.0  0.73873  0.36261  0.33736  1.0000
  C   C547      1.0  0.61518  0.17629  0.63033  1.0000
  C   C548      1.0  0.67964  0.01827  0.63445  1.0000
  H   H977      1.0  0.73253  0.37962  0.35420  1.0000
  C   C549      1.0  0.83354  0.39688  0.35087  1.0000
  C   C550      1.0  0.67918  0.18532  0.34517  1.0000
  C   C551      1.0  0.91350  0.01171  0.35028  1.0000
  C   C552      1.0  0.71063  0.47789  0.56081  1.0000
  H   H978      1.0  0.95192  0.33891  0.37272  1.0000
  C   C553      1.0  0.79411  0.35560  0.35402  1.0000
  H   H979      1.0  0.78957  0.33021  0.35614  1.0000
  H   H980      1.0  0.88294  0.39366  0.33813  1.0000
  S   S125      1.0  0.75728  0.15949  0.66648  1.0000
  H   H981      1.0  0.62317  0.25067  0.36154  1.0000
  H   H982      1.0  0.72966  0.01140  0.63633  1.0000
  H   H983      1.0  0.66989  0.48713  0.58553  1.0000
  H   H984      1.0  0.66927  0.27127  0.65152  1.0000
  H   H985      1.0  0.65774  0.17240  0.35048  1.0000
  H   H986      1.0  0.97533  0.35402  0.34381  1.0000
  H   H987      1.0  0.99046  0.37136  0.44310  1.0000
  H   H988      1.0  0.62840  0.99907  0.66859  1.0000
  H   H989      1.0  0.91965  0.03111  0.33569  1.0000
  Fe  Fe62      1.0  0.78072  0.34680  0.94603  1.0000
  S   S126      1.0  0.74161  0.36661  0.92062  1.0000
  S   S127      1.0  0.83150  0.35818  0.93713  1.0000
  Fe  Fe63      1.0  0.73918  0.29470  0.97163  1.0000
  S   S128      1.0  0.69771  0.31007  0.94608  1.0000
  Fe  Fe64      1.0  0.73068  0.31652  0.90904  1.0000
  S   S129      1.0  0.73099  0.30844  0.86086  1.0000
  Fe  Fe65      1.0  0.71191  0.35865  0.95940  1.0000
  H   H990      1.0  0.86299  0.45944  0.97883  1.0000
  S   S130      1.0  0.77068  0.29710  0.93352  1.0000
  C   C554      1.0  0.70081  0.48285  0.97622  1.0000
  H   H991      1.0  0.94227  0.39376  0.84386  1.0000
  S   S131      1.0  0.55996  0.47005  0.95030  1.0000
  Fe  Fe66      1.0  0.71168  0.19260  0.73170  1.0000
  S   S132      1.0  0.75909  0.20925  0.71957  1.0000
  S   S133      1.0  0.68442  0.20639  0.77139  1.0000
  Fe  Fe67      1.0  0.70901  0.14650  0.68147  1.0000
  H   H992      1.0  0.81922  0.25823  0.96855  1.0000
  Fe  Fe68      1.0  0.77034  0.15837  0.71299  1.0000
  S   S134      1.0  0.81112  0.14030  0.73931  1.0000
  S   S135      1.0  0.72319  0.14164  0.72707  1.0000
  S   S136      1.0  0.69350  0.19621  0.68709  1.0000
  H   H993      1.0  0.62118  0.21356  0.71562  1.0000
  C   C555      1.0  0.97351  0.16815  0.75088  1.0000
  S   S137      1.0  0.91704  0.04269  0.70784  1.0000
  H   H994      1.0  0.87242  0.43842  0.81850  1.0000
  S   S138      1.0  0.95076  0.48072  0.88096  1.0000
  S   S139      1.0  0.92594  0.46975  0.96030  1.0000
  H   H995      1.0  0.55637  0.22962  0.73854  1.0000
  C   C556      1.0  0.61237  0.07068  0.70154  1.0000
  C   C557      1.0  0.64036  0.08540  0.69356  1.0000
  H   H996      1.0  0.60863  0.06410  0.72347  1.0000
  H   H997      1.0  0.65808  0.08992  0.70924  1.0000
  C   C558      1.0  0.83861  0.11131  0.73003  1.0000
  C   C559      1.0  0.84546  0.10400  0.70177  1.0000
  C   C560      1.0  0.86927  0.08266  0.69539  1.0000
  C   C561      1.0  0.88625  0.06812  0.71711  1.0000
  C   C562      1.0  0.87878  0.07474  0.74536  1.0000
  C   C563      1.0  0.85543  0.09657  0.75176  1.0000
  C   C564      1.0  0.84493  0.49484  0.90110  1.0000
  C   C565      1.0  0.57927  0.35243  0.98971  1.0000
  H   H998      1.0  0.89133  0.06336  0.76226  1.0000
  H   H999      1.0  0.85029  0.10201  0.77368  1.0000
  C   C566      1.0  0.71674  0.28010  0.83654  1.0000
  C   C567      1.0  0.69503  0.25718  0.84414  1.0000
  C   C568      1.0  0.68510  0.23491  0.82395  1.0000
  C   C569      1.0  0.69694  0.23516  0.79606  1.0000
  C   C570      1.0  0.71813  0.25844  0.78836  1.0000
  C   C571      1.0  0.72782  0.28081  0.80842  1.0000
  H   H1000     1.0  0.68587  0.25669  0.86554  1.0000
  H   H1001     1.0  0.66839  0.21723  0.83005  1.0000
  H   H1002     1.0  0.72674  0.25941  0.76680  1.0000
  H   H1003     1.0  0.74410  0.29882  0.80212  1.0000
  H   H1004     1.0  0.83288  0.11528  0.68482  1.0000
  C   C572      1.0  0.63758  0.41643  0.94505  1.0000
  C   C573      1.0  0.61088  0.43376  0.93828  1.0000
  C   C574      1.0  0.59293  0.44775  0.95971  1.0000
  C   C575      1.0  0.52886  0.32489  0.99646  1.0000
  H   H1005     1.0  0.71004  0.47514  0.95535  1.0000
  H   H1006     1.0  0.65118  0.40577  0.92837  1.0000
  H   H1007     1.0  0.60410  0.43633  0.91631  1.0000
  H   H1008     1.0  0.81126  0.48293  0.84990  1.0000
  H   H1009     1.0  0.93789  0.11583  0.68663  1.0000
  C   C576      1.0  0.85572  0.39122  0.94208  1.0000
  C   C577      1.0  0.88504  0.39125  0.92906  1.0000
  C   C578      1.0  0.90616  0.41584  0.93357  1.0000
  C   C579      1.0  0.89845  0.44043  0.95168  1.0000
  C   C580      1.0  0.86904  0.44057  0.96463  1.0000
  C   C581      1.0  0.84753  0.41629  0.95954  1.0000
  H   H1010     1.0  0.89165  0.37189  0.91563  1.0000
  H   H1011     1.0  0.92888  0.41522  0.92385  1.0000
  H   H1012     1.0  0.49556  0.14373  0.71802  1.0000
  C   C582      1.0  0.59557  0.20994  0.71504  1.0000
  S   S140      1.0  0.55336  0.04842  0.69290  1.0000
  H   H1013     1.0  0.97114  0.19603  0.71142  1.0000
  H   H1014     1.0  0.83404  0.47739  0.91552  1.0000
  H   H1015     1.0  0.58376  0.30369  0.97602  1.0000
  H   H1016     1.0  0.86373  0.17829  0.71480  1.0000
  H   H1017     1.0  0.57195  0.32937  0.94796  1.0000
  C   C583      1.0  0.53012  0.38087  0.98090  1.0000
  C   C584      1.0  0.58691  0.32744  0.96689  1.0000
  H   H1018     1.0  0.95165  0.09477  0.73169  1.0000
  C   C585      1.0  0.83620  0.43272  0.87044  1.0000
  C   C586      1.0  0.82116  0.40978  0.84896  1.0000
  C   C587      1.0  0.90064  0.42035  0.85254  1.0000
  C   C588      1.0  0.87832  0.19624  0.72540  1.0000
  C   C589      1.0  0.80795  0.38107  0.86407  1.0000
  H   H1019     1.0  0.54884  0.37372  0.93820  1.0000
  Fe  Fe69      1.0  0.95293  0.02019  0.73685  1.0000
  C   C590      1.0  0.96108  0.11110  0.78958  1.0000
  H   H1020     1.0  0.85058  0.41933  0.88568  1.0000
  C   C591      1.0  0.54497  0.13356  0.71588  1.0000
  H   H1021     1.0  0.83791  0.40151  0.83282  1.0000
  Fe  Fe70      1.0  0.95915  0.48956  0.92704  1.0000
  C   C592      1.0  0.90203  0.18087  0.74490  1.0000
  H   H1022     1.0  0.88677  0.39862  0.85490  1.0000
  H   H1023     1.0  0.92093  0.40465  0.81254  1.0000
  H   H1024     1.0  0.81685  0.44201  0.88352  1.0000
  H   H1025     1.0  0.82686  0.36724  0.87378  1.0000
  H   H1026     1.0  0.79141  0.38811  0.88093  1.0000
  H   H1027     1.0  0.79548  0.36595  0.84867  1.0000
  C   C593      1.0  0.88100  0.44694  0.83938  1.0000
  H   H1028     1.0  0.88883  0.16876  0.76196  1.0000
  C   C594      1.0  0.86839  0.47852  0.88107  1.0000
  C   C595      1.0  0.96203  0.12004  0.69390  1.0000
  Fe  Fe71      1.0  0.74204  0.20909  0.67414  1.0000
  H   H1029     1.0  0.63654  0.32905  0.97533  1.0000
  C   C596      1.0  0.92857  0.41266  0.83383  1.0000
  C   C597      1.0  0.64671  0.41317  0.97337  1.0000
  H   H1030     1.0  0.92629  0.08066  0.80898  1.0000
  S   S141      1.0  0.68015  0.39209  0.98358  1.0000
  H   H1031     1.0  0.51267  0.13239  0.75160  1.0000
  H   H1032     1.0  0.88320  0.46398  0.89500  1.0000
  C   C598      1.0  0.58900  0.06495  0.68148  1.0000
  H   H1033     1.0  0.91637  0.19962  0.75442  1.0000
  H   H1034     1.0  0.89732  0.46631  0.83399  1.0000
  H   H1035     1.0  0.88437  0.49656  0.87224  1.0000
  C   C599      1.0  0.58149  0.22551  0.74188  1.0000
  H   H1036     1.0  0.54368  0.40300  0.98163  1.0000
  C   C600      1.0  0.52594  0.37367  0.94894  1.0000
  H   H1037     1.0  0.86290  0.21162  0.73802  1.0000
  H   H1038     1.0  0.58725  0.22450  0.69699  1.0000
  C   C601      1.0  0.83362  0.47821  0.83894  1.0000
  H   H1039     1.0  0.89011  0.21060  0.70893  1.0000
  H   H1040     1.0  0.80179  0.42141  0.83774  1.0000
  S   S142      1.0  0.95077  0.01435  0.78441  1.0000
  C   C602      1.0  0.62047  0.33008  0.95697  1.0000
  N   N30       1.0  0.85472  0.45906  0.85749  1.0000
  H   H1041     1.0  0.94392  0.43340  0.83135  1.0000
  H   H1042     1.0  0.50552  0.10355  0.72452  1.0000
  H   H1043     1.0  0.90939  0.42689  0.87375  1.0000
  H   H1044     1.0  0.58882  0.37523  0.98227  1.0000
  C   C603      1.0  0.59691  0.25701  0.74790  1.0000
  N   N31       1.0  0.58810  0.17579  0.70997  1.0000
  H   H1045     1.0  0.98017  0.12615  0.79745  1.0000
  C   C604      1.0  0.61227  0.15537  0.72344  1.0000
  C   C605      1.0  0.61410  0.15580  0.75620  1.0000
  H   H1046     1.0  0.92965  0.14931  0.78592  1.0000
  H   H1047     1.0  0.96207  0.08359  0.82831  1.0000
  C   C606      1.0  0.60214  0.44449  0.98796  1.0000
  H   H1048     1.0  0.93518  0.11553  0.82925  1.0000
  C   C607      1.0  0.63705  0.13147  0.76694  1.0000
  H   H1049     1.0  0.90609  0.13768  0.72204  1.0000
  C   C608      1.0  0.62899  0.42756  0.99469  1.0000
  H   H1050     1.0  0.97122  0.09161  0.77724  1.0000
  H   H1051     1.0  0.52970  0.31529  0.97464  1.0000
  C   C609      1.0  0.98864  0.18531  0.72547  1.0000
  H   H1052     1.0  0.91730  0.11523  0.76782  1.0000
  H   H1053     1.0  0.60888  0.13094  0.71669  1.0000
  H   H1054     1.0  0.63582  0.16187  0.71575  1.0000
  H   H1055     1.0  0.59140  0.15057  0.76617  1.0000
  H   H1056     1.0  0.62259  0.17885  0.76355  1.0000
  C   C610      1.0  0.96360  0.11729  0.72682  1.0000
  H   H1057     1.0  0.62428  0.35232  0.94538  1.0000
  H   H1058     1.0  0.98818  0.11373  0.73301  1.0000
  H   H1059     1.0  0.96929  0.14335  0.68619  1.0000
  H   H1060     1.0  0.55325  0.17266  0.74335  1.0000
  H   H1061     1.0  0.58391  0.21100  0.76115  1.0000
  H   H1062     1.0  0.87473  0.07757  0.67344  1.0000
  H   H1063     1.0  0.82507  0.41654  0.96974  1.0000
  S   S143      1.0  0.75240  0.34274  0.98612  1.0000
  H   H1064     1.0  0.62936  0.10756  0.76101  1.0000
  H   H1065     1.0  0.66045  0.13594  0.75794  1.0000
  H   H1066     1.0  0.63868  0.13287  0.79043  1.0000
  H   H1067     1.0  0.96387  0.18589  0.76564  1.0000
  C   C611      1.0  0.51268  0.12816  0.72834  1.0000
  C   C612      1.0  0.94504  0.09693  0.81559  1.0000
  N   N32       1.0  0.79426  0.20024  0.82064  1.0000
  C   C613      1.0  0.82624  0.20078  0.83334  1.0000
  C   C614      1.0  0.77224  0.21566  0.84117  1.0000
  C   C615      1.0  0.78509  0.16673  0.81520  1.0000
  C   C616      1.0  0.79336  0.21771  0.79281  1.0000
  C   C617      1.0  0.80685  0.25140  0.79315  1.0000
  C   C618      1.0  0.85283  0.18950  0.81370  1.0000
  C   C619      1.0  0.75103  0.16122  0.80595  1.0000
  C   C620      1.0  0.76870  0.19956  0.87055  1.0000
  C   C621      1.0  0.74368  0.21524  0.88847  1.0000
  C   C622      1.0  0.80553  0.26620  0.76365  1.0000
  C   C623      1.0  0.88412  0.19320  0.82844  1.0000
  C   C624      1.0  0.74471  0.12658  0.80068  1.0000
  H   H1068     1.0  0.82704  0.18555  0.85247  1.0000
  H   H1069     1.0  0.83203  0.22462  0.84123  1.0000
  H   H1070     1.0  0.77970  0.24006  0.84563  1.0000
  H   H1071     1.0  0.74894  0.21804  0.83156  1.0000
  H   H1072     1.0  0.78971  0.15192  0.83411  1.0000
  H   H1073     1.0  0.79980  0.15667  0.79811  1.0000
  H   H1074     1.0  0.80532  0.20428  0.77577  1.0000
  H   H1075     1.0  0.76909  0.21974  0.78529  1.0000
  H   H1076     1.0  0.83140  0.25175  0.79989  1.0000
  H   H1077     1.0  0.79357  0.26654  0.80780  1.0000
  H   H1078     1.0  0.84977  0.16447  0.80822  1.0000
  H   H1079     1.0  0.85389  0.20304  0.79368  1.0000
  H   H1080     1.0  0.74596  0.17382  0.78594  1.0000
  H   H1081     1.0  0.73448  0.16907  0.82249  1.0000
  H   H1082     1.0  0.76220  0.17462  0.86844  1.0000
  H   H1083     1.0  0.79067  0.20123  0.88263  1.0000
  H   H1084     1.0  0.74783  0.24083  0.88995  1.0000
  H   H1085     1.0  0.72052  0.21089  0.87908  1.0000
  H   H1086     1.0  0.74374  0.20541  0.91030  1.0000
  H   H1087     1.0  0.81555  0.29012  0.76440  1.0000
  H   H1088     1.0  0.81895  0.25219  0.74810  1.0000
  H   H1089     1.0  0.78122  0.26797  0.75628  1.0000
  H   H1090     1.0  0.88499  0.17856  0.84791  1.0000
  H   H1091     1.0  0.90295  0.18577  0.81396  1.0000
  H   H1092     1.0  0.88831  0.21801  0.83424  1.0000
  H   H1093     1.0  0.74855  0.11282  0.82033  1.0000
  H   H1094     1.0  0.72026  0.12336  0.79396  1.0000
  H   H1095     1.0  0.75999  0.11763  0.78351  1.0000
  H   H1096     1.0  0.92919  0.16828  0.70822  1.0000
  N   N33       1.0  0.94952  0.14359  0.74396  1.0000
  C   C625      1.0  0.92205  0.15700  0.72839  1.0000
  H   H1097     1.0  0.58568  0.26815  0.76653  1.0000
  C   C626      1.0  0.93777  0.13034  0.77173  1.0000
  H   H1098     1.0  0.70958  0.00576  0.66986  1.0000
  H   H1099     1.0  0.82703  0.46465  0.81969  1.0000
  H   H1100     1.0  0.87360  0.33568  0.97751  1.0000
  H   H1101     1.0  0.62589  0.31053  0.94232  1.0000
  H   H1102     1.0  0.51758  0.42178  0.93602  1.0000
  H   H1103     1.0  0.82511  0.31142  0.98779  1.0000
  C   C627      1.0  0.50633  0.39854  0.93441  1.0000
  N   N34       1.0  0.54562  0.35588  0.99839  1.0000
  C   C628      1.0  0.55585  0.16788  0.72036  1.0000
  H   H1104     1.0  0.97516  0.07186  0.68532  1.0000
  H   H1105     1.0  0.65614  0.49133  0.95820  1.0000
  C   C629      1.0  0.82522  0.24907  0.98990  1.0000
  H   H1106     1.0  0.83545  0.22551  0.98733  1.0000
  H   H1107     1.0  0.62187  0.25377  0.75285  1.0000
  H   H1108     1.0  0.56080  0.11689  0.72643  1.0000
  H   H1109     1.0  0.50723  0.38711  0.99018  1.0000
  H   H1110     1.0  0.92980  0.35679  0.96552  1.0000
  H   H1111     1.0  0.51420  0.35098  0.94542  1.0000
  Fe  Fe72      1.0  0.52322  0.48660  0.98177  1.0000
  H   H1112     1.0  0.50365  0.39280  0.91156  1.0000
  H   H1113     1.0  0.99306  0.15754  0.76268  1.0000
  H   H1114     1.0  0.86968  0.27095  0.99168  1.0000
  H   H1115     1.0  0.59469  0.27286  0.72935  1.0000
  C   C630      1.0  0.98252  0.09587  0.67937  1.0000
  H   H1116     1.0  0.89766  0.31238  0.99844  1.0000
  C   C631      1.0  0.93426  0.35986  0.98858  1.0000
  H   H1117     1.0  0.94821  0.33997  0.99645  1.0000
  C   C632      1.0  0.88267  0.33324  0.99948  1.0000
  H   H1118     1.0  0.89200  0.38362  0.99757  1.0000
  H   H1119     1.0  0.82982  0.36511  0.99980  1.0000
  H   H1120     1.0  0.94779  0.38176  0.99147  1.0000
  H   H1121     1.0  0.53873  0.18335  0.70973  1.0000
  H   H1122     1.0  0.71945  0.49534  0.98784  1.0000
  H   H1123     1.0  0.69391  0.46173  0.98845  1.0000
  H   H1124     1.0  0.54357  0.12757  0.69302  1.0000
  S   S144      1.0  0.73566  0.25141  0.00020  1.0000
  C   C633      1.0  0.58866  0.16996  0.67829  1.0000
  H   H1125     1.0  0.58568  0.14466  0.67358  1.0000
  H   H1126     1.0  0.79419  0.93316  0.30906  1.0000
  S   S145      1.0  0.52657  0.56418  0.06253  1.0000
  Fe  Fe73      1.0  0.64824  0.71124  0.05503  1.0000
  S   S146      1.0  0.64020  0.75886  0.03588  1.0000
  S   S147      1.0  0.62466  0.67102  0.03117  1.0000
  Fe  Fe74      1.0  0.69524  0.73760  0.09870  1.0000
  S   S148      1.0  0.68971  0.78658  0.08214  1.0000
  S   S149      1.0  0.73408  0.72689  0.13047  1.0000
  Fe  Fe75      1.0  0.63841  0.77620  0.08096  1.0000
  S   S150      1.0  0.59876  0.80402  0.10148  1.0000
  Fe  Fe76      1.0  0.69198  0.76492  0.03827  1.0000
  S   S151      1.0  0.64389  0.72800  0.10014  1.0000
  S   S152      1.0  0.70018  0.71664  0.05485  1.0000
  C   C634      1.0  0.57599  0.70403  0.13588  1.0000
  Fe  Fe77      1.0  0.83152  0.78954  0.31022  1.0000
  S   S153      1.0  0.83453  0.74853  0.28051  1.0000
  S   S154      1.0  0.84410  0.83613  0.28926  1.0000
  Fe  Fe78      1.0  0.78622  0.73733  0.29470  1.0000
  S   S155      1.0  0.74572  0.72432  0.26572  1.0000
  H   H1127     1.0  0.83032  0.59548  0.28694  1.0000
  H   H1128     1.0  0.65813  0.91947  0.15584  1.0000
  H   H1129     1.0  0.85448  0.54492  0.27740  1.0000
  C   C635      1.0  0.49556  0.68551  0.03572  1.0000
  S   S156      1.0  0.95809  0.92751  0.31246  1.0000
  H   H1130     1.0  0.84993  0.63942  0.33002  1.0000
  Fe  Fe79      1.0  0.51105  0.97092  0.10566  1.0000
  S   S157      1.0  0.51341  0.96843  0.15306  1.0000
  S   S158      1.0  0.53988  0.93856  0.07719  1.0000
  C   C636      1.0  0.87835  0.85825  0.29511  1.0000
  C   C637      1.0  0.89001  0.87716  0.27306  1.0000
  C   C638      1.0  0.91543  0.89731  0.27763  1.0000
  C   C639      1.0  0.92858  0.89980  0.30464  1.0000
  C   C640      1.0  0.86563  0.96012  0.27871  1.0000
  C   C641      1.0  0.62235  0.96509  0.10607  1.0000
  H   H1131     1.0  0.87940  0.87622  0.25233  1.0000
  H   H1132     1.0  0.92440  0.91147  0.26044  1.0000
  H   H1133     1.0  0.81191  0.92433  0.20999  1.0000
  N   N35       1.0  0.84816  0.97340  0.30367  1.0000
  H   H1134     1.0  0.72795  0.80918  0.22320  1.0000
  H   H1135     1.0  0.77155  0.92332  0.22072  1.0000
  C   C642      1.0  0.78871  0.86298  0.20588  1.0000
  H   H1136     1.0  0.80322  0.87201  0.18807  1.0000
  N   N36       1.0  0.79209  0.82804  0.20828  1.0000
  C   C643      1.0  0.73657  0.72855  0.16814  1.0000
  C   C644      1.0  0.71050  0.73141  0.18562  1.0000
  C   C645      1.0  0.71373  0.73070  0.21546  1.0000
  C   C646      1.0  0.74306  0.72816  0.22818  1.0000
  C   C647      1.0  0.76918  0.72635  0.21069  1.0000
  C   C648      1.0  0.76588  0.72587  0.18090  1.0000
  H   H1137     1.0  0.68778  0.73322  0.17617  1.0000
  H   H1138     1.0  0.69330  0.73186  0.22876  1.0000
  H   H1139     1.0  0.79183  0.72453  0.22011  1.0000
  H   H1140     1.0  0.78620  0.72357  0.16760  1.0000
  C   C649      1.0  0.58235  0.84122  0.09392  1.0000
  C   C650      1.0  0.59052  0.85859  0.06984  1.0000
  C   C651      1.0  0.57705  0.88810  0.06498  1.0000
  C   C652      1.0  0.55544  0.90082  0.08416  1.0000
  C   C653      1.0  0.54707  0.88333  0.10812  1.0000
  C   C654      1.0  0.56036  0.85371  0.11287  1.0000
  H   H1141     1.0  0.60727  0.84932  0.05499  1.0000
  H   H1142     1.0  0.58360  0.90130  0.04629  1.0000
  H   H1143     1.0  0.53037  0.89265  0.12300  1.0000
  H   H1144     1.0  0.55377  0.84051  0.13154  1.0000
  C   C655      1.0  0.55303  0.59460  0.05368  1.0000
  C   C656      1.0  0.57073  0.60866  0.07526  1.0000
  C   C657      1.0  0.59245  0.63242  0.06895  1.0000
  C   C658      1.0  0.59650  0.64255  0.04094  1.0000
  C   C659      1.0  0.57834  0.62893  0.01948  1.0000
  C   C660      1.0  0.55666  0.60521  0.02579  1.0000
  H   H1145     1.0  0.56798  0.60073  0.09695  1.0000
  H   H1146     1.0  0.60653  0.64235  0.08565  1.0000
  H   H1147     1.0  0.70530  0.82043  0.27003  1.0000
  H   H1148     1.0  0.67635  0.51970  0.01544  1.0000
  H   H1149     1.0  0.59109  0.54805  0.02449  1.0000
  C   C661      1.0  0.77679  0.81567  0.23491  1.0000
  H   H1150     1.0  0.72698  0.66374  0.19238  1.0000
  C   C662      1.0  0.79796  0.88203  0.23260  1.0000
  H   H1151     1.0  0.76461  0.86934  0.20001  1.0000
  S   S159      1.0  0.89343  0.69059  0.31669  1.0000
  H   H1152     1.0  0.83940  0.83393  0.19316  1.0000
  H   H1153     1.0  0.86247  0.70144  0.22849  1.0000
  H   H1154     1.0  0.88839  0.95125  0.28565  1.0000
  H   H1155     1.0  0.88269  0.66478  0.22377  1.0000
  C   C663      1.0  0.82620  0.82056  0.20949  1.0000
  H   H1156     1.0  0.87532  0.75582  0.20797  1.0000
  H   H1157     1.0  0.73952  0.64077  0.16260  1.0000
  H   H1158     1.0  0.83568  0.54252  0.24332  1.0000
  C   C664      1.0  0.51161  0.69271  0.06432  1.0000
  H   H1159     1.0  0.58346  0.96455  0.15344  1.0000
  C   C665      1.0  0.64243  0.97887  0.15410  1.0000
  H   H1160     1.0  0.58901  0.98698  0.05944  1.0000
  H   H1161     1.0  0.74070  0.62419  0.28503  1.0000
  C   C666      1.0  0.65079  0.92670  0.13419  1.0000
  H   H1162     1.0  0.51324  0.68155  0.01897  1.0000
  H   H1163     1.0  0.78938  0.82382  0.25413  1.0000
  H   H1164     1.0  0.81293  0.54167  0.27576  1.0000
  H   H1165     1.0  0.74298  0.82947  0.28436  1.0000
  H   H1166     1.0  0.55673  0.94075  0.19580  1.0000
  C   C667      1.0  0.59800  0.94369  0.14900  1.0000
  H   H1167     1.0  0.89070  0.68900  0.25409  1.0000
  C   C668      1.0  0.79550  0.91706  0.22700  1.0000
  H   H1168     1.0  0.73692  0.84825  0.23473  1.0000
  H   H1169     1.0  0.80056  0.98651  0.31217  1.0000
  H   H1170     1.0  0.85339  0.93953  0.26992  1.0000
  H   H1171     1.0  0.85780  0.64444  0.26806  1.0000
  H   H1172     1.0  0.56580  0.69895  0.04337  1.0000
  C   C669      1.0  0.73041  0.81534  0.26826  1.0000
  C   C670      1.0  0.66193  0.87035  0.12082  1.0000
  C   C671      1.0  0.90781  0.58488  0.32851  1.0000
  H   H1173     1.0  0.61647  0.88919  0.12596  1.0000
  H   H1174     1.0  0.59240  0.68525  0.14181  1.0000
  C   C672      1.0  0.63920  0.89739  0.11794  1.0000
  H   H1175     1.0  0.64453  0.96992  0.09475  1.0000
  H   H1176     1.0  0.78260  0.87642  0.25085  1.0000
  N   N37       1.0  0.62839  0.95358  0.13579  1.0000
  H   H1177     1.0  0.85324  0.59629  0.25474  1.0000
  H   H1178     1.0  0.83812  0.68060  0.27273  1.0000
  C   C673      1.0  0.86741  0.99735  0.31939  1.0000
  H   H1179     1.0  0.51399  0.83208  0.06128  1.0000
  Fe  Fe80      1.0  0.85019  0.72091  0.31860  1.0000
  H   H1180     1.0  0.65019  0.96890  0.17467  1.0000
  S   S160      1.0  0.72459  0.78582  0.00459  1.0000
  H   H1181     1.0  0.82474  0.90943  0.29489  1.0000
  H   H1182     1.0  0.55718  0.74647  0.09836  1.0000
  C   C674      1.0  0.56331  0.69780  0.10611  1.0000
  H   H1183     1.0  0.52700  0.67232  0.06773  1.0000
  H   H1184     1.0  0.52484  0.78693  0.09129  1.0000
  Fe  Fe81      1.0  0.50695  0.52785  0.03174  1.0000
  C   C675      1.0  0.93260  0.60482  0.32228  1.0000
  H   H1185     1.0  0.78416  0.65404  0.19155  1.0000
  H   H1186     1.0  0.73384  0.79020  0.27287  1.0000
  H   H1187     1.0  0.80867  0.59259  0.22473  1.0000
  H   H1188     1.0  0.78305  0.58368  0.25277  1.0000
  H   H1189     1.0  0.77033  0.59789  0.29735  1.0000
  H   H1190     1.0  0.50182  0.80733  0.03245  1.0000
  C   C676      1.0  0.91726  0.88050  0.32653  1.0000
  C   C677      1.0  0.56826  0.91859  0.18976  1.0000
  C   C678      1.0  0.59964  0.51134  0.07361  1.0000
  H   H1191     1.0  0.74733  0.62089  0.23929  1.0000
  H   H1192     1.0  0.57624  0.73702  0.05348  1.0000
  H   H1193     1.0  0.54257  0.59527  0.00912  1.0000
  S   S161      1.0  0.98416  0.96335  0.23626  1.0000
  C   C679      1.0  0.55641  0.72294  0.04533  1.0000
  H   H1194     1.0  0.55684  0.70435  0.15165  1.0000
  H   H1195     1.0  0.77838  0.78980  0.23587  1.0000
  C   C680      1.0  0.88978  0.96536  0.22996  1.0000
  H   H1196     1.0  0.61173  0.90239  0.17399  1.0000
  H   H1197     1.0  0.61362  0.93857  0.19335  1.0000
  H   H1198     1.0  0.58407  0.92957  0.13385  1.0000
  C   C681      1.0  0.54259  0.72511  0.09609  1.0000
  C   C682      1.0  0.64608  0.56958  0.00634  1.0000
  H   H1199     1.0  0.62474  0.99662  0.16008  1.0000
  H   H1200     1.0  0.55360  0.90582  0.17422  1.0000
  H   H1201     1.0  0.55018  0.67554  0.10751  1.0000
  H   H1202     1.0  0.58311  0.69475  0.09135  1.0000
  H   H1203     1.0  0.77689  0.61268  0.19336  1.0000
  C   C683      1.0  0.77687  0.81303  0.18294  1.0000
  C   C684      1.0  0.83488  0.78565  0.20623  1.0000
  C   C685      1.0  0.79080  0.82178  0.15358  1.0000
  C   C686      1.0  0.86960  0.78090  0.21054  1.0000
  C   C687      1.0  0.77641  0.80201  0.13002  1.0000
  H   H1204     1.0  0.75197  0.81941  0.18193  1.0000
  H   H1205     1.0  0.77684  0.78726  0.18518  1.0000
  H   H1206     1.0  0.82893  0.77683  0.18478  1.0000
  H   H1207     1.0  0.78609  0.84666  0.14864  1.0000
  H   H1208     1.0  0.81617  0.81813  0.15282  1.0000
  H   H1209     1.0  0.88312  0.79456  0.19468  1.0000
  H   H1210     1.0  0.87652  0.78825  0.23227  1.0000
  H   H1211     1.0  0.75077  0.80416  0.13002  1.0000
  H   H1212     1.0  0.78530  0.80982  0.10902  1.0000
  H   H1213     1.0  0.78259  0.77706  0.13284  1.0000
  H   H1214     1.0  0.65344  0.85008  0.10830  1.0000
  C   C688      1.0  0.89775  0.64971  0.32107  1.0000
  H   H1215     1.0  0.80141  0.93003  0.24661  1.0000
  H   H1216     1.0  0.75589  0.66149  0.23792  1.0000
  H   H1217     1.0  0.52335  0.72748  0.11177  1.0000
  N   N38       1.0  0.52982  0.72288  0.06626  1.0000
  C   C689      1.0  0.84123  0.94673  0.32386  1.0000
  H   H1218     1.0  0.62766  0.55094  0.06220  1.0000
  H   H1219     1.0  0.83607  0.82840  0.23005  1.0000
  C   C690      1.0  0.60031  0.92524  0.17729  1.0000
  H   H1220     1.0  0.58847  0.72676  0.13672  1.0000
  H   H1221     1.0  0.57776  0.98870  0.11140  1.0000
  H   H1222     1.0  0.67248  0.93401  0.12328  1.0000
  H   H1223     1.0  0.87907  0.94255  0.22437  1.0000
  H   H1224     1.0  0.61052  0.94668  0.09336  1.0000
  H   H1225     1.0  0.80764  0.97418  0.27675  1.0000
  H   H1226     1.0  0.65897  0.56910  0.02676  1.0000
  H   H1227     1.0  0.66385  0.86297  0.14336  1.0000
  H   H1228     1.0  0.59711  0.50787  0.01777  1.0000
  H   H1229     1.0  0.63695  0.90258  0.09496  1.0000
  H   H1230     1.0  0.82216  0.87714  0.23889  1.0000
  C   C691      1.0  0.87126  0.98193  0.25313  1.0000
  C   C692      1.0  0.74186  0.82324  0.23839  1.0000
  S   S162      1.0  0.78186  0.77969  0.32281  1.0000
  H   H1231     1.0  0.57049  0.90399  0.20913  1.0000
  H   H1232     1.0  0.89037  0.97999  0.21051  1.0000
  H   H1233     1.0  0.72035  0.62199  0.19217  1.0000
  H   H1234     1.0  0.82267  0.77112  0.22213  1.0000
  H   H1235     1.0  0.68514  0.87709  0.11259  1.0000
  N   N39       1.0  0.79500  0.63270  0.24965  1.0000
  C   C693      1.0  0.78852  0.64214  0.27998  1.0000
  C   C694      1.0  0.82009  0.65326  0.23697  1.0000
  C   C695      1.0  0.76555  0.63799  0.23298  1.0000
  C   C696      1.0  0.80332  0.59863  0.24715  1.0000
  C   C697      1.0  0.83152  0.58756  0.26463  1.0000
  C   C698      1.0  0.76341  0.62275  0.29584  1.0000
  C   C699      1.0  0.76829  0.63586  0.20011  1.0000
  C   C700      1.0  0.84692  0.66396  0.25660  1.0000
  C   C701      1.0  0.87216  0.68080  0.23957  1.0000
  C   C702      1.0  0.83363  0.55197  0.26520  1.0000
  C   C703      1.0  0.81676  0.92223  0.31397  1.0000
  C   C704      1.0  0.73682  0.64085  0.18607  1.0000
  H   H1236     1.0  0.78146  0.66713  0.28062  1.0000
  H   H1237     1.0  0.80963  0.64098  0.29322  1.0000
  H   H1238     1.0  0.83039  0.64186  0.21792  1.0000
  H   H1239     1.0  0.80990  0.67548  0.22927  1.0000
  H   H1240     1.0  0.57772  0.52466  0.07458  1.0000
  H   H1241     1.0  0.86265  0.93306  0.32809  1.0000
  H   H1242     1.0  0.74984  0.65908  0.32568  1.0000
  H   H1243     1.0  0.68876  0.98066  0.13369  1.0000
  H   H1244     1.0  0.54650  0.78484  0.05883  1.0000
  C   C705      1.0  0.89247  0.85961  0.32175  1.0000
  C   C706      1.0  0.60942  0.53003  0.02305  1.0000
  C   C707      1.0  0.52291  0.78288  0.06805  1.0000
  C   C708      1.0  0.75865  0.63475  0.32608  1.0000
  H   H1245     1.0  0.49807  0.75053  0.04083  1.0000
  C   C709      1.0  0.87288  0.62985  0.32749  1.0000
  C   C710      1.0  0.62271  0.52727  0.05360  1.0000
  Fe  Fe82      1.0  0.97697  0.96610  0.28357  1.0000
  H   H1246     1.0  0.60944  0.51027  0.09536  1.0000
  H   H1247     1.0  0.68739  0.61858  0.01272  1.0000
  C   C711      1.0  0.50827  0.75021  0.06235  1.0000
  H   H1248     1.0  0.91393  0.96159  0.23708  1.0000
  C   C712      1.0  0.92746  0.63692  0.31810  1.0000
  H   H1249     1.0  0.95564  0.59534  0.31991  1.0000
  H   H1250     1.0  0.62738  0.58688  0.01001  1.0000
  H   H1251     1.0  0.94665  0.65201  0.31250  1.0000
  H   H1252     1.0  0.55172  0.76146  0.01484  1.0000
  S   S163      1.0  0.80203  0.70633  0.33065  1.0000
  H   H1253     1.0  0.91363  0.97603  0.31854  1.0000
  H   H1254     1.0  0.84894  0.98887  0.24344  1.0000
  C   C713      1.0  0.81782  0.98782  0.29455  1.0000
  H   H1255     1.0  0.49375  0.69177  0.08145  1.0000
  S   S164      1.0  0.91320  0.54405  0.33211  1.0000
  C   C714      1.0  0.50320  0.80921  0.05593  1.0000
  H   H1256     1.0  0.64437  0.51357  0.05432  1.0000
  H   H1257     1.0  0.79422  0.87997  0.32922  1.0000
  C   C715      1.0  0.87783  0.59746  0.33058  1.0000
  C   C716      1.0  0.60148  0.99423  0.10381  1.0000
  C   C717      1.0  0.54971  0.73560  0.01496  1.0000
  H   H1258     1.0  0.52628  0.72972  0.00728  1.0000
  C   C718      1.0  0.89710  0.98538  0.33429  1.0000
  C   C719      1.0  0.67054  0.99675  0.14125  1.0000
  H   H1259     1.0  0.85847  0.58212  0.33512  1.0000
  C   C720      1.0  0.52232  0.66057  0.51185  1.0000
  S   S165      1.0  0.68247  0.78960  0.48917  1.0000
  Fe  Fe83      1.0  0.80135  0.74968  0.35783  1.0000
  S   S166      1.0  0.78843  0.74135  0.40459  1.0000
  H   H1260     1.0  0.67659  0.96837  0.64296  1.0000
  Fe  Fe84      1.0  0.95470  0.52274  0.35498  1.0000
  H   H1261     1.0  0.56347  0.57601  0.51647  1.0000
  S   S167      1.0  0.95438  0.52574  0.40260  1.0000
  H   H1262     1.0  0.67986  0.92523  0.60982  1.0000
  C   C721      1.0  0.72599  0.67307  0.39243  1.0000
  H   H1263     1.0  0.62048  0.56132  0.50575  1.0000
  H   H1264     1.0  0.52119  0.58795  0.44921  1.0000
  H   H1265     1.0  0.90781  0.69176  0.38231  1.0000
  C   C722      1.0  0.75876  0.75545  0.42756  1.0000
  C   C723      1.0  0.75839  0.74545  0.45606  1.0000
  C   C724      1.0  0.73533  0.75567  0.47517  1.0000
  C   C725      1.0  0.71216  0.77598  0.46599  1.0000
  C   C726      1.0  0.71246  0.78594  0.43748  1.0000
  C   C727      1.0  0.73555  0.77572  0.41834  1.0000
  H   H1266     1.0  0.77623  0.72982  0.46347  1.0000
  H   H1267     1.0  0.73563  0.74800  0.49705  1.0000
  H   H1268     1.0  0.69476  0.80177  0.43015  1.0000
  H   H1269     1.0  0.73547  0.78363  0.39653  1.0000
  C   C728      1.0  0.73090  0.75262  0.66243  1.0000
  S   S168      1.0  0.52409  0.56346  0.56601  1.0000
  Fe  Fe85      1.0  0.64063  0.71380  0.56113  1.0000
  S   S169      1.0  0.61953  0.75515  0.53919  1.0000
  S   S170      1.0  0.62860  0.66615  0.54161  1.0000
  Fe  Fe86      1.0  0.68527  0.75607  0.59577  1.0000
  S   S171      1.0  0.66798  0.79929  0.57365  1.0000
  S   S172      1.0  0.71899  0.77136  0.63068  1.0000
  Fe  Fe87      1.0  0.62073  0.77950  0.58153  1.0000
  S   S173      1.0  0.58405  0.80630  0.60661  1.0000
  Fe  Fe88      1.0  0.66901  0.77118  0.53321  1.0000
  S   S174      1.0  0.63770  0.73654  0.60438  1.0000
  S   S175      1.0  0.69026  0.72970  0.55436  1.0000
  H   H1270     1.0  0.53178  0.64199  0.49807  1.0000
  H   H1271     1.0  0.59468  0.54037  0.55916  1.0000
  S   S176      1.0  0.53825  0.94585  0.58685  1.0000
  H   H1272     1.0  0.67679  0.83575  0.62686  1.0000
  H   H1273     1.0  0.54091  0.69780  0.48494  1.0000
  C   C729      1.0  0.57413  0.84609  0.60170  1.0000
  C   C730      1.0  0.58073  0.86198  0.57645  1.0000
  C   C731      1.0  0.56996  0.89268  0.57244  1.0000
  C   C732      1.0  0.55284  0.90794  0.59370  1.0000
  C   C733      1.0  0.54745  0.89257  0.61944  1.0000
  C   C734      1.0  0.55781  0.86168  0.62332  1.0000
  H   H1274     1.0  0.59324  0.85027  0.55964  1.0000
  H   H1275     1.0  0.57438  0.90444  0.55248  1.0000
  H   H1276     1.0  0.53501  0.90445  0.63611  1.0000
  H   H1277     1.0  0.55304  0.84974  0.64307  1.0000
  C   C735      1.0  0.55159  0.59320  0.55796  1.0000
  C   C736      1.0  0.55777  0.61649  0.57828  1.0000
  C   C737      1.0  0.58055  0.63964  0.57336  1.0000
  C   C738      1.0  0.59779  0.63940  0.54818  1.0000
  C   C739      1.0  0.59127  0.61641  0.52769  1.0000
  C   C740      1.0  0.56808  0.59366  0.53236  1.0000
  H   H1278     1.0  0.54514  0.61635  0.59816  1.0000
  H   H1279     1.0  0.58535  0.65709  0.58936  1.0000
  H   H1280     1.0  0.60441  0.61610  0.50814  1.0000
  N   N40       1.0  0.94061  0.64178  0.41165  1.0000
  C   C741      1.0  0.91895  0.66689  0.42220  1.0000
  C   C742      1.0  0.96025  0.65608  0.38834  1.0000
  C   C743      1.0  0.61354  0.51091  0.51334  1.0000
  C   C744      1.0  0.92322  0.61435  0.39932  1.0000
  C   C745      1.0  0.90092  0.59693  0.41975  1.0000
  C   C746      1.0  0.89564  0.67999  0.40014  1.0000
  H   H1281     1.0  0.58787  0.51389  0.51415  1.0000
  C   C747      1.0  0.94920  0.63069  0.46589  1.0000
  C   C748      1.0  0.66068  0.49962  0.54055  1.0000
  C   C749      1.0  0.87972  0.57439  0.40376  1.0000
  C   C750      1.0  0.87424  0.70417  0.41363  1.0000
  H   H1282     1.0  0.67259  0.87811  0.58027  1.0000
  H   H1283     1.0  0.93269  0.68696  0.43057  1.0000
  H   H1284     1.0  0.90491  0.65869  0.44047  1.0000
  C   C751      1.0  0.67194  0.98430  0.62478  1.0000
  H   H1285     1.0  0.69927  0.83715  0.65913  1.0000
  H   H1286     1.0  0.62681  0.58642  0.59485  1.0000
  H   H1287     1.0  0.94590  0.66170  0.36950  1.0000
  H   H1288     1.0  0.91019  0.62158  0.38018  1.0000
  H   H1289     1.0  0.93961  0.59639  0.39140  1.0000
  H   H1290     1.0  0.88572  0.61310  0.43157  1.0000
  H   H1291     1.0  0.91457  0.58286  0.43502  1.0000
  H   H1292     1.0  0.88068  0.66121  0.39143  1.0000
  H   H1293     1.0  0.96235  0.61462  0.50792  1.0000
  H   H1294     1.0  0.86547  0.56083  0.41912  1.0000
  H   H1295     1.0  0.62013  0.94727  0.58054  1.0000
  H   H1296     1.0  0.92651  0.61878  0.46747  1.0000
  C   C752      1.0  0.64313  0.95363  0.58945  1.0000
  C   C753      1.0  0.80532  0.83473  0.62757  1.0000
  H   H1297     1.0  0.92743  0.88202  0.34745  1.0000
  H   H1298     1.0  0.67376  0.52210  0.53980  1.0000
  C   C754      1.0  0.67773  0.84534  0.64873  1.0000
  H   H1299     1.0  0.94636  0.65499  0.47373  1.0000
  H   H1300     1.0  0.86049  0.69361  0.43118  1.0000
  H   H1301     1.0  0.88779  0.72429  0.42189  1.0000
  H   H1302     1.0  0.97440  0.58926  0.47945  1.0000
  H   H1303     1.0  0.62853  0.84454  0.65482  1.0000
  H   H1304     1.0  0.97896  0.61451  0.36652  1.0000
  H   H1305     1.0  0.59022  0.54082  0.46521  1.0000
  H   H1306     1.0  0.49697  0.83275  0.64318  1.0000
  H   H1307     1.0  0.86393  0.58748  0.38958  1.0000
  H   H1308     1.0  0.49336  0.76029  0.64669  1.0000
  H   H1309     1.0  0.64129  0.89634  0.56147  1.0000
  C   C755      1.0  0.66323  0.90088  0.57306  1.0000
  N   N41       1.0  0.62633  0.50590  0.54286  1.0000
  H   H1310     1.0  0.62597  0.55920  0.45416  1.0000
  H   H1311     1.0  0.65705  0.96321  0.57142  1.0000
  H   H1312     1.0  0.62157  0.51531  0.60299  1.0000
  H   H1313     1.0  0.53452  0.70891  0.52164  1.0000
  H   H1314     1.0  0.64137  0.90919  0.61303  1.0000
  H   H1315     1.0  0.56676  0.68455  0.51224  1.0000
  C   C756      1.0  0.54220  0.68981  0.50735  1.0000
  H   H1316     1.0  0.63173  0.55575  0.54982  1.0000
  S   S177      1.0  0.85089  0.76292  0.34733  1.0000
  Fe  Fe89      1.0  0.51049  0.97738  0.61655  1.0000
  H   H1317     1.0  0.72601  0.70553  0.64718  1.0000
  C   C757      1.0  0.61588  0.53897  0.46571  1.0000
  C   C758      1.0  0.63048  0.53569  0.59095  1.0000
  S   S178      1.0  0.51130  0.97412  0.66396  1.0000
  H   H1318     1.0  0.50293  0.60195  0.41733  1.0000
  C   C759      1.0  0.96208  0.63121  0.43511  1.0000
  H   H1319     1.0  0.71074  0.67231  0.37349  1.0000
  S   S179      1.0  0.50987  0.53215  0.48899  1.0000
  H   H1320     1.0  0.62745  0.56557  0.62812  1.0000
  H   H1321     1.0  0.78719  0.82258  0.61494  1.0000
  H   H1322     1.0  0.89346  0.55769  0.39095  1.0000
  C   C760      1.0  0.81079  0.81679  0.65515  1.0000
  H   H1323     1.0  0.69028  0.97892  0.60881  1.0000
  H   H1324     1.0  0.51915  0.78326  0.62447  1.0000
  H   H1325     1.0  0.74692  0.68704  0.38695  1.0000
  H   H1326     1.0  0.59561  0.98750  0.56679  1.0000
  C   C761      1.0  0.61853  0.96481  0.63487  1.0000
  H   H1327     1.0  0.65309  0.53775  0.49577  1.0000
  H   H1328     1.0  0.59704  0.95528  0.62496  1.0000
  H   H1329     1.0  0.52498  0.65322  0.53429  1.0000
  H   H1330     1.0  0.68027  0.91177  0.55831  1.0000
  C   C762      1.0  0.98756  0.63592  0.37716  1.0000
  C   C763      1.0  0.65749  0.92198  0.59868  1.0000
  C   C764      1.0  0.97156  0.61406  0.48590  1.0000
  H   H1331     1.0  0.62953  0.94453  0.64551  1.0000
  C   C765      1.0  0.61869  0.56498  0.60598  1.0000
  H   H1332     1.0  0.63850  0.79077  0.64604  1.0000
  H   H1333     1.0  0.63071  0.69549  0.65660  1.0000
  H   H1334     1.0  0.98291  0.64668  0.43625  1.0000
  N   N42       1.0  0.66155  0.68176  0.45071  1.0000
  C   C766      1.0  0.67963  0.66947  0.42567  1.0000
  C   C767      1.0  0.63592  0.65888  0.45768  1.0000
  C   C768      1.0  0.64886  0.71339  0.44301  1.0000
  C   C769      1.0  0.68181  0.68528  0.47655  1.0000
  C   C770      1.0  0.70043  0.65593  0.48530  1.0000
  C   C771      1.0  0.70928  0.68817  0.41752  1.0000
  C   C772      1.0  0.62673  0.72825  0.46509  1.0000
  C   C773      1.0  0.60972  0.65590  0.43534  1.0000
  C   C774      1.0  0.58482  0.63282  0.44526  1.0000
  C   C775      1.0  0.71961  0.66222  0.51190  1.0000
  C   C776      1.0  0.61294  0.75859  0.45380  1.0000
  H   H1335     1.0  0.66486  0.66919  0.40636  1.0000
  H   H1336     1.0  0.68623  0.64467  0.42914  1.0000
  H   H1337     1.0  0.64547  0.63503  0.46049  1.0000
  H   H1338     1.0  0.62516  0.66456  0.47856  1.0000
  H   H1339     1.0  0.63703  0.71263  0.42206  1.0000
  H   H1340     1.0  0.66808  0.73054  0.44021  1.0000
  H   H1341     1.0  0.69834  0.70497  0.47373  1.0000
  H   H1342     1.0  0.66764  0.69193  0.49534  1.0000
  H   H1343     1.0  0.71667  0.64875  0.46828  1.0000
  H   H1344     1.0  0.68472  0.63606  0.49017  1.0000
  H   H1345     1.0  0.70349  0.71238  0.41116  1.0000
  H   H1346     1.0  0.72590  0.68931  0.43537  1.0000
  H   H1347     1.0  0.63974  0.73390  0.48465  1.0000
  H   H1348     1.0  0.60720  0.71259  0.47082  1.0000
  H   H1349     1.0  0.59815  0.67857  0.43163  1.0000
  H   H1350     1.0  0.61899  0.64731  0.41481  1.0000
  H   H1351     1.0  0.56631  0.63104  0.42901  1.0000
  H   H1352     1.0  0.59480  0.60925  0.44851  1.0000
  H   H1353     1.0  0.57427  0.64090  0.46545  1.0000
  H   H1354     1.0  0.73522  0.68264  0.50867  1.0000
  H   H1355     1.0  0.70414  0.66667  0.53032  1.0000
  H   H1356     1.0  0.73398  0.64151  0.51686  1.0000
  H   H1357     1.0  0.63159  0.77531  0.44776  1.0000
  H   H1358     1.0  0.59813  0.75391  0.43504  1.0000
  H   H1359     1.0  0.59858  0.76960  0.47059  1.0000
  H   H1360     1.0  0.85794  0.83048  0.66041  1.0000
  H   H1361     1.0  0.62291  0.51728  0.45455  1.0000
  H   H1362     1.0  0.73344  0.64903  0.39791  1.0000
  C   C777      1.0  0.60839  0.98725  0.65875  1.0000
  H   H1363     1.0  0.97024  0.67874  0.39566  1.0000
  C   C778      1.0  0.61999  0.53526  0.55959  1.0000
  Fe  Fe90      1.0  0.50580  0.52579  0.53586  1.0000
  C   C779      1.0  0.62744  0.53879  0.49633  1.0000
  H   H1364     1.0  0.59296  0.56493  0.60670  1.0000
  H   H1365     1.0  0.82687  0.83586  0.61466  1.0000
  H   H1366     1.0  0.85782  0.71301  0.39741  1.0000
  H   H1367     1.0  0.65614  0.53628  0.59203  1.0000
  N   N43       1.0  0.63998  0.97799  0.61252  1.0000
  H   H1368     1.0  0.97113  0.60748  0.43024  1.0000
  H   H1369     1.0  0.79721  0.85878  0.63213  1.0000
  H   H1370     1.0  0.81795  0.79291  0.64903  1.0000
  H   H1371     1.0  0.57754  0.99735  0.60016  1.0000
  H   H1372     1.0  0.80120  0.90875  0.35645  1.0000
  H   H1373     1.0  0.72073  0.50161  0.56342  1.0000
  H   H1374     1.0  0.50164  0.64184  0.45474  1.0000
  H   H1375     1.0  0.67847  0.87120  0.64738  1.0000
  H   H1376     1.0  0.78068  0.63404  0.33820  1.0000
  H   H1377     1.0  0.88364  0.84534  0.33896  1.0000
  C   C780      1.0  0.49877  0.59499  0.43973  1.0000
  H   H1378     1.0  0.83332  0.95607  0.34474  1.0000
  H   H1379     1.0  0.83277  0.88559  0.34255  1.0000
  C   C781      1.0  0.73284  0.72015  0.66483  1.0000
  H   H1380     1.0  0.49858  0.60196  0.49660  1.0000
  C   C782      1.0  0.81093  0.89776  0.33705  1.0000
  C   C783      1.0  0.64927  0.83495  0.66568  1.0000
  H   H1381     1.0  0.58617  0.79964  0.66512  1.0000
  H   H1382     1.0  0.78833  0.81578  0.66644  1.0000
  H   H1383     1.0  0.89187  0.96694  0.35015  1.0000
  C   C784      1.0  0.49573  0.77248  0.62597  1.0000
  H   H1384     1.0  0.60841  0.74803  0.66485  1.0000
  C   C785      1.0  0.64664  0.79881  0.66727  1.0000
  H   H1385     1.0  0.74132  0.61990  0.33724  1.0000
  H   H1386     1.0  0.49354  0.75494  0.60872  1.0000
  H   H1387     1.0  0.99299  0.66195  0.33753  1.0000
  C   C786      1.0  0.75796  0.67257  0.97604  1.0000
  H   H1388     1.0  0.78228  0.78034  0.91424  1.0000
  Fe  Fe91      1.0  0.78479  0.74525  0.84441  1.0000
  S   S180      1.0  0.80200  0.70354  0.82014  1.0000
  S   S181      1.0  0.75023  0.73301  0.87964  1.0000
  Fe  Fe92      1.0  0.82318  0.79014  0.80713  1.0000
  S   S182      1.0  0.84345  0.75133  0.78097  1.0000
  S   S183      1.0  0.83012  0.84159  0.79593  1.0000
  Fe  Fe93      1.0  0.79475  0.73193  0.78044  1.0000
  S   S184      1.0  0.77218  0.70748  0.74259  1.0000
  Fe  Fe94      1.0  0.84863  0.72600  0.82276  1.0000
  S   S185      1.0  0.89214  0.70214  0.83881  1.0000
  S   S186      1.0  0.77400  0.77198  0.80434  1.0000
  S   S187      1.0  0.83202  0.76662  0.84905  1.0000
  Fe  Fe95      1.0  0.96817  0.96549  0.77576  1.0000
  S   S188      1.0  0.95683  0.91887  0.79726  1.0000
  S   S189      1.0  0.96774  0.97051  0.72830  1.0000
  Fe  Fe96      1.0  0.95308  0.53291  0.87578  1.0000
  S   S190      1.0  0.91315  0.55529  0.85157  1.0000
  S   S191      1.0  0.95924  0.54180  0.92214  1.0000
  C   C787      1.0  0.86582  0.86227  0.79564  1.0000
  C   C788      1.0  0.86735  0.89180  0.78262  1.0000
  C   C789      1.0  0.89503  0.90943  0.78273  1.0000
  C   C790      1.0  0.92139  0.89778  0.79618  1.0000
  C   C791      1.0  0.91980  0.86824  0.80919  1.0000
  C   C792      1.0  0.89232  0.85036  0.80857  1.0000
  H   H1389     1.0  0.84696  0.90127  0.77256  1.0000
  H   H1390     1.0  0.89589  0.93214  0.77267  1.0000
  H   H1391     1.0  0.94006  0.85905  0.81969  1.0000
  H   H1392     1.0  0.89156  0.82751  0.81830  1.0000
  C   C793      1.0  0.89701  0.66122  0.84282  1.0000
  C   C794      1.0  0.92382  0.65002  0.85622  1.0000
  C   C795      1.0  0.92892  0.61771  0.85937  1.0000
  C   C796      1.0  0.90730  0.59621  0.84895  1.0000
  C   C797      1.0  0.88027  0.60740  0.83587  1.0000
  C   C798      1.0  0.87508  0.63973  0.83288  1.0000
  H   H1393     1.0  0.94091  0.66642  0.86403  1.0000
  H   H1394     1.0  0.94978  0.60946  0.86952  1.0000
  H   H1395     1.0  0.86345  0.59098  0.82769  1.0000
  H   H1396     1.0  0.85445  0.64800  0.82239  1.0000
  H   H1397     1.0  0.72374  0.84232  0.86610  1.0000
  C   C799      1.0  0.74501  0.70658  0.68971  1.0000
  C   C800      1.0  0.75480  0.72526  0.71258  1.0000
  C   C801      1.0  0.75120  0.75757  0.71077  1.0000
  H   H1398     1.0  0.57603  0.78944  0.72957  1.0000
  H   H1399     1.0  0.59690  0.82751  0.69124  1.0000
  C   C802      1.0  0.83143  0.75922  0.70122  1.0000
  H   H1400     1.0  0.75741  0.77189  0.72876  1.0000
  C   C803      1.0  0.74452  0.74749  0.91467  1.0000
  C   C804      1.0  0.72015  0.73502  0.93109  1.0000
  C   C805      1.0  0.71417  0.74600  0.95880  1.0000
  C   C806      1.0  0.73235  0.76988  0.97038  1.0000
  C   C807      1.0  0.75699  0.78213  0.95407  1.0000
  C   C808      1.0  0.76322  0.77088  0.92645  1.0000
  H   H1401     1.0  0.70556  0.71691  0.92224  1.0000
  C   C809      1.0  0.85358  0.90716  0.86696  1.0000
  H   H1402     1.0  0.77129  0.80042  0.96298  1.0000
  H   H1403     1.0  0.65061  0.84548  0.68714  1.0000
  H   H1404     1.0  0.85639  0.86526  0.71779  1.0000
  C   C810      1.0  0.57252  0.72278  0.99307  1.0000
  H   H1405     1.0  0.87048  0.78461  0.68305  1.0000
  H   H1406     1.0  0.77723  0.66860  0.86626  1.0000
  H   H1407     1.0  0.60519  0.74168  0.70217  1.0000
  C   C811      1.0  0.78243  0.85543  0.88617  1.0000
  H   H1408     1.0  0.69513  0.73637  0.97101  1.0000
  H   H1409     1.0  0.68490  0.77269  0.71403  1.0000
  N   N44       1.0  0.81549  0.86670  0.88951  1.0000
  H   H1410     1.0  0.74743  0.68149  0.69103  1.0000
  C   C812      1.0  0.88987  0.81403  0.89059  1.0000
  H   H1411     1.0  0.60870  0.95438  0.69410  1.0000
  H   H1412     1.0  0.81059  0.86762  0.73753  1.0000
  C   C813      1.0  0.85467  0.78707  0.70164  1.0000
  H   H1413     1.0  0.88143  0.86276  0.89668  1.0000
  H   H1414     1.0  0.60573  0.51355  0.96836  1.0000
  H   H1415     1.0  0.58173  0.98598  0.69795  1.0000
  C   C814      1.0  0.79604  0.85189  0.72439  1.0000
  C   C815      1.0  0.68279  0.79399  0.75498  1.0000
  H   H1416     1.0  0.85029  0.52623  0.84641  1.0000
  H   H1417     1.0  0.76856  0.83652  0.76082  1.0000
  C   C816      1.0  0.59198  0.96931  0.68256  1.0000
  H   H1418     1.0  0.82596  0.81725  0.89166  1.0000
  H   H1419     1.0  0.66694  0.73859  0.66971  1.0000
  H   H1420     1.0  0.82639  0.50688  0.88927  1.0000
  N   N45       1.0  0.81223  0.64947  0.91255  1.0000
  C   C817      1.0  0.83495  0.63008  0.92924  1.0000
  C   C818      1.0  0.78351  0.65472  0.93031  1.0000
  C   C819      1.0  0.80284  0.63045  0.88689  1.0000
  C   C820      1.0  0.82585  0.68023  0.90254  1.0000
  C   C821      1.0  0.85012  0.69600  0.92230  1.0000
  C   C822      1.0  0.86308  0.61774  0.91199  1.0000
  C   C823      1.0  0.67370  0.79318  0.72365  1.0000
  C   C824      1.0  0.78748  0.67371  0.95803  1.0000
  H   H1421     1.0  0.75313  0.63682  0.82850  1.0000
  C   C825      1.0  0.85688  0.72954  0.91326  1.0000
  C   C826      1.0  0.88873  0.60578  0.93135  1.0000
  H   H1422     1.0  0.82305  0.60926  0.93849  1.0000
  H   H1423     1.0  0.84400  0.64297  0.94785  1.0000
  H   H1424     1.0  0.76591  0.66801  0.91809  1.0000
  H   H1425     1.0  0.77259  0.63182  0.93573  1.0000
  C   C827      1.0  0.74175  0.82657  0.85735  1.0000
  H   H1426     1.0  0.82271  0.62830  0.87190  1.0000
  H   H1427     1.0  0.83764  0.67757  0.88158  1.0000
  H   H1428     1.0  0.80699  0.69732  0.89849  1.0000
  H   H1429     1.0  0.87234  0.68312  0.92146  1.0000
  H   H1430     1.0  0.84259  0.69660  0.94471  1.0000
  H   H1431     1.0  0.85578  0.59796  0.89824  1.0000
  H   H1432     1.0  0.87295  0.63617  0.89809  1.0000
  H   H1433     1.0  0.89504  0.81605  0.86758  1.0000
  H   H1434     1.0  0.70841  0.79515  0.75684  1.0000
  H   H1435     1.0  0.56074  0.76635  0.70071  1.0000
  H   H1436     1.0  0.90827  0.81777  0.70546  1.0000
  H   H1437     1.0  0.79670  0.60610  0.89327  1.0000
  H   H1438     1.0  0.99029  0.89098  0.72083  1.0000
  H   H1439     1.0  0.90958  0.88742  0.72177  1.0000
  H   H1440     1.0  0.87396  0.74018  0.92799  1.0000
  H   H1441     1.0  0.86695  0.72991  0.89156  1.0000
  H   H1442     1.0  0.83540  0.74369  0.91375  1.0000
  H   H1443     1.0  0.90776  0.59601  0.91819  1.0000
  H   H1444     1.0  0.89838  0.62512  0.94435  1.0000
  H   H1445     1.0  0.87986  0.58702  0.94553  1.0000
  H   H1446     1.0  0.81555  0.83468  0.94044  1.0000
  H   H1447     1.0  0.91210  0.81503  0.90237  1.0000
  H   H1448     1.0  0.81651  0.80985  0.74158  1.0000
  H   H1449     1.0  0.98198  0.85889  0.75999  1.0000
  H   H1450     1.0  0.73767  0.68042  0.96355  1.0000
  H   H1451     1.0  0.87877  0.79107  0.89479  1.0000
  H   H1452     1.0  0.67281  0.81477  0.76564  1.0000
  C   C828      1.0  0.64960  0.73063  0.68549  1.0000
  C   C829      1.0  0.67301  0.50421  0.97169  1.0000
  H   H1453     1.0  0.79136  0.86337  0.70375  1.0000
  N   N46       1.0  0.62571  0.78619  0.69036  1.0000
  H   H1454     1.0  0.52117  0.80181  0.71891  1.0000
  H   H1455     1.0  0.84178  0.83658  0.86165  1.0000
  H   H1456     1.0  0.87045  0.89035  0.85795  1.0000
  H   H1457     1.0  0.77744  0.83603  0.90126  1.0000
  C   C830      1.0  0.61554  0.53726  0.97199  1.0000
  H   H1458     1.0  0.75462  0.87126  0.74360  1.0000
  C   C831      1.0  0.58871  0.56086  0.96867  1.0000
  H   H1459     1.0  0.73478  0.81962  0.83557  1.0000
  H   H1460     1.0  0.74293  0.80516  0.87064  1.0000
  H   H1461     1.0  0.76590  0.87441  0.89173  1.0000
  H   H1462     1.0  0.58113  0.63673  0.99777  1.0000
  H   H1463     1.0  0.86148  0.91471  0.88821  1.0000
  H   H1464     1.0  0.84409  0.53025  0.93412  1.0000
  C   C832      1.0  0.84790  0.72822  0.69623  1.0000
  C   C833      1.0  0.62057  0.75167  0.68549  1.0000
  H   H1465     1.0  0.80255  0.53027  0.81735  1.0000
  H   H1466     1.0  0.80349  0.91090  0.87044  1.0000
  C   C834      1.0  0.77520  0.64307  0.86945  1.0000
  C   C835      1.0  0.81195  0.81984  0.72013  1.0000
  H   H1467     1.0  0.66257  0.68248  0.67805  1.0000
  C   C836      1.0  0.56837  0.79011  0.70711  1.0000
  C   C837      1.0  0.63797  0.79235  0.71994  1.0000
  C   C838      1.0  0.77313  0.62726  0.84041  1.0000
  H   H1468     1.0  0.62964  0.81527  0.72804  1.0000
  H   H1469     1.0  0.73811  0.79631  0.68409  1.0000
  H   H1470     1.0  0.55587  0.57678  0.93713  1.0000
  C   C839      1.0  0.85408  0.93605  0.84786  1.0000
  H   H1471     1.0  0.83980  0.95492  0.85725  1.0000
  C   C840      1.0  0.86887  0.84058  0.90031  1.0000
  H   H1472     1.0  0.87825  0.94473  0.84553  1.0000
  H   H1473     1.0  0.62844  0.77474  0.73508  1.0000
  H   H1474     1.0  0.78192  0.85865  0.94488  1.0000
  H   H1475     1.0  0.84229  0.88841  0.92324  1.0000
  C   C841      1.0  0.80764  0.85904  0.94360  1.0000
  C   C842      1.0  0.95891  0.80105  0.76871  1.0000
  H   H1476     1.0  0.77129  0.86255  0.84100  1.0000
  H   H1477     1.0  0.75306  0.63829  0.88076  1.0000
  N   N47       1.0  0.84133  0.81974  0.70272  1.0000
  H   H1478     1.0  0.54573  0.83524  0.71248  1.0000
  C   C843      1.0  0.86438  0.84061  0.71771  1.0000
  H   H1479     1.0  0.79446  0.63178  0.82778  1.0000
  H   H1480     1.0  0.80421  0.90235  0.92036  1.0000
  H   H1481     1.0  0.59665  0.58507  0.97275  1.0000
  C   C844      1.0  0.82533  0.52550  0.80728  1.0000
  H   H1482     1.0  0.95562  0.77886  0.78061  1.0000
  H   H1483     1.0  0.81759  0.88281  0.84587  1.0000
  H   H1484     1.0  0.79440  0.80438  0.71059  1.0000
  H   H1485     1.0  0.86929  0.78267  0.72072  1.0000
  H   H1486     1.0  0.86629  0.83361  0.74046  1.0000
  H   H1487     1.0  0.59331  0.56687  0.92280  1.0000
  C   C845      1.0  0.91858  0.86316  0.72219  1.0000
  C   C846      1.0  0.77325  0.84302  0.85639  1.0000
  C   C847      1.0  0.57540  0.56010  0.93865  1.0000
  H   H1488     1.0  0.86561  0.83790  0.92355  1.0000
  C   C848      1.0  0.81968  0.87057  0.97222  1.0000
  C   C849      1.0  0.81827  0.88064  0.91885  1.0000
  H   H1489     1.0  0.83065  0.70888  0.69684  1.0000
  C   C850      1.0  0.82095  0.89203  0.86770  1.0000
  H   H1490     1.0  0.84508  0.93039  0.82641  1.0000
  H   H1491     1.0  0.68374  0.81427  0.71342  1.0000
  H   H1492     1.0  0.74877  0.83375  0.72706  1.0000
  H   H1493     1.0  0.86529  0.72396  0.71311  1.0000
  C   C851      1.0  0.83713  0.83952  0.88480  1.0000
  H   H1494     1.0  0.79053  0.82617  0.84828  1.0000
  H   H1495     1.0  0.76986  0.60167  0.84288  1.0000
  C   C852      1.0  0.66891  0.58293  0.98402  1.0000
  H   H1496     1.0  0.92013  0.85528  0.74459  1.0000
  H   H1497     1.0  0.50533  0.87099  0.67004  1.0000
  H   H1498     1.0  0.94215  0.86327  0.71280  1.0000
  C   C853      1.0  0.76509  0.84799  0.73990  1.0000
  H   H1499     1.0  0.67468  0.77247  0.76597  1.0000
  H   H1500     1.0  0.65882  0.58297  0.96243  1.0000
  H   H1501     1.0  0.56647  0.53642  0.93350  1.0000
  H   H1502     1.0  0.81941  0.75738  0.72202  1.0000
  H   H1503     1.0  0.69053  0.56906  0.98396  1.0000
  H   H1504     1.0  0.63139  0.54137  0.95384  1.0000
  H   H1505     1.0  0.80654  0.66478  0.97137  1.0000
  H   H1506     1.0  0.66008  0.72999  0.70692  1.0000
  H   H1507     1.0  0.69537  0.62525  0.97557  1.0000
  H   H1508     1.0  0.87157  0.53792  0.90601  1.0000
  H   H1509     1.0  0.57002  0.69702  0.99130  1.0000
  C   C854      1.0  0.89765  0.84131  0.70514  1.0000
  H   H1510     1.0  0.95094  0.79744  0.74655  1.0000
  H   H1511     1.0  0.83164  0.85804  0.67411  1.0000
  H   H1512     1.0  0.94446  0.81914  0.77893  1.0000
  C   C855      1.0  0.84709  0.50983  0.82842  1.0000
  H   H1513     1.0  0.53153  0.81221  0.68299  1.0000
  S   S192      1.0  0.50342  0.53537  0.98456  1.0000
  H   H1514     1.0  0.79188  0.69864  0.95274  1.0000
  H   H1515     1.0  0.56787  0.73326  0.97195  1.0000
  H   H1516     1.0  0.68112  0.52503  0.95983  1.0000
  H   H1517     1.0  0.83560  0.54804  0.80019  1.0000
  H   H1518     1.0  0.84539  0.86998  0.97268  1.0000
  C   C856      1.0  0.54000  0.81122  0.70521  1.0000
  C   C857      1.0  0.74003  0.77122  0.68558  1.0000
  H   H1519     1.0  0.85945  0.72809  0.67514  1.0000
  H   H1520     1.0  0.59670  0.72840  0.99906  1.0000
  C   C858      1.0  0.59467  0.80199  0.68729  1.0000
  C   C859      1.0  0.65758  0.51304  0.00040  1.0000
  H   H1521     1.0  0.75358  0.64850  0.98391  1.0000
  H   H1522     1.0  0.87958  0.50848  0.93240  1.0000
  H   H1523     1.0  0.56952  0.55498  0.98337  1.0000
  C   C860      1.0  0.64124  0.69689  0.67804  1.0000
  H   H1524     1.0  0.81071  0.85517  0.98940  1.0000
  H   H1525     1.0  0.81350  0.76171  0.68472  1.0000
  H   H1526     1.0  0.81169  0.89476  0.97639  1.0000
  H   H1527     1.0  0.57328  0.95428  0.67391  1.0000
  H   H1528     1.0  0.51127  0.91312  0.70517  1.0000
  C   C861      1.0  0.83639  0.83254  0.67320  1.0000
  H   H1529     1.0  0.65709  0.63196  0.98930  1.0000
  C   C862      1.0  0.86108  0.51936  0.91950  1.0000
  H   H1530     1.0  0.76046  0.68834  0.99463  1.0000
  H   H1531     1.0  0.62482  0.68700  0.69390  1.0000
  H   H1532     1.0  0.99154  0.83555  0.73017  1.0000
  H   H1533     1.0  0.86978  0.50662  0.81776  1.0000
  H   H1534     1.0  0.67030  0.78924  0.66912  1.0000
  H   H1535     1.0  0.89763  0.85000  0.68297  1.0000
  H   H1536     1.0  0.82193  0.51050  0.78830  1.0000
  C   C863      1.0  0.67772  0.61669  0.99094  1.0000
  C   C864      1.0  0.99304  0.81058  0.76928  1.0000
  N   N48       1.0  0.63259  0.53782  0.99997  1.0000
