data_image0
_chemical_formula_structural       FeS2FeS2FeSFeS2FeS2FeS2FeSFeS3FeS2H4CH2CHSHCHCH2C2HC7H4C4HC6H4C6H4CHCHNC6H3C2H3C2H3CH7C3H2CH4NH8CHCH3CHCNH7NC7HC2H6CH9CH18C3H4CH3C2H2CH4FeH2CH3CHCH3C2H2CH7NHC3H2C4H3CH4C2H10CH4C2HNH3CHCHSC3NH2C2H3C2H2CH2NC2HC4H4CH4C2HCSCH3SCH7C2H3CH4CHCHCH2CHCH9CH2CHCHC2SH3C3H2SFeH4C4H5C3H7CH3CH2CH4SFeS2FeSFeS2HSH2C2HSCH3SCSHFeSHCSHCHC2H2CFeC2HCH2CHC2H2C6H4CH3C7H5C2H8FeH3SFeC5H3CHCH2CH4SH2FeC3HCHFeH2CHC3SH12C3HSC3SHCH3SCHNH4SH2CH3NH4Fe2CH5NFeCSH5CHCHCHCH4CH2C2HCH4C2H4CH10NCH3C2HCH2FeS2CSFeSFeCS2FeS2FeSCFeSFeS3FeHSH3FeS2FeS2FeHFeS3CS2HFeS2FeS2FeSFeHS2FeSHFeS2FeSFeS3CH2C7H7CHCHC8H4C6H4CH4C6H7SHC6H4C6H5CH3NC7HNC3H8C2H4C2HCH3CH6NHC4FeC5H6CH17NHSH2SH4C2H3NC2HCHCFeH8C2HC2H3CH2NC4HC3HCHCH7CH2CH18CHCHC2H2CH8C2H2C3H2C2H9C3HCH2CH9CH3CH3CH6CH2FeCH2CHNH2CHCH3CHCHC2SHCH4SH2CH6CHCHC2H14CHC2HCH3C2HCSH3C2H2CH2CH3C3H2C2H3NC12H15CH2C3HCSCHCH2NHSHCH3C2HCHFeC4H4CH4CH2CH3C2HC3H2C2H2CHC2HCH4CH5CH6SCH4C2HSC2H2CH8CHCH2FeH2CH3CH5CHC2HCH3CHCHC2HCHC2H3CH2CH2C2H2C2H2NH4NHCH2FeS2FeS2FeSFeS3FeS2FeS2FeSFeS4FeS2FeS2FeSFeS3FeS2FeS2FeSFeS3FeS2FeS2FeSFeS3C2H5CH2CH2C2HC6HCH2NHCH3C2H4C2H2C2HCH2C6H5NHC3H9C6H5SHC6H4C2HCH3C6H4C6H6CH4C2HCHC2HCNHCH2NC10H20CH5C3HCH5CH2CHCH7CH12CH3NH2NCHCHC4H6CH7CH4CHNCH2C2H4CH7NC9H22CH10SC3HC3H2C4H2C2H2C4H2CHCHC3SCFeH3CNC8HCH12CH3C2H3NC8HC3H18CH9NC9HC2H21CH2CH2CHCH2CHC2HC2H2CHC2HCH7NH5CH3CH4CHCSH2CFeH2CHCH3CH2SH5C2H5CH5CH4CH8C2HC2H2CHC2H3C2HCHNHCH3NCHC3H2CHCH6C2H2CH2C2H8C4H2CH2CSH2CH3C2H5NCH2CHC2SHC2H2C2H2SC2H2CH5CHC2HCHCHCFeC3HCNHCH2C2H5C4H5C2HSCHCH3CH5C2HCHSHCHCHC3H2C2H4C2H6CH3CHC2H2CH4CH2FeSHFeS2HS2HFeCSFeCSH2C2SCH4CH2CH3SH6CH2FeS2FeS2FeSFeS3FeS2FeS2FeSFeS3CHFeHSCFeS2CHSHCHCHC6H4C6H5CHC3H7C2HC2H2C6H4CHNH2CHC2H5C6H7SCH3C3H4C4H2C6H6CHCH3CH2CH2SFeHCHCH2CH4CH2CH4SHCH4FeHCH4C2HCH2FeCHSFeSH2CHSH2CH2SNHCH2CH2C4HCH4C2HCH3CHCH3C3H2CH7CSCH4CHCNC3H2CH3SH7CH3C3HNHCHC6H5CHCHCH8CH2CH2NC12H28CHC5HNC5HC2HCHCH10CH5CNH5C2H3C3H4CH8CH2CHCFeHC3H5CH3C2H3CH3CH6FeCH3CHFeHSCH3C2HCH3SNSH2FeSCSC3H7C2NFeH3NFeHCH2C2HSHC2H4CHCHCH2FeHC3H4C5HCH3CHNCHCH5CH3CHCH3CH3SHC2HC3H5CH3CHNHCHCH2CH2CH3CH4SHCH4CHCH3CH2CH2CHCH2CH3C3HCHCH6FeS2FeSHFeSFeS3FeS2FeS2FeSFeS3CS3C2HFeH2CH2C3H2CH5SH2C3HSFeHSCHCHCSH2C2HCH4CH2SHCH7NC4SH3FeC7H4FeHNH2CHC4H3CNH3CHCH3C6H4C6H5C2H2C7H4C6H4C2H4CH3C5H5C2HCH6SCH2CNC11H26C2H2CH4CNH2SH17SH3CH2CH2CH4FeSH2CHNH7SC2HCHCH3C2H3CH2CHCH3CHCHC3H2FeH3C2HCH2C2H4SCHSH2C3HCH2SCH3CHCHC7HSHC3H2CH5CFe2N2C12H31CH2CFeCHCHSHCHNC9H2CHC2H4C2H5CSHFeH5CH6NC9SCH22CHFeC2FeSCHC2H5CH2NH2SH6SHNC2HSCH2FeCH4SHS2H2CH3CFeHCFeH2SHCH3SH2C2HCH2C2H3CH6NCHSH2C2HCSH7C3HCHCHCH3CH3CHFeH4C7H3C2HCH3FeS2FeS2FeSFeS3FeS2FeS2FeSFeS3H4CH2C2H4CHCHC2H4CHCSH5CH3C6H4C6H4CHC4H4C5H3NSNCFeSH5CHCH4CHC3H2CSHC3HCH2SH3C2H2CH2C2HCHCH3CH3CH3C3HFeCH2NC4HC4HC2H15CH4CH7NC2HC2HC2H4CH8CHCH6CHC2H2C6H3SHCHCHSH2CH3CHC2NC2H4SHCFeCHC2NH4CH2SH6C2H2CH5CH3CH4CNHCH3CHC3HCH2CH8C2H9NC3HC2HC2H3CH3CH3C2H4CH2CH5C2HCH3CH3C2SCH4C2H7C2SCH2CH3CH2SHC2H8CH3CHCHFeSCSHFeCSFeS2H2FeSHSFeS2FeS2FeSFeHS2H2NHSCH2CHC3H2CHSCH4CH3SHCHC2H2SCH4C6H4NH4C6H7C6HFeH5CH2C2NCHCH2CHC3HC2H2FeH2CHFeCH2C2SC4H4C2H2CHC2H5CH7CH4C4HC2HSH4FeH3CHC2H2CH2CHCH3SNC2H2CHNC4H3FeH2CSCFeH2CH6CH8FeHCHSH2C2H4FeS2FeS2FeSH2S2FeSFeS2FeHFeS3FeSFeS2FeHFeS3FeS2HFeH2FeS3HSHSCFeSFeSFeSFeHSC2HCH4FeS2C6H4C6H4C6H4C6H4C6H4C6H5C2H4CHCH4NH3CHCH3CHCH3CH3CHCFeH2C2SCH7C2H2NH2C3HCH2CHCH2FeHCHCH4SH4C2H3SHCH2C3HCH3SCHC2H9CH2CHCH3CH2SH4CH2CNHNC11SH24CFeH7CHCH3C2HFeC3HC2H3CHCH2N2C3H6C2H7C2SHCH2SCH3CH2C2HNCHC5H2CH4CH4C3H6NH4CH2CH3CH2C2HC2H12CHCSH3CHNH2C2HCNH4C2H2SH2C2H2CH3NSH2CH2CH4CHCH2CHCH5CH2CHCH2CH5C2SHCH2SH4CH2CHC2HC5H2CH2CHCH2CHCH8NH2C3H4C2HCH3CHCHCH4C2H4CHCH3C3H2CH2CH2CH2CHCH2CHFeH2CHCH3SC3HC2H2CHCH3C2H2S2H6CH4CH2SCH2C2NH3C2HCH10CH2CHC3H3CSFeCHNC2H2C2H5CH2C3H4CHCH2FeS2FeS2FeHCHS2FeS2FeS2FeSFeS3HFeS2FeS2FeSFeHS2HC4FeS2FeS2FeSFeS3FeS2FeS2FeCFeS3C2HCH3C6H4C2HC2HCH4C3HCH2C6H4C4H2CH7FeHCH3C2H2C2H4C6H5CH5SHC7H4C2HCH2NCHCH7FeH2CH3CH3CH3CH7CHCH2CH3C2HCSH2SHC2H5CHCHNCH2C3HC2HCHCH3C2HFeH2CHSH2CHCH2C2H5CH5CHCH2CH4CHCSC2H4S2CH8CFeCSH2SCH3CHCNHC2HCH4CHCHSH2CHC2H2NC2H6CH6CHFeCHCH7CH3CH2CHCH2CHCSFeCNC8HCH8CSH3CHCSH5CH5C3HNHCHFeSH3CH5CFeC4SCH5C4HCHCNHNC5HC2HCH9CH6SCH3CH5NC7H16CH10CHCH3C3H10CHC2HNCH12CH4CSH3CHCH2CH4C2H2SHCH4CH3CH2C3H3CHSFeS2H2FeCFeC4FeS2FeS2HCFeS3FeCSFeHC6H4SC4H7C6H4C3SH3CSFeHFeH2SHCH2C2H4CH2CFeHCS2H5NC8HCHCH17CSH6CH12CH2SNCH3CH3CH6C2NH2CH2C2HCH5SHCH3C2HCHSHCHSH2CHSCH2SC2HC2SH4CFeSCHFeS2FeCSFeS2FeSCSHC6H4C6H4CH3C3H2SC2H5SHC7H5C3HCHC4H7CSCH3FeH5C2H2CH3C2HCH2C2H2SHFeH3CH4SHCHCH2CHCHCHCH4CH2NHCH3CH4C3HCHC3H2CNH2C2H4SH2C2HC2HC2H2CH2CHNH3CH3CH2CH3CH4C2H12CH8C2H7CFeNH2NH4SCSH11C3NHNC4HC4HC2H10FeH3C2HCHCSH2C2HCHC2H5CH2CH2CH5CHCSH4CH3CH3CHNCH10FeS2FeSHFeSFeS3FeS2FeSHFeSFeS3FeS2H4C4H4CH4C6H4C6H4CHC2H8CHC2SHC3H6CH2C2H2C2HC2HCHCHSCHCH6C2H2C2HCHC3H3C2HSCH2CH7C2H4FeNHCH2SC2H15CNH2C2HC2H2SCHCNH2C2HCHCHSH9CFeHCHNHFeH2FeHSHCHCFeS2FeS2FeSFeS3FeS2FeS2FeSFeS3CHC2H3CH4C6H4C6H4C2HCH2C2H3SC4H3CHC6H11C3NCFeH2CHCH2CHC2HCHCH5CHCHCH7CH2C2H2C2SH2CHSH2CH6CH4CH2C3H2CFeHNCH4C2HCH2CHCH2S2CHCH3CH6NH3SCHSHC2HCHSCHCH2CH2CH3CHCHC2H3C2H6CH4CH2CHC4H2CH2CH3C2H5CHCH4CH5CHSH4CHNHSH5NHCHSC3H7CSC3HCH2CHCH3C2H4NH4CHCHCH9CHCH2CHCHC3NHCH3CHC2HCH2CH3C2H2CNHCHSHC3H4C2HCHCHC2H4CH2FeH4CH2C2H3C2HC3HCH3CH5CH5CH5CHC2H2FeS2FeS2FeSFeS3FeS2FeS2FeSFeHS2FeHSFeCSFeH2S2HCSCH3CH2CHFeS2FeSHFeSHS2HFeSHS2H2FeS2HC2H3CH2C3H2C2H3CFeHC6H4CHSH3C2H2CH4CH3C7H5CH3CHC2H2C3H3CNH2C2H4CH2C3H4C6H4C6H4C6H4CHCHCHC2HC2H3C2H2CH3CFeHCH8SH2NH2CH2CH7SH2C3HCNC2HC2H6C3H3CHC2H2CHCFeH3SC2HCH3CH3C2HCHC4H4CH3CHNC2HC2H2C2HC2H2CSC3HCH3CHCH6SHC2H7CHCH5FeCHCH2CHC2H2C2H3CHNH2SHCH3CH2CHSCH3C3HCH8CNCHC2HCHC2H6CH4CH12C2H7CH2CHCHC2H5C2H3C2H5C3H4CH2NHC4SHCHSH2CH3CH5CH2CHSHNC2H3FeH3CH2CHSC3HCH8FeSNH7CH2CH2SFeCH3CHCHCH2CH2CH2CHCNH6CH2CH2CH5SH2CH4CFeNHC4H5CH2CH2C2NH6C3HC2H2C2H9C2H2CHC4H2CHCH11CH3FeS2FeS2FeSHS2FeS2H3C2H3CFeSHFeS2FeS2FeSFeS3FeS2FeS2FeHFeS3FeS2FeS2HFeH2SHCHSCH6C3H3NCH3CHC3H4C2HC2H5CH2NHC6H4C2HFeHCHCHC2H4C6H4C2HCH3CH3C6H4C2H6CHSHC4HSH4CHCHC6H4C6H6CH3CHCH3CHC2HCH7C3H6CH2CH4CH3CH2C3HC4HCHCH5NH3CHCH3C2H2SH10CHSH13C2HCHCHSHCH3C3H2C7H6CH2C3H3CNCSH2C2HSHCH4C2H4C2H10CHC2HC2HCH3C2H4FeCHCHSH3CHSH2NHFeHCHC4HNHFeH5FeSCHC2H3C2H3C2H13CHCH3SC3HSH6C4H2CH3CH8SHNCHC3H5CHCHCH2NSHC3HCH3CH2CFeHCH3CH4C2H5CH4CH6CH10NCHC5SC2HSHC2HNC3H6CH2NCHC2H5CH4CH3CH3CH4CH3C3NH6CFeNCSHCH2FeS2FeS2FeSFeS3FeS2FeS2FeSFeHS4HS2FeCS2HCHCH2CH4C2S2HCFeSH4C3HCHCH2CHCH3CH2CH4CHCH2FeH3CSCH3C6H6SH5C2HCSHNC2HSH3SH2C6H4C6H4C6H4C3H3C3H7C5H3CHCH2C5H2CH3CH6SH4CSH3CH2CH7C2H2CNC6H14CH2C2SH11CHFeHCHCFeCHCH4NC3H2C4SC2HCH4C2H7C2H4FeHCH8CHCH2CHC2H3SHCH4CH3C2NCH4CH13CH2CH4C4H13CH3CH2CH6C2H2CNH3SHFeCFeSFeCSC2HC2H2SHCHCFeCH4C2H2C2H5CHCHCH2FeH5CNH2SC7HSCH2C3H10SCH2C5HCH6SH6C2FeHSH2CFeHC2HCHFeCH2CHC4HC2H3SH3CH2CH3NC2NSC2H2C2H3CH3CHSH2CH2CHCNHC2H3C2HC2H4CH7C2H7C2HCHC3HCH2CHFeS2FeC2SFeH4CFeS2FeSHCSC2H4CH5C2SHSCHCH3FeS2FeS2FeSFeS3FeS2FeS2FeSFeS3FeS2FeS2C6H4CSHC3SH3C6H7CHCH4CHC6H3CH2CHC2H2CHC6H5CH5CHC2NHCH3NC4HC6H2CHC2SHC2H4CH2FeH5CH4CH2CH3NHC3HC4H2CH2CH3CHCSH8C3H2CSH3NC4H2CH3FeH7CH4NCHC4NCHC2H3CHCH4CH2CHC3HCH8S2H2FeH2CHC2H4CHFeHCH2CH2FeC5H2NCH4CH2SCHCH4CH4FeH3CH3C2HCHNCH2FeCHCH3CH3CHCHC4H9CHC2H4C2H8CSH3CHCH3CH9CH4CHCSH7SH4C4HC2H8C2H6NC10H24C2HFeCHSCH3SHC3SCSCHNH4C2H2C2H2CHSCH5C4H4NH16C3H2CH2C2H2CH3CH3C3HCHC2HC3H2CH7CHCH2CH2CH3CH3C2FeSHFeS2FeSFeS3FeS2FeS2H2FeS3HCHFeCH5CH4CHCHCHCNHC2HCHCHC2FeC6H4C6H4C6H12NC9HFeCH10CHSH6CH5CH3CH5CHC2HC2H3SH3CHCHCHSH5C3HC2HCH4SCHCH2FeHCH2C3H4C3HC2H2C3HCHCH5CHCHCH2CHCNH8SCNSH2CFeH5CHCH2CH5CHC2H4CH2NHCH2CH7CSCH4CH3SCH6C2SH8C2H4CHFeCH3SCFeS2FeS2FeSFeS3FeS2FeS2FeSFeS3C3HCHC4HCH2CHC3HC2H2FeC2H3C2H4C6H4C2H3CHCH2C6H4CH4C2HSHNC5HC4HCHCH8CH4CH3C3H11CH5C3H3C2HCFeHSHNCH4C2H3NHSCSHC2NH2CHCH4CH5CH2C5H5CHNC2HC3HFeHSHSH4CH2CH2CH5CHFeCHC3H2SH2C3HC2SH2CH2CH5CH7NHCH4CH3CH5CHCH11C2H2NC5HC4HCSH28FeCHCH8CHCH2CH3CFe2S2FeS2FeHCHSH2CHFeSCH5CFeNS2CH3CSH2C2HCHCSH3CHC4FeH2SHCHC7H5C5SH2C2H2CFeSCHCH7C2HCSH2FeH3SCH2CSH2CH5CH8CH2SH5SC3H5CH2CHSHCNHCHCH3C2NH2CH3CHCH2CSH4FeCH3CHSH3CH3C3H4C2HSH2CH8FeSFeS2FeSFeS3FeS2FeSHFeSFeS3FeS2H2CHCSH6CH4C8H4C4HC6H4C6H4C2H8NHC5SH5CHC3HCH3CH3C3H12C2HCH3CH4CH2CSHNC12H23CH8C4HCNH3C2H3CH2FeH2CHFeH6C2H2CHC2NH3C6H6C2HCH3C3H2CH5C4HC2H3CH2NH8FeHCSH3NHCH11CSC3HCNH2NH5CH4CH5CHCHCHCH5CSCHCHC2H2C2HC2H2SH2CHC4H5CH2CH3C3H4CHCH4CH5C2HC2HCHC2HNHFeSHFeS2FeSFeS3FeS2FeS2FeSFeS3FeS2FeS2FeSFeS3H2FeS2FeS2FeSFeS3FeS2FeS2FeSFeS3CH10CH6NH3C2H3CH2CHC4H6C6H7FeC2HC6H4CH2C3HCH2C6H10CSCHC3HC2H2FeHC6H4C2H3CH2CHC6H5C2HCH2C2HSCHC2FeH4CSHC2H4CHCHC2FeHNC8H2C2H3CH14CH2NH6CHCHCH3C3H2CH2CHCH4CHC2H7SC4HCNC6HCH2CH5C3H5SH10SHC4H3CH3CH2CH6CHCHCH3NHCH2C2H2NC7H17CSHCS2H4CH2CHCH7C2H3C3HCHC2HCH2CHC2H7CH6CSHC2H2NH6SH5CH2CHC2HC3H2CH2CNCHCNH4C2HC2H5CHCH7CHCH2NCHCHC3H4CHC2HCH4CH9C2H2C3H2CHCSCH3CH4C2H2C5H4CH3CH8C2NCH2CHCNHNH4CH2C5HFeH6CH4CH7C2HC2H4C2H7CHC2H7C3H2C3H7CH6CH3C2HCH2C4H2FeSHFeS2FeSFeS3FeS2FeSCFeHFeS3FeSNFeS2FeSFeCS2FeS2H3SH2SCH2C2HFeCSFeHSHCHCS2CHSHC2H4C2HC2HFeH2SHCHCH2C6H4C6H8CHC7H8C2HC6H4C6H5C7H10CH2CHCHCH2CHCHCHC2HCH4CH4C2H3CH3CHFeH5NC4HC2H8CH12C2H2CH3C2NC4HSC3H2CH5CH2CHSH8SH6CH3CH5CH2CHCNCSCH2NCHC2HCFeHCH15CH2CH5C2H3CH2CHCH2CH2NCFeHCHC2H3CH4CHC3HSHC2SH5C2HSC2H2CSHCHCHC3H3C2HCH4C2HCHCH2SHSH2C2HC3HC2NCH3C2HC2H2CH3CH5CH4C2HCSCHCH2CHCHCH2CH3CH5CH5CH9C4H2NC3HCHCH2C3HCHCH4C2HCH3CHSH2C2H2C2H4NCHC2HCHCH8CH11CHCH3C2HNH4CH12CH2CH3NH5CNC2H2C2HCHCH4CH5C2H3NH4C2H2C2HNCH2SH4CHCH3C4H2SH3C2HCNCH2CHCHSHFeS2FeS2FeSFeS3FeS2FeS2FeSFeS3H2CH3C2FeHC4H3C2H2C6H4C6H4C6H5CH2CHC4H2C3H7CH2C3HCSHC2SH2FeCH5SHCH2FeCH6C2SCH2CHFeCH4CHC2H5C3H5C2HCH2C2H12SH2NC12H28NH3NH3CH2CH2C3HC3H5CH2SCH3FeH3NC2HC2HC4H10CH16SH4C2HFeH6NCH3CHS2CHSH3CH2SHC3NC10HCH6CHCSH6CH3CH4CHCH3CH8FeS2CH2FeSFeS2HFeS2FeS2FeCFeS3FeS2CH2CSH3C4HCH2C7HCH3SHC6H4FeCHCHC6H5C3H5CHCHCNC2H4CHNH4CH5C2HCHCNH3CSH4CH4CHNH3CHCSHCHC6HCH7CH2FeCH3C2HCH3S2H4CH3CH2CH3FeCH4CH2CS2H4FeHCH2SCHC2SHC2H3CHCH2NHCH2CHCH3SH6C5FeCHCH6CFeH2CH2CH3C2FeS2FeCSFeSCFeS2FeSFeS3FeS2FeS2FeSFeS3FeS2FeSFeSFeS3H5CH2CH3FeS2FeS2FeS3CFeS2FeSFeS3H3CHC7H4C3H4C7H6CFeNCHCH3CHC6H4C6H6CHC6H4C2HC3H3CH3C2H6C2H5CHC6H10C3H4CH3C3H2CNHCHCH4CH4CH5C4HCH3C2HNHC3H11CH8C2NH5SCH7C2H2CH10CNHCH2CH3CHFeH3CH2C3H2C2H2CHCH2C2HCH3CH4NHCH4C4H3C2HCHCSC2HNC2SC6H5C2H8CSCH3CH2C2H2CH2CHCH10CH2CH4CHCHCHCH3CH3C2H2C5HNH9C2H4CH5C2H3CHCH2CH4C2H2NH3CH3C2H2C2H4CH11C2H3C3HC2H3NH2CH2CH2CH2SH7CH2CH4C2H4CHC2H2C2H2CH2C3H4C3H11CSCH3CH2C2H4CHC2H5C2H3SCFeH2NC2H3CHCH2CHCSFeS2FeSFeS3FeC3FeS2HS2H3C3H5SCFeS2FeS2FeHFeHS2FeS2FeS2FeSFeS3CHFeS2HSH2FeHSH3C3HC2H2CHC2SHC2NCH2C2HC3HCH2NH9C6H4NHC2H4C6H5NFeC2HNSC2HC2H3C2HCH3FeCHSH4CH3SCHC2H3C6H4C6H5C6H3CHCHNSH4CH5C2SH2NH3CHCHCH2C2H3CH3SCH5CNC12H28CH4C2H5CH3FeH4FeH4CHCNCH2SHC2HSCH2CH3CHC2SHCNHC2HC3H3CSH5CH7CHCHFeH3CH3C2H2CHC3H4CH4CH2C3H7CHNC3H3C4HCH6SNCHC2H8SH2CH4C2HC2H4SHCH5C2H4C3HCHC3H2C6HCHCH2CHC2HSH3CH10CH4CH3CH4C3H2C2H7C7H2CH2CH2CH6SH4SHCHC3H7CFeHCHCH2C2HC2H2CH2C4H7CH3NH4CHCHCH2CH4CH2C2HC2HCH3C2H2SHCSH4CH2CH3SH3CSHFeS2FeS2FeHFeHS2FeS2FeS2FeSFeS3NFeS2FeS2FeSFeS3HFeS2FeSHFeSFeS3FeS2FeS2FeSFeS3HCH2C2H3CHNH2CHCH2CH2C6H4C4H4C6H4C6H6C2H4SNC6H4C2HCHFeC6H4SH2C3H6C2SH6C5HCH5CNC5HCH17CH7CH4CH2CH2CHCH3C2H3C5H14C3H4C3HSHC2HCH7C2H5CH3NHCH2NCH4CH3C3H2C2H2NCH5C2H7CH2CFeHSCH2C2HFeH2C2FeH2CH2C2H4C2HSNH3SH3C4H2NCHCFeCFeCSCH4CH2NHFeC3H3CH3C2H11CHC2H5SC2H3CHC3HSH8C2H3CHCH3NCSH2CH2CH6NC2HC2H2C3H5CHCH18C2H3C3H11C2H3CH4C2HSH3C2H2CH2CH10SC6HCH2CH3C2H2CH3C3HC2H4CH3CHC2HC4H2C2HCHCHCH4CH3CH4CH3CH5CHSHCH4FeSHFeS2FeSFeS3FeSHFeS2FeHFeS3FeS2FeHSC2FeS2FeHFeS3FeS2H4FeS3HSHS2FeSFeSH2CFeHSFeCFeSHC6H5C6H4C6H6C6H4C2HC6H4C6H6CH3CH7NH4SH4C3FeHCHCH2FeH2C4HCNC6HC4FeH10CH2CH12C2HCHC2H2C2H2CHC2SCH2C5HC2H2SHC2HC2H3CH2CH2C2H4NHCH6CH3C3H9CH2CHCHC2HCH3CHCHNC12H17CH11CH5CHCHSCH3SH2C3HCNH4SHCHCH2CH4FeH4CHFeH3NC4SHC2HC2H5CH4CHCH2SH4CH5CHNH3CH2NH7CHCHS2HCHC3HCH3C2HCH7SCH2CH3CH2CH3CH7CHCH5CH5CH11FeCH2CH2CH2CH2CH4CH2S2HSHCH3CH4CH2CHCHFeS2FeCSFeSCSHS2H2CFeCSC2H3FeSHSH2SFeHCHC2HFeCH5CH2NC2H2CHC2HNC2H2CH7SCH6C6H4C6H4C6H2C8H5SCH5CH2CH2CH2FeHFeSH5CHC2SHCH2CFeH2CH2CH2CH4FeC3H2SHC2H5CHSH6CH2CH3CH6CH3CHNC3HC2H2NCHCHC2H3CH3C2HNC12H17CH11C3HCH3CSH2CH2CH3CH2SH3CH2CNC2H3FeHCH2C2H5CH3CH3FeH2SHSH3C2H4SH2CHSCSCHNH3C3HCHCH2CH2NH3CH2CHCH3C2HSHCHCHC2H3SCH8C2H4CHC3H7CH2CH2C2H2SC2HC2S2HCH4FeS2FeSFeSHSHCHC2HSNC6HCH2SH2C7H4C2HSCH2CHNC8HC2H26CH3CHSHC2SHC3FeH7FeH3C2H2CHFeCH5C2H2Fe2SCFeSCH2CH7CHSC3HCH2C3HFeH2CH9C2NHCH3CNH3SFeSH2FeS2H4CHSH2C3H4
_chemical_formula_sum              "Fe576 S1152 H9216 C5184 N288"
_cell_length_a       107.918
_cell_length_b       107.11
_cell_length_c       106.82
_cell_angle_alpha    73.7488
_cell_angle_beta     73.7368
_cell_angle_gamma    73.8106

_space_group_name_H-M_alt    "P 1"
_space_group_IT_number       1

loop_
  _space_group_symop_operation_xyz
  'x, y, z'

loop_
  _atom_site_type_symbol
  _atom_site_label
  _atom_site_symmetry_multiplicity
  _atom_site_fract_x
  _atom_site_fract_y
  _atom_site_fract_z
  _atom_site_occupancy
  Fe  Fe1       1.0  0.12578  0.03858  0.42269  1.0000
  S   S1        1.0  0.11601  0.03061  0.41151  1.0000
  S   S2        1.0  0.11419  0.04529  0.44144  1.0000
  Fe  Fe2       1.0  0.15218  0.03575  0.40318  1.0000
  S   S3        1.0  0.14456  0.02784  0.39017  1.0000
  S   S4        1.0  0.17386  0.03593  0.39583  1.0000
  Fe  Fe3       1.0  0.12628  0.04383  0.39371  1.0000
  S   S5        1.0  0.11835  0.05580  0.37559  1.0000
  Fe  Fe4       1.0  0.13515  0.01537  0.40902  1.0000
  S   S6        1.0  0.13472  0.05296  0.40504  1.0000
  S   S7        1.0  0.14401  0.02218  0.42193  1.0000
  Fe  Fe5       1.0  0.02999  0.11801  0.41140  1.0000
  S   S8        1.0  0.03472  0.13518  0.41581  1.0000
  S   S9        1.0  0.01115  0.11122  0.42327  1.0000
  Fe  Fe6       1.0  0.05580  0.11311  0.39103  1.0000
  S   S10       1.0  0.06280  0.13014  0.39323  1.0000
  S   S11       1.0  0.06565  0.10057  0.37569  1.0000
  Fe  Fe7       1.0  0.05521  0.12273  0.41512  1.0000
  S   S12       1.0  0.06595  0.12404  0.42970  1.0000
  Fe  Fe8       1.0  0.04192  0.14159  0.39374  1.0000
  S   S13       1.0  0.03560  0.16340  0.38462  1.0000
  S   S14       1.0  0.04995  0.10470  0.41299  1.0000
  S   S15       1.0  0.03548  0.12537  0.38924  1.0000
  Fe  Fe9       1.0  0.04873  0.22275  0.40085  1.0000
  S   S16       1.0  0.02752  0.22181  0.40903  1.0000
  S   S17       1.0  0.06249  0.20362  0.39612  1.0000
  H   H1        1.0  0.08490  0.15240  0.46358  1.0000
  H   H2        1.0  0.11365  0.09895  0.40979  1.0000
  H   H3        1.0  0.08776  0.10778  0.39079  1.0000
  H   H4        1.0  0.20583  0.06804  0.44423  1.0000
  C   C1        1.0  0.00094  0.06741  0.40045  1.0000
  H   H5        1.0  0.14238  0.04406  0.43476  1.0000
  H   H6        1.0  0.07304  0.07201  0.45195  1.0000
  C   C2        1.0  0.11354  0.00151  0.44155  1.0000
  H   H7        1.0  0.11661  0.07943  0.44482  1.0000
  S   S18       1.0  0.20484  0.06247  0.41991  1.0000
  H   H8        1.0  0.21232  0.01665  0.44533  1.0000
  C   C3        1.0  0.99608  0.21300  0.43565  1.0000
  H   H9        1.0  0.07657  0.18517  0.44454  1.0000
  C   C4        1.0  0.12775  0.05203  0.46987  1.0000
  H   H10       1.0  0.21722  0.01762  0.47206  1.0000
  H   H11       1.0  0.18871  0.98851  0.44257  1.0000
  C   C5        1.0  0.10424  0.11549  0.42577  1.0000
  C   C6        1.0  0.21815  0.00550  0.41108  1.0000
  H   H12       1.0  0.15056  0.08503  0.42770  1.0000
  C   C7        1.0  0.05492  0.18886  0.44644  1.0000
  C   C8        1.0  0.04352  0.17451  0.38731  1.0000
  C   C9        1.0  0.03774  0.18818  0.38511  1.0000
  C   C10       1.0  0.04339  0.19715  0.38793  1.0000
  C   C11       1.0  0.05513  0.19257  0.39255  1.0000
  C   C12       1.0  0.06115  0.17896  0.39435  1.0000
  C   C13       1.0  0.05526  0.16992  0.39192  1.0000
  H   H13       1.0  0.02880  0.19186  0.38131  1.0000
  H   H14       1.0  0.03883  0.20766  0.38620  1.0000
  H   H15       1.0  0.07028  0.17536  0.39780  1.0000
  H   H16       1.0  0.05985  0.15943  0.39358  1.0000
  C   C14       1.0  0.06092  0.11419  0.44542  1.0000
  C   C15       1.0  0.99167  0.16516  0.43991  1.0000
  C   C16       1.0  0.05709  0.10241  0.44659  1.0000
  C   C17       1.0  0.05323  0.07293  0.34732  1.0000
  H   H17       1.0  0.05756  0.09913  0.43777  1.0000
  C   C18       1.0  0.10309  0.06743  0.37674  1.0000
  C   C19       1.0  0.09853  0.07342  0.36497  1.0000
  C   C20       1.0  0.08699  0.08342  0.36496  1.0000
  C   C21       1.0  0.07987  0.08766  0.37669  1.0000
  C   C22       1.0  0.08414  0.08147  0.38864  1.0000
  C   C23       1.0  0.09583  0.07136  0.38868  1.0000
  H   H18       1.0  0.10407  0.07045  0.35574  1.0000
  H   H19       1.0  0.08368  0.08805  0.35572  1.0000
  H   H20       1.0  0.07840  0.08446  0.39779  1.0000
  H   H21       1.0  0.09926  0.06672  0.39784  1.0000
  C   C24       1.0  0.18207  0.04320  0.40307  1.0000
  C   C25       1.0  0.19580  0.04168  0.39869  1.0000
  C   C26       1.0  0.20275  0.04757  0.40388  1.0000
  C   C27       1.0  0.19602  0.05512  0.41344  1.0000
  C   C28       1.0  0.18224  0.05670  0.41788  1.0000
  C   C29       1.0  0.17526  0.05069  0.41274  1.0000
  H   H22       1.0  0.20115  0.03594  0.39122  1.0000
  H   H23       1.0  0.21332  0.04647  0.40028  1.0000
  H   H24       1.0  0.17698  0.06254  0.42531  1.0000
  H   H25       1.0  0.16465  0.05190  0.41618  1.0000
  C   C30       1.0  0.12474  0.04732  0.45016  1.0000
  H   H26       1.0  0.12763  0.09762  0.43350  1.0000
  C   C31       1.0  0.09384  0.09837  0.40958  1.0000
  H   H27       1.0  0.00948  0.11848  0.39533  1.0000
  N   N1        1.0  0.03091  0.08371  0.38003  1.0000
  C   C32       1.0  0.04011  0.07727  0.38950  1.0000
  C   C33       1.0  0.00624  0.09085  0.45925  1.0000
  C   C34       1.0  0.03073  0.09842  0.37577  1.0000
  C   C35       1.0  0.01699  0.08202  0.38666  1.0000
  C   C36       1.0  0.01526  0.06753  0.39297  1.0000
  C   C37       1.0  0.03560  0.08121  0.40326  1.0000
  H   H28       1.0  0.99166  0.19043  0.43300  1.0000
  H   H29       1.0  0.00951  0.13961  0.40189  1.0000
  H   H30       1.0  0.99815  0.07265  0.40880  1.0000
  C   C38       1.0  0.02344  0.12127  0.36146  1.0000
  C   C39       1.0  0.04582  0.07402  0.41180  1.0000
  H   H31       1.0  0.02345  0.11513  0.47244  1.0000
  H   H32       1.0  0.04995  0.07984  0.38492  1.0000
  H   H33       1.0  0.04214  0.06622  0.39127  1.0000
  C   C40       1.0  0.18652  0.00203  0.38400  1.0000
  C   C41       1.0  0.02368  0.13050  0.45464  1.0000
  H   H34       1.0  0.04092  0.10017  0.37276  1.0000
  H   H35       1.0  0.02593  0.10323  0.38438  1.0000
  H   H36       1.0  0.01264  0.08787  0.39455  1.0000
  C   C42       1.0  0.20583  0.01348  0.37817  1.0000
  H   H37       1.0  0.02163  0.06232  0.40023  1.0000
  H   H38       1.0  0.10612  0.00959  0.44586  1.0000
  H   H39       1.0  0.03444  0.09208  0.40200  1.0000
  H   H40       1.0  0.02606  0.07852  0.40897  1.0000
  H   H41       1.0  0.00150  0.18592  0.44492  1.0000
  H   H42       1.0  0.99301  0.14326  0.38814  1.0000
  H   H43       1.0  0.01767  0.12548  0.37030  1.0000
  C   C43       1.0  0.00527  0.14970  0.39652  1.0000
  C   C44       1.0  0.16944  0.08288  0.39357  1.0000
  C   C45       1.0  0.20234  0.04196  0.45348  1.0000
  H   H44       1.0  0.00743  0.12525  0.47042  1.0000
  H   H45       1.0  0.01382  0.21764  0.47384  1.0000
  C   C46       1.0  0.11028  0.98799  0.44904  1.0000
  H   H46       1.0  0.15998  0.08184  0.34518  1.0000
  H   H47       1.0  0.04678  0.06307  0.41399  1.0000
  H   H48       1.0  0.02634  0.08796  0.47307  1.0000
  H   H49       1.0  0.17772  0.98992  0.46609  1.0000
  N   N2        1.0  0.00780  0.09921  0.46777  1.0000
  H   H50       1.0  0.01873  0.12672  0.35289  1.0000
  H   H51       1.0  0.99933  0.22258  0.43155  1.0000
  H   H52       1.0  0.08503  0.08792  0.45538  1.0000
  H   H53       1.0  0.05607  0.15492  0.42393  1.0000
  H   H54       1.0  0.20864  0.00954  0.41687  1.0000
  H   H55       1.0  0.06323  0.07422  0.34142  1.0000
  H   H56       1.0  0.17573  0.01746  0.45698  1.0000
  H   H57       1.0  0.16916  0.02964  0.43539  1.0000
  C   C47       1.0  0.01702  0.12000  0.46516  1.0000
  H   H58       1.0  0.00637  0.20590  0.41782  1.0000
  C   C48       1.0  0.05285  0.09470  0.45925  1.0000
  H   H59       1.0  0.14801  0.00445  0.37429  1.0000
  H   H60       1.0  0.15463  0.98655  0.47532  1.0000
  H   H61       1.0  0.17592  0.06705  0.38306  1.0000
  C   C49       1.0  0.13829  0.04617  0.44459  1.0000
  H   H62       1.0  0.13130  0.09308  0.41753  1.0000
  C   C50       1.0  0.02360  0.10644  0.36426  1.0000
  N   N3        1.0  0.18223  0.98893  0.38966  1.0000
  H   H63       1.0  0.08857  0.09036  0.41108  1.0000
  H   H64       1.0  0.18453  0.05417  0.46431  1.0000
  H   H65       1.0  0.02556  0.06836  0.43934  1.0000
  H   H66       1.0  0.22179  0.10348  0.47536  1.0000
  H   H67       1.0  0.00035  0.08336  0.46533  1.0000
  H   H68       1.0  0.99384  0.17534  0.41132  1.0000
  H   H69       1.0  0.12080  0.07265  0.43046  1.0000
  N   N4        1.0  0.15667  0.07425  0.36668  1.0000
  C   C51       1.0  0.16150  0.05931  0.36974  1.0000
  C   C52       1.0  0.15703  0.07956  0.37824  1.0000
  C   C53       1.0  0.14233  0.07718  0.36587  1.0000
  C   C54       1.0  0.16447  0.08104  0.35367  1.0000
  C   C55       1.0  0.15977  0.05199  0.35987  1.0000
  C   C56       1.0  0.13511  0.09212  0.36363  1.0000
  C   C57       1.0  0.17076  0.07767  0.38120  1.0000
  H   H70       1.0  0.19702  0.07849  0.33471  1.0000
  C   C58       1.0  0.16956  0.03854  0.35992  1.0000
  C   C59       1.0  0.12172  0.09415  0.36029  1.0000
  H   H71       1.0  0.15615  0.05490  0.37984  1.0000
  H   H72       1.0  0.17202  0.05645  0.37041  1.0000
  H   H73       1.0  0.15297  0.09048  0.37656  1.0000
  H   H74       1.0  0.15059  0.07500  0.38758  1.0000
  H   H75       1.0  0.13651  0.07178  0.37514  1.0000
  H   H76       1.0  0.14138  0.07335  0.35758  1.0000
  C   C60       1.0  0.99273  0.16017  0.47995  1.0000
  H   H77       1.0  0.04269  0.07731  0.42140  1.0000
  H   H78       1.0  0.14958  0.05014  0.36284  1.0000
  H   H79       1.0  0.16110  0.05800  0.34948  1.0000
  H   H80       1.0  0.14103  0.09834  0.35532  1.0000
  H   H81       1.0  0.13312  0.09587  0.37284  1.0000
  H   H82       1.0  0.12358  0.05466  0.47942  1.0000
  H   H83       1.0  0.17312  0.01188  0.43715  1.0000
  H   H84       1.0  0.10134  0.11327  0.39265  1.0000
  H   H85       1.0  0.11503  0.11380  0.42169  1.0000
  C   C61       1.0  0.03848  0.17901  0.46460  1.0000
  H   H86       1.0  0.16879  0.03228  0.37021  1.0000
  H   H87       1.0  0.16740  0.03317  0.35354  1.0000
  H   H88       1.0  0.17986  0.04000  0.35597  1.0000
  H   H89       1.0  0.11687  0.10490  0.35855  1.0000
  H   H90       1.0  0.12287  0.09053  0.35116  1.0000
  H   H91       1.0  0.11518  0.08873  0.36874  1.0000
  H   H92       1.0  0.01058  0.08036  0.43663  1.0000
  H   H93       1.0  0.04994  0.08555  0.46015  1.0000
  H   H94       1.0  0.99108  0.19244  0.41243  1.0000
  H   H95       1.0  0.06419  0.20436  0.42191  1.0000
  H   H96       1.0  0.98886  0.09879  0.43294  1.0000
  H   H97       1.0  0.01034  0.06707  0.45151  1.0000
  H   H98       1.0  0.20444  0.00814  0.46112  1.0000
  H   H99       1.0  0.08146  0.19957  0.42221  1.0000
  H   H100      1.0  0.18031  0.06519  0.34601  1.0000
  H   H101      1.0  0.10243  0.10118  0.44492  1.0000
  H   H102      1.0  0.08684  0.05866  0.45588  1.0000
  H   H103      1.0  0.06776  0.20228  0.44431  1.0000
  C   C62       1.0  0.06058  0.11825  0.45688  1.0000
  C   C63       1.0  0.08127  0.06878  0.45727  1.0000
  C   C64       1.0  0.17730  0.02063  0.43593  1.0000
  H   H104      1.0  0.03368  0.12288  0.35893  1.0000
  H   H105      1.0  0.11336  0.00332  0.43083  1.0000
  H   H106      1.0  0.19574  0.00574  0.39807  1.0000
  H   H107      1.0  0.07847  0.14050  0.45961  1.0000
  C   C65       1.0  0.11947  0.05043  0.46271  1.0000
  H   H108      1.0  0.09937  0.11904  0.41716  1.0000
  H   H109      1.0  0.19583  0.03292  0.43626  1.0000
  H   H110      1.0  0.20826  0.98604  0.37001  1.0000
  C   C66       1.0  0.99825  0.18418  0.40828  1.0000
  C   C67       1.0  0.09048  0.07855  0.45205  1.0000
  H   H111      1.0  0.01768  0.06177  0.38512  1.0000
  H   H112      1.0  0.09843  0.07163  0.43336  1.0000
  C   C68       1.0  0.00595  0.20242  0.42870  1.0000
  H   H113      1.0  0.18091  0.03967  0.44669  1.0000
  H   H114      1.0  0.08698  0.10609  0.41477  1.0000
  H   H115      1.0  0.07694  0.06831  0.46807  1.0000
  H   H116      1.0  0.03654  0.06630  0.37157  1.0000
  Fe  Fe10      1.0  0.22671  0.05302  0.41678  1.0000
  H   H117      1.0  0.02711  0.19337  0.45042  1.0000
  H   H118      1.0  0.14478  0.07116  0.42677  1.0000
  C   C69       1.0  0.12948  0.08928  0.42850  1.0000
  H   H119      1.0  0.02533  0.10488  0.45382  1.0000
  H   H120      1.0  0.09893  0.07420  0.45696  1.0000
  H   H121      1.0  0.00046  0.09729  0.45171  1.0000
  C   C70       1.0  0.09699  0.10448  0.39461  1.0000
  H   H122      1.0  0.98768  0.16046  0.38939  1.0000
  C   C71       1.0  0.09980  0.10279  0.43513  1.0000
  H   H123      1.0  0.99338  0.14565  0.45356  1.0000
  H   H124      1.0  0.18645  0.09278  0.34085  1.0000
  H   H125      1.0  0.10397  0.09701  0.38910  1.0000
  C   C72       1.0  0.19835  0.06647  0.45374  1.0000
  C   C73       1.0  0.18655  0.08365  0.33779  1.0000
  H   H126      1.0  0.08239  0.08355  0.48053  1.0000
  H   H127      1.0  0.22494  0.99478  0.46659  1.0000
  C   C74       1.0  0.01361  0.18429  0.46711  1.0000
  H   H128      1.0  0.08881  0.10552  0.43729  1.0000
  H   H129      1.0  0.08534  0.08601  0.43319  1.0000
  H   H130      1.0  0.17289  0.99489  0.40852  1.0000
  H   H131      1.0  0.05015  0.08971  0.35583  1.0000
  H   H132      1.0  0.20615  0.99329  0.38920  1.0000
  H   H133      1.0  0.16518  0.09376  0.39188  1.0000
  H   H134      1.0  0.11542  0.00087  0.40173  1.0000
  N   N5        1.0  0.01096  0.17764  0.42750  1.0000
  H   H135      1.0  0.20327  0.06420  0.46219  1.0000
  C   C75       1.0  0.00670  0.16463  0.43450  1.0000
  C   C76       1.0  0.02480  0.17620  0.42920  1.0000
  C   C77       1.0  0.01152  0.18073  0.41269  1.0000
  H   H136      1.0  0.01771  0.13567  0.44700  1.0000
  H   H137      1.0  0.05478  0.18145  0.44102  1.0000
  C   C78       1.0  0.03512  0.16361  0.42568  1.0000
  C   C79       1.0  0.00037  0.18847  0.39306  1.0000
  C   C80       1.0  0.00049  0.10858  0.41484  1.0000
  C   C81       1.0  0.06517  0.15991  0.45930  1.0000
  H   H138      1.0  0.99976  0.05698  0.40468  1.0000
  H   H139      1.0  0.05335  0.06210  0.35045  1.0000
  H   H140      1.0  0.01071  0.15738  0.42785  1.0000
  C   C82       1.0  0.06056  0.19610  0.47350  1.0000
  H   H141      1.0  0.02456  0.17617  0.43968  1.0000
  H   H142      1.0  0.02904  0.18486  0.42280  1.0000
  H   H143      1.0  0.01660  0.18910  0.40742  1.0000
  H   H144      1.0  0.01773  0.17215  0.40831  1.0000
  C   C83       1.0  0.19886  0.00294  0.38820  1.0000
  C   C84       1.0  0.22150  0.99213  0.41031  1.0000
  H   H145      1.0  0.01567  0.20182  0.43066  1.0000
  H   H146      1.0  0.21400  0.01450  0.38199  1.0000
  H   H147      1.0  0.03632  0.16338  0.41512  1.0000
  H   H148      1.0  0.03219  0.15433  0.43207  1.0000
  H   H149      1.0  0.01044  0.08619  0.37941  1.0000
  H   H150      1.0  0.16164  0.99846  0.39096  1.0000
  H   H151      1.0  0.00370  0.19804  0.38942  1.0000
  H   H152      1.0  0.00782  0.18077  0.38820  1.0000
  H   H153      1.0  0.01197  0.15209  0.38660  1.0000
  H   H154      1.0  0.04737  0.19780  0.44312  1.0000
  C   C85       1.0  0.18354  0.01879  0.44770  1.0000
  H   H155      1.0  0.06905  0.16301  0.44839  1.0000
  H   H156      1.0  0.99271  0.14554  0.43683  1.0000
  H   H157      1.0  0.17697  0.08349  0.37277  1.0000
  H   H158      1.0  0.17835  0.01033  0.38715  1.0000
  C   C86       1.0  0.01921  0.08305  0.45162  1.0000
  C   C87       1.0  0.99159  0.15024  0.39467  1.0000
  H   H159      1.0  0.06962  0.19637  0.46547  1.0000
  N   N6        1.0  0.05122  0.18371  0.46133  1.0000
  H   H160      1.0  0.18187  0.08649  0.32907  1.0000
  H   H161      1.0  0.05189  0.17270  0.42231  1.0000
  H   H162      1.0  0.04830  0.16170  0.43857  1.0000
  C   C88       1.0  0.03582  0.07724  0.36819  1.0000
  H   H163      1.0  0.18502  0.01788  0.47337  1.0000
  C   C89       1.0  0.22022  0.01652  0.46162  1.0000
  H   H164      1.0  0.06349  0.12741  0.45597  1.0000
  S   S19       1.0  0.13985  0.99306  0.41158  1.0000
  C   C90       1.0  0.15431  0.99576  0.37015  1.0000
  C   C91       1.0  0.04968  0.07906  0.35952  1.0000
  C   C92       1.0  0.02614  0.18982  0.46139  1.0000
  N   N7        1.0  0.10474  0.09005  0.43006  1.0000
  H   H165      1.0  0.05746  0.07406  0.36534  1.0000
  H   H166      1.0  0.02554  0.07655  0.45856  1.0000
  C   C93       1.0  0.06837  0.19308  0.44110  1.0000
  C   C94       1.0  0.14659  0.04780  0.45178  1.0000
  H   H167      1.0  0.99217  0.16900  0.47150  1.0000
  H   H168      1.0  0.16304  0.07770  0.40242  1.0000
  H   H169      1.0  0.10031  0.98818  0.44806  1.0000
  C   C95       1.0  0.07584  0.14874  0.46493  1.0000
  C   C96       1.0  0.00200  0.18876  0.43398  1.0000
  H   H170      1.0  0.03946  0.17134  0.45902  1.0000
  H   H171      1.0  0.20929  0.04114  0.45970  1.0000
  C   C97       1.0  0.20818  0.01738  0.45599  1.0000
  H   H172      1.0  0.21011  0.01053  0.36842  1.0000
  H   H173      1.0  0.15705  0.04690  0.44752  1.0000
  N   N8        1.0  0.19697  0.02952  0.45693  1.0000
  C   C98       1.0  0.09477  0.08133  0.43654  1.0000
  C   C99       1.0  0.01518  0.10961  0.45856  1.0000
  H   H174      1.0  0.04603  0.07793  0.34083  1.0000
  C   C100      1.0  0.14227  0.07976  0.43159  1.0000
  C   C101      1.0  0.11769  0.08225  0.43382  1.0000
  C   C102      1.0  0.04865  0.16329  0.42778  1.0000
  C   C103      1.0  0.17932  0.07437  0.34941  1.0000
  H   H175      1.0  0.12348  0.00190  0.44231  1.0000
  H   H176      1.0  0.20852  0.04322  0.44314  1.0000
  H   H177      1.0  0.16384  0.09154  0.35391  1.0000
  H   H178      1.0  0.01320  0.10544  0.36673  1.0000
  C   C104      1.0  0.05607  0.11069  0.46954  1.0000
  H   H179      1.0  0.18459  0.07148  0.35764  1.0000
  H   H180      1.0  0.02857  0.08079  0.36163  1.0000
  H   H181      1.0  0.05563  0.07639  0.40656  1.0000
  H   H182      1.0  0.02871  0.10301  0.35486  1.0000
  C   C105      1.0  0.19185  0.05515  0.45466  1.0000
  C   C106      1.0  0.22995  0.00315  0.46124  1.0000
  H   H183      1.0  0.07096  0.17468  0.46513  1.0000
  C   C107      1.0  0.05226  0.09889  0.47071  1.0000
  S   S20       1.0  0.15183  0.05149  0.47397  1.0000
  C   C108      1.0  0.10661  0.09239  0.41510  1.0000
  H   H184      1.0  0.14127  0.07606  0.44256  1.0000
  H   H185      1.0  0.03611  0.17410  0.47543  1.0000
  H   H186      1.0  0.11126  0.08282  0.41177  1.0000
  S   S21       1.0  0.01931  0.22446  0.44551  1.0000
  C   C109      1.0  0.18938  0.03092  0.44647  1.0000
  H   H187      1.0  0.18838  0.00459  0.37295  1.0000
  H   H188      1.0  0.19481  0.98682  0.36298  1.0000
  H   H189      1.0  0.02479  0.13794  0.45947  1.0000
  H   H190      1.0  0.18641  0.05821  0.44651  1.0000
  H   H191      1.0  0.22570  0.02435  0.45549  1.0000
  H   H192      1.0  0.01096  0.16003  0.44354  1.0000
  H   H193      1.0  0.22463  0.02396  0.40507  1.0000
  C   C110      1.0  0.14135  0.05045  0.46455  1.0000
  C   C111      1.0  0.02403  0.23009  0.45697  1.0000
  H   H194      1.0  0.19128  0.00949  0.44780  1.0000
  H   H195      1.0  0.07211  0.14474  0.47572  1.0000
  H   H196      1.0  0.17937  0.08103  0.39574  1.0000
  C   C112      1.0  0.99435  0.10640  0.47439  1.0000
  H   H197      1.0  0.17240  0.00227  0.36577  1.0000
  H   H198      1.0  0.99405  0.07238  0.39360  1.0000
  H   H199      1.0  0.00494  0.19217  0.46460  1.0000
  H   H200      1.0  0.02495  0.08991  0.44393  1.0000
  C   C113      1.0  0.01619  0.07418  0.44435  1.0000
  H   H201      1.0  0.01436  0.17568  0.46290  1.0000
  C   C114      1.0  0.04884  0.19486  0.46850  1.0000
  H   H202      1.0  0.99094  0.18993  0.39003  1.0000
  C   C115      1.0  0.06154  0.17184  0.46621  1.0000
  H   H203      1.0  0.10537  0.12413  0.44157  1.0000
  H   H204      1.0  0.09884  0.08423  0.48082  1.0000
  C   C116      1.0  0.12015  0.99070  0.40095  1.0000
  H   H205      1.0  0.08942  0.12918  0.43705  1.0000
  C   C117      1.0  0.22724  0.01363  0.40454  1.0000
  H   H206      1.0  0.05549  0.21773  0.47072  1.0000
  H   H207      1.0  0.00478  0.15699  0.40231  1.0000
  H   H208      1.0  0.18484  0.02151  0.42640  1.0000
  H   H209      1.0  0.19878  0.02327  0.37670  1.0000
  H   H210      1.0  0.02469  0.19851  0.46568  1.0000
  H   H211      1.0  0.19070  0.07585  0.45409  1.0000
  H   H212      1.0  0.07301  0.18731  0.42198  1.0000
  H   H213      1.0  0.99565  0.21023  0.44656  1.0000
  H   H214      1.0  0.04524  0.20471  0.46211  1.0000
  C   C118      1.0  0.18763  0.02779  0.47046  1.0000
  H   H215      1.0  0.10899  0.05149  0.46694  1.0000
  H   H216      1.0  0.99445  0.11424  0.38384  1.0000
  C   C119      1.0  0.99334  0.11073  0.39453  1.0000
  H   H217      1.0  0.17798  0.03494  0.46990  1.0000
  C   C120      1.0  0.07196  0.19623  0.42588  1.0000
  H   H218      1.0  0.10318  0.13593  0.42614  1.0000
  C   C121      1.0  0.10031  0.12685  0.43314  1.0000
  C   C122      1.0  0.00191  0.11306  0.40101  1.0000
  S   S22       1.0  0.05017  0.23202  0.41684  1.0000
  H   H219      1.0  0.01013  0.11513  0.45018  1.0000
  H   H220      1.0  0.05654  0.15550  0.46096  1.0000
  H   H221      1.0  0.03365  0.12579  0.44955  1.0000
  C   C123      1.0  0.18006  0.98630  0.40470  1.0000
  C   C124      1.0  0.99460  0.23063  0.39859  1.0000
  C   C125      1.0  0.02008  0.22475  0.47061  1.0000
  H   H222      1.0  0.01200  0.18100  0.47816  1.0000
  H   H223      1.0  0.09197  0.02896  0.47536  1.0000
  S   S23       1.0  0.23331  0.03091  0.42363  1.0000
  Fe  Fe11      1.0  0.02854  0.23222  0.42408  1.0000
  H   H224      1.0  0.99901  0.23080  0.40644  1.0000
  H   H225      1.0  0.10428  0.98758  0.39431  1.0000
  H   H226      1.0  0.05553  0.11402  0.47837  1.0000
  H   H227      1.0  0.05824  0.16794  0.47712  1.0000
  C   C126      1.0  0.16854  0.99331  0.37164  1.0000
  C   C127      1.0  0.99019  0.10212  0.42221  1.0000
  C   C128      1.0  0.23367  0.98709  0.40247  1.0000
  C   C129      1.0  0.16903  0.99039  0.38653  1.0000
  H   H228      1.0  0.15413  0.99781  0.35941  1.0000
  H   H229      1.0  0.04069  0.19396  0.47757  1.0000
  H   H230      1.0  0.99098  0.11610  0.46768  1.0000
  H   H231      1.0  0.00068  0.15194  0.47646  1.0000
  H   H232      1.0  0.10980  0.98700  0.45977  1.0000
  C   C130      1.0  0.98882  0.15119  0.44491  1.0000
  C   C131      1.0  0.02399  0.22874  0.48006  1.0000
  C   C132      1.0  0.05719  0.20875  0.47884  1.0000
  H   H233      1.0  0.23300  0.98552  0.44044  1.0000
  H   H234      1.0  0.23481  0.07364  0.48127  1.0000
  H   H235      1.0  0.21642  0.05756  0.48088  1.0000
  H   H236      1.0  0.98715  0.13549  0.41222  1.0000
  H   H237      1.0  0.15007  0.98685  0.37546  1.0000
  H   H238      1.0  0.19864  0.03646  0.47959  1.0000
  H   H239      1.0  0.22731  0.09269  0.46356  1.0000
  C   C133      1.0  0.01580  0.09108  0.47802  1.0000
  H   H240      1.0  0.98785  0.17018  0.44846  1.0000
  H   H241      1.0  0.23444  0.00234  0.45071  1.0000
  H   H242      1.0  0.22142  0.03377  0.48061  1.0000
  C   C134      1.0  0.22892  0.09439  0.47273  1.0000
  H   H243      1.0  0.21076  0.08004  0.47828  1.0000
  H   H244      1.0  0.01077  0.07157  0.48145  1.0000
  C   C135      1.0  0.13235  0.98486  0.40451  1.0000
  H   H245      1.0  0.13129  0.98496  0.47957  1.0000
  H   H246      1.0  0.18940  0.98547  0.40761  1.0000
  H   H247      1.0  0.06283  0.18749  0.48181  1.0000
  H   H248      1.0  0.10635  0.08833  0.55802  1.0000
  S   S24       1.0  0.11908  0.06348  0.53453  1.0000
  Fe  Fe12      1.0  0.04716  0.10103  0.52773  1.0000
  S   S25       1.0  0.05657  0.10925  0.50658  1.0000
  S   S26       1.0  0.05788  0.08908  0.54400  1.0000
  Fe  Fe13      1.0  0.04141  0.10172  0.50177  1.0000
  S   S27       1.0  0.04653  0.08945  0.48644  1.0000
  Fe  Fe14      1.0  0.04050  0.12777  0.50846  1.0000
  S   S28       1.0  0.04350  0.14890  0.49950  1.0000
  S   S29       1.0  0.03298  0.09229  0.52283  1.0000
  H   H249      1.0  0.17486  0.04317  0.48952  1.0000
  S   S30       1.0  0.02622  0.12095  0.50143  1.0000
  H   H250      1.0  0.09072  0.13752  0.53337  1.0000
  H   H251      1.0  0.19121  0.07638  0.50642  1.0000
  C   C136      1.0  0.08438  0.03928  0.49173  1.0000
  C   C137      1.0  0.01118  0.07851  0.48724  1.0000
  H   H252      1.0  0.00168  0.16080  0.55441  1.0000
  S   S31       1.0  0.17281  0.01189  0.52562  1.0000
  C   C138      1.0  0.22328  0.03099  0.49083  1.0000
  H   H253      1.0  0.07322  0.07143  0.50929  1.0000
  H   H254      1.0  0.09171  0.09868  0.54260  1.0000
  H   H255      1.0  0.98806  0.18589  0.51396  1.0000
  S   S32       1.0  0.02510  0.22054  0.54704  1.0000
  C   C139      1.0  0.99614  0.15871  0.54819  1.0000
  S   S33       1.0  0.04744  0.22173  0.51948  1.0000
  H   H256      1.0  0.99541  0.19416  0.57253  1.0000
  Fe  Fe15      1.0  0.03280  0.20890  0.53099  1.0000
  S   S34       1.0  0.03597  0.18659  0.53868  1.0000
  H   H257      1.0  0.00512  0.22137  0.58950  1.0000
  C   C140      1.0  0.99146  0.18879  0.55609  1.0000
  S   S35       1.0  0.01688  0.22010  0.51969  1.0000
  H   H258      1.0  0.09197  0.02736  0.55320  1.0000
  C   C141      1.0  0.07593  0.12153  0.53141  1.0000
  H   H259      1.0  0.19827  0.01925  0.48673  1.0000
  C   C142      1.0  0.18093  0.03335  0.49338  1.0000
  C   C143      1.0  0.07001  0.13275  0.52055  1.0000
  H   H260      1.0  0.99131  0.23142  0.58231  1.0000
  H   H261      1.0  0.00801  0.18454  0.53973  1.0000
  C   C144      1.0  0.00676  0.19034  0.51172  1.0000
  Fe  Fe16      1.0  0.01020  0.23256  0.53507  1.0000
  C   C145      1.0  0.12409  0.99255  0.51677  1.0000
  C   C146      1.0  0.22735  0.08232  0.48428  1.0000
  H   H262      1.0  0.22052  0.02130  0.49609  1.0000
  C   C147      1.0  0.09622  0.09379  0.56194  1.0000
  H   H263      1.0  0.05872  0.05250  0.53674  1.0000
  H   H264      1.0  0.99662  0.19989  0.53624  1.0000
  C   C148      1.0  0.98720  0.10826  0.53036  1.0000
  H   H265      1.0  0.01748  0.19910  0.49241  1.0000
  C   C149      1.0  0.00006  0.19388  0.56191  1.0000
  C   C150      1.0  0.20127  0.03056  0.53553  1.0000
  H   H266      1.0  0.21089  0.08650  0.51116  1.0000
  H   H267      1.0  0.06840  0.13583  0.55880  1.0000
  C   C151      1.0  0.04068  0.15951  0.51052  1.0000
  C   C152      1.0  0.03742  0.15493  0.52436  1.0000
  C   C153      1.0  0.03601  0.16331  0.53291  1.0000
  C   C154      1.0  0.03751  0.17649  0.52766  1.0000
  C   C155      1.0  0.04032  0.18126  0.51382  1.0000
  C   C156      1.0  0.04196  0.17275  0.50531  1.0000
  H   H268      1.0  0.03609  0.14492  0.52848  1.0000
  H   H269      1.0  0.03370  0.15961  0.54363  1.0000
  H   H270      1.0  0.04145  0.19144  0.50970  1.0000
  H   H271      1.0  0.08157  0.15312  0.55572  1.0000
  C   C157      1.0  0.21316  0.07979  0.48784  1.0000
  H   H272      1.0  0.21627  0.01383  0.52989  1.0000
  H   H273      1.0  0.09734  0.11122  0.54618  1.0000
  H   H274      1.0  0.08325  0.04455  0.55140  1.0000
  C   C158      1.0  0.18354  0.99479  0.50076  1.0000
  C   C159      1.0  0.10190  0.06939  0.53630  1.0000
  C   C160      1.0  0.09632  0.07717  0.52545  1.0000
  C   C161      1.0  0.08270  0.08315  0.52753  1.0000
  C   C162      1.0  0.07472  0.08130  0.54047  1.0000
  C   C163      1.0  0.08034  0.07344  0.55120  1.0000
  C   C164      1.0  0.09386  0.06763  0.54915  1.0000
  H   H275      1.0  0.10262  0.07895  0.51557  1.0000
  H   H276      1.0  0.07846  0.08935  0.51923  1.0000
  H   H277      1.0  0.07424  0.07204  0.56122  1.0000
  H   H278      1.0  0.09816  0.06188  0.55759  1.0000
  H   H279      1.0  0.03220  0.11485  0.56177  1.0000
  C   C165      1.0  0.03319  0.12376  0.56449  1.0000
  C   C166      1.0  0.99764  0.16843  0.53437  1.0000
  H   H280      1.0  0.06535  0.14449  0.54295  1.0000
  H   H281      1.0  0.10037  0.04023  0.54270  1.0000
  H   H282      1.0  0.05060  0.13291  0.54229  1.0000
  H   H283      1.0  0.09220  0.13082  0.55060  1.0000
  H   H284      1.0  0.07199  0.06534  0.49604  1.0000
  H   H285      1.0  0.08988  0.08642  0.56677  1.0000
  H   H286      1.0  0.16883  0.03651  0.53408  1.0000
  H   H287      1.0  0.07459  0.11196  0.53028  1.0000
  Fe  Fe17      1.0  0.12938  0.04725  0.52317  1.0000
  H   H288      1.0  0.19289  0.99760  0.50012  1.0000
  H   H289      1.0  0.09671  0.09880  0.56954  1.0000
  H   H290      1.0  0.19374  0.05918  0.48661  1.0000
  S   S36       1.0  0.13317  0.02533  0.53271  1.0000
  Fe  Fe18      1.0  0.03093  0.23384  0.50924  1.0000
  C   C167      1.0  0.18376  0.01962  0.52873  1.0000
  C   C168      1.0  0.07839  0.13181  0.50658  1.0000
  C   C169      1.0  0.08617  0.03607  0.53420  1.0000
  C   C170      1.0  0.18790  0.03702  0.53649  1.0000
  C   C171      1.0  0.05552  0.12367  0.54843  1.0000
  H   H291      1.0  0.07663  0.03286  0.53811  1.0000
  H   H292      1.0  0.17358  0.05905  0.50532  1.0000
  H   H293      1.0  0.00113  0.13747  0.55674  1.0000
  C   C172      1.0  0.21525  0.04167  0.49866  1.0000
  H   H294      1.0  0.20091  0.00421  0.52389  1.0000
  C   C173      1.0  0.08593  0.15198  0.54526  1.0000
  H   H295      1.0  0.01005  0.18721  0.56138  1.0000
  H   H296      1.0  0.00143  0.19712  0.49228  1.0000
  C   C174      1.0  0.04776  0.12347  0.56309  1.0000
  H   H297      1.0  0.21755  0.06505  0.53575  1.0000
  H   H298      1.0  0.99647  0.14149  0.54093  1.0000
  H   H299      1.0  0.01202  0.18024  0.51004  1.0000
  H   H300      1.0  0.08677  0.12070  0.52873  1.0000
  S   S37       1.0  0.12268  0.04499  0.50609  1.0000
  H   H301      1.0  0.00110  0.20412  0.55634  1.0000
  H   H302      1.0  0.21472  0.05595  0.51712  1.0000
  Fe  Fe19      1.0  0.15379  0.02484  0.52003  1.0000
  C   C175      1.0  0.08491  0.04947  0.52371  1.0000
  C   C176      1.0  0.07186  0.13562  0.54802  1.0000
  C   C177      1.0  0.20598  0.01887  0.53068  1.0000
  H   H303      1.0  0.22846  0.07535  0.52406  1.0000
  C   C178      1.0  0.18940  0.06790  0.49127  1.0000
  H   H304      1.0  0.06080  0.04921  0.50837  1.0000
  Fe  Fe20      1.0  0.23385  0.03077  0.53406  1.0000
  H   H305      1.0  0.02778  0.12370  0.57501  1.0000
  H   H306      1.0  0.07496  0.11319  0.56502  1.0000
  C   C179      1.0  0.00705  0.19977  0.49805  1.0000
  H   H307      1.0  0.05994  0.13183  0.52081  1.0000
  C   C180      1.0  0.09071  0.03718  0.54608  1.0000
  C   C181      1.0  0.05571  0.05549  0.52701  1.0000
  C   C182      1.0  0.09084  0.10403  0.55046  1.0000
  S   S38       1.0  0.03244  0.12012  0.53017  1.0000
  H   H308      1.0  0.18464  0.03418  0.50174  1.0000
  H   H309      1.0  0.05175  0.11435  0.57005  1.0000
  H   H310      1.0  0.01594  0.09727  0.48478  1.0000
  H   H311      1.0  0.17940  0.99071  0.51141  1.0000
  H   H312      1.0  0.00271  0.21019  0.49918  1.0000
  H   H313      1.0  0.22918  0.05425  0.48949  1.0000
  H   H314      1.0  0.09426  0.01856  0.49143  1.0000
  H   H315      1.0  0.07934  0.12191  0.50459  1.0000
  H   H316      1.0  0.19241  0.98484  0.53003  1.0000
  H   H317      1.0  0.21333  0.08280  0.53422  1.0000
  H   H318      1.0  0.06585  0.03649  0.52171  1.0000
  H   H319      1.0  0.07912  0.05759  0.52897  1.0000
  C   C183      1.0  0.00195  0.14432  0.54673  1.0000
  C   C184      1.0  0.06547  0.04723  0.51700  1.0000
  C   C185      1.0  0.99723  0.18910  0.54100  1.0000
  H   H320      1.0  0.19448  0.05880  0.51071  1.0000
  S   S39       1.0  0.99772  0.11640  0.53348  1.0000
  C   C186      1.0  0.99178  0.09980  0.52136  1.0000
  C   C187      1.0  0.14767  0.99375  0.55150  1.0000
  C   C188      1.0  0.08801  0.03947  0.50472  1.0000
  S   S40       1.0  0.15045  0.04690  0.51205  1.0000
  H   H321      1.0  0.09693  0.06109  0.48794  1.0000
  C   C189      1.0  0.21831  0.05549  0.49107  1.0000
  H   H322      1.0  0.02858  0.13290  0.55796  1.0000
  H   H323      1.0  0.18420  0.04606  0.54024  1.0000
  H   H324      1.0  0.99791  0.23431  0.49596  1.0000
  S   S41       1.0  0.21169  0.03718  0.54081  1.0000
  C   C190      1.0  0.17919  0.03164  0.53298  1.0000
  H   H325      1.0  0.00847  0.16752  0.53046  1.0000
  N   N9        1.0  0.07921  0.04997  0.51215  1.0000
  H   H326      1.0  0.03791  0.05692  0.52036  1.0000
  H   H327      1.0  0.08014  0.15981  0.53850  1.0000
  H   H328      1.0  0.99059  0.17867  0.56199  1.0000
  H   H329      1.0  0.08840  0.13344  0.50549  1.0000
  S   S42       1.0  0.11571  0.00941  0.51407  1.0000
  H   H330      1.0  0.00213  0.09780  0.51645  1.0000
  H   H331      1.0  0.01238  0.19358  0.51701  1.0000
  C   C191      1.0  0.21798  0.07478  0.52858  1.0000
  H   H332      1.0  0.99446  0.16452  0.52744  1.0000
  H   H333      1.0  0.06938  0.14279  0.52197  1.0000
  H   H334      1.0  0.17464  0.02596  0.49728  1.0000
  N   N10       1.0  0.21109  0.06699  0.49777  1.0000
  H   H335      1.0  0.20010  0.07630  0.52285  1.0000
  H   H336      1.0  0.08788  0.02934  0.51119  1.0000
  H   H337      1.0  0.10457  0.03036  0.48262  1.0000
  H   H338      1.0  0.04147  0.04269  0.53382  1.0000
  Fe  Fe21      1.0  0.14404  0.04289  0.49563  1.0000
  Fe  Fe22      1.0  0.12818  0.02301  0.51452  1.0000
  C   C192      1.0  0.02058  0.07090  0.49657  1.0000
  H   H339      1.0  0.07357  0.13961  0.49905  1.0000
  H   H340      1.0  0.00137  0.08136  0.49367  1.0000
  H   H341      1.0  0.20468  0.04164  0.50022  1.0000
  H   H342      1.0  0.09502  0.05143  0.52007  1.0000
  H   H343      1.0  0.02111  0.07733  0.50289  1.0000
  N   N11       1.0  0.07018  0.12297  0.54568  1.0000
  Fe  Fe23      1.0  0.01913  0.11218  0.52310  1.0000
  C   C193      1.0  0.09161  0.06756  0.49512  1.0000
  S   S43       1.0  0.14897  0.02075  0.50261  1.0000
  H   H344      1.0  0.01694  0.06206  0.50326  1.0000
  H   H345      1.0  0.04823  0.20892  0.48708  1.0000
  H   H346      1.0  0.16741  0.98949  0.48755  1.0000
  H   H347      1.0  0.09622  0.15348  0.54250  1.0000
  H   H348      1.0  0.05376  0.11531  0.54540  1.0000
  C   C194      1.0  0.19646  0.06740  0.50226  1.0000
  H   H349      1.0  0.07065  0.10274  0.55738  1.0000
  C   C195      1.0  0.08604  0.13810  0.54390  1.0000
  H   H350      1.0  0.04429  0.17640  0.49470  1.0000
  C   C196      1.0  0.07613  0.11082  0.55519  1.0000
  H   H351      1.0  0.04814  0.13231  0.56633  1.0000
  C   C197      1.0  0.19722  0.01338  0.52737  1.0000
  H   H352      1.0  0.09366  0.02811  0.52976  1.0000
  H   H353      1.0  0.15273  0.00055  0.55340  1.0000
  H   H354      1.0  0.09819  0.06667  0.50176  1.0000
  H   H355      1.0  0.14061  0.99637  0.52144  1.0000
  C   C198      1.0  0.17475  0.06798  0.49714  1.0000
  H   H356      1.0  0.99533  0.16268  0.48817  1.0000
  H   H357      1.0  0.09851  0.04029  0.50232  1.0000
  C   C199      1.0  0.21652  0.06526  0.50985  1.0000
  C   C200      1.0  0.04169  0.05338  0.52970  1.0000
  H   H358      1.0  0.16991  0.06788  0.48926  1.0000
  C   C201      1.0  0.99232  0.19026  0.51966  1.0000
  H   H359      1.0  0.03502  0.05918  0.53710  1.0000
  H   H360      1.0  0.02115  0.22439  0.49055  1.0000
  H   H361      1.0  0.00635  0.22432  0.57181  1.0000
  H   H362      1.0  0.05529  0.06631  0.52314  1.0000
  C   C202      1.0  0.07831  0.06377  0.50325  1.0000
  C   C203      1.0  0.21055  0.07652  0.51775  1.0000
  H   H363      1.0  0.20617  0.08856  0.49138  1.0000
  H   H364      1.0  0.13761  0.99463  0.55807  1.0000
  H   H365      1.0  0.19068  0.98868  0.48210  1.0000
  H   H366      1.0  0.17642  0.00381  0.49699  1.0000
  C   C204      1.0  0.00225  0.22886  0.58066  1.0000
  H   H367      1.0  0.01254  0.14303  0.54158  1.0000
  H   H368      1.0  0.22968  0.08423  0.49297  1.0000
  H   H369      1.0  0.16967  0.07706  0.50116  1.0000
  H   H370      1.0  0.07450  0.03694  0.49397  1.0000
  H   H371      1.0  0.10915  0.98552  0.51252  1.0000
  H   H372      1.0  0.22750  0.06385  0.50711  1.0000
  H   H373      1.0  0.17391  0.98559  0.54557  1.0000
  H   H374      1.0  0.03067  0.06746  0.49073  1.0000
  H   H375      1.0  0.21774  0.03869  0.50860  1.0000
  H   H376      1.0  0.23400  0.02979  0.48995  1.0000
  N   N12       1.0  0.99078  0.18283  0.53410  1.0000
  C   C205      1.0  0.13629  0.98886  0.52041  1.0000
  H   H377      1.0  0.08504  0.08896  0.49397  1.0000
  H   H378      1.0  0.14670  0.99692  0.54095  1.0000
  H   H379      1.0  0.08426  0.04897  0.48451  1.0000
  C   C206      1.0  0.08929  0.08196  0.48712  1.0000
  C   C207      1.0  0.09441  0.02864  0.48489  1.0000
  H   H380      1.0  0.99501  0.10900  0.48356  1.0000
  C   C208      1.0  0.19249  0.02904  0.48235  1.0000
  H   H381      1.0  0.19005  0.07707  0.48330  1.0000
  H   H382      1.0  0.06553  0.20918  0.48277  1.0000
  Fe  Fe24      1.0  0.10500  0.43361  0.01829  1.0000
  S   S44       1.0  0.12144  0.43936  0.02290  1.0000
  S   S45       1.0  0.08352  0.43773  0.02916  1.0000
  C   C209      1.0  0.99741  0.26576  0.45874  1.0000
  S   S46       1.0  0.14135  0.42519  0.99862  1.0000
  Fe  Fe25      1.0  0.13309  0.41899  0.02047  1.0000
  S   S47       1.0  0.14434  0.40568  0.03587  1.0000
  Fe  Fe26      1.0  0.12822  0.44506  0.00058  1.0000
  C   C210      1.0  0.07559  0.46825  0.28942  1.0000
  S   S48       1.0  0.11614  0.41261  0.01752  1.0000
  S   S49       1.0  0.11082  0.44123  0.99602  1.0000
  Fe  Fe27      1.0  0.05037  0.43569  0.10415  1.0000
  S   S50       1.0  0.04823  0.43273  0.12629  1.0000
  S   S51       1.0  0.07057  0.43710  0.09094  1.0000
  Fe  Fe28      1.0  0.02057  0.44052  0.10650  1.0000
  S   S52       1.0  0.01587  0.43826  0.12879  1.0000
  C   C211      1.0  0.06326  0.27404  0.46343  1.0000
  Fe  Fe29      1.0  0.03111  0.45014  0.12500  1.0000
  S   S53       1.0  0.02828  0.46707  0.13464  1.0000
  Fe  Fe30      1.0  0.03331  0.42097  0.12835  1.0000
  S   S54       1.0  0.03219  0.40173  0.14361  1.0000
  S   S55       1.0  0.03433  0.45406  0.10285  1.0000
  S   S56       1.0  0.03696  0.42215  0.10616  1.0000
  Fe  Fe31      1.0  0.21623  0.41829  0.02465  1.0000
  H   H383      1.0  0.01279  0.29242  0.41007  1.0000
  S   S57       1.0  0.20277  0.40481  0.03795  1.0000
  H   H384      1.0  0.00824  0.32301  0.41524  1.0000
  H   H385      1.0  0.07900  0.42114  0.30346  1.0000
  H   H386      1.0  0.99897  0.39566  0.38126  1.0000
  Fe  Fe32      1.0  0.03253  0.40866  0.21610  1.0000
  S   S58       1.0  0.02694  0.43090  0.21236  1.0000
  S   S59       1.0  0.03071  0.39434  0.20506  1.0000
  Fe  Fe33      1.0  0.03901  0.40585  0.24288  1.0000
  S   S60       1.0  0.03381  0.42768  0.24189  1.0000
  S   S61       1.0  0.04690  0.38991  0.25912  1.0000
  Fe  Fe34      1.0  0.01663  0.42781  0.23397  1.0000
  H   H387      1.0  0.14283  0.36557  0.06518  1.0000
  Fe  Fe35      1.0  0.04460  0.42939  0.22042  1.0000
  S   S62       1.0  0.05898  0.44289  0.21051  1.0000
  S   S63       1.0  0.02068  0.40566  0.23720  1.0000
  S   S64       1.0  0.05131  0.40733  0.22202  1.0000
  C   C212      1.0  0.03390  0.47721  0.18535  1.0000
  S   S65       1.0  0.02189  0.25264  0.41210  1.0000
  S   S66       1.0  0.04989  0.27142  0.39787  1.0000
  H   H388      1.0  0.06661  0.28997  0.46959  1.0000
  Fe  Fe36      1.0  0.03703  0.44996  0.31907  1.0000
  S   S67       1.0  0.02893  0.43707  0.31135  1.0000
  S   S68       1.0  0.03583  0.47099  0.30670  1.0000
  Fe  Fe37      1.0  0.04217  0.42820  0.34382  1.0000
  S   S69       1.0  0.03455  0.41381  0.33798  1.0000
  S   S70       1.0  0.04694  0.42145  0.36420  1.0000
  Fe  Fe38      1.0  0.04592  0.42099  0.31737  1.0000
  S   S71       1.0  0.05945  0.40562  0.30624  1.0000
  Fe  Fe39      1.0  0.01852  0.43123  0.33272  1.0000
  H   H389      1.0  0.99738  0.36063  0.21507  1.0000
  S   S72       1.0  0.05500  0.43424  0.32350  1.0000
  S   S73       1.0  0.02518  0.44534  0.34000  1.0000
  Fe  Fe40      1.0  0.01470  0.35287  0.43417  1.0000
  S   S74       1.0  0.02792  0.36727  0.42490  1.0000
  H   H390      1.0  0.99250  0.25832  0.41606  1.0000
  Fe  Fe41      1.0  0.03707  0.32863  0.43359  1.0000
  S   S75       1.0  0.05253  0.34087  0.42413  1.0000
  S   S76       1.0  0.04076  0.30622  0.44027  1.0000
  Fe  Fe42      1.0  0.04081  0.35373  0.43873  1.0000
  S   S77       1.0  0.05115  0.36452  0.44657  1.0000
  Fe  Fe43      1.0  0.03849  0.35351  0.41107  1.0000
  S   S78       1.0  0.04533  0.36060  0.38877  1.0000
  S   S79       1.0  0.02648  0.34053  0.44938  1.0000
  S   S80       1.0  0.02413  0.34002  0.41923  1.0000
  C   C213      1.0  0.01355  0.27937  0.44296  1.0000
  H   H391      1.0  0.14619  0.44340  0.05429  1.0000
  H   H392      1.0  0.99542  0.36322  0.47646  1.0000
  C   C214      1.0  0.07390  0.48335  0.28630  1.0000
  C   C215      1.0  0.04595  0.40466  0.37090  1.0000
  C   C216      1.0  0.05280  0.39497  0.36349  1.0000
  C   C217      1.0  0.05255  0.38151  0.36915  1.0000
  C   C218      1.0  0.04528  0.37764  0.38212  1.0000
  C   C219      1.0  0.03817  0.38736  0.38943  1.0000
  C   C220      1.0  0.03863  0.40083  0.38389  1.0000
  H   H393      1.0  0.05853  0.39783  0.35348  1.0000
  H   H394      1.0  0.05819  0.37402  0.36352  1.0000
  H   H395      1.0  0.03231  0.38455  0.39932  1.0000
  H   H396      1.0  0.03319  0.40832  0.38960  1.0000
  H   H397      1.0  0.12655  0.36201  0.07105  1.0000
  H   H398      1.0  0.05229  0.29438  0.46312  1.0000
  H   H399      1.0  0.99904  0.46297  0.26977  1.0000
  C   C221      1.0  0.18299  0.45790  0.99619  1.0000
  H   H400      1.0  0.01020  0.41051  0.32465  1.0000
  C   C222      1.0  0.05020  0.36436  0.46333  1.0000
  H   H401      1.0  0.08763  0.47030  0.24293  1.0000
  C   C223      1.0  0.07401  0.37934  0.19281  1.0000
  C   C224      1.0  0.06272  0.32314  0.23793  1.0000
  C   C225      1.0  0.04677  0.28099  0.40987  1.0000
  C   C226      1.0  0.04597  0.27503  0.42343  1.0000
  C   C227      1.0  0.04425  0.28286  0.43263  1.0000
  C   C228      1.0  0.04296  0.29672  0.42842  1.0000
  C   C229      1.0  0.04356  0.30271  0.41490  1.0000
  C   C230      1.0  0.04561  0.29484  0.40564  1.0000
  H   H402      1.0  0.04699  0.26435  0.42676  1.0000
  H   H403      1.0  0.04386  0.27817  0.44307  1.0000
  H   H404      1.0  0.04275  0.31335  0.41153  1.0000
  H   H405      1.0  0.04645  0.29948  0.39514  1.0000
  C   C231      1.0  0.04959  0.39471  0.27241  1.0000
  C   C232      1.0  0.05851  0.38581  0.27980  1.0000
  C   C233      1.0  0.06128  0.38930  0.29023  1.0000
  C   C234      1.0  0.05475  0.40147  0.29375  1.0000
  C   C235      1.0  0.04544  0.41028  0.28670  1.0000
  C   C236      1.0  0.04314  0.40704  0.27575  1.0000
  H   H406      1.0  0.06349  0.37627  0.27731  1.0000
  H   H407      1.0  0.06848  0.38248  0.29566  1.0000
  H   H408      1.0  0.04036  0.41968  0.28943  1.0000
  H   H409      1.0  0.03643  0.41402  0.26993  1.0000
  C   C237      1.0  0.13022  0.45786  0.04710  1.0000
  H   H410      1.0  0.07749  0.41085  0.10957  1.0000
  H   H411      1.0  0.02716  0.47983  0.17842  1.0000
  H   H412      1.0  0.03969  0.45168  0.23290  1.0000
  H   H413      1.0  0.06985  0.26615  0.46924  1.0000
  C   C238      1.0  0.03155  0.40070  0.16057  1.0000
  C   C239      1.0  0.03228  0.41139  0.16534  1.0000
  C   C240      1.0  0.03200  0.40974  0.17903  1.0000
  C   C241      1.0  0.03099  0.39742  0.18787  1.0000
  C   C242      1.0  0.03008  0.38692  0.18305  1.0000
  C   C243      1.0  0.03037  0.38854  0.16953  1.0000
  H   H414      1.0  0.03311  0.42085  0.15848  1.0000
  H   H415      1.0  0.03243  0.41795  0.18277  1.0000
  H   H416      1.0  0.02921  0.37741  0.18980  1.0000
  H   H417      1.0  0.02975  0.38027  0.16595  1.0000
  H   H418      1.0  0.08504  0.40978  0.04425  1.0000
  H   H419      1.0  0.06939  0.41939  0.23163  1.0000
  H   H420      1.0  0.07788  0.45517  0.26497  1.0000
  S   S81       1.0  0.00912  0.24885  0.38229  1.0000
  H   H421      1.0  0.05229  0.46116  0.11480  1.0000
  C   C244      1.0  0.07974  0.43817  0.04621  1.0000
  C   C245      1.0  0.06734  0.43628  0.05419  1.0000
  C   C246      1.0  0.06427  0.43614  0.06792  1.0000
  C   C247      1.0  0.07356  0.43803  0.07368  1.0000
  C   C248      1.0  0.08578  0.44031  0.06563  1.0000
  C   C249      1.0  0.08890  0.44031  0.05195  1.0000
  H   H422      1.0  0.06022  0.43461  0.04978  1.0000
  H   H423      1.0  0.05482  0.43436  0.07407  1.0000
  H   H424      1.0  0.09294  0.44193  0.07002  1.0000
  H   H425      1.0  0.09839  0.44197  0.04585  1.0000
  C   C250      1.0  0.16061  0.40623  0.03561  1.0000
  C   C251      1.0  0.16616  0.39804  0.04626  1.0000
  C   C252      1.0  0.17903  0.39784  0.04672  1.0000
  C   C253      1.0  0.18661  0.40578  0.03652  1.0000
  C   C254      1.0  0.18116  0.41406  0.02576  1.0000
  C   C255      1.0  0.16809  0.41435  0.02532  1.0000
  H   H426      1.0  0.16050  0.39170  0.05420  1.0000
  H   H427      1.0  0.18318  0.39138  0.05502  1.0000
  H   H428      1.0  0.18709  0.42004  0.01776  1.0000
  H   H429      1.0  0.16388  0.42067  0.01701  1.0000
  H   H430      1.0  0.02016  0.47217  0.06815  1.0000
  C   C256      1.0  0.22778  0.45194  0.05141  1.0000
  H   H431      1.0  0.06458  0.43112  0.39596  1.0000
  H   H432      1.0  0.11463  0.46800  0.01136  1.0000
  H   H433      1.0  0.06238  0.42935  0.28696  1.0000
  N   N13       1.0  0.01948  0.36598  0.35879  1.0000
  C   C257      1.0  0.01811  0.35211  0.36669  1.0000
  C   C258      1.0  0.01215  0.36953  0.34769  1.0000
  C   C259      1.0  0.03401  0.36536  0.35268  1.0000
  C   C260      1.0  0.01420  0.37553  0.36812  1.0000
  C   C261      1.0  0.00845  0.39030  0.36199  1.0000
  C   C262      1.0  0.02562  0.34610  0.37822  1.0000
  C   C263      1.0  0.03784  0.37839  0.34367  1.0000
  H   H434      1.0  0.00925  0.28809  0.44769  1.0000
  N   N14       1.0  0.00071  0.29878  0.39518  1.0000
  C   C264      1.0  0.00586  0.39917  0.37183  1.0000
  C   C265      1.0  0.02239  0.33270  0.38619  1.0000
  C   C266      1.0  0.05224  0.37576  0.33598  1.0000
  H   H435      1.0  0.02141  0.34501  0.35989  1.0000
  H   H436      1.0  0.00757  0.35193  0.37146  1.0000
  H   H437      1.0  0.01198  0.37995  0.34199  1.0000
  H   H438      1.0  0.01747  0.36338  0.34012  1.0000
  H   H439      1.0  0.03800  0.35742  0.34681  1.0000
  H   H440      1.0  0.03975  0.36256  0.36059  1.0000
  H   H441      1.0  0.00609  0.37223  0.37640  1.0000
  H   H442      1.0  0.02203  0.37535  0.37316  1.0000
  C   C267      1.0  0.23652  0.46088  0.05215  1.0000
  C   C268      1.0  0.03166  0.23973  0.45274  1.0000
  H   H443      1.0  0.03648  0.34420  0.37432  1.0000
  H   H444      1.0  0.02283  0.35284  0.38524  1.0000
  H   H445      1.0  0.03682  0.38536  0.35004  1.0000
  H   H446      1.0  0.03172  0.38331  0.33615  1.0000
  C   C269      1.0  0.04311  0.46321  0.18510  1.0000
  C   C270      1.0  0.00584  0.36371  0.47513  1.0000
  H   H447      1.0  0.01964  0.46126  0.18137  1.0000
  C   C271      1.0  0.05364  0.39057  0.41511  1.0000
  H   H448      1.0  0.12752  0.46873  0.04316  1.0000
  H   H449      1.0  0.09513  0.38745  0.41056  1.0000
  H   H450      1.0  0.04125  0.25143  0.45894  1.0000
  C   C272      1.0  0.99367  0.41137  0.19896  1.0000
  H   H451      1.0  0.01167  0.33393  0.39084  1.0000
  H   H452      1.0  0.02530  0.32548  0.37963  1.0000
  H   H453      1.0  0.02800  0.32858  0.39426  1.0000
  H   H454      1.0  0.05341  0.37027  0.32815  1.0000
  H   H455      1.0  0.05522  0.38539  0.33103  1.0000
  H   H456      1.0  0.05896  0.36990  0.34276  1.0000
  N   N15       1.0  0.04848  0.45986  0.17150  1.0000
  H   H457      1.0  0.07537  0.36161  0.41200  1.0000
  C   C273      1.0  0.05873  0.44692  0.17263  1.0000
  C   C274      1.0  0.00168  0.45602  0.26306  1.0000
  C   C275      1.0  0.03771  0.45923  0.16530  1.0000
  C   C276      1.0  0.02551  0.45409  0.17504  1.0000
  Fe  Fe44      1.0  0.02312  0.24219  0.39616  1.0000
  C   C277      1.0  0.17058  0.46591  0.03802  1.0000
  C   C278      1.0  0.05381  0.43423  0.18090  1.0000
  C   C279      1.0  0.06530  0.42227  0.18289  1.0000
  C   C280      1.0  0.01621  0.45235  0.16750  1.0000
  C   C281      1.0  0.20968  0.40352  0.99560  1.0000
  H   H458      1.0  0.21338  0.47947  0.05266  1.0000
  H   H459      1.0  0.07393  0.36453  0.38294  1.0000
  H   H460      1.0  0.03785  0.45564  0.19225  1.0000
  H   H461      1.0  0.06347  0.44464  0.16263  1.0000
  H   H462      1.0  0.06676  0.44782  0.17682  1.0000
  H   H463      1.0  0.15141  0.47990  0.99226  1.0000
  C   C282      1.0  0.08652  0.39865  0.98571  1.0000
  H   H464      1.0  0.00628  0.45258  0.21389  1.0000
  H   H465      1.0  0.04195  0.45296  0.15771  1.0000
  H   H466      1.0  0.01595  0.39186  0.28567  1.0000
  H   H467      1.0  0.02835  0.44446  0.18185  1.0000
  H   H468      1.0  0.00145  0.40280  0.19607  1.0000
  H   H469      1.0  0.00799  0.37055  0.45366  1.0000
  H   H470      1.0  0.01566  0.45378  0.24437  1.0000
  H   H471      1.0  0.06333  0.46874  0.25075  1.0000
  H   H472      1.0  0.04803  0.43548  0.19091  1.0000
  H   H473      1.0  0.04776  0.43170  0.17550  1.0000
  H   H474      1.0  0.07144  0.42029  0.17311  1.0000
  H   H475      1.0  0.07155  0.42405  0.18863  1.0000
  H   H476      1.0  0.06131  0.41332  0.18865  1.0000
  H   H477      1.0  0.01192  0.46212  0.16156  1.0000
  H   H478      1.0  0.00405  0.39744  0.27524  1.0000
  H   H479      1.0  0.00749  0.42434  0.19462  1.0000
  H   H480      1.0  0.04672  0.43863  0.27221  1.0000
  N   N16       1.0  0.06087  0.36154  0.22976  1.0000
  H   H481      1.0  0.00089  0.45556  0.29046  1.0000
  S   S82       1.0  0.00463  0.44926  0.09457  1.0000
  H   H482      1.0  0.07838  0.47567  0.22996  1.0000
  H   H483      1.0  0.08868  0.47181  0.06396  1.0000
  S   S83       1.0  0.20871  0.46830  0.00861  1.0000
  H   H484      1.0  0.06821  0.44380  0.28504  1.0000
  H   H485      1.0  0.03880  0.30464  0.48025  1.0000
  H   H486      1.0  0.03277  0.47020  0.26456  1.0000
  H   H487      1.0  0.02283  0.29636  0.47922  1.0000
  C   C283      1.0  0.04708  0.45722  0.27610  1.0000
  C   C284      1.0  0.00297  0.27201  0.44401  1.0000
  H   H488      1.0  0.99586  0.35659  0.39344  1.0000
  H   H489      1.0  0.06326  0.41146  0.24865  1.0000
  H   H490      1.0  0.08070  0.41141  0.24256  1.0000
  N   N17       1.0  0.06721  0.44015  0.26641  1.0000
  C   C285      1.0  0.08369  0.42663  0.28167  1.0000
  C   C286      1.0  0.05784  0.28629  0.46989  1.0000
  H   H491      1.0  0.06483  0.42058  0.26712  1.0000
  C   C287      1.0  0.08648  0.42558  0.29524  1.0000
  H   H492      1.0  0.07532  0.43620  0.23882  1.0000
  C   C288      1.0  0.07113  0.46069  0.24677  1.0000
  Fe  Fe45      1.0  0.04346  0.25180  0.40347  1.0000
  H   H493      1.0  0.01220  0.35377  0.47402  1.0000
  H   H494      1.0  0.21131  0.39294  0.99513  1.0000
  H   H495      1.0  0.12899  0.42921  0.05907  1.0000
  H   H496      1.0  0.99444  0.24470  0.36587  1.0000
  H   H497      1.0  0.01423  0.30785  0.39940  1.0000
  H   H498      1.0  0.21833  0.40760  0.98916  1.0000
  H   H499      1.0  0.06568  0.28585  0.44293  1.0000
  H   H500      1.0  0.99043  0.42095  0.27320  1.0000
  C   C289      1.0  0.05497  0.45770  0.21632  1.0000
  C   C290      1.0  0.07912  0.47396  0.07118  1.0000
  H   H501      1.0  0.01424  0.27969  0.39461  1.0000
  C   C291      1.0  0.99564  0.38591  0.21982  1.0000
  C   C292      1.0  0.06813  0.48122  0.14012  1.0000
  H   H502      1.0  0.99579  0.39662  0.23876  1.0000
  H   H503      1.0  0.06260  0.48242  0.33046  1.0000
  H   H504      1.0  0.01195  0.36091  0.22012  1.0000
  C   C293      1.0  0.99252  0.31081  0.37321  1.0000
  H   H505      1.0  0.12115  0.46874  0.07487  1.0000
  H   H506      1.0  0.02705  0.28351  0.36318  1.0000
  N   N18       1.0  0.16857  0.45380  0.03482  1.0000
  C   C294      1.0  0.15439  0.45470  0.03461  1.0000
  C   C295      1.0  0.17736  0.45147  0.02155  1.0000
  C   C296      1.0  0.17248  0.44169  0.04544  1.0000
  C   C297      1.0  0.19696  0.41172  0.99117  1.0000
  H   H507      1.0  0.08601  0.36770  0.22591  1.0000
  C   C298      1.0  0.14459  0.45383  0.04843  1.0000
  C   C299      1.0  0.18723  0.43777  0.04612  1.0000
  C   C300      1.0  0.17470  0.46233  0.00900  1.0000
  H   H508      1.0  0.06989  0.40872  0.41115  1.0000
  C   C301      1.0  0.02792  0.28682  0.47613  1.0000
  H   H509      1.0  0.99587  0.38495  0.20967  1.0000
  C   C302      1.0  0.18944  0.42773  0.05908  1.0000
  H   H510      1.0  0.15382  0.44646  0.03043  1.0000
  H   H511      1.0  0.15042  0.46392  0.02777  1.0000
  H   H512      1.0  0.18793  0.45051  0.02144  1.0000
  H   H513      1.0  0.17667  0.44187  0.01998  1.0000
  H   H514      1.0  0.16995  0.43279  0.04410  1.0000
  H   H515      1.0  0.16682  0.44321  0.05554  1.0000
  H   H516      1.0  0.99688  0.31887  0.43085  1.0000
  C   C303      1.0  0.03157  0.23839  0.47588  1.0000
  H   H517      1.0  0.03297  0.28894  0.46546  1.0000
  H   H518      1.0  0.04841  0.48034  0.16122  1.0000
  C   C304      1.0  0.05927  0.47938  0.10731  1.0000
  H   H519      1.0  0.07761  0.39660  0.99351  1.0000
  H   H520      1.0  0.19107  0.44657  0.04547  1.0000
  H   H521      1.0  0.19306  0.43298  0.03770  1.0000
  H   H522      1.0  0.16423  0.46452  0.00843  1.0000
  H   H523      1.0  0.17746  0.47154  0.00906  1.0000
  H   H524      1.0  0.05860  0.38225  0.48025  1.0000
  H   H525      1.0  0.09240  0.37836  0.98369  1.0000
  H   H526      1.0  0.10781  0.36923  0.42508  1.0000
  H   H527      1.0  0.04814  0.41001  0.42085  1.0000
  H   H528      1.0  0.07578  0.34925  0.39540  1.0000
  H   H529      1.0  0.08442  0.37361  0.19145  1.0000
  H   H530      1.0  0.00138  0.40957  0.36733  1.0000
  H   H531      1.0  0.00175  0.42402  0.18042  1.0000
  H   H532      1.0  0.08958  0.45962  0.23173  1.0000
  H   H533      1.0  0.18457  0.43234  0.06784  1.0000
  H   H534      1.0  0.18547  0.41884  0.06026  1.0000
  H   H535      1.0  0.20020  0.42436  0.05881  1.0000
  H   H536      1.0  0.03508  0.47173  0.24190  1.0000
  C   C305      1.0  0.07605  0.44973  0.25841  1.0000
  H   H537      1.0  0.99163  0.30171  0.42351  1.0000
  C   C306      1.0  0.00358  0.44119  0.27083  1.0000
  H   H538      1.0  0.00378  0.38377  0.46248  1.0000
  C   C307      1.0  0.99917  0.42684  0.09084  1.0000
  C   C308      1.0  0.06821  0.43054  0.24618  1.0000
  H   H539      1.0  0.00137  0.30638  0.36630  1.0000
  H   H540      1.0  0.00053  0.43224  0.29832  1.0000
  C   C309      1.0  0.01412  0.45872  0.25270  1.0000
  H   H541      1.0  0.05513  0.27003  0.46268  1.0000
  H   H542      1.0  0.09154  0.43085  0.27382  1.0000
  H   H543      1.0  0.01897  0.47089  0.20286  1.0000
  H   H544      1.0  0.18102  0.44843  0.99572  1.0000
  H   H545      1.0  0.06800  0.46570  0.28601  1.0000
  H   H546      1.0  0.01228  0.43877  0.27544  1.0000
  H   H547      1.0  0.00667  0.43540  0.26289  1.0000
  H   H548      1.0  0.99772  0.46195  0.33387  1.0000
  C   C310      1.0  0.14239  0.48054  0.99987  1.0000
  C   C311      1.0  0.08342  0.37530  0.24324  1.0000
  H   H549      1.0  0.01214  0.30711  0.42647  1.0000
  H   H550      1.0  0.06275  0.47204  0.16769  1.0000
  C   C312      1.0  0.04537  0.35474  0.47418  1.0000
  C   C313      1.0  0.07049  0.42809  0.26042  1.0000
  C   C314      1.0  0.05265  0.44644  0.26761  1.0000
  H   H551      1.0  0.19576  0.42207  0.99209  1.0000
  H   H552      1.0  0.01427  0.41547  0.27462  1.0000
  C   C315      1.0  0.08029  0.36614  0.23638  1.0000
  C   C316      1.0  0.99631  0.45181  0.21479  1.0000
  H   H553      1.0  0.99153  0.40370  0.11586  1.0000
  H   H554      1.0  0.02293  0.45502  0.25718  1.0000
  H   H555      1.0  0.00980  0.28601  0.47163  1.0000
  H   H556      1.0  0.09464  0.37937  0.43495  1.0000
  H   H557      1.0  0.18102  0.46697  0.03379  1.0000
  H   H558      1.0  0.06837  0.37549  0.18801  1.0000
  H   H559      1.0  0.21778  0.44890  0.07248  1.0000
  H   H560      1.0  0.99676  0.45943  0.19377  1.0000
  H   H561      1.0  0.12679  0.40430  0.08190  1.0000
  C   C317      1.0  0.02935  0.46951  0.06068  1.0000
  C   C318      1.0  0.00404  0.31475  0.42248  1.0000
  C   C319      1.0  0.08240  0.46694  0.23732  1.0000
  H   H562      1.0  0.09024  0.38623  0.09714  1.0000
  C   C320      1.0  0.04717  0.39957  0.42538  1.0000
  H   H563      1.0  0.08564  0.46345  0.28455  1.0000
  H   H564      1.0  0.08394  0.39263  0.05159  1.0000
  C   C321      1.0  0.00974  0.37356  0.46205  1.0000
  H   H565      1.0  0.05335  0.46464  0.27304  1.0000
  H   H566      1.0  0.15381  0.39747  0.98908  1.0000
  H   H567      1.0  0.14083  0.41347  0.06087  1.0000
  H   H568      1.0  0.13779  0.42391  0.07245  1.0000
  H   H569      1.0  0.08635  0.43554  0.29655  1.0000
  H   H570      1.0  0.05019  0.45093  0.25768  1.0000
  H   H571      1.0  0.07307  0.38310  0.21177  1.0000
  H   H572      1.0  0.08441  0.41635  0.28076  1.0000
  H   H573      1.0  0.00375  0.31797  0.38252  1.0000
  C   C322      1.0  0.99124  0.42214  0.33254  1.0000
  H   H574      1.0  0.00028  0.35127  0.23125  1.0000
  H   H575      1.0  0.05168  0.38052  0.42022  1.0000
  H   H576      1.0  0.08929  0.39633  0.11585  1.0000
  C   C323      1.0  0.06972  0.43527  0.28040  1.0000
  H   H577      1.0  0.09374  0.37132  0.40979  1.0000
  H   H578      1.0  0.10709  0.38709  0.05408  1.0000
  H   H579      1.0  0.05374  0.47129  0.08310  1.0000
  C   C324      1.0  0.07055  0.41736  0.24206  1.0000
  H   H580      1.0  0.13464  0.36476  0.08251  1.0000
  H   H581      1.0  0.08109  0.42305  0.25971  1.0000
  H   H582      1.0  0.05268  0.46667  0.32521  1.0000
  H   H583      1.0  0.04667  0.45253  0.28685  1.0000
  H   H584      1.0  0.07312  0.39485  0.11562  1.0000
  H   H585      1.0  0.10843  0.40422  0.04668  1.0000
  C   C325      1.0  0.03298  0.46455  0.27494  1.0000
  H   H586      1.0  0.99628  0.24602  0.44830  1.0000
  H   H587      1.0  0.99307  0.42602  0.13289  1.0000
  Fe  Fe46      1.0  0.21906  0.44669  0.01154  1.0000
  C   C326      1.0  0.99286  0.42229  0.28217  1.0000
  H   H588      1.0  0.99702  0.37166  0.23891  1.0000
  H   H589      1.0  0.00582  0.38682  0.21930  1.0000
  C   C327      1.0  0.00617  0.39841  0.28448  1.0000
  H   H590      1.0  0.06689  0.45685  0.24071  1.0000
  N   N19       1.0  0.06824  0.38961  0.40933  1.0000
  H   H591      1.0  0.19369  0.45654  0.99569  1.0000
  H   H592      1.0  0.00793  0.44822  0.17470  1.0000
  C   C328      1.0  0.06779  0.36371  0.21518  1.0000
  H   H593      1.0  0.01512  0.39440  0.35275  1.0000
  C   C329      1.0  0.99783  0.23863  0.38584  1.0000
  H   H594      1.0  0.17056  0.41486  0.99000  1.0000
  H   H595      1.0  0.00265  0.36305  0.41070  1.0000
  H   H596      1.0  0.20896  0.40383  0.00610  1.0000
  C   C330      1.0  0.05493  0.37421  0.46565  1.0000
  H   H597      1.0  0.99851  0.39500  0.29321  1.0000
  C   C331      1.0  0.04239  0.47072  0.23282  1.0000
  H   H598      1.0  0.02130  0.30377  0.37241  1.0000
  C   C332      1.0  0.99038  0.35489  0.40365  1.0000
  C   C333      1.0  0.12179  0.47357  0.01082  1.0000
  S   S84       1.0  0.13690  0.46277  0.98957  1.0000
  H   H599      1.0  0.04744  0.34034  0.23368  1.0000
  C   C334      1.0  0.99124  0.45290  0.29574  1.0000
  H   H600      1.0  0.07182  0.37392  0.42669  1.0000
  H   H601      1.0  0.08864  0.35858  0.38975  1.0000
  H   H602      1.0  0.03466  0.24397  0.44220  1.0000
  H   H603      1.0  0.99863  0.39678  0.15237  1.0000
  S   S85       1.0  0.99623  0.43928  0.24093  1.0000
  H   H604      1.0  0.04179  0.34705  0.47240  1.0000
  H   H605      1.0  0.02154  0.27257  0.44783  1.0000
  C   C335      1.0  0.05556  0.47066  0.16271  1.0000
  H   H606      1.0  0.06052  0.36669  0.24803  1.0000
  H   H607      1.0  0.23259  0.43629  0.06852  1.0000
  H   H608      1.0  0.09521  0.39682  0.03584  1.0000
  H   H609      1.0  0.02041  0.37362  0.46003  1.0000
  H   H610      1.0  0.05674  0.46650  0.14328  1.0000
  H   H611      1.0  0.01530  0.39921  0.37409  1.0000
  C   C336      1.0  0.22054  0.47734  0.99831  1.0000
  H   H612      1.0  0.05839  0.31683  0.23439  1.0000
  C   C337      1.0  0.04618  0.36656  0.23070  1.0000
  H   H613      1.0  0.09637  0.41905  0.29595  1.0000
  C   C338      1.0  0.03727  0.36400  0.24496  1.0000
  C   C339      1.0  0.02271  0.36730  0.24439  1.0000
  H   H614      1.0  0.04278  0.36249  0.22403  1.0000
  H   H615      1.0  0.04380  0.37754  0.22690  1.0000
  H   H616      1.0  0.06161  0.37994  0.23389  1.0000
  H   H617      1.0  0.05737  0.38438  0.20832  1.0000
  H   H618      1.0  0.07797  0.40041  0.09123  1.0000
  H   H619      1.0  0.03842  0.37041  0.25092  1.0000
  H   H620      1.0  0.03964  0.35350  0.25040  1.0000
  H   H621      1.0  0.07396  0.38992  0.18772  1.0000
  H   H622      1.0  0.02085  0.36015  0.23973  1.0000
  H   H623      1.0  0.01646  0.36655  0.25467  1.0000
  H   H624      1.0  0.01984  0.37758  0.23852  1.0000
  H   H625      1.0  0.04807  0.39404  0.40705  1.0000
  H   H626      1.0  0.00769  0.26408  0.43824  1.0000
  H   H627      1.0  0.09422  0.37303  0.24268  1.0000
  C   C340      1.0  0.04189  0.46967  0.06504  1.0000
  H   H628      1.0  0.06181  0.33865  0.22024  1.0000
  C   C341      1.0  0.07778  0.35943  0.39212  1.0000
  C   C342      1.0  0.07245  0.38175  0.39856  1.0000
  H   H629      1.0  0.05175  0.39587  0.43419  1.0000
  C   C343      1.0  0.05841  0.33776  0.23120  1.0000
  H   H630      1.0  0.16437  0.38152  0.99401  1.0000
  H   H631      1.0  0.99888  0.39121  0.35945  1.0000
  H   H632      1.0  0.06573  0.40784  0.38385  1.0000
  C   C344      1.0  0.02988  0.45566  0.05896  1.0000
  C   C345      1.0  0.06345  0.41230  0.39265  1.0000
  H   H633      1.0  0.00912  0.40628  0.13275  1.0000
  C   C346      1.0  0.99126  0.27957  0.41291  1.0000
  S   S86       1.0  0.04435  0.24248  0.38668  1.0000
  H   H634      1.0  0.04326  0.46110  0.07367  1.0000
  H   H635      1.0  0.05034  0.46727  0.05668  1.0000
  H   H636      1.0  0.02636  0.45741  0.27812  1.0000
  C   C347      1.0  0.01721  0.27945  0.47739  1.0000
  C   C348      1.0  0.01750  0.39345  0.11890  1.0000
  H   H637      1.0  0.08282  0.38203  0.39306  1.0000
  H   H638      1.0  0.16918  0.46467  0.04901  1.0000
  C   C349      1.0  0.99963  0.41258  0.32552  1.0000
  H   H639      1.0  0.06645  0.38642  0.39083  1.0000
  H   H640      1.0  0.00827  0.41423  0.11588  1.0000
  C   C350      1.0  0.04911  0.48091  0.22619  1.0000
  H   H641      1.0  0.06133  0.43216  0.38000  1.0000
  H   H642      1.0  0.07343  0.38955  0.42751  1.0000
  H   H643      1.0  0.07820  0.37382  0.25393  1.0000
  C   C351      1.0  0.02353  0.29390  0.37918  1.0000
  C   C352      1.0  0.03220  0.28404  0.37062  1.0000
  C   C353      1.0  0.06705  0.42594  0.38762  1.0000
  H   H644      1.0  0.08383  0.35570  0.24151  1.0000
  H   H645      1.0  0.09304  0.36323  0.43418  1.0000
  C   C354      1.0  0.16312  0.39244  0.99258  1.0000
  C   C355      1.0  0.07133  0.40321  0.40324  1.0000
  H   H646      1.0  0.03865  0.45258  0.05119  1.0000
  H   H647      1.0  0.03030  0.44822  0.06856  1.0000
  H   H648      1.0  0.02083  0.45576  0.05588  1.0000
  N   N20       1.0  0.10549  0.40051  0.07499  1.0000
  C   C356      1.0  0.11392  0.41052  0.06735  1.0000
  C   C357      1.0  0.09579  0.40102  0.06695  1.0000
  C   C358      1.0  0.09752  0.40479  0.08779  1.0000
  C   C359      1.0  0.11362  0.38651  0.07846  1.0000
  C   C360      1.0  0.12709  0.38276  0.06869  1.0000
  C   C361      1.0  0.12219  0.41354  0.07549  1.0000
  C   C362      1.0  0.08653  0.39715  0.09612  1.0000
  C   C363      1.0  0.10171  0.39764  0.05304  1.0000
  C   C364      1.0  0.09078  0.39933  0.04579  1.0000
  C   C365      1.0  0.13309  0.36784  0.07213  1.0000
  C   C366      1.0  0.13310  0.42049  0.06637  1.0000
  C   C367      1.0  0.08134  0.39999  0.11014  1.0000
  H   H649      1.0  0.10763  0.42018  0.06344  1.0000
  H   H650      1.0  0.12066  0.40757  0.05822  1.0000
  H   H651      1.0  0.08931  0.39387  0.07238  1.0000
  H   H652      1.0  0.08908  0.41110  0.06557  1.0000
  H   H653      1.0  0.09268  0.41556  0.08560  1.0000
  H   H654      1.0  0.10412  0.40379  0.09453  1.0000
  H   H655      1.0  0.11605  0.38455  0.08840  1.0000
  H   H656      1.0  0.10768  0.37909  0.07962  1.0000
  H   H657      1.0  0.13431  0.38807  0.06931  1.0000
  H   H658      1.0  0.12622  0.38540  0.05815  1.0000
  H   H659      1.0  0.11566  0.42030  0.08206  1.0000
  H   H660      1.0  0.05921  0.32164  0.24896  1.0000
  H   H661      1.0  0.11041  0.48191  0.02784  1.0000
  H   H662      1.0  0.05798  0.43596  0.24549  1.0000
  H   H663      1.0  0.99834  0.26636  0.39904  1.0000
  C   C368      1.0  0.99770  0.36762  0.35207  1.0000
  H   H664      1.0  0.08601  0.44407  0.25424  1.0000
  H   H665      1.0  0.03365  0.46927  0.15958  1.0000
  C   C369      1.0  0.06760  0.37841  0.20765  1.0000
  C   C370      1.0  0.04005  0.47640  0.12528  1.0000
  C   C371      1.0  0.05038  0.47719  0.32068  1.0000
  H   H666      1.0  0.03127  0.48304  0.36546  1.0000
  C   C372      1.0  0.06768  0.47630  0.06441  1.0000
  S   S87       1.0  0.99723  0.43071  0.34044  1.0000
  C   C373      1.0  0.00129  0.36064  0.22365  1.0000
  H   H667      1.0  0.06325  0.35947  0.20961  1.0000
  C   C374      1.0  0.09690  0.37225  0.42836  1.0000
  H   H668      1.0  0.99419  0.48204  0.19221  1.0000
  H   H669      1.0  0.06934  0.46687  0.20062  1.0000
  N   N21       1.0  0.99181  0.43692  0.28115  1.0000
  H   H670      1.0  0.12359  0.45540  0.05705  1.0000
  S   S88       1.0  0.21315  0.43149  0.00501  1.0000
  H   H671      1.0  0.07205  0.46049  0.14890  1.0000
  C   C375      1.0  0.00649  0.41284  0.28350  1.0000
  H   H672      1.0  0.07486  0.26887  0.44467  1.0000
  H   H673      1.0  0.02940  0.29466  0.38585  1.0000
  H   H674      1.0  0.21863  0.45788  0.04805  1.0000
  C   C376      1.0  0.02549  0.47814  0.19932  1.0000
  C   C377      1.0  0.05490  0.37455  0.47864  1.0000
  H   H675      1.0  0.21761  0.43650  0.06409  1.0000
  C   C378      1.0  0.06425  0.34686  0.23596  1.0000
  H   H676      1.0  0.00078  0.27752  0.41585  1.0000
  Fe  Fe47      1.0  0.12337  0.42075  0.99573  1.0000
  C   C379      1.0  0.99697  0.30886  0.41571  1.0000
  C   C380      1.0  0.99070  0.26751  0.40825  1.0000
  C   C381      1.0  0.01082  0.28908  0.38760  1.0000
  C   C382      1.0  0.04511  0.45929  0.22778  1.0000
  H   H677      1.0  0.05871  0.38163  0.45733  1.0000
  H   H678      1.0  0.04159  0.28726  0.36524  1.0000
  H   H679      1.0  0.02793  0.40651  0.43749  1.0000
  H   H680      1.0  0.99428  0.40014  0.17502  1.0000
  C   C383      1.0  0.07099  0.36704  0.40324  1.0000
  H   H681      1.0  0.02151  0.44538  0.16076  1.0000
  H   H682      1.0  0.03468  0.27393  0.37699  1.0000
  H   H683      1.0  0.12863  0.45254  0.04034  1.0000
  H   H684      1.0  0.08031  0.38591  0.23826  1.0000
  C   C384      1.0  0.06521  0.36903  0.23720  1.0000
  H   H685      1.0  0.06716  0.47559  0.09962  1.0000
  H   H686      1.0  0.07297  0.47987  0.12980  1.0000
  C   C385      1.0  0.09078  0.37871  0.41616  1.0000
  H   H687      1.0  0.07830  0.35820  0.21389  1.0000
  H   H688      1.0  0.05143  0.46288  0.18947  1.0000
  H   H689      1.0  0.00956  0.42226  0.09015  1.0000
  C   C386      1.0  0.99419  0.40546  0.31994  1.0000
  C   C387      1.0  0.99245  0.47105  0.33779  1.0000
  H   H690      1.0  0.09442  0.39825  0.99072  1.0000
  C   C388      1.0  0.07552  0.38291  0.42047  1.0000
  C   C389      1.0  0.03242  0.39971  0.43047  1.0000
  C   C390      1.0  0.04212  0.48188  0.31160  1.0000
  H   H691      1.0  0.01289  0.46960  0.24848  1.0000
  H   H692      1.0  0.07517  0.34309  0.23386  1.0000
  C   C391      1.0  0.06172  0.46797  0.20956  1.0000
  C   C392      1.0  0.99285  0.40279  0.12609  1.0000
  H   H693      1.0  0.00631  0.28598  0.38107  1.0000
  H   H694      1.0  0.05263  0.41402  0.39678  1.0000
  C   C393      1.0  0.13333  0.47311  0.00074  1.0000
  H   H695      1.0  0.00603  0.25827  0.46210  1.0000
  C   C394      1.0  0.06316  0.46873  0.14849  1.0000
  C   C395      1.0  0.07155  0.27767  0.44930  1.0000
  H   H696      1.0  0.06876  0.46710  0.06103  1.0000
  C   C396      1.0  0.00702  0.40505  0.12370  1.0000
  H   H697      1.0  0.02749  0.39542  0.11713  1.0000
  H   H698      1.0  0.06121  0.34504  0.24707  1.0000
  H   H699      1.0  0.07366  0.31983  0.23543  1.0000
  H   H700      1.0  0.01612  0.39224  0.10941  1.0000
  C   C397      1.0  0.05076  0.47125  0.11583  1.0000
  H   H701      1.0  0.07393  0.48343  0.26595  1.0000
  H   H702      1.0  0.01697  0.38406  0.12661  1.0000
  H   H703      1.0  0.06037  0.36669  0.40600  1.0000
  H   H704      1.0  0.07775  0.42490  0.38289  1.0000
  H   H705      1.0  0.08196  0.40225  0.39818  1.0000
  C   C398      1.0  0.99878  0.42394  0.19127  1.0000
  H   H706      1.0  0.99773  0.35691  0.35361  1.0000
  H   H707      1.0  0.03093  0.38958  0.43590  1.0000
  H   H708      1.0  0.02728  0.40324  0.42203  1.0000
  H   H709      1.0  0.16227  0.39465  0.00240  1.0000
  H   H710      1.0  0.01792  0.28297  0.43227  1.0000
  H   H711      1.0  0.08042  0.28084  0.44955  1.0000
  S   S89       1.0  0.22022  0.43418  0.03198  1.0000
  C   C399      1.0  0.22370  0.44289  0.06500  1.0000
  H   H712      1.0  0.00949  0.41321  0.29248  1.0000
  H   H713      1.0  0.18867  0.40750  0.99823  1.0000
  H   H714      1.0  0.07874  0.46528  0.07980  1.0000
  H   H715      1.0  0.99585  0.24065  0.47198  1.0000
  C   C400      1.0  0.99425  0.35844  0.41343  1.0000
  C   C401      1.0  0.99619  0.31180  0.38589  1.0000
  H   H716      1.0  0.14607  0.46026  0.05419  1.0000
  S   S90       1.0  0.99266  0.35938  0.43920  1.0000
  C   C402      1.0  0.22878  0.47942  0.03397  1.0000
  C   C403      1.0  0.11938  0.48146  0.02010  1.0000
  H   H717      1.0  0.99946  0.41127  0.21674  1.0000
  H   H718      1.0  0.07415  0.46433  0.30040  1.0000
  C   C404      1.0  0.00682  0.30167  0.40489  1.0000
  H   H719      1.0  0.99518  0.27916  0.43927  1.0000
  H   H720      1.0  0.02919  0.47175  0.28157  1.0000
  H   H721      1.0  0.01039  0.47506  0.33919  1.0000
  H   H722      1.0  0.16103  0.48119  0.02283  1.0000
  H   H723      1.0  0.00058  0.39782  0.31483  1.0000
  H   H724      1.0  0.03191  0.47616  0.20646  1.0000
  H   H725      1.0  0.15121  0.47992  0.03947  1.0000
  H   H726      1.0  0.18043  0.46564  0.98737  1.0000
  C   C405      1.0  0.23031  0.47197  0.98832  1.0000
  H   H727      1.0  0.23340  0.44540  0.04439  1.0000
  C   C406      1.0  0.03535  0.24395  0.46221  1.0000
  H   H728      1.0  0.99381  0.45861  0.25738  1.0000
  H   H729      1.0  0.99773  0.44773  0.31440  1.0000
  Fe  Fe48      1.0  0.23507  0.42433  0.99814  1.0000
  H   H730      1.0  0.22438  0.47366  0.02978  1.0000
  H   H731      1.0  0.02162  0.27032  0.47332  1.0000
  C   C407      1.0  0.05413  0.47969  0.07413  1.0000
  H   H732      1.0  0.23134  0.46609  0.06046  1.0000
  H   H733      1.0  0.02856  0.47659  0.05097  1.0000
  H   H734      1.0  0.99569  0.37449  0.33123  1.0000
  C   C408      1.0  0.16145  0.47951  0.03336  1.0000
  H   H735      1.0  0.03473  0.47822  0.34976  1.0000
  H   H736      1.0  0.99430  0.41433  0.15253  1.0000
  H   H737      1.0  0.02576  0.47680  0.08483  1.0000
  H   H738      1.0  0.22959  0.46316  0.98578  1.0000
  H   H739      1.0  0.99438  0.41011  0.08709  1.0000
  C   C409      1.0  0.99354  0.37260  0.22977  1.0000
  H   H740      1.0  0.06108  0.30711  0.47930  1.0000
  C   C410      1.0  0.99044  0.40516  0.15514  1.0000
  C   C411      1.0  0.05863  0.47970  0.21437  1.0000
  H   H741      1.0  0.99275  0.39224  0.13138  1.0000
  C   C412      1.0  0.99434  0.43977  0.09308  1.0000
  H   H742      1.0  0.99507  0.27352  0.46464  1.0000
  H   H743      1.0  0.98885  0.46797  0.34876  1.0000
  H   H744      1.0  0.19326  0.48420  0.98273  1.0000
  C   C413      1.0  0.99083  0.45600  0.20347  1.0000
  H   H745      1.0  0.99374  0.33124  0.36264  1.0000
  C   C414      1.0  0.98885  0.44670  0.22724  1.0000
  H   H746      1.0  0.99250  0.37085  0.36157  1.0000
  C   C415      1.0  0.98734  0.35587  0.42677  1.0000
  C   C416      1.0  0.99194  0.23855  0.37575  1.0000
  H   H747      1.0  0.13157  0.47910  0.07533  1.0000
  C   C417      1.0  0.12351  0.47875  0.07093  1.0000
  H   H748      1.0  0.12700  0.48035  0.05990  1.0000
  C   C418      1.0  0.98883  0.29278  0.40230  1.0000
  C   C419      1.0  0.00183  0.48046  0.33454  1.0000
  H   H749      1.0  0.98731  0.31788  0.39135  1.0000
  H   H750      1.0  0.00775  0.47912  0.30007  1.0000
  H   H751      1.0  0.98954  0.31716  0.41139  1.0000
  C   C420      1.0  0.99040  0.41044  0.21422  1.0000
  H   H752      1.0  0.00550  0.48260  0.32359  1.0000
  H   H753      1.0  0.18395  0.39135  0.98613  1.0000
  C   C421      1.0  0.98982  0.37544  0.34141  1.0000
  H   H754      1.0  0.99089  0.43293  0.19275  1.0000
  H   H755      1.0  0.98772  0.34710  0.46882  1.0000
  C   C422      1.0  0.98911  0.45391  0.31020  1.0000
  C   C423      1.0  0.99161  0.43865  0.29476  1.0000
  H   H756      1.0  0.17940  0.43375  0.98228  1.0000
  H   H757      1.0  0.99031  0.48193  0.28855  1.0000
  C   C424      1.0  0.99057  0.42000  0.08907  1.0000
  C   C425      1.0  0.17497  0.39702  0.98233  1.0000
  H   H758      1.0  0.09183  0.46557  0.98208  1.0000
  H   H759      1.0  0.07870  0.48291  0.07474  1.0000
  N   N22       1.0  0.04196  0.48239  0.06855  1.0000
  H   H760      1.0  0.07545  0.48308  0.14452  1.0000
  H   H761      1.0  0.98804  0.46439  0.31065  1.0000
  H   H762      1.0  0.98704  0.42898  0.11844  1.0000
  H   H763      1.0  0.06891  0.48457  0.05552  1.0000
  N   N23       1.0  0.04953  0.28403  0.48393  1.0000
  H   H764      1.0  0.20725  0.40469  0.95218  1.0000
  C   C426      1.0  0.08718  0.32745  0.55662  1.0000
  H   H765      1.0  0.02272  0.46127  0.76719  1.0000
  H   H766      1.0  0.20083  0.40070  0.97606  1.0000
  Fe  Fe49      1.0  0.05353  0.43566  0.83062  1.0000
  S   S91       1.0  0.03635  0.45117  0.82391  1.0000
  S   S92       1.0  0.06020  0.44148  0.84621  1.0000
  Fe  Fe50      1.0  0.05209  0.41800  0.81330  1.0000
  S   S93       1.0  0.03468  0.43183  0.80578  1.0000
  S   S94       1.0  0.06119  0.39899  0.80601  1.0000
  Fe  Fe51      1.0  0.04569  0.44735  0.80359  1.0000
  S   S95       1.0  0.04669  0.46351  0.78524  1.0000
  Fe  Fe52      1.0  0.02677  0.43429  0.82689  1.0000
  S   S96       1.0  0.00529  0.43737  0.83740  1.0000
  S   S97       1.0  0.06387  0.43348  0.80962  1.0000
  S   S98       1.0  0.04317  0.41888  0.83497  1.0000
  Fe  Fe53      1.0  0.13323  0.42402  0.90482  1.0000
  S   S99       1.0  0.12186  0.44288  0.91124  1.0000
  S   S100      1.0  0.15075  0.41486  0.91439  1.0000
  Fe  Fe54      1.0  0.11251  0.42492  0.88963  1.0000
  S   S101      1.0  0.09949  0.44366  0.89559  1.0000
  S   S102      1.0  0.10825  0.41505  0.87547  1.0000
  Fe  Fe55      1.0  0.11858  0.45030  0.89048  1.0000
  S   S103      1.0  0.12008  0.47071  0.87804  1.0000
  Fe  Fe56      1.0  0.10421  0.43421  0.91585  1.0000
  S   S104      1.0  0.09150  0.43581  0.93626  1.0000
  S   S105      1.0  0.13152  0.43215  0.88349  1.0000
  S   S106      1.0  0.11560  0.41474  0.91047  1.0000
  S   S107      1.0  0.02240  0.24759  0.52347  1.0000
  Fe  Fe57      1.0  0.04683  0.32104  0.53625  1.0000
  S   S108      1.0  0.03313  0.33658  0.52450  1.0000
  S   S109      1.0  0.05547  0.30249  0.52784  1.0000
  Fe  Fe58      1.0  0.04661  0.33995  0.55335  1.0000
  S   S110      1.0  0.03334  0.35691  0.54255  1.0000
  S   S111      1.0  0.05225  0.34206  0.57150  1.0000
  Fe  Fe59      1.0  0.02222  0.34168  0.54412  1.0000
  S   S112      1.0  0.00032  0.34825  0.54933  1.0000
  Fe  Fe60      1.0  0.04551  0.35035  0.52381  1.0000
  S   S113      1.0  0.05086  0.36601  0.50552  1.0000
  S   S114      1.0  0.03454  0.32482  0.55624  1.0000
  S   S115      1.0  0.06016  0.33470  0.53435  1.0000
  Fe  Fe61      1.0  0.03597  0.40488  0.62452  1.0000
  S   S116      1.0  0.05517  0.39169  0.61675  1.0000
  S   S117      1.0  0.01850  0.39816  0.63920  1.0000
  Fe  Fe62      1.0  0.04382  0.43029  0.60702  1.0000
  S   S118      1.0  0.06365  0.41943  0.59761  1.0000
  S   S119      1.0  0.03464  0.45213  0.60258  1.0000
  Fe  Fe63      1.0  0.05293  0.40455  0.59654  1.0000
  S   S120      1.0  0.05523  0.39859  0.57704  1.0000
  Fe  Fe64      1.0  0.06396  0.40766  0.61865  1.0000
  S   S121      1.0  0.08230  0.40277  0.62672  1.0000
  S   S122      1.0  0.03302  0.41656  0.60430  1.0000
  S   S123      1.0  0.04487  0.41970  0.62809  1.0000
  Fe  Fe65      1.0  0.06911  0.41962  0.69700  1.0000
  S   S124      1.0  0.04775  0.42900  0.69760  1.0000
  S   S125      1.0  0.08481  0.42001  0.67795  1.0000
  Fe  Fe66      1.0  0.06491  0.41214  0.72765  1.0000
  S   S126      1.0  0.04315  0.42096  0.73071  1.0000
  S   S127      1.0  0.07642  0.40138  0.74372  1.0000
  Fe  Fe67      1.0  0.04403  0.41144  0.71417  1.0000
  S   S128      1.0  0.02930  0.40036  0.71418  1.0000
  Fe  Fe68      1.0  0.04909  0.43769  0.71384  1.0000
  S   S129      1.0  0.03877  0.45891  0.71408  1.0000
  S   S130      1.0  0.06538  0.40115  0.71233  1.0000
  S   S131      1.0  0.07084  0.42968  0.71208  1.0000
  C   C427      1.0  0.05810  0.25985  0.49726  1.0000
  C   C428      1.0  0.99248  0.42162  0.81432  1.0000
  H   H767      1.0  0.03666  0.29636  0.49744  1.0000
  H   H768      1.0  0.00992  0.38091  0.56294  1.0000
  H   H769      1.0  0.16068  0.46252  0.96088  1.0000
  H   H770      1.0  0.04142  0.32416  0.48721  1.0000
  H   H771      1.0  0.10075  0.36517  0.96866  1.0000
  C   C429      1.0  0.00113  0.46902  0.77011  1.0000
  H   H772      1.0  0.10420  0.34352  0.52651  1.0000
  H   H773      1.0  0.99411  0.28503  0.56636  1.0000
  C   C430      1.0  0.00760  0.24127  0.57860  1.0000
  H   H774      1.0  0.01484  0.48412  0.58602  1.0000
  H   H775      1.0  0.13153  0.34239  0.53079  1.0000
  C   C431      1.0  0.99076  0.42740  0.70481  1.0000
  C   C432      1.0  0.05647  0.27787  0.54472  1.0000
  H   H776      1.0  0.07555  0.36221  0.51722  1.0000
  C   C433      1.0  0.07463  0.47177  0.63017  1.0000
  C   C434      1.0  0.11770  0.48195  0.94502  1.0000
  C   C435      1.0  0.01494  0.41108  0.70976  1.0000
  C   C436      1.0  0.01227  0.42471  0.70942  1.0000
  C   C437      1.0  0.00013  0.43288  0.70701  1.0000
  C   C438      1.0  0.11085  0.34191  0.53332  1.0000
  H   H777      1.0  0.04415  0.45938  0.75925  1.0000
  C   C439      1.0  0.00587  0.40580  0.70687  1.0000
  H   H778      1.0  0.01934  0.42889  0.71147  1.0000
  H   H779      1.0  0.99779  0.44330  0.70734  1.0000
  N   N24       1.0  0.00168  0.36042  0.50086  1.0000
  H   H780      1.0  0.00796  0.39530  0.70693  1.0000
  C   C440      1.0  0.04791  0.46874  0.71674  1.0000
  H   H781      1.0  0.00446  0.46785  0.89222  1.0000
  H   H782      1.0  0.10348  0.40096  0.96217  1.0000
  H   H783      1.0  0.10241  0.47198  0.82282  1.0000
  C   C441      1.0  0.06870  0.47410  0.71558  1.0000
  C   C442      1.0  0.06175  0.46558  0.71390  1.0000
  H   H784      1.0  0.98935  0.45005  0.77014  1.0000
  H   H785      1.0  0.15046  0.44121  0.92854  1.0000
  H   H786      1.0  0.07938  0.47199  0.71282  1.0000
  H   H787      1.0  0.06712  0.45694  0.70990  1.0000
  C   C443      1.0  0.04421  0.46342  0.60132  1.0000
  C   C444      1.0  0.03766  0.47607  0.60359  1.0000
  H   H788      1.0  0.99464  0.44344  0.65970  1.0000
  H   H789      1.0  0.08967  0.45161  0.97713  1.0000
  C   C445      1.0  0.06520  0.46999  0.59603  1.0000
  C   C446      1.0  0.05803  0.46024  0.59777  1.0000
  H   H790      1.0  0.02702  0.47835  0.60671  1.0000
  C   C447      1.0  0.06846  0.25195  0.50546  1.0000
  H   H791      1.0  0.07588  0.46764  0.59301  1.0000
  H   H792      1.0  0.06316  0.45045  0.59603  1.0000
  C   C448      1.0  0.08221  0.40784  0.64110  1.0000
  C   C449      1.0  0.07051  0.41298  0.64957  1.0000
  C   C450      1.0  0.07102  0.41641  0.66123  1.0000
  C   C451      1.0  0.08329  0.41513  0.66411  1.0000
  C   C452      1.0  0.09491  0.41038  0.65540  1.0000
  C   C453      1.0  0.09437  0.40655  0.64410  1.0000
  H   H793      1.0  0.06115  0.41422  0.64713  1.0000
  H   H794      1.0  0.06201  0.42031  0.66782  1.0000
  H   H795      1.0  0.10441  0.40947  0.65749  1.0000
  H   H796      1.0  0.10345  0.40267  0.63758  1.0000
  H   H797      1.0  0.00590  0.38494  0.50295  1.0000
  N   N25       1.0  0.09144  0.35155  0.55130  1.0000
  H   H798      1.0  0.12431  0.34111  0.96856  1.0000
  C   C454      1.0  0.01076  0.39296  0.62981  1.0000
  C   C455      1.0  0.01833  0.38855  0.61829  1.0000
  C   C456      1.0  0.01217  0.38624  0.60953  1.0000
  H   H799      1.0  0.03734  0.26639  0.52571  1.0000
  H   H800      1.0  0.03542  0.48204  0.85644  1.0000
  H   H801      1.0  0.02897  0.38720  0.61593  1.0000
  H   H802      1.0  0.01810  0.38313  0.60048  1.0000
  H   H803      1.0  0.98913  0.37457  0.55747  1.0000
  H   H804      1.0  0.01394  0.40216  0.83630  1.0000
  H   H805      1.0  0.11665  0.48456  0.81991  1.0000
  H   H806      1.0  0.17114  0.48313  0.85180  1.0000
  H   H807      1.0  0.04207  0.34742  0.49566  1.0000
  C   C457      1.0  0.05156  0.35811  0.57349  1.0000
  C   C458      1.0  0.05332  0.35958  0.58551  1.0000
  C   C459      1.0  0.05366  0.37211  0.58705  1.0000
  C   C460      1.0  0.05292  0.38313  0.57632  1.0000
  C   C461      1.0  0.05122  0.38165  0.56429  1.0000
  C   C462      1.0  0.05024  0.36928  0.56299  1.0000
  H   H808      1.0  0.05455  0.35097  0.59364  1.0000
  H   H809      1.0  0.05506  0.37312  0.59633  1.0000
  H   H810      1.0  0.05080  0.39008  0.55588  1.0000
  H   H811      1.0  0.04898  0.36830  0.55365  1.0000
  H   H812      1.0  0.98981  0.35293  0.61719  1.0000
  S   S132      1.0  0.04798  0.24322  0.54503  1.0000
  H   H813      1.0  0.03904  0.29008  0.52033  1.0000
  C   C463      1.0  0.10137  0.42939  0.94820  1.0000
  C   C464      1.0  0.11446  0.42260  0.94459  1.0000
  C   C465      1.0  0.12221  0.41694  0.95417  1.0000
  C   C466      1.0  0.11700  0.41819  0.96740  1.0000
  C   C467      1.0  0.10399  0.42523  0.97104  1.0000
  C   C468      1.0  0.09614  0.43073  0.96146  1.0000
  H   H814      1.0  0.11865  0.42144  0.93444  1.0000
  H   H815      1.0  0.13230  0.41166  0.95126  1.0000
  H   H816      1.0  0.02701  0.28171  0.55632  1.0000
  H   H817      1.0  0.08598  0.43591  0.96433  1.0000
  C   C469      1.0  0.16609  0.41849  0.90521  1.0000
  C   C470      1.0  0.16972  0.41981  0.89135  1.0000
  H   H818      1.0  0.16288  0.41895  0.88607  1.0000
  C   C471      1.0  0.10424  0.39021  0.96683  1.0000
  H   H819      1.0  0.15453  0.38110  0.94787  1.0000
  H   H820      1.0  0.07795  0.47296  0.61909  1.0000
  H   H821      1.0  0.13662  0.46081  0.89729  1.0000
  C   C472      1.0  0.07350  0.43357  0.85430  1.0000
  C   C473      1.0  0.08334  0.42288  0.85038  1.0000
  C   C474      1.0  0.09393  0.41726  0.85696  1.0000
  C   C475      1.0  0.09478  0.42230  0.86746  1.0000
  C   C476      1.0  0.08486  0.43291  0.87141  1.0000
  C   C477      1.0  0.07431  0.43852  0.86484  1.0000
  H   H822      1.0  0.08285  0.41900  0.84225  1.0000
  H   H823      1.0  0.10153  0.40900  0.85388  1.0000
  H   H824      1.0  0.08527  0.43678  0.87956  1.0000
  H   H825      1.0  0.06672  0.44677  0.86794  1.0000
  C   C478      1.0  0.06436  0.39984  0.78868  1.0000
  C   C479      1.0  0.07383  0.38962  0.78347  1.0000
  C   C480      1.0  0.07707  0.39011  0.76973  1.0000
  C   C481      1.0  0.07048  0.40053  0.76104  1.0000
  C   C482      1.0  0.06050  0.41050  0.76626  1.0000
  C   C483      1.0  0.05771  0.41034  0.78005  1.0000
  H   H826      1.0  0.07902  0.38148  0.79003  1.0000
  H   H827      1.0  0.08483  0.38242  0.76577  1.0000
  H   H828      1.0  0.05544  0.41862  0.75960  1.0000
  H   H829      1.0  0.05052  0.41832  0.78400  1.0000
  H   H830      1.0  0.08999  0.39885  0.92395  1.0000
  H   H831      1.0  0.98702  0.40989  0.70188  1.0000
  C   C484      1.0  0.19761  0.41134  0.97659  1.0000
  H   H832      1.0  0.02898  0.38398  0.66526  1.0000
  H   H833      1.0  0.10797  0.34134  0.96690  1.0000
  H   H834      1.0  0.01536  0.31819  0.50987  1.0000
  H   H835      1.0  0.07187  0.46867  0.76950  1.0000
  C   C485      1.0  0.05701  0.47257  0.78702  1.0000
  C   C486      1.0  0.03168  0.27758  0.57548  1.0000
  H   H836      1.0  0.10096  0.40586  0.93762  1.0000
  C   C487      1.0  0.00458  0.32186  0.51347  1.0000
  H   H837      1.0  0.00604  0.33525  0.57477  1.0000
  C   C488      1.0  0.00065  0.42547  0.82002  1.0000
  C   C489      1.0  0.99512  0.43303  0.82977  1.0000
  H   H838      1.0  0.14044  0.43447  0.85431  1.0000
  C   C490      1.0  0.04852  0.26026  0.54104  1.0000
  N   N26       1.0  0.99705  0.34484  0.59146  1.0000
  H   H839      1.0  0.01124  0.42237  0.81706  1.0000
  C   C491      1.0  0.19607  0.40359  0.93898  1.0000
  H   H840      1.0  0.00330  0.35802  0.57265  1.0000
  H   H841      1.0  0.07710  0.36383  0.56409  1.0000
  N   N27       1.0  0.02449  0.38350  0.83044  1.0000
  C   C492      1.0  0.03724  0.38592  0.83152  1.0000
  C   C493      1.0  0.02295  0.38896  0.81616  1.0000
  C   C494      1.0  0.01328  0.39148  0.83911  1.0000
  C   C495      1.0  0.02374  0.36898  0.83503  1.0000
  C   C496      1.0  0.03695  0.35848  0.83273  1.0000
  C   C497      1.0  0.03942  0.38305  0.84591  1.0000
  C   C498      1.0  0.03327  0.38208  0.80541  1.0000
  C   C499      1.0  0.03171  0.38973  0.79134  1.0000
  C   C500      1.0  0.03442  0.34451  0.83555  1.0000
  C   C501      1.0  0.05401  0.38111  0.84587  1.0000
  H   H842      1.0  0.03778  0.39651  0.82694  1.0000
  H   H843      1.0  0.04594  0.38013  0.82559  1.0000
  H   H844      1.0  0.01327  0.38819  0.81510  1.0000
  H   H845      1.0  0.01944  0.36651  0.84597  1.0000
  H   H846      1.0  0.01675  0.36701  0.83023  1.0000
  H   H847      1.0  0.04315  0.35822  0.83955  1.0000
  H   H848      1.0  0.04289  0.36062  0.82242  1.0000
  H   H849      1.0  0.03381  0.39163  0.85057  1.0000
  H   H850      1.0  0.03591  0.37405  0.85232  1.0000
  H   H851      1.0  0.04356  0.38141  0.80589  1.0000
  H   H852      1.0  0.03178  0.37193  0.80663  1.0000
  H   H853      1.0  0.02159  0.39069  0.79008  1.0000
  H   H854      1.0  0.03375  0.39978  0.78935  1.0000
  H   H855      1.0  0.03897  0.38439  0.78386  1.0000
  H   H856      1.0  0.04401  0.33718  0.83416  1.0000
  H   H857      1.0  0.02885  0.34169  0.84600  1.0000
  H   H858      1.0  0.02874  0.34401  0.82855  1.0000
  H   H859      1.0  0.05993  0.37205  0.84216  1.0000
  H   H860      1.0  0.05797  0.38985  0.83937  1.0000
  H   H861      1.0  0.05516  0.37993  0.85618  1.0000
  C   C502      1.0  0.09075  0.37169  0.57720  1.0000
  H   H862      1.0  0.09466  0.35089  0.57749  1.0000
  H   H863      1.0  0.09142  0.38140  0.57007  1.0000
  H   H864      1.0  0.08034  0.37207  0.58273  1.0000
  H   H865      1.0  0.09686  0.37019  0.58453  1.0000
  H   H866      1.0  0.18539  0.42221  0.87374  1.0000
  C   C503      1.0  0.99811  0.33430  0.58406  1.0000
  C   C504      1.0  0.21492  0.44323  0.96058  1.0000
  C   C505      1.0  0.03788  0.27835  0.48491  1.0000
  H   H867      1.0  0.01000  0.43397  0.61930  1.0000
  C   C506      1.0  0.04245  0.26958  0.53121  1.0000
  H   H868      1.0  0.07161  0.35439  0.54889  1.0000
  H   H869      1.0  0.19794  0.46966  0.85036  1.0000
  H   H870      1.0  0.16246  0.44079  0.86148  1.0000
  H   H871      1.0  0.00093  0.47049  0.82024  1.0000
  H   H872      1.0  0.09037  0.36988  0.52624  1.0000
  C   C507      1.0  0.00166  0.33625  0.51495  1.0000
  H   H873      1.0  0.07854  0.25280  0.49951  1.0000
  H   H874      1.0  0.01320  0.39238  0.57810  1.0000
  C   C508      1.0  0.11666  0.35771  0.95348  1.0000
  H   H875      1.0  0.06015  0.25737  0.55544  1.0000
  C   C509      1.0  0.08417  0.40281  0.93292  1.0000
  H   H876      1.0  0.01683  0.44146  0.86105  1.0000
  H   H877      1.0  0.01734  0.34282  0.49866  1.0000
  H   H878      1.0  0.20356  0.39494  0.93577  1.0000
  H   H879      1.0  0.01843  0.26578  0.54437  1.0000
  H   H880      1.0  0.01625  0.48463  0.69434  1.0000
  H   H881      1.0  0.99685  0.41563  0.80692  1.0000
  H   H882      1.0  0.00693  0.33629  0.52246  1.0000
  C   C510      1.0  0.05061  0.28714  0.53475  1.0000
  H   H883      1.0  0.00273  0.34292  0.49392  1.0000
  H   H884      1.0  0.17855  0.44820  0.89209  1.0000
  H   H885      1.0  0.01876  0.47994  0.87404  1.0000
  H   H886      1.0  0.01050  0.24724  0.55746  1.0000
  H   H887      1.0  0.11466  0.47760  0.85056  1.0000
  H   H888      1.0  0.98884  0.33568  0.58075  1.0000
  H   H889      1.0  0.13632  0.46147  0.95168  1.0000
  H   H890      1.0  0.04089  0.43371  0.87395  1.0000
  H   H891      1.0  0.06144  0.36877  0.52924  1.0000
  H   H892      1.0  0.16535  0.45500  0.91796  1.0000
  H   H893      1.0  0.01333  0.28654  0.56936  1.0000
  H   H894      1.0  0.22178  0.44121  0.97823  1.0000
  C   C511      1.0  0.04163  0.36744  0.64932  1.0000
  H   H895      1.0  0.00765  0.45177  0.61653  1.0000
  H   H896      1.0  0.01430  0.44109  0.63056  1.0000
  H   H897      1.0  0.09840  0.31055  0.56875  1.0000
  N   N28       1.0  0.11800  0.46785  0.94470  1.0000
  H   H898      1.0  0.02508  0.45148  0.68538  1.0000
  H   H899      1.0  0.99946  0.27413  0.58927  1.0000
  N   N29       1.0  0.10860  0.38215  0.95621  1.0000
  C   C512      1.0  0.12133  0.38536  0.94709  1.0000
  H   H900      1.0  0.12177  0.46578  0.92418  1.0000
  C   C513      1.0  0.11045  0.36757  0.96294  1.0000
  H   H901      1.0  0.01680  0.47526  0.77495  1.0000
  C   C514      1.0  0.13355  0.38114  0.95352  1.0000
  C   C515      1.0  0.09287  0.40056  0.94278  1.0000
  C   C516      1.0  0.04554  0.35495  0.48731  1.0000
  C   C517      1.0  0.14596  0.38401  0.94306  1.0000
  H   H902      1.0  0.12006  0.39624  0.94289  1.0000
  H   H903      1.0  0.12398  0.38096  0.93815  1.0000
  H   H904      1.0  0.10748  0.46824  0.73712  1.0000
  H   H905      1.0  0.09019  0.48428  0.91320  1.0000
  H   H906      1.0  0.06832  0.27628  0.49010  1.0000
  H   H907      1.0  0.12673  0.35892  0.94780  1.0000
  C   C518      1.0  0.99287  0.33508  0.55161  1.0000
  H   H908      1.0  0.13207  0.38676  0.96130  1.0000
  H   H909      1.0  0.13562  0.37036  0.95814  1.0000
  H   H910      1.0  0.99653  0.39617  0.82926  1.0000
  H   H911      1.0  0.08674  0.40529  0.95117  1.0000
  H   H912      1.0  0.04417  0.47792  0.80506  1.0000
  H   H913      1.0  0.03469  0.47117  0.67961  1.0000
  H   H914      1.0  0.09007  0.46544  0.95386  1.0000
  C   C519      1.0  0.02237  0.47343  0.85028  1.0000
  H   H915      1.0  0.99642  0.39302  0.78233  1.0000
  H   H916      1.0  0.14459  0.39480  0.93837  1.0000
  H   H917      1.0  0.00354  0.24513  0.58781  1.0000
  H   H918      1.0  0.08552  0.30680  0.56362  1.0000
  C   C520      1.0  0.08610  0.46282  0.83417  1.0000
  H   H919      1.0  0.99941  0.41057  0.76150  1.0000
  N   N30       1.0  0.17840  0.46514  0.87542  1.0000
  C   C521      1.0  0.00111  0.31959  0.59193  1.0000
  H   H920      1.0  0.01106  0.27726  0.52210  1.0000
  H   H921      1.0  0.00856  0.46158  0.68818  1.0000
  C   C522      1.0  0.05033  0.36491  0.48952  1.0000
  C   C523      1.0  0.08165  0.35480  0.54254  1.0000
  H   H922      1.0  0.11246  0.33139  0.53890  1.0000
  H   H923      1.0  0.08683  0.48088  0.77261  1.0000
  H   H924      1.0  0.08030  0.41368  0.92960  1.0000
  H   H925      1.0  0.14823  0.37833  0.93514  1.0000
  C   C524      1.0  0.01435  0.35387  0.59762  1.0000
  H   H926      1.0  0.12329  0.35445  0.51835  1.0000
  H   H927      1.0  0.00624  0.45449  0.80650  1.0000
  H   H928      1.0  0.01822  0.35981  0.58762  1.0000
  H   H929      1.0  0.07565  0.39794  0.93770  1.0000
  H   H930      1.0  0.20666  0.45135  0.96273  1.0000
  H   H931      1.0  0.01207  0.27663  0.48801  1.0000
  H   H932      1.0  0.01406  0.38798  0.84975  1.0000
  N   N31       1.0  0.06929  0.45922  0.63640  1.0000
  C   C525      1.0  0.05488  0.46205  0.63594  1.0000
  C   C526      1.0  0.07675  0.44897  0.62813  1.0000
  C   C527      1.0  0.07149  0.45353  0.65042  1.0000
  C   C528      1.0  0.06452  0.46238  0.66070  1.0000
  C   C529      1.0  0.04826  0.44992  0.64046  1.0000
  C   C530      1.0  0.09206  0.44557  0.62597  1.0000
  C   C531      1.0  0.06666  0.45500  0.67466  1.0000
  C   C532      1.0  0.03341  0.45443  0.64093  1.0000
  C   C533      1.0  0.09840  0.43692  0.61565  1.0000
  H   H933      1.0  0.05371  0.46688  0.62552  1.0000
  H   H934      1.0  0.04876  0.46934  0.64200  1.0000
  H   H935      1.0  0.07423  0.45223  0.61811  1.0000
  H   H936      1.0  0.07373  0.43928  0.63280  1.0000
  H   H937      1.0  0.06870  0.44372  0.65448  1.0000
  H   H938      1.0  0.08220  0.45134  0.65037  1.0000
  H   H939      1.0  0.05372  0.46539  0.66134  1.0000
  H   H940      1.0  0.06877  0.47133  0.65804  1.0000
  H   H941      1.0  0.05247  0.44330  0.63324  1.0000
  H   H942      1.0  0.04958  0.44407  0.65053  1.0000
  H   H943      1.0  0.09510  0.43986  0.63544  1.0000
  H   H944      1.0  0.09623  0.45462  0.62232  1.0000
  H   H945      1.0  0.06118  0.46130  0.68201  1.0000
  H   H946      1.0  0.06303  0.44567  0.67775  1.0000
  H   H947      1.0  0.07734  0.45248  0.67482  1.0000
  H   H948      1.0  0.03158  0.46056  0.63109  1.0000
  H   H949      1.0  0.02904  0.44560  0.64328  1.0000
  H   H950      1.0  0.02841  0.46031  0.64873  1.0000
  H   H951      1.0  0.10928  0.43412  0.61467  1.0000
  H   H952      1.0  0.09459  0.42764  0.61876  1.0000
  H   H953      1.0  0.09628  0.44244  0.60573  1.0000
  H   H954      1.0  0.01228  0.46042  0.58220  1.0000
  C   C534      1.0  0.00531  0.43352  0.74191  1.0000
  H   H955      1.0  0.12811  0.33708  0.51775  1.0000
  H   H956      1.0  0.06797  0.24127  0.50837  1.0000
  H   H957      1.0  0.09960  0.33416  0.56517  1.0000
  H   H958      1.0  0.05470  0.47852  0.83862  1.0000
  H   H959      1.0  0.01062  0.42609  0.73573  1.0000
  H   H960      1.0  0.17226  0.44117  0.95466  1.0000
  H   H961      1.0  0.99304  0.42164  0.55706  1.0000
  H   H962      1.0  0.16983  0.47502  0.90078  1.0000
  H   H963      1.0  0.99247  0.38089  0.51692  1.0000
  H   H964      1.0  0.20592  0.41599  0.97002  1.0000
  S   S133      1.0  0.99107  0.38774  0.59980  1.0000
  C   C535      1.0  0.10978  0.46172  0.95776  1.0000
  C   C536      1.0  0.13214  0.46002  0.94388  1.0000
  C   C537      1.0  0.09106  0.38840  0.97697  1.0000
  H   H965      1.0  0.12235  0.33643  0.95439  1.0000
  C   C538      1.0  0.23267  0.48400  0.88644  1.0000
  C   C539      1.0  0.13420  0.44477  0.94544  1.0000
  C   C540      1.0  0.99102  0.46399  0.79463  1.0000
  H   H966      1.0  0.00401  0.46090  0.85243  1.0000
  H   H967      1.0  0.03221  0.27647  0.49548  1.0000
  C   C541      1.0  0.08800  0.46264  0.97494  1.0000
  C   C542      1.0  0.14842  0.43833  0.93962  1.0000
  C   C543      1.0  0.18201  0.43250  0.97181  1.0000
  C   C544      1.0  0.09039  0.33848  0.56129  1.0000
  H   H968      1.0  0.11038  0.45106  0.95832  1.0000
  H   H969      1.0  0.11381  0.46182  0.96628  1.0000
  C   C545      1.0  0.01895  0.46074  0.68855  1.0000
  C   C546      1.0  0.08291  0.47853  0.86004  1.0000
  H   H970      1.0  0.98756  0.24451  0.50736  1.0000
  H   H971      1.0  0.10939  0.45777  0.93537  1.0000
  C   C547      1.0  0.05533  0.26452  0.54791  1.0000
  C   C548      1.0  0.08056  0.36853  0.53259  1.0000
  C   C549      1.0  0.99832  0.27242  0.54190  1.0000
  C   C550      1.0  0.08775  0.36241  0.55904  1.0000
  H   H972      1.0  0.12776  0.44253  0.94029  1.0000
  H   H973      1.0  0.13182  0.43992  0.95622  1.0000
  C   C551      1.0  0.00990  0.34194  0.59595  1.0000
  H   H974      1.0  0.16677  0.45738  0.97599  1.0000
  C   C552      1.0  0.10541  0.35130  0.54323  1.0000
  H   H975      1.0  0.16323  0.45959  0.89289  1.0000
  C   C553      1.0  0.17400  0.45903  0.89006  1.0000
  C   C554      1.0  0.00977  0.44657  0.73487  1.0000
  C   C555      1.0  0.14109  0.47793  0.90018  1.0000
  S   S134      1.0  0.03650  0.24360  0.48751  1.0000
  C   C556      1.0  0.19330  0.46338  0.87247  1.0000
  Fe  Fe69      1.0  0.21821  0.44076  0.91802  1.0000
  H   H976      1.0  0.19810  0.41278  0.93159  1.0000
  H   H977      1.0  0.15554  0.44127  0.94338  1.0000
  H   H978      1.0  0.14978  0.42730  0.94253  1.0000
  C   C557      1.0  0.99167  0.43033  0.64337  1.0000
  N   N32       1.0  0.01409  0.42161  0.56973  1.0000
  C   C558      1.0  0.00752  0.41768  0.58429  1.0000
  C   C559      1.0  0.01930  0.40956  0.56347  1.0000
  C   C560      1.0  0.02579  0.42702  0.56924  1.0000
  C   C561      1.0  0.00499  0.43238  0.56194  1.0000
  C   C562      1.0  0.00144  0.42922  0.59181  1.0000
  C   C563      1.0  0.03499  0.43041  0.55528  1.0000
  C   C564      1.0  0.01118  0.39853  0.56833  1.0000
  C   C565      1.0  0.01512  0.38927  0.55862  1.0000
  H   H979      1.0  0.23189  0.46233  0.94588  1.0000
  C   C566      1.0  0.04667  0.43525  0.55632  1.0000
  H   H980      1.0  0.01472  0.41010  0.58978  1.0000
  H   H981      1.0  0.99357  0.31171  0.57952  1.0000
  H   H982      1.0  0.02083  0.41274  0.55239  1.0000
  H   H983      1.0  0.02927  0.40425  0.56545  1.0000
  H   H984      1.0  0.03205  0.41978  0.57595  1.0000
  H   H985      1.0  0.02250  0.43628  0.57310  1.0000
  H   H986      1.0  0.00309  0.44197  0.56504  1.0000
  H   H987      1.0  0.00983  0.43451  0.55115  1.0000
  H   H988      1.0  0.00912  0.43389  0.59250  1.0000
  H   H989      1.0  0.00764  0.39042  0.52308  1.0000
  H   H990      1.0  0.02958  0.43846  0.54840  1.0000
  H   H991      1.0  0.03914  0.42156  0.55075  1.0000
  C   C567      1.0  0.11787  0.34328  0.96137  1.0000
  H   H992      1.0  0.00443  0.37857  0.48594  1.0000
  H   H993      1.0  0.04635  0.48404  0.76067  1.0000
  H   H994      1.0  0.08978  0.38090  0.95346  1.0000
  C   C568      1.0  0.12336  0.45054  0.85103  1.0000
  C   C569      1.0  0.22332  0.43730  0.96953  1.0000
  H   H995      1.0  0.04317  0.44430  0.56056  1.0000
  H   H996      1.0  0.05272  0.42736  0.56278  1.0000
  H   H997      1.0  0.05308  0.43769  0.54624  1.0000
  N   N33       1.0  0.04280  0.38712  0.67481  1.0000
  C   C570      1.0  0.05752  0.38298  0.67410  1.0000
  C   C571      1.0  0.03965  0.38420  0.66310  1.0000
  C   C572      1.0  0.03882  0.40200  0.67384  1.0000
  C   C573      1.0  0.03496  0.38064  0.68790  1.0000
  C   C574      1.0  0.03773  0.36526  0.69144  1.0000
  C   C575      1.0  0.06243  0.38619  0.68495  1.0000
  C   C576      1.0  0.02473  0.40906  0.67155  1.0000
  C   C577      1.0  0.04808  0.37135  0.65828  1.0000
  H   H998      1.0  0.02368  0.46721  0.84307  1.0000
  C   C578      1.0  0.03053  0.36020  0.70575  1.0000
  C   C579      1.0  0.07742  0.38133  0.68316  1.0000
  C   C580      1.0  0.02200  0.42385  0.67154  1.0000
  H   H999      1.0  0.06287  0.38781  0.66416  1.0000
  H   H1000     1.0  0.06122  0.37214  0.67468  1.0000
  H   H1001     1.0  0.14642  0.45192  0.86212  1.0000
  H   H1002     1.0  0.04117  0.39240  0.65408  1.0000
  H   H1003     1.0  0.04582  0.40706  0.66556  1.0000
  H   H1004     1.0  0.03943  0.40440  0.68313  1.0000
  H   H1005     1.0  0.03634  0.38394  0.69628  1.0000
  H   H1006     1.0  0.02420  0.38400  0.68817  1.0000
  H   H1007     1.0  0.04841  0.36078  0.69072  1.0000
  H   H1008     1.0  0.03392  0.36168  0.68475  1.0000
  H   H1009     1.0  0.06021  0.39707  0.68434  1.0000
  H   H1010     1.0  0.05781  0.38126  0.69513  1.0000
  H   H1011     1.0  0.01704  0.40474  0.67950  1.0000
  H   H1012     1.0  0.02359  0.40833  0.66178  1.0000
  H   H1013     1.0  0.05797  0.37310  0.65239  1.0000
  H   H1014     1.0  0.04972  0.36268  0.66660  1.0000
  H   H1015     1.0  0.17819  0.45969  0.95985  1.0000
  H   H1016     1.0  0.11244  0.34816  0.54997  1.0000
  C   C581      1.0  0.02534  0.34908  0.60539  1.0000
  H   H1017     1.0  0.03243  0.34915  0.70805  1.0000
  H   H1018     1.0  0.03412  0.36326  0.71300  1.0000
  H   H1019     1.0  0.01969  0.36421  0.70701  1.0000
  H   H1020     1.0  0.08254  0.38598  0.67306  1.0000
  H   H1021     1.0  0.08080  0.38417  0.69069  1.0000
  H   H1022     1.0  0.08027  0.37032  0.68452  1.0000
  H   H1023     1.0  0.02925  0.42873  0.66345  1.0000
  H   H1024     1.0  0.01191  0.42878  0.66995  1.0000
  H   H1025     1.0  0.02264  0.42517  0.68126  1.0000
  N   N34       1.0  0.08825  0.43622  0.75017  1.0000
  C   C582      1.0  0.07479  0.44036  0.74684  1.0000
  C   C583      1.0  0.09762  0.42809  0.74048  1.0000
  C   C584      1.0  0.08699  0.42717  0.76396  1.0000
  C   C585      1.0  0.09351  0.44791  0.75023  1.0000
  C   C586      1.0  0.08940  0.46129  0.74041  1.0000
  C   C587      1.0  0.06345  0.44658  0.75736  1.0000
  C   C588      1.0  0.10000  0.42067  0.76895  1.0000
  C   C589      1.0  0.09996  0.43508  0.72548  1.0000
  C   C590      1.0  0.10767  0.42506  0.71676  1.0000
  H   H1026     1.0  0.19485  0.39502  0.95984  1.0000
  C   C591      1.0  0.05180  0.45515  0.75133  1.0000
  C   C592      1.0  0.09712  0.41393  0.78379  1.0000
  H   H1027     1.0  0.07195  0.43164  0.74552  1.0000
  H   H1028     1.0  0.07485  0.44750  0.73706  1.0000
  H   H1029     1.0  0.10761  0.42464  0.74278  1.0000
  H   H1030     1.0  0.09411  0.41888  0.74162  1.0000
  H   H1031     1.0  0.08244  0.41890  0.76441  1.0000
  H   H1032     1.0  0.08023  0.43265  0.77161  1.0000
  H   H1033     1.0  0.09030  0.45026  0.76035  1.0000
  H   H1034     1.0  0.10451  0.44524  0.74827  1.0000
  H   H1035     1.0  0.07865  0.46555  0.74330  1.0000
  H   H1036     1.0  0.09155  0.46004  0.73005  1.0000
  H   H1037     1.0  0.05985  0.43861  0.76566  1.0000
  H   H1038     1.0  0.06683  0.45290  0.76175  1.0000
  H   H1039     1.0  0.10585  0.42817  0.76758  1.0000
  H   H1040     1.0  0.10612  0.41283  0.76347  1.0000
  H   H1041     1.0  0.09062  0.43993  0.72208  1.0000
  H   H1042     1.0  0.10593  0.44262  0.72352  1.0000
  H   H1043     1.0  0.10940  0.43030  0.70607  1.0000
  H   H1044     1.0  0.11740  0.42003  0.71937  1.0000
  H   H1045     1.0  0.10196  0.41742  0.71807  1.0000
  H   H1046     1.0  0.00831  0.47045  0.79594  1.0000
  H   H1047     1.0  0.06658  0.25560  0.51473  1.0000
  C   C593      1.0  0.08817  0.31437  0.56710  1.0000
  H   H1048     1.0  0.10257  0.38108  0.93891  1.0000
  H   H1049     1.0  0.05486  0.46359  0.74338  1.0000
  C   C594      1.0  0.06901  0.47345  0.77783  1.0000
  H   H1050     1.0  0.09143  0.42137  0.78993  1.0000
  H   H1051     1.0  0.11046  0.35927  0.94623  1.0000
  C   C595      1.0  0.00764  0.44638  0.78459  1.0000
  H   H1052     1.0  0.03170  0.36553  0.65477  1.0000
  C   C596      1.0  0.18764  0.42165  0.90500  1.0000
  H   H1053     1.0  0.09985  0.42608  0.98132  1.0000
  H   H1054     1.0  0.12725  0.42940  0.85115  1.0000
  C   C597      1.0  0.01313  0.43853  0.77329  1.0000
  H   H1055     1.0  0.98891  0.43272  0.61080  1.0000
  C   C598      1.0  0.17049  0.44165  0.96527  1.0000
  C   C599      1.0  0.09757  0.47557  0.91712  1.0000
  H   H1056     1.0  0.00056  0.30265  0.54972  1.0000
  C   C600      1.0  0.02677  0.42971  0.77415  1.0000
  C   C601      1.0  0.19142  0.42259  0.89121  1.0000
  H   H1057     1.0  0.16459  0.41684  0.97562  1.0000
  H   H1058     1.0  0.01602  0.44905  0.78663  1.0000
  C   C602      1.0  0.98955  0.41731  0.76399  1.0000
  H   H1059     1.0  0.01234  0.39473  0.54897  1.0000
  C   C603      1.0  0.17561  0.45646  0.91405  1.0000
  C   C604      1.0  0.01875  0.46547  0.57328  1.0000
  H   H1060     1.0  0.00011  0.46700  0.76079  1.0000
  C   C605      1.0  0.15718  0.45143  0.86011  1.0000
  H   H1061     1.0  0.00448  0.45453  0.74048  1.0000
  H   H1062     1.0  0.19165  0.42538  0.95011  1.0000
  H   H1063     1.0  0.00645  0.43194  0.77432  1.0000
  H   H1064     1.0  0.01387  0.44526  0.76323  1.0000
  H   H1065     1.0  0.10656  0.40904  0.78707  1.0000
  H   H1066     1.0  0.99414  0.43702  0.58678  1.0000
  H   H1067     1.0  0.04764  0.44917  0.74721  1.0000
  N   N35       1.0  0.10330  0.46819  0.84355  1.0000
  H   H1068     1.0  0.01938  0.45988  0.69903  1.0000
  H   H1069     1.0  0.12887  0.47227  0.82794  1.0000
  H   H1070     1.0  0.09436  0.47362  0.75065  1.0000
  H   H1071     1.0  0.07621  0.37675  0.53801  1.0000
  H   H1072     1.0  0.00622  0.36061  0.60298  1.0000
  C   C606      1.0  0.99390  0.41401  0.70420  1.0000
  H   H1073     1.0  0.02643  0.42299  0.78419  1.0000
  H   H1074     1.0  0.03003  0.42358  0.76650  1.0000
  H   H1075     1.0  0.03408  0.43592  0.77229  1.0000
  C   C607      1.0  0.16900  0.45620  0.96553  1.0000
  H   H1076     1.0  0.99088  0.33928  0.51900  1.0000
  H   H1077     1.0  0.07061  0.37986  0.51649  1.0000
  H   H1078     1.0  0.08391  0.40885  0.97956  1.0000
  H   H1079     1.0  0.03206  0.44695  0.85392  1.0000
  C   C608      1.0  0.11333  0.46696  0.93291  1.0000
  H   H1080     1.0  0.01697  0.26040  0.58005  1.0000
  C   C609      1.0  0.17343  0.41222  0.98005  1.0000
  S   S135      1.0  0.20702  0.42565  0.88224  1.0000
  H   H1081     1.0  0.15604  0.45234  0.88003  1.0000
  H   H1082     1.0  0.09007  0.45760  0.85941  1.0000
  C   C610      1.0  0.17694  0.46540  0.90004  1.0000
  Fe  Fe70      1.0  0.21875  0.43078  0.89386  1.0000
  H   H1083     1.0  0.06245  0.28083  0.54952  1.0000
  H   H1084     1.0  0.19093  0.43671  0.96677  1.0000
  C   C611      1.0  0.99104  0.40992  0.66802  1.0000
  H   H1085     1.0  0.04834  0.25805  0.50343  1.0000
  C   C612      1.0  0.13500  0.47149  0.89464  1.0000
  H   H1086     1.0  0.02331  0.47304  0.66916  1.0000
  H   H1087     1.0  0.09129  0.45221  0.83520  1.0000
  H   H1088     1.0  0.11975  0.48216  0.95462  1.0000
  C   C613      1.0  0.99075  0.39257  0.62387  1.0000
  H   H1089     1.0  0.18256  0.44663  0.91392  1.0000
  H   H1090     1.0  0.18612  0.40238  0.93917  1.0000
  S   S136      1.0  0.21162  0.45086  0.89894  1.0000
  H   H1091     1.0  0.02702  0.25828  0.56434  1.0000
  H   H1092     1.0  0.03499  0.28711  0.57284  1.0000
  H   H1093     1.0  0.16095  0.43880  0.97071  1.0000
  H   H1094     1.0  0.16038  0.45672  0.84962  1.0000
  H   H1095     1.0  0.04112  0.31485  0.50428  1.0000
  C   C614      1.0  0.21734  0.43876  0.94883  1.0000
  C   C615      1.0  0.04107  0.48029  0.72135  1.0000
  H   H1096     1.0  0.99081  0.45205  0.63753  1.0000
  H   H1097     1.0  0.21773  0.46913  0.85925  1.0000
  H   H1098     1.0  0.08371  0.34715  0.53663  1.0000
  H   H1099     1.0  0.99287  0.31760  0.60061  1.0000
  H   H1100     1.0  0.10761  0.44689  0.84510  1.0000
  C   C616      1.0  0.15973  0.45799  0.86985  1.0000
  H   H1101     1.0  0.19763  0.45432  0.87933  1.0000
  H   H1102     1.0  0.00776  0.37354  0.53229  1.0000
  H   H1103     1.0  0.02678  0.27564  0.58626  1.0000
  H   H1104     1.0  0.09377  0.32546  0.54709  1.0000
  H   H1105     1.0  0.08809  0.46523  0.81275  1.0000
  C   C617      1.0  0.11296  0.45513  0.84228  1.0000
  H   H1106     1.0  0.15377  0.46834  0.86847  1.0000
  H   H1107     1.0  0.01871  0.47523  0.74572  1.0000
  H   H1108     1.0  0.02001  0.48181  0.81481  1.0000
  H   H1109     1.0  0.17769  0.41812  0.95445  1.0000
  C   C618      1.0  0.18732  0.41698  0.95705  1.0000
  H   H1110     1.0  0.00412  0.43929  0.79386  1.0000
  H   H1111     1.0  0.03041  0.48284  0.72336  1.0000
  H   H1112     1.0  0.00799  0.44994  0.72457  1.0000
  H   H1113     1.0  0.07482  0.47719  0.82037  1.0000
  H   H1114     1.0  0.01061  0.28187  0.54734  1.0000
  H   H1115     1.0  0.02816  0.46509  0.57585  1.0000
  H   H1116     1.0  0.22005  0.45125  0.86422  1.0000
  H   H1117     1.0  0.07690  0.33046  0.55514  1.0000
  C   C619      1.0  0.00789  0.36763  0.48721  1.0000
  C   C620      1.0  0.00631  0.34562  0.50140  1.0000
  H   H1118     1.0  0.19447  0.42258  0.91021  1.0000
  C   C621      1.0  0.20133  0.46138  0.85838  1.0000
  C   C622      1.0  0.22280  0.48324  0.89817  1.0000
  H   H1119     1.0  0.98842  0.39484  0.75640  1.0000
  H   H1120     1.0  0.08017  0.47264  0.88173  1.0000
  C   C623      1.0  0.00905  0.27163  0.54938  1.0000
  H   H1121     1.0  0.07319  0.46029  0.82310  1.0000
  C   C624      1.0  0.21606  0.46026  0.85710  1.0000
  C   C625      1.0  0.98749  0.39234  0.73769  1.0000
  H   H1122     1.0  0.08301  0.38955  0.97192  1.0000
  H   H1123     1.0  0.04789  0.35826  0.64608  1.0000
  H   H1124     1.0  0.04052  0.26945  0.57369  1.0000
  C   C626      1.0  0.12105  0.48142  0.82883  1.0000
  C   C627      1.0  0.12748  0.47880  0.88519  1.0000
  H   H1125     1.0  0.23430  0.47090  0.95663  1.0000
  C   C628      1.0  0.01187  0.47989  0.56850  1.0000
  H   H1126     1.0  0.01872  0.48462  0.55978  1.0000
  N   N36       1.0  0.99671  0.45846  0.78213  1.0000
  H   H1127     1.0  0.98965  0.40821  0.84800  1.0000
  C   C629      1.0  0.17466  0.45769  0.86743  1.0000
  H   H1128     1.0  0.14687  0.47221  0.90749  1.0000
  H   H1129     1.0  0.00130  0.31541  0.52332  1.0000
  H   H1130     1.0  0.04754  0.46893  0.83231  1.0000
  N   N37       1.0  0.18512  0.41792  0.97144  1.0000
  C   C630      1.0  0.07150  0.36988  0.52336  1.0000
  H   H1131     1.0  0.98827  0.27680  0.54699  1.0000
  C   C631      1.0  0.00688  0.36337  0.51122  1.0000
  C   C632      1.0  0.00322  0.37802  0.51264  1.0000
  C   C633      1.0  0.01046  0.37987  0.52219  1.0000
  H   H1132     1.0  0.00313  0.35763  0.52133  1.0000
  H   H1133     1.0  0.01788  0.36010  0.50920  1.0000
  C   C634      1.0  0.09838  0.38550  0.94789  1.0000
  H   H1134     1.0  0.02303  0.39979  0.81320  1.0000
  C   C635      1.0  0.01964  0.45559  0.87103  1.0000
  H   H1135     1.0  0.01129  0.32093  0.54749  1.0000
  H   H1136     1.0  0.02134  0.37725  0.51840  1.0000
  H   H1137     1.0  0.08227  0.34020  0.57020  1.0000
  H   H1138     1.0  0.02162  0.34387  0.61579  1.0000
  H   H1139     1.0  0.11180  0.38769  0.97291  1.0000
  H   H1140     1.0  0.02592  0.38502  0.55677  1.0000
  C   C636      1.0  0.18247  0.42159  0.88440  1.0000
  C   C637      1.0  0.09567  0.36023  0.56988  1.0000
  H   H1141     1.0  0.10649  0.36152  0.53759  1.0000
  H   H1142     1.0  0.17532  0.39440  0.97289  1.0000
  C   C638      1.0  0.01824  0.26502  0.56922  1.0000
  H   H1143     1.0  0.08364  0.47097  0.63374  1.0000
  H   H1144     1.0  0.17989  0.44705  0.86950  1.0000
  C   C639      1.0  0.05791  0.27502  0.49365  1.0000
  C   C640      1.0  0.99152  0.42946  0.56263  1.0000
  H   H1145     1.0  0.00863  0.42998  0.75145  1.0000
  H   H1146     1.0  0.99366  0.28057  0.52232  1.0000
  H   H1147     1.0  0.17227  0.41842  0.92274  1.0000
  H   H1148     1.0  0.10631  0.35983  0.56533  1.0000
  H   H1149     1.0  0.99941  0.41267  0.58560  1.0000
  H   H1150     1.0  0.06974  0.46676  0.87498  1.0000
  H   H1151     1.0  0.08903  0.37215  0.55222  1.0000
  H   H1152     1.0  0.99120  0.42510  0.76799  1.0000
  C   C641      1.0  0.19689  0.40433  0.95278  1.0000
  C   C642      1.0  0.17507  0.41942  0.91202  1.0000
  C   C643      1.0  0.04338  0.28300  0.52820  1.0000
  C   C644      1.0  0.12426  0.34414  0.52455  1.0000
  H   H1153     1.0  0.00039  0.40253  0.56969  1.0000
  H   H1154     1.0  0.01118  0.31109  0.57447  1.0000
  C   C645      1.0  0.02208  0.27856  0.56694  1.0000
  H   H1155     1.0  0.11830  0.45534  0.83169  1.0000
  H   H1156     1.0  0.01836  0.33741  0.58862  1.0000
  C   C646      1.0  0.10275  0.47887  0.92748  1.0000
  S   S137      1.0  0.20691  0.44617  0.93757  1.0000
  H   H1157     1.0  0.99391  0.25226  0.56568  1.0000
  H   H1158     1.0  0.09137  0.40621  0.78562  1.0000
  C   C647      1.0  0.99425  0.42419  0.60607  1.0000
  H   H1159     1.0  0.99911  0.40692  0.65972  1.0000
  H   H1160     1.0  0.01852  0.23809  0.57738  1.0000
  H   H1161     1.0  0.17809  0.46144  0.85656  1.0000
  C   C648      1.0  0.04527  0.47721  0.83748  1.0000
  C   C649      1.0  0.99310  0.44346  0.63278  1.0000
  H   H1162     1.0  0.12940  0.45802  0.84897  1.0000
  H   H1163     1.0  0.21725  0.47552  0.90114  1.0000
  H   H1164     1.0  0.17800  0.46116  0.92087  1.0000
  H   H1165     1.0  0.03384  0.34223  0.60042  1.0000
  H   H1166     1.0  0.08970  0.48237  0.83203  1.0000
  N   N38       1.0  0.00627  0.26565  0.56421  1.0000
  C   C650      1.0  0.09477  0.46801  0.96056  1.0000
  H   H1167     1.0  0.02554  0.42802  0.88121  1.0000
  H   H1168     1.0  0.99382  0.25840  0.48512  1.0000
  C   C651      1.0  0.08021  0.46663  0.82183  1.0000
  H   H1169     1.0  0.04057  0.37546  0.64027  1.0000
  C   C652      1.0  0.03626  0.47407  0.85128  1.0000
  C   C653      1.0  0.00714  0.44245  0.62432  1.0000
  S   S138      1.0  0.12673  0.41013  0.97927  1.0000
  H   H1170     1.0  0.99847  0.39213  0.68194  1.0000
  C   C654      1.0  0.05440  0.30433  0.48913  1.0000
  C   C655      1.0  0.99838  0.38871  0.61206  1.0000
  H   H1171     1.0  0.11845  0.44881  0.86178  1.0000
  H   H1172     1.0  0.02107  0.46005  0.56516  1.0000
  C   C656      1.0  0.23643  0.42231  0.95511  1.0000
  C   C657      1.0  0.00104  0.46689  0.86023  1.0000
  H   H1173     1.0  0.20834  0.47778  0.96007  1.0000
  H   H1174     1.0  0.10019  0.46430  0.86506  1.0000
  S   S139      1.0  0.22352  0.42026  0.91391  1.0000
  C   C658      1.0  0.01549  0.47081  0.76738  1.0000
  C   C659      1.0  0.00094  0.28095  0.52772  1.0000
  H   H1175     1.0  0.18693  0.46752  0.89685  1.0000
  H   H1176     1.0  0.05505  0.32204  0.49482  1.0000
  C   C660      1.0  0.09663  0.47167  0.74048  1.0000
  H   H1177     1.0  0.22159  0.45934  0.84682  1.0000
  H   H1178     1.0  0.00958  0.33434  0.60553  1.0000
  H   H1179     1.0  0.08118  0.31583  0.57670  1.0000
  H   H1180     1.0  0.99112  0.39783  0.64183  1.0000
  H   H1181     1.0  0.13849  0.46378  0.93409  1.0000
  C   C661      1.0  0.00095  0.46466  0.80236  1.0000
  H   H1182     1.0  0.00146  0.41755  0.61201  1.0000
  C   C662      1.0  0.99379  0.47111  0.81424  1.0000
  C   C663      1.0  0.00423  0.25178  0.56601  1.0000
  H   H1183     1.0  0.99002  0.39231  0.85977  1.0000
  C   C664      1.0  0.00062  0.32252  0.55012  1.0000
  H   H1184     1.0  0.11648  0.36514  0.97057  1.0000
  C   C665      1.0  0.09438  0.46645  0.85729  1.0000
  H   H1185     1.0  0.05444  0.27793  0.50345  1.0000
  C   C666      1.0  0.99122  0.47981  0.85527  1.0000
  Fe  Fe71      1.0  0.23248  0.45289  0.89038  1.0000
  C   C667      1.0  0.22304  0.48337  0.94203  1.0000
  C   C668      1.0  0.03229  0.43163  0.87172  1.0000
  C   C669      1.0  0.13278  0.43749  0.84832  1.0000
  H   H1186     1.0  0.02944  0.48109  0.75186  1.0000
  C   C670      1.0  0.09556  0.47196  0.83278  1.0000
  N   N39       1.0  0.01318  0.46874  0.86330  1.0000
  H   H1187     1.0  0.99980  0.42787  0.64870  1.0000
  C   C671      1.0  0.01920  0.47979  0.75367  1.0000
  H   H1188     1.0  0.16082  0.48086  0.87696  1.0000
  H   H1189     1.0  0.13784  0.43866  0.83760  1.0000
  C   C672      1.0  0.22819  0.42840  0.94604  1.0000
  C   C673      1.0  0.02502  0.44413  0.86340  1.0000
  H   H1190     1.0  0.20044  0.45192  0.85669  1.0000
  H   H1191     1.0  0.03608  0.42365  0.86597  1.0000
  H   H1192     1.0  0.07780  0.46371  0.84300  1.0000
  H   H1193     1.0  0.01036  0.31718  0.59556  1.0000
  H   H1194     1.0  0.01248  0.45192  0.88017  1.0000
  C   C674      1.0  0.23391  0.42663  0.96695  1.0000
  C   C675      1.0  0.99699  0.39453  0.63287  1.0000
  C   C676      1.0  0.02416  0.47280  0.67931  1.0000
  C   C677      1.0  0.05856  0.48282  0.59796  1.0000
  H   H1195     1.0  0.99980  0.29148  0.52807  1.0000
  H   H1196     1.0  0.99833  0.26233  0.54113  1.0000
  H   H1197     1.0  0.02877  0.35778  0.60584  1.0000
  H   H1198     1.0  0.99400  0.42214  0.63796  1.0000
  H   H1199     1.0  0.09332  0.48117  0.73356  1.0000
  C   C678      1.0  0.07742  0.48040  0.77954  1.0000
  C   C679      1.0  0.99974  0.47635  0.88513  1.0000
  H   H1200     1.0  0.19598  0.47183  0.87449  1.0000
  S   S140      1.0  0.99022  0.23833  0.54801  1.0000
  C   C680      1.0  0.11025  0.47918  0.84182  1.0000
  H   H1201     1.0  0.06053  0.29788  0.49628  1.0000
  C   C681      1.0  0.98808  0.24091  0.49840  1.0000
  H   H1202     1.0  0.99448  0.47897  0.77066  1.0000
  H   H1203     1.0  0.99575  0.36626  0.58594  1.0000
  H   H1204     1.0  0.99880  0.41154  0.73877  1.0000
  C   C682      1.0  0.23446  0.47169  0.94596  1.0000
  H   H1205     1.0  0.07648  0.48147  0.85276  1.0000
  H   H1206     1.0  0.98915  0.26270  0.59124  1.0000
  H   H1207     1.0  0.20831  0.47167  0.94583  1.0000
  H   H1208     1.0  0.07718  0.46681  0.97647  1.0000
  H   H1209     1.0  0.00470  0.29951  0.58905  1.0000
  C   C683      1.0  0.99905  0.39094  0.83903  1.0000
  C   C684      1.0  0.00274  0.30991  0.58316  1.0000
  H   H1210     1.0  0.02050  0.44503  0.73424  1.0000
  C   C685      1.0  0.98876  0.39777  0.84955  1.0000
  H   H1211     1.0  0.99793  0.38051  0.84116  1.0000
  S   S141      1.0  0.23664  0.47210  0.87678  1.0000
  H   H1212     1.0  0.23264  0.48032  0.84019  1.0000
  C   C686      1.0  0.17165  0.47968  0.87303  1.0000
  H   H1213     1.0  0.01877  0.36588  0.48614  1.0000
  C   C687      1.0  0.05334  0.47875  0.79783  1.0000
  H   H1214     1.0  0.04140  0.46453  0.85675  1.0000
  C   C688      1.0  0.99114  0.27264  0.58609  1.0000
  C   C689      1.0  0.99512  0.35817  0.58174  1.0000
  C   C690      1.0  0.98872  0.40101  0.78653  1.0000
  H   H1215     1.0  0.06024  0.25566  0.48833  1.0000
  H   H1216     1.0  0.02776  0.45677  0.87485  1.0000
  C   C691      1.0  0.00973  0.47906  0.87157  1.0000
  C   C692      1.0  0.99394  0.27438  0.57076  1.0000
  H   H1217     1.0  0.99350  0.40718  0.78971  1.0000
  H   H1218     1.0  0.01790  0.48364  0.84531  1.0000
  H   H1219     1.0  0.99081  0.47394  0.88404  1.0000
  H   H1220     1.0  0.10576  0.47316  0.90858  1.0000
  C   C693      1.0  0.20952  0.48018  0.94904  1.0000
  C   C694      1.0  0.04752  0.31713  0.49415  1.0000
  H   H1221     1.0  0.98922  0.48174  0.81075  1.0000
  H   H1222     1.0  0.23021  0.42493  0.93695  1.0000
  H   H1223     1.0  0.99434  0.41614  0.67253  1.0000
  H   H1224     1.0  0.09418  0.48166  0.93548  1.0000
  H   H1225     1.0  0.99842  0.38979  0.73427  1.0000
  H   H1226     1.0  0.99912  0.32106  0.50642  1.0000
  C   C695      1.0  0.99455  0.31208  0.55158  1.0000
  H   H1227     1.0  0.00310  0.47966  0.56511  1.0000
  H   H1228     1.0  0.99841  0.48429  0.58662  1.0000
  H   H1229     1.0  0.09272  0.47897  0.95911  1.0000
  C   C696      1.0  0.04411  0.29739  0.48779  1.0000
  H   H1230     1.0  0.09272  0.46696  0.92167  1.0000
  C   C697      1.0  0.07423  0.47523  0.87400  1.0000
  C   C698      1.0  0.99008  0.43565  0.74410  1.0000
  H   H1231     1.0  0.99537  0.46088  0.86910  1.0000
  H   H1232     1.0  0.98735  0.33422  0.61043  1.0000
  C   C699      1.0  0.98918  0.39712  0.67842  1.0000
  H   H1233     1.0  0.17358  0.48377  0.92508  1.0000
  H   H1234     1.0  0.98785  0.43945  0.73394  1.0000
  H   H1235     1.0  0.98829  0.45778  0.67562  1.0000
  H   H1236     1.0  0.98727  0.44556  0.54554  1.0000
  C   C700      1.0  0.98788  0.41419  0.74228  1.0000
  H   H1237     1.0  0.04127  0.26855  0.48218  1.0000
  H   H1238     1.0  0.06616  0.48403  0.87579  1.0000
  Fe  Fe72      1.0  0.03787  0.23472  0.53443  1.0000
  S   S142      1.0  0.14006  0.53155  0.02252  1.0000
  H   H1239     1.0  0.01918  0.58252  0.45294  1.0000
  Fe  Fe73      1.0  0.04576  0.55134  0.07692  1.0000
  S   S143      1.0  0.05252  0.54204  0.09618  1.0000
  S   S144      1.0  0.05369  0.56769  0.06086  1.0000
  H   H1240     1.0  0.00336  0.62881  0.45943  1.0000
  S   S145      1.0  0.06527  0.50376  0.09564  1.0000
  S   S146      1.0  0.11252  0.56442  0.02684  1.0000
  H   H1241     1.0  0.03692  0.48606  0.09592  1.0000
  Fe  Fe74      1.0  0.04750  0.54219  0.21581  1.0000
  C   C701      1.0  0.99367  0.60026  0.46025  1.0000
  S   S147      1.0  0.05644  0.55533  0.22245  1.0000
  Fe  Fe75      1.0  0.04627  0.53208  0.19202  1.0000
  C   C702      1.0  0.98799  0.49056  0.18653  1.0000
  S   S148      1.0  0.05535  0.53040  0.17053  1.0000
  H   H1242     1.0  0.02202  0.49173  0.33278  1.0000
  H   H1243     1.0  0.03340  0.58235  0.38103  1.0000
  C   C703      1.0  0.01760  0.51710  0.15939  1.0000
  C   C704      1.0  0.03413  0.57277  0.38852  1.0000
  S   S149      1.0  0.05941  0.52465  0.20690  1.0000
  C   C705      1.0  0.06660  0.69610  0.46805  1.0000
  H   H1244     1.0  0.00810  0.58912  0.44193  1.0000
  H   H1245     1.0  0.03659  0.55192  0.39061  1.0000
  H   H1246     1.0  0.05413  0.54487  0.02304  1.0000
  H   H1247     1.0  0.02896  0.57814  0.42584  1.0000
  C   C706      1.0  0.99147  0.61077  0.38822  1.0000
  H   H1248     1.0  0.04302  0.58583  0.42066  1.0000
  H   H1249     1.0  0.99534  0.53436  0.16033  1.0000
  C   C707      1.0  0.00234  0.65094  0.36260  1.0000
  H   H1250     1.0  0.00955  0.58841  0.33688  1.0000
  H   H1251     1.0  0.00187  0.61645  0.43706  1.0000
  H   H1252     1.0  0.12413  0.54463  0.04887  1.0000
  S   S150      1.0  0.07587  0.61569  0.46882  1.0000
  H   H1253     1.0  0.99028  0.71359  0.43215  1.0000
  H   H1254     1.0  0.01923  0.65942  0.47437  1.0000
  H   H1255     1.0  0.00946  0.54987  0.24385  1.0000
  H   H1256     1.0  0.00171  0.56454  0.10879  1.0000
  H   H1257     1.0  0.99654  0.54979  0.25870  1.0000
  H   H1258     1.0  0.06366  0.48766  0.29094  1.0000
  C   C708      1.0  0.04230  0.49323  0.05600  1.0000
  H   H1259     1.0  0.01447  0.53504  0.29506  1.0000
  H   H1260     1.0  0.06393  0.48756  0.20922  1.0000
  Fe  Fe76      1.0  0.05102  0.62026  0.37738  1.0000
  S   S151      1.0  0.04175  0.60870  0.39708  1.0000
  S   S152      1.0  0.05102  0.61808  0.35684  1.0000
  Fe  Fe77      1.0  0.05451  0.64101  0.39020  1.0000
  S   S153      1.0  0.04480  0.63167  0.41087  1.0000
  S   S154      1.0  0.06571  0.65689  0.38712  1.0000
  Fe  Fe78      1.0  0.05681  0.61247  0.40564  1.0000
  S   S155      1.0  0.06679  0.59722  0.42108  1.0000
  Fe  Fe79      1.0  0.03052  0.62864  0.40092  1.0000
  S   S156      1.0  0.00932  0.62923  0.41060  1.0000
  S   S157      1.0  0.06761  0.62179  0.38542  1.0000
  S   S158      1.0  0.03868  0.64027  0.38079  1.0000
  Fe  Fe80      1.0  0.04581  0.55936  0.29922  1.0000
  S   S159      1.0  0.03491  0.54280  0.30738  1.0000
  S   S160      1.0  0.04698  0.57142  0.27796  1.0000
  Fe  Fe81      1.0  0.05189  0.55784  0.32620  1.0000
  S   S161      1.0  0.04150  0.54097  0.33612  1.0000
  S   S162      1.0  0.06113  0.56266  0.34055  1.0000
  Fe  Fe82      1.0  0.05148  0.53256  0.31797  1.0000
  S   S163      1.0  0.06083  0.51054  0.32110  1.0000
  Fe  Fe83      1.0  0.02604  0.55277  0.32477  1.0000
  S   S164      1.0  0.00475  0.55516  0.33541  1.0000
  S   S165      1.0  0.06324  0.54850  0.30868  1.0000
  S   S166      1.0  0.03553  0.57027  0.31593  1.0000
  C   C709      1.0  0.08013  0.54271  0.00877  1.0000
  H   H1261     1.0  0.02745  0.57704  0.20807  1.0000
  Fe  Fe84      1.0  0.06272  0.72681  0.40800  1.0000
  H   H1262     1.0  0.05119  0.70624  0.45701  1.0000
  S   S167      1.0  0.08176  0.71859  0.41505  1.0000
  C   C710      1.0  0.11119  0.48940  0.07457  1.0000
  Fe  Fe85      1.0  0.04869  0.72835  0.38662  1.0000
  S   S168      1.0  0.04747  0.71962  0.37023  1.0000
  S   S169      1.0  0.05152  0.71331  0.40550  1.0000
  C   C711      1.0  0.00659  0.68372  0.47127  1.0000
  H   H1263     1.0  0.01648  0.61826  0.44022  1.0000
  S   S170      1.0  0.03250  0.53129  0.22983  1.0000
  H   H1264     1.0  0.02461  0.63628  0.46122  1.0000
  C   C712      1.0  0.01542  0.58806  0.34405  1.0000
  H   H1265     1.0  0.06821  0.52732  0.01670  1.0000
  C   C713      1.0  0.01695  0.57438  0.35356  1.0000
  H   H1266     1.0  0.01655  0.51798  0.29441  1.0000
  C   C714      1.0  0.05359  0.60256  0.35262  1.0000
  C   C715      1.0  0.05958  0.59069  0.36022  1.0000
  C   C716      1.0  0.06212  0.57862  0.35616  1.0000
  C   C717      1.0  0.05846  0.57826  0.34465  1.0000
  C   C718      1.0  0.05238  0.59013  0.33710  1.0000
  C   C719      1.0  0.05007  0.60225  0.34101  1.0000
  H   H1267     1.0  0.06250  0.59085  0.36906  1.0000
  H   H1268     1.0  0.06691  0.56949  0.36200  1.0000
  H   H1269     1.0  0.04959  0.58998  0.32818  1.0000
  H   H1270     1.0  0.04554  0.61142  0.33502  1.0000
  C   C720      1.0  0.05999  0.67422  0.38244  1.0000
  C   C721      1.0  0.04786  0.68001  0.37870  1.0000
  C   C722      1.0  0.04408  0.69397  0.37464  1.0000
  C   C723      1.0  0.05218  0.70213  0.37485  1.0000
  C   C724      1.0  0.06414  0.69628  0.37886  1.0000
  C   C725      1.0  0.06813  0.68239  0.38239  1.0000
  H   H1271     1.0  0.04149  0.67376  0.37881  1.0000
  H   H1272     1.0  0.03478  0.69848  0.37161  1.0000
  H   H1273     1.0  0.07044  0.70250  0.37902  1.0000
  H   H1274     1.0  0.07753  0.67797  0.38524  1.0000
  H   H1275     1.0  0.07073  0.55756  0.98884  1.0000
  C   C726      1.0  0.05083  0.55469  0.99879  1.0000
  H   H1276     1.0  0.02225  0.56699  0.34729  1.0000
  C   C727      1.0  0.00313  0.62111  0.40235  1.0000
  C   C728      1.0  0.00929  0.61991  0.38921  1.0000
  C   C729      1.0  0.00343  0.61479  0.38212  1.0000
  H   H1277     1.0  0.99227  0.48987  0.35095  1.0000
  H   H1278     1.0  0.02375  0.56422  0.23136  1.0000
  H   H1279     1.0  0.01834  0.62334  0.38434  1.0000
  H   H1280     1.0  0.00799  0.61429  0.37182  1.0000
  H   H1281     1.0  0.99436  0.65678  0.40820  1.0000
  H   H1282     1.0  0.01236  0.58912  0.21182  1.0000
  H   H1283     1.0  0.07816  0.61118  0.33617  1.0000
  C   C730      1.0  0.08117  0.72254  0.43012  1.0000
  C   C731      1.0  0.09281  0.72358  0.43272  1.0000
  H   H1284     1.0  0.00018  0.56075  0.29007  1.0000
  C   C732      1.0  0.99790  0.64114  0.44130  1.0000
  C   C733      1.0  0.99254  0.53196  0.15215  1.0000
  H   H1285     1.0  0.06033  0.72370  0.43767  1.0000
  H   H1286     1.0  0.03089  0.56952  0.04145  1.0000
  C   C734      1.0  0.07245  0.61039  0.45615  1.0000
  C   C735      1.0  0.08216  0.60090  0.45000  1.0000
  C   C736      1.0  0.08017  0.59687  0.43944  1.0000
  C   C737      1.0  0.06868  0.60265  0.43450  1.0000
  C   C738      1.0  0.05896  0.61234  0.44049  1.0000
  C   C739      1.0  0.06079  0.61611  0.45139  1.0000
  H   H1287     1.0  0.09125  0.59655  0.45350  1.0000
  H   H1288     1.0  0.08771  0.58937  0.43492  1.0000
  H   H1289     1.0  0.04997  0.61672  0.43688  1.0000
  H   H1290     1.0  0.05332  0.62355  0.45600  1.0000
  C   C740      1.0  0.06921  0.72502  0.43937  1.0000
  H   H1291     1.0  0.05983  0.49009  0.13958  1.0000
  N   N40       1.0  0.02557  0.56129  0.37501  1.0000
  H   H1292     1.0  0.10321  0.48800  0.07079  1.0000
  H   H1293     1.0  0.02659  0.59373  0.26574  1.0000
  C   C741      1.0  0.99158  0.51446  0.14219  1.0000
  H   H1294     1.0  0.02198  0.60232  0.42567  1.0000
  C   C742      1.0  0.99048  0.54112  0.21214  1.0000
  C   C743      1.0  0.02631  0.59546  0.43406  1.0000
  H   H1295     1.0  0.00542  0.51319  0.22047  1.0000
  H   H1296     1.0  0.20198  0.48892  0.03359  1.0000
  H   H1297     1.0  0.07601  0.49242  0.24479  1.0000
  H   H1298     1.0  0.11307  0.70223  0.44839  1.0000
  H   H1299     1.0  0.16863  0.49241  0.98689  1.0000
  C   C744      1.0  0.05290  0.55913  0.23836  1.0000
  C   C745      1.0  0.04828  0.55059  0.25041  1.0000
  C   C746      1.0  0.04620  0.55417  0.26280  1.0000
  C   C747      1.0  0.04901  0.56612  0.26308  1.0000
  C   C748      1.0  0.05336  0.57461  0.25101  1.0000
  C   C749      1.0  0.05540  0.57110  0.23880  1.0000
  H   H1300     1.0  0.04643  0.54128  0.25015  1.0000
  H   H1301     1.0  0.04248  0.54774  0.27209  1.0000
  H   H1302     1.0  0.05546  0.58390  0.25109  1.0000
  H   H1303     1.0  0.05905  0.57771  0.22960  1.0000
  H   H1304     1.0  0.99146  0.61465  0.33027  1.0000
  H   H1305     1.0  0.00358  0.72638  0.36672  1.0000
  H   H1306     1.0  0.99997  0.58794  0.23530  1.0000
  S   S171      1.0  0.02158  0.55059  0.12580  1.0000
  C   C750      1.0  0.99169  0.57139  0.39944  1.0000
  H   H1307     1.0  0.09231  0.51610  0.01622  1.0000
  H   H1308     1.0  0.01335  0.69105  0.44951  1.0000
  H   H1309     1.0  0.00709  0.65118  0.47449  1.0000
  C   C751      1.0  0.04422  0.53793  0.13541  1.0000
  C   C752      1.0  0.05153  0.53355  0.14545  1.0000
  C   C753      1.0  0.04610  0.53692  0.15796  1.0000
  H   H1310     1.0  0.01750  0.52783  0.15586  1.0000
  H   H1311     1.0  0.02193  0.58174  0.25087  1.0000
  H   H1312     1.0  0.04837  0.53491  0.12599  1.0000
  H   H1313     1.0  0.06133  0.52728  0.14363  1.0000
  C   C754      1.0  0.03341  0.54505  0.16024  1.0000
  C   C755      1.0  0.05697  0.49263  0.10821  1.0000
  C   C756      1.0  0.04703  0.49734  0.11845  1.0000
  C   C757      1.0  0.99571  0.71277  0.42213  1.0000
  H   H1314     1.0  0.04582  0.50730  0.11973  1.0000
  H   H1315     1.0  0.14730  0.49372  0.00869  1.0000
  C   C758      1.0  0.09634  0.56450  0.03659  1.0000
  C   C759      1.0  0.08865  0.57649  0.03982  1.0000
  C   C760      1.0  0.07567  0.57719  0.04734  1.0000
  C   C761      1.0  0.07035  0.56582  0.05216  1.0000
  C   C762      1.0  0.07804  0.55367  0.04912  1.0000
  C   C763      1.0  0.09099  0.55308  0.04112  1.0000
  H   H1316     1.0  0.09268  0.58536  0.03634  1.0000
  H   H1317     1.0  0.06976  0.58662  0.04955  1.0000
  H   H1318     1.0  0.07387  0.54492  0.05263  1.0000
  H   H1319     1.0  0.09682  0.54388  0.03846  1.0000
  H   H1320     1.0  0.01515  0.71028  0.38607  1.0000
  H   H1321     1.0  0.05132  0.50614  0.06212  1.0000
  C   C764      1.0  0.05600  0.48610  0.32361  1.0000
  H   H1322     1.0  0.03290  0.60046  0.43623  1.0000
  C   C765      1.0  0.12856  0.48880  0.01931  1.0000
  H   H1323     1.0  0.02143  0.50750  0.33528  1.0000
  H   H1324     1.0  0.01098  0.50141  0.31546  1.0000
  H   H1325     1.0  0.03059  0.49447  0.26705  1.0000
  C   C766      1.0  0.01640  0.59398  0.27197  1.0000
  H   H1326     1.0  0.08286  0.59046  0.99709  1.0000
  H   H1327     1.0  0.08460  0.50946  0.00734  1.0000
  C   C767      1.0  0.07701  0.48937  0.27105  1.0000
  H   H1328     1.0  0.02461  0.53442  0.38711  1.0000
  H   H1329     1.0  0.02094  0.58284  0.36782  1.0000
  S   S172      1.0  0.02918  0.52479  0.10389  1.0000
  Fe  Fe86      1.0  0.12327  0.54790  0.01613  1.0000
  H   H1330     1.0  0.09023  0.63067  0.33946  1.0000
  C   C768      1.0  0.18901  0.53535  0.01779  1.0000
  H   H1331     1.0  0.11173  0.55262  0.06125  1.0000
  C   C769      1.0  0.05315  0.49975  0.31772  1.0000
  H   H1332     1.0  0.02269  0.54886  0.36361  1.0000
  H   H1333     1.0  0.01426  0.50185  0.15178  1.0000
  C   C770      1.0  0.98904  0.68498  0.36109  1.0000
  H   H1334     1.0  0.98934  0.59423  0.32472  1.0000
  H   H1335     1.0  0.99250  0.64109  0.43385  1.0000
  H   H1336     1.0  0.07969  0.50340  0.22110  1.0000
  H   H1337     1.0  0.02123  0.49219  0.07398  1.0000
  C   C771      1.0  0.06319  0.55993  0.99790  1.0000
  H   H1338     1.0  0.03321  0.49509  0.05220  1.0000
  H   H1339     1.0  0.01059  0.65656  0.45022  1.0000
  C   C772      1.0  0.00727  0.54914  0.25478  1.0000
  H   H1340     1.0  0.00098  0.53430  0.10388  1.0000
  H   H1341     1.0  0.00951  0.49603  0.29277  1.0000
  H   H1342     1.0  0.10822  0.48754  0.08563  1.0000
  H   H1343     1.0  0.01161  0.68050  0.47978  1.0000
  S   S173      1.0  0.01620  0.71847  0.42843  1.0000
  H   H1344     1.0  0.99306  0.55732  0.17605  1.0000
  C   C773      1.0  0.08762  0.56892  0.99893  1.0000
  H   H1345     1.0  0.10147  0.64340  0.34770  1.0000
  H   H1346     1.0  0.00796  0.64274  0.43602  1.0000
  H   H1347     1.0  0.10845  0.63811  0.36892  1.0000
  H   H1348     1.0  0.02487  0.58097  0.23009  1.0000
  Fe  Fe87      1.0  0.03094  0.54444  0.10598  1.0000
  H   H1349     1.0  0.06481  0.54750  0.03136  1.0000
  C   C774      1.0  0.07574  0.56581  0.01058  1.0000
  H   H1350     1.0  0.20293  0.55674  0.99053  1.0000
  H   H1351     1.0  0.00941  0.50302  0.09313  1.0000
  H   H1352     1.0  0.08799  0.54459  0.99961  1.0000
  H   H1353     1.0  0.04130  0.55373  0.04702  1.0000
  C   C775      1.0  0.19588  0.52526  0.99476  1.0000
  C   C776      1.0  0.07257  0.53258  0.28240  1.0000
  H   H1354     1.0  0.00668  0.55540  0.38114  1.0000
  C   C777      1.0  0.00327  0.67216  0.40854  1.0000
  H   H1355     1.0  0.01031  0.65719  0.39696  1.0000
  H   H1356     1.0  0.01231  0.51553  0.17002  1.0000
  Fe  Fe88      1.0  0.02434  0.53561  0.08412  1.0000
  C   C778      1.0  0.14005  0.48832  0.00918  1.0000
  H   H1357     1.0  0.02953  0.50713  0.27566  1.0000
  S   S174      1.0  0.17089  0.53210  0.99060  1.0000
  Fe  Fe89      1.0  0.02167  0.53840  0.21324  1.0000
  S   S175      1.0  0.13335  0.55246  0.99432  1.0000
  H   H1358     1.0  0.05909  0.67570  0.33788  1.0000
  H   H1359     1.0  0.99856  0.57150  0.23671  1.0000
  C   C779      1.0  0.04926  0.56462  0.02716  1.0000
  H   H1360     1.0  0.00433  0.50772  0.25740  1.0000
  S   S176      1.0  0.02417  0.55561  0.08696  1.0000
  H   H1361     1.0  0.04534  0.57149  0.01857  1.0000
  H   H1362     1.0  0.00076  0.58365  0.27695  1.0000
  C   C780      1.0  0.01176  0.56021  0.25797  1.0000
  H   H1363     1.0  0.09555  0.52051  0.99821  1.0000
  H   H1364     1.0  0.05474  0.49223  0.25947  1.0000
  S   S177      1.0  0.11214  0.53436  0.01377  1.0000
  N   N41       1.0  0.00070  0.67274  0.47067  1.0000
  H   H1365     1.0  0.99686  0.65807  0.35522  1.0000
  C   C781      1.0  0.01126  0.66013  0.46929  1.0000
  H   H1366     1.0  0.01603  0.50822  0.23222  1.0000
  H   H1367     1.0  0.00581  0.49661  0.17542  1.0000
  C   C782      1.0  0.01706  0.68831  0.45881  1.0000
  H   H1368     1.0  0.01326  0.50154  0.35902  1.0000
  H   H1369     1.0  0.08491  0.53982  0.01745  1.0000
  C   C783      1.0  0.01794  0.65781  0.45498  1.0000
  C   C784      1.0  0.02877  0.64509  0.45532  1.0000
  C   C785      1.0  0.02108  0.70046  0.45995  1.0000
  C   C786      1.0  0.03303  0.53551  0.37839  1.0000
  H   H1370     1.0  0.18623  0.55278  0.98318  1.0000
  C   C787      1.0  0.12077  0.54462  0.05970  1.0000
  H   H1371     1.0  0.00998  0.60385  0.26884  1.0000
  H   H1372     1.0  0.22137  0.55709  0.99987  1.0000
  H   H1373     1.0  0.00810  0.60832  0.47187  1.0000
  H   H1374     1.0  0.03367  0.51152  0.06351  1.0000
  C   C788      1.0  0.09439  0.68127  0.47308  1.0000
  C   C789      1.0  0.04730  0.55817  0.98514  1.0000
  H   H1375     1.0  0.09482  0.62979  0.35920  1.0000
  C   C790      1.0  0.04471  0.50444  0.30881  1.0000
  H   H1376     1.0  0.02614  0.68029  0.45799  1.0000
  H   H1377     1.0  0.02517  0.53451  0.25880  1.0000
  H   H1378     1.0  0.00250  0.56490  0.18225  1.0000
  C   C791      1.0  0.00405  0.50910  0.32071  1.0000
  H   H1379     1.0  0.03337  0.64360  0.44500  1.0000
  C   C792      1.0  0.04962  0.49659  0.26828  1.0000
  H   H1380     1.0  0.02232  0.66624  0.44851  1.0000
  H   H1381     1.0  0.18706  0.49413  0.99519  1.0000
  H   H1382     1.0  0.02678  0.52488  0.36729  1.0000
  C   C793      1.0  0.99152  0.61654  0.40863  1.0000
  C   C794      1.0  0.03851  0.48925  0.12695  1.0000
  C   C795      1.0  0.98966  0.71019  0.41333  1.0000
  H   H1383     1.0  0.00097  0.49357  0.25486  1.0000
  H   H1384     1.0  0.05492  0.51263  0.03734  1.0000
  C   C796      1.0  0.07937  0.63479  0.34116  1.0000
  H   H1385     1.0  0.09313  0.65102  0.32644  1.0000
  H   H1386     1.0  0.06342  0.50735  0.24174  1.0000
  H   H1387     1.0  0.07255  0.53225  0.99860  1.0000
  H   H1388     1.0  0.23282  0.50372  0.99708  1.0000
  H   H1389     1.0  0.04519  0.69941  0.47438  1.0000
  H   H1390     1.0  0.10145  0.69918  0.47180  1.0000
  H   H1391     1.0  0.99153  0.50468  0.36331  1.0000
  C   C797      1.0  0.00159  0.55976  0.30996  1.0000
  S   S178      1.0  0.12569  0.49876  0.03075  1.0000
  C   C798      1.0  0.02942  0.48589  0.07891  1.0000
  H   H1392     1.0  0.07013  0.54363  0.27928  1.0000
  H   H1393     1.0  0.01548  0.51698  0.13998  1.0000
  H   H1394     1.0  0.05956  0.73084  0.45808  1.0000
  H   H1395     1.0  0.17744  0.57589  0.98763  1.0000
  C   C799      1.0  0.09114  0.58178  0.99892  1.0000
  H   H1396     1.0  0.01398  0.55405  0.39449  1.0000
  C   C800      1.0  0.09810  0.64345  0.36856  1.0000
  N   N42       1.0  0.00760  0.60238  0.45428  1.0000
  C   C801      1.0  0.07602  0.53029  0.00794  1.0000
  C   C802      1.0  0.01397  0.60106  0.46560  1.0000
  C   C803      1.0  0.02852  0.60240  0.46165  1.0000
  H   H1397     1.0  0.03384  0.50215  0.08492  1.0000
  H   H1398     1.0  0.99853  0.57814  0.46335  1.0000
  C   C804      1.0  0.06880  0.72892  0.45100  1.0000
  H   H1399     1.0  0.02783  0.61014  0.47859  1.0000
  H   H1400     1.0  0.00500  0.48592  0.27659  1.0000
  H   H1401     1.0  0.08613  0.50805  0.27449  1.0000
  S   S179      1.0  0.04626  0.49427  0.23379  1.0000
  H   H1402     1.0  0.01394  0.59112  0.47247  1.0000
  H   H1403     1.0  0.99241  0.64955  0.44623  1.0000
  H   H1404     1.0  0.02969  0.61205  0.45466  1.0000
  H   H1405     1.0  0.03498  0.59406  0.45707  1.0000
  H   H1406     1.0  0.02915  0.54772  0.16984  1.0000
  H   H1407     1.0  0.99272  0.52809  0.18581  1.0000
  H   H1408     1.0  0.18634  0.53934  0.02666  1.0000
  C   C805      1.0  0.99234  0.58608  0.46864  1.0000
  H   H1409     1.0  0.15453  0.57863  0.98595  1.0000
  H   H1410     1.0  0.04439  0.52425  0.36318  1.0000
  H   H1411     1.0  0.06540  0.52951  0.29178  1.0000
  C   C806      1.0  0.08084  0.61873  0.32693  1.0000
  C   C807      1.0  0.00659  0.61609  0.44523  1.0000
  C   C808      1.0  0.01431  0.53535  0.26125  1.0000
  H   H1412     1.0  0.00822  0.66580  0.41669  1.0000
  N   N43       1.0  0.07116  0.50408  0.26701  1.0000
  H   H1413     1.0  0.01085  0.55781  0.26895  1.0000
  C   C809      1.0  0.07718  0.50909  0.25248  1.0000
  H   H1414     1.0  0.07085  0.67506  0.47440  1.0000
  C   C810      1.0  0.05621  0.50730  0.26942  1.0000
  C   C811      1.0  0.18847  0.49439  0.98441  1.0000
  C   C812      1.0  0.07167  0.52654  0.27142  1.0000
  C   C813      1.0  0.07398  0.50341  0.24223  1.0000
  C   C814      1.0  0.08226  0.50757  0.22823  1.0000
  C   C815      1.0  0.03525  0.50245  0.26713  1.0000
  H   H1415     1.0  0.10209  0.72166  0.42560  1.0000
  H   H1416     1.0  0.98885  0.66865  0.45965  1.0000
  H   H1417     1.0  0.01256  0.70911  0.45997  1.0000
  H   H1418     1.0  0.07368  0.52007  0.24936  1.0000
  H   H1419     1.0  0.08814  0.50727  0.25096  1.0000
  C   C816      1.0  0.08038  0.73019  0.45347  1.0000
  H   H1420     1.0  0.00026  0.67855  0.44956  1.0000
  C   C817      1.0  0.08366  0.65725  0.33091  1.0000
  H   H1421     1.0  0.05277  0.51681  0.26250  1.0000
  C   C818      1.0  0.03541  0.52411  0.37141  1.0000
  H   H1422     1.0  0.03745  0.49403  0.35015  1.0000
  H   H1423     1.0  0.06147  0.53008  0.26989  1.0000
  H   H1424     1.0  0.07854  0.53039  0.26212  1.0000
  H   H1425     1.0  0.98897  0.56911  0.12267  1.0000
  H   H1426     1.0  0.01975  0.72528  0.48170  1.0000
  H   H1427     1.0  0.08063  0.48564  0.29115  1.0000
  H   H1428     1.0  0.99449  0.51084  0.31780  1.0000
  H   H1429     1.0  0.17622  0.49155  0.02821  1.0000
  C   C819      1.0  0.99652  0.49620  0.17321  1.0000
  H   H1430     1.0  0.08800  0.48741  0.26771  1.0000
  H   H1431     1.0  0.05224  0.54378  0.00249  1.0000
  C   C820      1.0  0.01568  0.71353  0.40486  1.0000
  H   H1432     1.0  0.03049  0.49311  0.13447  1.0000
  H   H1433     1.0  0.03825  0.55464  0.98611  1.0000
  N   N44       1.0  0.06711  0.66456  0.42697  1.0000
  C   C821      1.0  0.07925  0.66986  0.42496  1.0000
  C   C822      1.0  0.07088  0.65315  0.41997  1.0000
  C   C823      1.0  0.05736  0.67555  0.42012  1.0000
  C   C824      1.0  0.06061  0.66036  0.44155  1.0000
  C   C825      1.0  0.06973  0.65515  0.45173  1.0000
  C   C826      1.0  0.07672  0.68302  0.42965  1.0000
  C   C827      1.0  0.04474  0.67167  0.41950  1.0000
  C   C828      1.0  0.08063  0.64050  0.42548  1.0000
  C   C829      1.0  0.08448  0.63044  0.41657  1.0000
  C   C830      1.0  0.06190  0.65063  0.46584  1.0000
  C   C831      1.0  0.08926  0.68478  0.43230  1.0000
  C   C832      1.0  0.03420  0.68400  0.41562  1.0000
  H   H1434     1.0  0.08424  0.67181  0.41416  1.0000
  H   H1435     1.0  0.08676  0.66229  0.42992  1.0000
  H   H1436     1.0  0.06204  0.64954  0.42038  1.0000
  H   H1437     1.0  0.07519  0.65666  0.40918  1.0000
  H   H1438     1.0  0.06222  0.67965  0.40966  1.0000
  H   H1439     1.0  0.05396  0.68409  0.42516  1.0000
  H   H1440     1.0  0.05291  0.66879  0.44507  1.0000
  H   H1441     1.0  0.05519  0.65249  0.44282  1.0000
  H   H1442     1.0  0.07432  0.66304  0.45213  1.0000
  H   H1443     1.0  0.07782  0.64665  0.44922  1.0000
  H   H1444     1.0  0.07349  0.69165  0.42174  1.0000
  H   H1445     1.0  0.06882  0.68343  0.43885  1.0000
  H   H1446     1.0  0.04042  0.66575  0.42924  1.0000
  H   H1447     1.0  0.04709  0.66572  0.41180  1.0000
  H   H1448     1.0  0.08987  0.64274  0.42598  1.0000
  H   H1449     1.0  0.07585  0.63555  0.43556  1.0000
  H   H1450     1.0  0.08978  0.63463  0.40639  1.0000
  H   H1451     1.0  0.09107  0.62123  0.42095  1.0000
  H   H1452     1.0  0.07557  0.62769  0.41579  1.0000
  H   H1453     1.0  0.06871  0.64689  0.47280  1.0000
  H   H1454     1.0  0.05404  0.65899  0.46918  1.0000
  H   H1455     1.0  0.05739  0.64237  0.46625  1.0000
  H   H1456     1.0  0.09293  0.67635  0.44011  1.0000
  H   H1457     1.0  0.09708  0.68549  0.42296  1.0000
  H   H1458     1.0  0.08709  0.69411  0.43586  1.0000
  H   H1459     1.0  0.03808  0.68998  0.40567  1.0000
  H   H1460     1.0  0.02538  0.68098  0.41505  1.0000
  H   H1461     1.0  0.03111  0.69026  0.42315  1.0000
  C   C833      1.0  0.99340  0.67688  0.45947  1.0000
  H   H1462     1.0  0.08021  0.51861  0.22489  1.0000
  C   C834      1.0  0.03020  0.49284  0.08953  1.0000
  C   C835      1.0  0.99865  0.62803  0.45176  1.0000
  C   C836      1.0  0.03597  0.56082  0.38222  1.0000
  C   C837      1.0  0.03198  0.50966  0.15846  1.0000
  C   C838      1.0  0.01501  0.59186  0.44626  1.0000
  H   H1463     1.0  0.04209  0.53421  0.38202  1.0000
  N   N45       1.0  0.10263  0.51499  0.07129  1.0000
  C   C839      1.0  0.11408  0.50354  0.06854  1.0000
  C   C840      1.0  0.10678  0.52783  0.06360  1.0000
  C   C841      1.0  0.09881  0.51435  0.08614  1.0000
  C   C842      1.0  0.09078  0.51425  0.06688  1.0000
  C   C843      1.0  0.09323  0.51249  0.05239  1.0000
  H   H1464     1.0  0.05999  0.57100  0.99557  1.0000
  C   C844      1.0  0.08864  0.52659  0.09064  1.0000
  C   C845      1.0  0.11806  0.53103  0.06771  1.0000
  H   H1465     1.0  0.00015  0.52842  0.29735  1.0000
  C   C846      1.0  0.08025  0.51264  0.04914  1.0000
  H   H1466     1.0  0.03207  0.55552  0.03459  1.0000
  C   C847      1.0  0.08480  0.52437  0.10588  1.0000
  H   H1467     1.0  0.12241  0.50377  0.07261  1.0000
  H   H1468     1.0  0.11809  0.50455  0.05758  1.0000
  H   H1469     1.0  0.11032  0.52779  0.05278  1.0000
  H   H1470     1.0  0.09815  0.53641  0.06427  1.0000
  H   H1471     1.0  0.10769  0.51274  0.09022  1.0000
  H   H1472     1.0  0.09435  0.50557  0.09150  1.0000
  H   H1473     1.0  0.08630  0.50594  0.07363  1.0000
  H   H1474     1.0  0.08288  0.52339  0.06777  1.0000
  H   H1475     1.0  0.10004  0.50284  0.05106  1.0000
  H   H1476     1.0  0.09755  0.52053  0.04494  1.0000
  C   C848      1.0  0.07490  0.63281  0.32936  1.0000
  H   H1477     1.0  0.01919  0.48833  0.19909  1.0000
  H   H1478     1.0  0.07948  0.52844  0.08705  1.0000
  H   H1479     1.0  0.09268  0.53573  0.08675  1.0000
  H   H1480     1.0  0.11557  0.53126  0.07845  1.0000
  H   H1481     1.0  0.12740  0.52353  0.06569  1.0000
  C   C849      1.0  0.09268  0.67820  0.31975  1.0000
  N   N46       1.0  0.99067  0.66452  0.38098  1.0000
  H   H1482     1.0  0.99828  0.53715  0.14264  1.0000
  H   H1483     1.0  0.08226  0.51040  0.03914  1.0000
  H   H1484     1.0  0.07536  0.50496  0.05662  1.0000
  H   H1485     1.0  0.07345  0.52257  0.04911  1.0000
  H   H1486     1.0  0.05163  0.50933  0.27957  1.0000
  C   C850      1.0  0.00467  0.57730  0.23868  1.0000
  C   C851      1.0  0.99587  0.55640  0.32358  1.0000
  H   H1487     1.0  0.07773  0.53336  0.10883  1.0000
  H   H1488     1.0  0.07991  0.51578  0.11026  1.0000
  H   H1489     1.0  0.09365  0.52252  0.11005  1.0000
  C   C852      1.0  0.06143  0.65406  0.34458  1.0000
  C   C853      1.0  0.05577  0.66835  0.34701  1.0000
  C   C854      1.0  0.04065  0.67168  0.35005  1.0000
  H   H1490     1.0  0.07304  0.64359  0.36452  1.0000
  H   H1491     1.0  0.05829  0.65422  0.33547  1.0000
  H   H1492     1.0  0.05615  0.64714  0.35289  1.0000
  H   H1493     1.0  0.07493  0.62817  0.35045  1.0000
  C   C855      1.0  0.00941  0.52203  0.31442  1.0000
  H   H1494     1.0  0.05882  0.66969  0.35553  1.0000
  H   H1495     1.0  0.09736  0.65428  0.36722  1.0000
  H   H1496     1.0  0.03665  0.66488  0.35933  1.0000
  H   H1497     1.0  0.03692  0.68204  0.35157  1.0000
  H   H1498     1.0  0.03699  0.67088  0.34164  1.0000
  H   H1499     1.0  0.98974  0.57137  0.27191  1.0000
  H   H1500     1.0  0.02522  0.57322  0.39677  1.0000
  H   H1501     1.0  0.03718  0.51804  0.03875  1.0000
  C   C856      1.0  0.03926  0.49550  0.30573  1.0000
  H   H1502     1.0  0.01182  0.57206  0.21292  1.0000
  H   H1503     1.0  0.12868  0.54687  0.06295  1.0000
  C   C857      1.0  0.09238  0.72757  0.44429  1.0000
  H   H1504     1.0  0.01226  0.52761  0.25754  1.0000
  C   C858      1.0  0.00669  0.50721  0.23052  1.0000
  Fe  Fe90      1.0  0.12961  0.51838  0.01821  1.0000
  H   H1505     1.0  0.04442  0.57989  0.39897  1.0000
  C   C859      1.0  0.99578  0.56678  0.17540  1.0000
  C   C860      1.0  0.01600  0.64508  0.35488  1.0000
  C   C861      1.0  0.03768  0.56053  0.03821  1.0000
  H   H1506     1.0  0.01489  0.64006  0.34758  1.0000
  H   H1507     1.0  0.00717  0.59417  0.25114  1.0000
  H   H1508     1.0  0.20990  0.50294  0.02861  1.0000
  H   H1509     1.0  0.01716  0.57322  0.27483  1.0000
  H   H1510     1.0  0.21594  0.52193  0.99645  1.0000
  C   C862      1.0  0.00064  0.66336  0.40091  1.0000
  H   H1511     1.0  0.99761  0.68024  0.35413  1.0000
  H   H1512     1.0  0.01012  0.66489  0.36810  1.0000
  H   H1513     1.0  0.00905  0.64981  0.38007  1.0000
  C   C863      1.0  0.01019  0.52606  0.29939  1.0000
  C   C864      1.0  0.98828  0.53184  0.19478  1.0000
  H   H1514     1.0  0.99822  0.57877  0.37842  1.0000
  H   H1515     1.0  0.03998  0.48485  0.18224  1.0000
  H   H1516     1.0  0.01038  0.59603  0.34969  1.0000
  C   C865      1.0  0.01854  0.57483  0.22921  1.0000
  H   H1517     1.0  0.00042  0.67872  0.38308  1.0000
  H   H1518     1.0  0.10138  0.72854  0.44618  1.0000
  H   H1519     1.0  0.09159  0.63982  0.37825  1.0000
  C   C866      1.0  0.01125  0.58368  0.25583  1.0000
  H   H1520     1.0  0.07690  0.61733  0.31898  1.0000
  H   H1521     1.0  0.99383  0.67837  0.41301  1.0000
  H   H1522     1.0  0.02150  0.65304  0.34935  1.0000
  H   H1523     1.0  0.02185  0.63756  0.36177  1.0000
  H   H1524     1.0  0.04272  0.51488  0.30399  1.0000
  H   H1525     1.0  0.01684  0.59264  0.28255  1.0000
  Fe  Fe91      1.0  0.12335  0.53750  0.99248  1.0000
  C   C867      1.0  0.99478  0.49330  0.33993  1.0000
  H   H1526     1.0  0.06399  0.63413  0.33160  1.0000
  H   H1527     1.0  0.01638  0.55581  0.15189  1.0000
  H   H1528     1.0  0.10142  0.67243  0.31380  1.0000
  C   C868      1.0  0.05955  0.55228  0.02302  1.0000
  H   H1529     1.0  0.02913  0.70311  0.45128  1.0000
  Fe  Fe92      1.0  0.23573  0.52847  0.00693  1.0000
  H   H1530     1.0  0.98812  0.60279  0.45217  1.0000
  S   S180      1.0  0.99993  0.54686  0.21936  1.0000
  C   C869      1.0  0.05301  0.69758  0.46539  1.0000
  H   H1531     1.0  0.09568  0.68652  0.32161  1.0000
  H   H1532     1.0  0.05240  0.68850  0.46272  1.0000
  H   H1533     1.0  0.01095  0.56276  0.30674  1.0000
  C   C870      1.0  0.00968  0.71093  0.39613  1.0000
  C   C871      1.0  0.16623  0.49112  0.03473  1.0000
  H   H1534     1.0  0.07057  0.50819  0.28597  1.0000
  C   C872      1.0  0.04312  0.50695  0.05741  1.0000
  H   H1535     1.0  0.19840  0.50031  0.04444  1.0000
  H   H1536     1.0  0.07792  0.66100  0.32290  1.0000
  H   H1537     1.0  0.99827  0.48524  0.07488  1.0000
  S   S181      1.0  0.13994  0.52033  0.99675  1.0000
  N   N47       1.0  0.99614  0.51706  0.15316  1.0000
  S   S182      1.0  0.04544  0.53215  0.07268  1.0000
  H   H1538     1.0  0.09026  0.70202  0.46130  1.0000
  H   H1539     1.0  0.03505  0.57444  0.35813  1.0000
  Fe  Fe93      1.0  0.04335  0.51435  0.21985  1.0000
  S   S183      1.0  0.00865  0.53142  0.07658  1.0000
  C   C873      1.0  0.09843  0.69465  0.46528  1.0000
  S   S184      1.0  0.21483  0.53189  0.01936  1.0000
  C   C874      1.0  0.99612  0.53607  0.20059  1.0000
  C   C875      1.0  0.99380  0.67195  0.38941  1.0000
  C   C876      1.0  0.03345  0.60159  0.47398  1.0000
  H   H1540     1.0  0.00647  0.53566  0.19597  1.0000
  H   H1541     1.0  0.00294  0.53049  0.31872  1.0000
  H   H1542     1.0  0.02468  0.69838  0.46923  1.0000
  H   H1543     1.0  0.01942  0.52068  0.31604  1.0000
  H   H1544     1.0  0.04214  0.55933  0.00571  1.0000
  H   H1545     1.0  0.07392  0.69531  0.45852  1.0000
  H   H1546     1.0  0.99576  0.56665  0.40854  1.0000
  C   C877      1.0  0.02492  0.57363  0.36389  1.0000
  C   C878      1.0  0.01673  0.49615  0.09884  1.0000
  N   N48       1.0  0.07620  0.64892  0.34302  1.0000
  Fe  Fe94      1.0  0.03353  0.72655  0.41498  1.0000
  H   H1547     1.0  0.02250  0.55917  0.25364  1.0000
  H   H1548     1.0  0.08271  0.52937  0.28432  1.0000
  H   H1549     1.0  0.02527  0.58993  0.33827  1.0000
  N   N49       1.0  0.00448  0.57427  0.25339  1.0000
  Fe  Fe95      1.0  0.05036  0.52310  0.09278  1.0000
  H   H1550     1.0  0.03249  0.49885  0.16175  1.0000
  C   C879      1.0  0.03149  0.54594  0.13772  1.0000
  H   H1551     1.0  0.00504  0.49498  0.14002  1.0000
  H   H1552     1.0  0.99867  0.69255  0.47349  1.0000
  C   C880      1.0  0.17908  0.53516  0.01168  1.0000
  C   C881      1.0  0.01739  0.57851  0.21463  1.0000
  H   H1553     1.0  0.03643  0.51272  0.16502  1.0000
  S   S185      1.0  0.03106  0.52031  0.20449  1.0000
  H   H1554     1.0  0.09178  0.61704  0.32371  1.0000
  C   C882      1.0  0.09416  0.64070  0.35707  1.0000
  C   C883      1.0  0.07989  0.64838  0.35583  1.0000
  H   H1555     1.0  0.98924  0.63420  0.33928  1.0000
  H   H1556     1.0  0.07847  0.65848  0.35753  1.0000
  H   H1557     1.0  0.05446  0.48830  0.07778  1.0000
  H   H1558     1.0  0.98830  0.62716  0.45641  1.0000
  C   C884      1.0  0.07525  0.51112  0.27517  1.0000
  H   H1559     1.0  0.05522  0.57064  0.38691  1.0000
  C   C885      1.0  0.01240  0.56047  0.38463  1.0000
  H   H1560     1.0  0.98953  0.64586  0.39529  1.0000
  C   C886      1.0  0.11018  0.69258  0.45355  1.0000
  H   H1561     1.0  0.05055  0.49001  0.04781  1.0000
  H   H1562     1.0  0.11882  0.68546  0.45711  1.0000
  Fe  Fe96      1.0  0.14922  0.53481  0.00052  1.0000
  H   H1563     1.0  0.02578  0.71463  0.40147  1.0000
  C   C887      1.0  0.04537  0.51654  0.04378  1.0000
  C   C888      1.0  0.02622  0.54969  0.15007  1.0000
  C   C889      1.0  0.16221  0.56993  0.98312  1.0000
  H   H1564     1.0  0.04672  0.56204  0.40272  1.0000
  H   H1565     1.0  0.03700  0.51442  0.37867  1.0000
  H   H1566     1.0  0.98915  0.55979  0.36494  1.0000
  H   H1567     1.0  0.16882  0.53920  0.01573  1.0000
  C   C890      1.0  0.00282  0.57378  0.38712  1.0000
  C   C891      1.0  0.00870  0.71458  0.41783  1.0000
  C   C892      1.0  0.03492  0.58302  0.42918  1.0000
  C   C893      1.0  0.08753  0.66932  0.33307  1.0000
  C   C894      1.0  0.20240  0.53079  0.01218  1.0000
  H   H1568     1.0  0.10755  0.68878  0.44620  1.0000
  C   C895      1.0  0.03021  0.54930  0.36871  1.0000
  H   H1569     1.0  0.03653  0.64579  0.45989  1.0000
  H   H1570     1.0  0.00702  0.57234  0.35856  1.0000
  H   H1571     1.0  0.09297  0.50373  0.22804  1.0000
  C   C896      1.0  0.20575  0.52562  0.00075  1.0000
  H   H1572     1.0  0.00980  0.67881  0.40174  1.0000
  N   N50       1.0  0.06939  0.55512  0.00995  1.0000
  C   C897      1.0  0.18255  0.53028  0.00002  1.0000
  H   H1573     1.0  0.07917  0.67560  0.33879  1.0000
  C   C898      1.0  0.01101  0.51280  0.15059  1.0000
  H   H1574     1.0  0.03485  0.50999  0.25761  1.0000
  H   H1575     1.0  0.08483  0.68253  0.31392  1.0000
  H   H1576     1.0  0.19865  0.52127  0.98589  1.0000
  H   H1577     1.0  0.09551  0.66581  0.33872  1.0000
  H   H1578     1.0  0.04567  0.52636  0.04514  1.0000
  C   C899      1.0  0.04586  0.57118  0.39463  1.0000
  H   H1579     1.0  0.03304  0.49905  0.29857  1.0000
  H   H1580     1.0  0.04590  0.55973  0.37525  1.0000
  H   H1581     1.0  0.03941  0.55018  0.36081  1.0000
  C   C900      1.0  0.00352  0.65776  0.37315  1.0000
  H   H1582     1.0  0.05399  0.57026  0.03111  1.0000
  C   C901      1.0  0.01092  0.58282  0.27067  1.0000
  H   H1583     1.0  0.07927  0.56315  0.02001  1.0000
  H   H1584     1.0  0.00777  0.58086  0.38855  1.0000
  H   H1585     1.0  0.03955  0.57586  0.43723  1.0000
  C   C902      1.0  0.01599  0.49932  0.33865  1.0000
  H   H1586     1.0  0.03776  0.51187  0.14801  1.0000
  H   H1587     1.0  0.07795  0.64000  0.31997  1.0000
  H   H1588     1.0  0.06832  0.57538  0.01086  1.0000
  S   S186      1.0  0.03589  0.55072  0.19963  1.0000
  H   H1589     1.0  0.04409  0.60185  0.47117  1.0000
  C   C903      1.0  0.08784  0.51840  0.00743  1.0000
  C   C904      1.0  0.99661  0.70946  0.40026  1.0000
  H   H1590     1.0  0.98903  0.53066  0.25914  1.0000
  C   C905      1.0  0.99170  0.56339  0.11473  1.0000
  C   C906      1.0  0.99372  0.53089  0.08858  1.0000
  C   C907      1.0  0.23205  0.49501  0.99444  1.0000
  H   H1591     1.0  0.99443  0.52287  0.24018  1.0000
  H   H1592     1.0  0.09347  0.67624  0.46567  1.0000
  H   H1593     1.0  0.09341  0.58114  0.00864  1.0000
  H   H1594     1.0  0.99633  0.72857  0.46160  1.0000
  H   H1595     1.0  0.98815  0.60705  0.46714  1.0000
  C   C908      1.0  0.99671  0.48929  0.28463  1.0000
  H   H1596     1.0  0.99716  0.64264  0.36747  1.0000
  H   H1597     1.0  0.01063  0.48581  0.35820  1.0000
  H   H1598     1.0  0.01311  0.48692  0.10429  1.0000
  C   C909      1.0  0.99001  0.49874  0.12915  1.0000
  H   H1599     1.0  0.01068  0.53350  0.27224  1.0000
  N   N51       1.0  0.00236  0.50426  0.33570  1.0000
  H   H1600     1.0  0.00119  0.57020  0.16503  1.0000
  C   C910      1.0  0.99266  0.53257  0.10137  1.0000
  H   H1601     1.0  0.08545  0.56996  0.98908  1.0000
  C   C911      1.0  0.99538  0.55887  0.30046  1.0000
  H   H1602     1.0  0.16660  0.49011  0.04526  1.0000
  H   H1603     1.0  0.99215  0.55266  0.11940  1.0000
  C   C912      1.0  0.99029  0.57578  0.26108  1.0000
  H   H1604     1.0  0.23244  0.56803  0.99069  1.0000
  H   H1605     1.0  0.99232  0.48814  0.12846  1.0000
  C   C913      1.0  0.00242  0.48936  0.29616  1.0000
  H   H1606     1.0  0.22133  0.49337  0.04750  1.0000
  H   H1607     1.0  0.99254  0.69103  0.36574  1.0000
  H   H1608     1.0  0.00738  0.49661  0.23072  1.0000
  C   C914      1.0  0.20630  0.49519  0.03720  1.0000
  H   H1609     1.0  0.98965  0.52863  0.36325  1.0000
  H   H1610     1.0  0.19819  0.57435  0.98526  1.0000
  H   H1611     1.0  0.99532  0.50440  0.11979  1.0000
  H   H1612     1.0  0.00131  0.52219  0.34201  1.0000
  S   S187      1.0  0.98919  0.70685  0.38885  1.0000
  H   H1613     1.0  0.99523  0.58424  0.47830  1.0000
  C   C915      1.0  0.99458  0.51590  0.34211  1.0000
  H   H1614     1.0  0.99910  0.48905  0.16666  1.0000
  H   H1615     1.0  0.15931  0.50064  0.03157  1.0000
  H   H1616     1.0  0.10314  0.67491  0.47707  1.0000
  H   H1617     1.0  0.06645  0.70528  0.47094  1.0000
  C   C916      1.0  0.01668  0.49343  0.35345  1.0000
  H   H1618     1.0  0.09063  0.65593  0.48003  1.0000
  C   C917      1.0  0.98901  0.49227  0.07274  1.0000
  H   H1619     1.0  0.98867  0.49406  0.15022  1.0000
  H   H1620     1.0  0.04970  0.48834  0.27730  1.0000
  H   H1621     1.0  0.99620  0.52014  0.13233  1.0000
  C   C918      1.0  0.06991  0.68351  0.47896  1.0000
  H   H1622     1.0  0.98746  0.51644  0.17419  1.0000
  H   H1623     1.0  0.01768  0.50104  0.10631  1.0000
  C   C919      1.0  0.98932  0.51028  0.16678  1.0000
  H   H1624     1.0  0.99035  0.58885  0.30318  1.0000
  H   H1625     1.0  0.99443  0.51057  0.27832  1.0000
  C   C920      1.0  0.03091  0.48679  0.35474  1.0000
  H   H1626     1.0  0.10003  0.58340  0.99090  1.0000
  C   C921      1.0  0.99490  0.51219  0.24109  1.0000
  H   H1627     1.0  0.99433  0.49267  0.30441  1.0000
  H   H1628     1.0  0.16182  0.56143  0.99193  1.0000
  C   C922      1.0  0.22216  0.56673  0.99264  1.0000
  H   H1629     1.0  0.99483  0.61899  0.35064  1.0000
  H   H1630     1.0  0.21532  0.57498  0.99715  1.0000
  H   H1631     1.0  0.09655  0.56084  0.00004  1.0000
  C   C923      1.0  0.98843  0.50323  0.27942  1.0000
  C   C924      1.0  0.22112  0.48921  0.00095  1.0000
  C   C925      1.0  0.21760  0.48666  0.04391  1.0000
  H   H1632     1.0  0.99115  0.49833  0.06240  1.0000
  C   C926      1.0  0.99647  0.50419  0.25534  1.0000
  H   H1633     1.0  0.21346  0.49356  0.00846  1.0000
  C   C927      1.0  0.99438  0.49975  0.14121  1.0000
  H   H1634     1.0  0.23191  0.48740  0.02535  1.0000
  H   H1635     1.0  0.17065  0.50920  0.98267  1.0000
  H   H1636     1.0  0.98783  0.59800  0.35061  1.0000
  H   H1637     1.0  0.98764  0.57807  0.34447  1.0000
  H   H1638     1.0  0.98731  0.52259  0.33615  1.0000
  H   H1639     1.0  0.03229  0.59217  0.48145  1.0000
  Fe  Fe97      1.0  0.04799  0.51848  0.82612  1.0000
  S   S188      1.0  0.05511  0.53623  0.82659  1.0000
  S   S189      1.0  0.02914  0.51180  0.83802  1.0000
  Fe  Fe98      1.0  0.07237  0.50933  0.80573  1.0000
  S   S190      1.0  0.08122  0.52615  0.80445  1.0000
  H   H1640     1.0  0.99436  0.51429  0.67269  1.0000
  Fe  Fe99      1.0  0.07505  0.52215  0.82682  1.0000
  S   S191      1.0  0.09205  0.51831  0.83717  1.0000
  Fe  Fe100     1.0  0.06086  0.53851  0.80415  1.0000
  S   S192      1.0  0.05917  0.55786  0.78881  1.0000
  S   S193      1.0  0.06743  0.50420  0.82806  1.0000
  S   S194      1.0  0.05233  0.52188  0.80378  1.0000
  Fe  Fe101     1.0  0.12614  0.54374  0.87905  1.0000
  S   S195      1.0  0.12578  0.53384  0.90075  1.0000
  S   S196      1.0  0.10736  0.55019  0.87092  1.0000
  Fe  Fe102     1.0  0.15563  0.54406  0.87301  1.0000
  S   S197      1.0  0.15770  0.53382  0.89385  1.0000
  S   S198      1.0  0.17260  0.54993  0.85643  1.0000
  Fe  Fe103     1.0  0.14503  0.52108  0.89258  1.0000
  S   S199      1.0  0.14965  0.49918  0.90116  1.0000
  Fe  Fe104     1.0  0.13839  0.54756  0.90021  1.0000
  S   S200      1.0  0.13853  0.55787  0.91598  1.0000
  S   S201      1.0  0.14472  0.52996  0.87096  1.0000
  S   S202      1.0  0.13708  0.55883  0.87924  1.0000
  C   C928      1.0  0.17585  0.55735  0.90421  1.0000
  S   S203      1.0  0.22026  0.55038  0.90419  1.0000
  S   S204      1.0  0.21963  0.56753  0.86680  1.0000
  S   S205      1.0  0.03322  0.62439  0.51960  1.0000
  C   C929      1.0  0.20633  0.58782  0.89470  1.0000
  C   C930      1.0  0.08389  0.65630  0.48996  1.0000
  H   H1641     1.0  0.11475  0.50840  0.92871  1.0000
  Fe  Fe105     1.0  0.06028  0.61785  0.48775  1.0000
  H   H1642     1.0  0.03670  0.48642  0.69424  1.0000
  H   H1643     1.0  0.15712  0.56753  0.88929  1.0000
  C   C931      1.0  0.20198  0.57569  0.95896  1.0000
  H   H1644     1.0  0.98788  0.71255  0.53816  1.0000
  H   H1645     1.0  0.02474  0.49150  0.79028  1.0000
  C   C932      1.0  0.04406  0.54203  0.66388  1.0000
  C   C933      1.0  0.00068  0.67295  0.53282  1.0000
  C   C934      1.0  0.10910  0.53138  0.72307  1.0000
  H   H1646     1.0  0.07933  0.49424  0.63538  1.0000
  H   H1647     1.0  0.17716  0.48519  0.94640  1.0000
  C   C935      1.0  0.05283  0.57089  0.82288  1.0000
  H   H1648     1.0  0.00554  0.48627  0.68385  1.0000
  H   H1649     1.0  0.22042  0.57637  0.97257  1.0000
  H   H1650     1.0  0.08858  0.68382  0.50873  1.0000
  H   H1651     1.0  0.19578  0.50211  0.89822  1.0000
  H   H1652     1.0  0.22625  0.55859  0.97540  1.0000
  S   S206      1.0  0.02032  0.59852  0.50963  1.0000
  H   H1653     1.0  0.03647  0.50283  0.64736  1.0000
  H   H1654     1.0  0.12006  0.49838  0.87413  1.0000
  C   C936      1.0  0.16586  0.50192  0.85739  1.0000
  C   C937      1.0  0.20455  0.56528  0.98186  1.0000
  C   C938      1.0  0.19893  0.52665  0.83631  1.0000
  H   H1655     1.0  0.13202  0.50860  0.92508  1.0000
  S   S207      1.0  0.07258  0.55939  0.58130  1.0000
  Fe  Fe106     1.0  0.04945  0.54546  0.72226  1.0000
  H   H1656     1.0  0.06243  0.53929  0.64940  1.0000
  S   S208      1.0  0.05447  0.56058  0.73004  1.0000
  C   C939      1.0  0.19680  0.59019  0.93703  1.0000
  H   H1657     1.0  0.07384  0.65608  0.48938  1.0000
  C   C940      1.0  0.03430  0.49830  0.67428  1.0000
  H   H1658     1.0  0.09254  0.66707  0.49824  1.0000
  C   C941      1.0  0.05201  0.53929  0.65170  1.0000
  S   S209      1.0  0.03252  0.55165  0.71189  1.0000
  H   H1659     1.0  0.01464  0.51261  0.65752  1.0000
  H   H1660     1.0  0.05931  0.48707  0.68051  1.0000
  C   C942      1.0  0.12603  0.49263  0.88131  1.0000
  C   C943      1.0  0.08910  0.51539  0.74409  1.0000
  H   H1661     1.0  0.09874  0.64323  0.50092  1.0000
  C   C944      1.0  0.00784  0.50730  0.72874  1.0000
  H   H1662     1.0  0.04222  0.51039  0.55385  1.0000
  H   H1663     1.0  0.04453  0.57961  0.82423  1.0000
  H   H1664     1.0  0.99077  0.52459  0.69787  1.0000
  H   H1665     1.0  0.08763  0.54627  0.77624  1.0000
  C   C945      1.0  0.04079  0.50808  0.56489  1.0000
  H   H1666     1.0  0.18112  0.55409  0.89485  1.0000
  H   H1667     1.0  0.00437  0.51076  0.61670  1.0000
  S   S210      1.0  0.03044  0.66095  0.49559  1.0000
  H   H1668     1.0  0.19882  0.52092  0.87412  1.0000
  C   C946      1.0  0.07639  0.51024  0.74958  1.0000
  H   H1669     1.0  0.05162  0.56661  0.81505  1.0000
  H   H1670     1.0  0.03318  0.50417  0.69286  1.0000
  H   H1671     1.0  0.04101  0.49038  0.66924  1.0000
  H   H1672     1.0  0.00704  0.59489  0.72547  1.0000
  H   H1673     1.0  0.05227  0.56339  0.83249  1.0000
  H   H1674     1.0  0.09389  0.54760  0.79831  1.0000
  H   H1675     1.0  0.20869  0.59753  0.88883  1.0000
  N   N52       1.0  0.17542  0.57197  0.90235  1.0000
  C   C947      1.0  0.22001  0.49257  0.90607  1.0000
  C   C948      1.0  0.03062  0.54181  0.66692  1.0000
  C   C949      1.0  0.98895  0.51548  0.74516  1.0000
  C   C950      1.0  0.00511  0.62086  0.49693  1.0000
  S   S211      1.0  0.02564  0.53548  0.63308  1.0000
  H   H1676     1.0  0.12812  0.48687  0.92394  1.0000
  H   H1677     1.0  0.16765  0.50754  0.84684  1.0000
  H   H1678     1.0  0.05547  0.55325  0.97793  1.0000
  Fe  Fe107     1.0  0.03961  0.63902  0.50075  1.0000
  C   C951      1.0  0.00126  0.51665  0.73665  1.0000
  C   C952      1.0  0.06970  0.57360  0.56836  1.0000
  C   C953      1.0  0.07635  0.58370  0.56645  1.0000
  C   C954      1.0  0.07444  0.59525  0.55643  1.0000
  C   C955      1.0  0.06610  0.59677  0.54790  1.0000
  C   C956      1.0  0.05948  0.58662  0.54964  1.0000
  C   C957      1.0  0.06114  0.57509  0.56000  1.0000
  H   H1679     1.0  0.08302  0.58261  0.57278  1.0000
  H   H1680     1.0  0.07960  0.60300  0.55515  1.0000
  H   H1681     1.0  0.05312  0.58765  0.54302  1.0000
  H   H1682     1.0  0.05603  0.56728  0.56134  1.0000
  Fe  Fe108     1.0  0.05646  0.51731  0.71769  1.0000
  H   H1683     1.0  0.18970  0.59796  0.94207  1.0000
  N   N53       1.0  0.99355  0.58683  0.54951  1.0000
  H   H1684     1.0  0.15405  0.59671  0.87382  1.0000
  H   H1685     1.0  0.99776  0.73108  0.52215  1.0000
  C   C958      1.0  0.02248  0.59873  0.55511  1.0000
  H   H1686     1.0  0.16115  0.58197  0.86687  1.0000
  C   C959      1.0  0.15216  0.59485  0.92625  1.0000
  C   C960      1.0  0.00455  0.54750  0.59296  1.0000
  C   C961      1.0  0.12770  0.48892  0.93366  1.0000
  C   C962      1.0  0.02987  0.50032  0.57158  1.0000
  H   H1687     1.0  0.20678  0.59253  0.93384  1.0000
  H   H1688     1.0  0.17233  0.59361  0.91575  1.0000
  H   H1689     1.0  0.00041  0.55375  0.82041  1.0000
  C   C963      1.0  0.04278  0.68934  0.51243  1.0000
  N   N54       1.0  0.20075  0.56344  0.97000  1.0000
  H   H1690     1.0  0.99892  0.57729  0.71220  1.0000
  H   H1691     1.0  0.10300  0.48889  0.84174  1.0000
  H   H1692     1.0  0.04663  0.49809  0.74665  1.0000
  C   C964      1.0  0.00038  0.69668  0.52760  1.0000
  H   H1693     1.0  0.99896  0.58970  0.50640  1.0000
  C   C965      1.0  0.99523  0.48848  0.89145  1.0000
  H   H1694     1.0  0.99648  0.69006  0.55263  1.0000
  H   H1695     1.0  0.10044  0.68843  0.49364  1.0000
  H   H1696     1.0  0.10928  0.54339  0.74245  1.0000
  C   C966      1.0  0.13189  0.55154  0.93289  1.0000
  C   C967      1.0  0.13511  0.55555  0.94279  1.0000
  C   C968      1.0  0.12961  0.55108  0.95637  1.0000
  C   C969      1.0  0.12048  0.54294  0.96006  1.0000
  C   C970      1.0  0.11731  0.53885  0.95017  1.0000
  C   C971      1.0  0.12317  0.54296  0.93662  1.0000
  H   H1697     1.0  0.14173  0.56231  0.93993  1.0000
  H   H1698     1.0  0.13206  0.55429  0.96394  1.0000
  H   H1699     1.0  0.11028  0.53253  0.95300  1.0000
  H   H1700     1.0  0.12057  0.53989  0.92904  1.0000
  C   C972      1.0  0.18527  0.55477  0.86009  1.0000
  C   C973      1.0  0.19020  0.54839  0.87163  1.0000
  C   C974      1.0  0.20108  0.55186  0.87370  1.0000
  C   C975      1.0  0.20660  0.56212  0.86447  1.0000
  C   C976      1.0  0.20157  0.56849  0.85302  1.0000
  C   C977      1.0  0.19113  0.56467  0.85073  1.0000
  H   H1701     1.0  0.18572  0.54069  0.87885  1.0000
  H   H1702     1.0  0.20504  0.54676  0.88249  1.0000
  H   H1703     1.0  0.20584  0.57635  0.84579  1.0000
  H   H1704     1.0  0.18749  0.56954  0.84171  1.0000
  H   H1705     1.0  0.21341  0.54379  0.97457  1.0000
  C   C978      1.0  0.13228  0.49906  0.88673  1.0000
  C   C979      1.0  0.00682  0.60717  0.50240  1.0000
  H   H1706     1.0  0.00671  0.56732  0.55094  1.0000
  H   H1707     1.0  0.13103  0.50973  0.88374  1.0000
  C   C980      1.0  0.01735  0.50161  0.66139  1.0000
  C   C981      1.0  0.09572  0.52706  0.84708  1.0000
  C   C982      1.0  0.10800  0.52262  0.85081  1.0000
  C   C983      1.0  0.11161  0.52946  0.85829  1.0000
  C   C984      1.0  0.10295  0.54081  0.86216  1.0000
  C   C985      1.0  0.09057  0.54513  0.85861  1.0000
  C   C986      1.0  0.08697  0.53832  0.85107  1.0000
  H   H1708     1.0  0.11478  0.51383  0.84792  1.0000
  H   H1709     1.0  0.12112  0.52596  0.86102  1.0000
  H   H1710     1.0  0.08374  0.55381  0.86170  1.0000
  H   H1711     1.0  0.07742  0.54171  0.84846  1.0000
  C   C987      1.0  0.05742  0.55793  0.77279  1.0000
  C   C988      1.0  0.05800  0.56963  0.76291  1.0000
  C   C989      1.0  0.05692  0.57020  0.74998  1.0000
  C   C990      1.0  0.05497  0.55919  0.74678  1.0000
  C   C991      1.0  0.05415  0.54747  0.75667  1.0000
  C   C992      1.0  0.05561  0.54677  0.76961  1.0000
  H   H1712     1.0  0.05939  0.57828  0.76522  1.0000
  H   H1713     1.0  0.05757  0.57929  0.74241  1.0000
  H   H1714     1.0  0.05269  0.53889  0.75428  1.0000
  H   H1715     1.0  0.05538  0.53761  0.77706  1.0000
  C   C993      1.0  0.03401  0.69422  0.50383  1.0000
  C   C994      1.0  0.01159  0.50974  0.68206  1.0000
  H   H1716     1.0  0.02438  0.54407  0.67624  1.0000
  H   H1717     1.0  0.15043  0.50226  0.97783  1.0000
  H   H1718     1.0  0.99808  0.55135  0.52874  1.0000
  H   H1719     1.0  0.19003  0.53132  0.90491  1.0000
  C   C995      1.0  0.17509  0.49925  0.98042  1.0000
  H   H1720     1.0  0.02626  0.58972  0.56236  1.0000
  H   H1721     1.0  0.01188  0.62630  0.49755  1.0000
  H   H1722     1.0  0.10635  0.52730  0.75011  1.0000
  C   C996      1.0  0.01469  0.59527  0.54708  1.0000
  C   C997      1.0  0.00320  0.51627  0.83693  1.0000
  C   C998      1.0  0.01437  0.52178  0.83359  1.0000
  C   C999      1.0  0.01343  0.53523  0.82728  1.0000
  C   C1000     1.0  0.00123  0.54323  0.82483  1.0000
  H   H1723     1.0  0.05609  0.49468  0.69443  1.0000
  H   H1724     1.0  0.00387  0.50595  0.84193  1.0000
  H   H1725     1.0  0.02199  0.53958  0.82473  1.0000
  H   H1726     1.0  0.12276  0.50655  0.94212  1.0000
  H   H1727     1.0  0.03089  0.65188  0.53830  1.0000
  C   C1001     1.0  0.03036  0.68537  0.49873  1.0000
  C   C1002     1.0  0.04800  0.67558  0.51574  1.0000
  H   H1728     1.0  0.98808  0.59108  0.71916  1.0000
  C   C1003     1.0  0.03302  0.53722  0.64512  1.0000
  H   H1729     1.0  0.00661  0.70801  0.48755  1.0000
  H   H1730     1.0  0.12693  0.50115  0.98112  1.0000
  H   H1731     1.0  0.16860  0.50710  0.86355  1.0000
  H   H1732     1.0  0.00717  0.49130  0.82547  1.0000
  H   H1733     1.0  0.08279  0.53669  0.76016  1.0000
  H   H1734     1.0  0.05023  0.50207  0.56764  1.0000
  S   S212      1.0  0.05999  0.52873  0.60658  1.0000
  C   C1004     1.0  0.99076  0.66973  0.48366  1.0000
  H   H1735     1.0  0.09344  0.51407  0.75274  1.0000
  H   H1736     1.0  0.13434  0.52060  0.70986  1.0000
  C   C1005     1.0  0.09040  0.54277  0.75652  1.0000
  N   N55       1.0  0.09146  0.56611  0.81409  1.0000
  C   C1006     1.0  0.10143  0.55318  0.81280  1.0000
  C   C1007     1.0  0.09180  0.57070  0.82618  1.0000
  C   C1008     1.0  0.07789  0.56339  0.81628  1.0000
  C   C1009     1.0  0.09347  0.57686  0.80159  1.0000
  C   C1010     1.0  0.10713  0.58060  0.79721  1.0000
  C   C1011     1.0  0.10335  0.54824  0.79991  1.0000
  C   C1012     1.0  0.06598  0.57526  0.81872  1.0000
  C   C1013     1.0  0.10534  0.56765  0.83008  1.0000
  C   C1014     1.0  0.10460  0.57525  0.84053  1.0000
  C   C1015     1.0  0.10887  0.58965  0.78324  1.0000
  C   C1016     1.0  0.11255  0.53444  0.80051  1.0000
  H   H1737     1.0  0.09878  0.54515  0.82162  1.0000
  H   H1738     1.0  0.11146  0.55379  0.81298  1.0000
  H   H1739     1.0  0.08767  0.58162  0.82497  1.0000
  H   H1740     1.0  0.08524  0.56601  0.83532  1.0000
  H   H1741     1.0  0.07643  0.55480  0.82491  1.0000
  H   H1742     1.0  0.07683  0.56035  0.80756  1.0000
  H   H1743     1.0  0.09146  0.57413  0.79312  1.0000
  H   H1744     1.0  0.08612  0.58628  0.80286  1.0000
  H   H1745     1.0  0.11537  0.57171  0.79700  1.0000
  H   H1746     1.0  0.10793  0.58619  0.80417  1.0000
  H   H1747     1.0  0.10787  0.55510  0.79100  1.0000
  H   H1748     1.0  0.06571  0.58313  0.80942  1.0000
  H   H1749     1.0  0.06646  0.57973  0.82672  1.0000
  H   H1750     1.0  0.10824  0.55683  0.83447  1.0000
  H   H1751     1.0  0.11334  0.57030  0.82144  1.0000
  H   H1752     1.0  0.11410  0.57212  0.84385  1.0000
  H   H1753     1.0  0.10276  0.58615  0.83629  1.0000
  H   H1754     1.0  0.09659  0.57305  0.84944  1.0000
  H   H1755     1.0  0.11860  0.59247  0.78047  1.0000
  H   H1756     1.0  0.10854  0.58442  0.77575  1.0000
  H   H1757     1.0  0.10098  0.59891  0.78299  1.0000
  H   H1758     1.0  0.12247  0.53471  0.80142  1.0000
  H   H1759     1.0  0.10839  0.52708  0.80918  1.0000
  H   H1760     1.0  0.05789  0.48810  0.62551  1.0000
  H   H1761     1.0  0.07506  0.66970  0.50347  1.0000
  H   H1762     1.0  0.09998  0.53161  0.77304  1.0000
  C   C1017     1.0  0.09232  0.55164  0.72645  1.0000
  C   C1018     1.0  0.08635  0.53004  0.73630  1.0000
  H   H1763     1.0  0.11549  0.51202  0.73662  1.0000
  H   H1764     1.0  0.00382  0.49486  0.78302  1.0000
  C   C1019     1.0  0.08898  0.55405  0.71259  1.0000
  H   H1765     1.0  0.19357  0.59037  0.92797  1.0000
  H   H1766     1.0  0.16576  0.55554  0.90624  1.0000
  H   H1767     1.0  0.99646  0.66664  0.56109  1.0000
  H   H1768     1.0  0.99728  0.51780  0.64535  1.0000
  C   C1020     1.0  0.08507  0.56895  0.70660  1.0000
  N   N56       1.0  0.08204  0.68195  0.48416  1.0000
  H   H1769     1.0  0.99011  0.55226  0.78237  1.0000
  H   H1770     1.0  0.03266  0.49451  0.62972  1.0000
  S   S213      1.0  0.04398  0.52653  0.73476  1.0000
  H   H1771     1.0  0.09964  0.55771  0.72521  1.0000
  H   H1772     1.0  0.08308  0.55616  0.73290  1.0000
  H   H1773     1.0  0.07715  0.53559  0.74188  1.0000
  H   H1774     1.0  0.08367  0.52980  0.72705  1.0000
  H   H1775     1.0  0.14279  0.59309  0.92538  1.0000
  H   H1776     1.0  0.99196  0.50468  0.68956  1.0000
  H   H1777     1.0  0.03108  0.60259  0.54823  1.0000
  H   H1778     1.0  0.08562  0.55331  0.75302  1.0000
  H   H1779     1.0  0.08054  0.54962  0.71356  1.0000
  H   H1780     1.0  0.09748  0.54972  0.70530  1.0000
  H   H1781     1.0  0.01295  0.54749  0.59650  1.0000
  H   H1782     1.0  0.07932  0.70292  0.48403  1.0000
  H   H1783     1.0  0.11368  0.53104  0.79125  1.0000
  H   H1784     1.0  0.07882  0.49950  0.75433  1.0000
  H   H1785     1.0  0.07137  0.51143  0.74141  1.0000
  H   H1786     1.0  0.99869  0.50204  0.55759  1.0000
  H   H1787     1.0  0.08176  0.64327  0.50986  1.0000
  S   S214      1.0  0.06419  0.61178  0.53565  1.0000
  H   H1788     1.0  0.09349  0.57379  0.70463  1.0000
  H   H1789     1.0  0.08217  0.57039  0.69702  1.0000
  H   H1790     1.0  0.07651  0.57386  0.71347  1.0000
  C   C1021     1.0  0.12768  0.49241  0.82856  1.0000
  H   H1791     1.0  0.04866  0.65617  0.51292  1.0000
  H   H1792     1.0  0.01460  0.53998  0.65960  1.0000
  C   C1022     1.0  0.22754  0.50226  0.90265  1.0000
  H   H1793     1.0  0.01664  0.49207  0.63961  1.0000
  H   H1794     1.0  0.99544  0.66480  0.53831  1.0000
  C   C1023     1.0  0.08337  0.66901  0.49454  1.0000
  H   H1795     1.0  0.12560  0.52381  0.73331  1.0000
  H   H1796     1.0  0.99026  0.57530  0.52922  1.0000
  H   H1797     1.0  0.17836  0.57555  0.88091  1.0000
  H   H1798     1.0  0.01991  0.50869  0.63346  1.0000
  Fe  Fe109     1.0  0.23627  0.55660  0.90887  1.0000
  S   S215      1.0  0.08404  0.49574  0.79203  1.0000
  H   H1799     1.0  0.02979  0.70478  0.50138  1.0000
  H   H1800     1.0  0.01041  0.59528  0.70788  1.0000
  C   C1024     1.0  0.99449  0.50658  0.56646  1.0000
  H   H1801     1.0  0.18719  0.57442  0.94880  1.0000
  N   N57       1.0  0.21033  0.51385  0.85644  1.0000
  H   H1802     1.0  0.00353  0.56507  0.73448  1.0000
  H   H1803     1.0  0.08905  0.63475  0.49631  1.0000
  H   H1804     1.0  0.18141  0.51037  0.89121  1.0000
  H   H1805     1.0  0.21434  0.57979  0.89093  1.0000
  H   H1806     1.0  0.02122  0.67478  0.52825  1.0000
  H   H1807     1.0  0.01730  0.50818  0.72209  1.0000
  H   H1808     1.0  0.13674  0.51794  0.96260  1.0000
  S   S216      1.0  0.07024  0.49723  0.72078  1.0000
  C   C1025     1.0  0.00219  0.59047  0.55630  1.0000
  C   C1026     1.0  0.16594  0.57647  0.91440  1.0000
  H   H1809     1.0  0.22347  0.49256  0.94460  1.0000
  C   C1027     1.0  0.14012  0.49165  0.89588  1.0000
  H   H1810     1.0  0.17601  0.54888  0.92545  1.0000
  C   C1028     1.0  0.99649  0.51289  0.68261  1.0000
  H   H1811     1.0  0.00921  0.71933  0.51287  1.0000
  H   H1812     1.0  0.19635  0.50766  0.84947  1.0000
  H   H1813     1.0  0.17745  0.50972  0.93984  1.0000
  C   C1029     1.0  0.20535  0.51159  0.87142  1.0000
  C   C1030     1.0  0.16929  0.49284  0.94207  1.0000
  H   H1814     1.0  0.17886  0.48886  0.96488  1.0000
  H   H1815     1.0  0.01781  0.58080  0.71891  1.0000
  H   H1816     1.0  0.20613  0.58698  0.90535  1.0000
  C   C1031     1.0  0.07359  0.48689  0.79013  1.0000
  H   H1817     1.0  0.10707  0.48776  0.92248  1.0000
  H   H1818     1.0  0.99785  0.60010  0.53030  1.0000
  C   C1032     1.0  0.04936  0.49372  0.75644  1.0000
  H   H1819     1.0  0.12032  0.50201  0.82865  1.0000
  C   C1033     1.0  0.21979  0.50122  0.85335  1.0000
  H   H1820     1.0  0.01478  0.64793  0.54480  1.0000
  H   H1821     1.0  0.02330  0.68914  0.49242  1.0000
  H   H1822     1.0  0.16515  0.50102  0.92212  1.0000
  C   C1034     1.0  0.11979  0.51984  0.72881  1.0000
  H   H1823     1.0  0.13165  0.48969  0.97007  1.0000
  C   C1035     1.0  0.19722  0.57641  0.94634  1.0000
  H   H1824     1.0  0.99987  0.67125  0.49907  1.0000
  C   C1036     1.0  0.99115  0.52411  0.83392  1.0000
  C   C1037     1.0  0.20509  0.54307  0.95899  1.0000
  C   C1038     1.0  0.21621  0.53201  0.95392  1.0000
  H   H1825     1.0  0.18749  0.53467  0.82095  1.0000
  H   H1826     1.0  0.11461  0.53916  0.71670  1.0000
  Fe  Fe110     1.0  0.03793  0.53545  0.61194  1.0000
  H   H1827     1.0  0.99307  0.57120  0.63152  1.0000
  H   H1828     1.0  0.21944  0.55379  0.95894  1.0000
  H   H1829     1.0  0.98966  0.62464  0.52436  1.0000
  C   C1039     1.0  0.99447  0.62757  0.49082  1.0000
  C   C1040     1.0  0.12900  0.50036  0.97054  1.0000
  H   H1830     1.0  0.21248  0.57655  0.95537  1.0000
  C   C1041     1.0  0.98946  0.52565  0.68764  1.0000
  H   H1831     1.0  0.20426  0.56915  0.94064  1.0000
  H   H1832     1.0  0.18745  0.51746  0.82900  1.0000
  C   C1042     1.0  0.08911  0.70442  0.50341  1.0000
  C   C1043     1.0  0.00612  0.50658  0.59760  1.0000
  H   H1833     1.0  0.19729  0.53824  0.96629  1.0000
  H   H1834     1.0  0.20081  0.54938  0.95045  1.0000
  H   H1835     1.0  0.05848  0.49122  0.80740  1.0000
  H   H1836     1.0  0.99340  0.53429  0.68083  1.0000
  S   S217      1.0  0.06766  0.49490  0.59572  1.0000
  C   C1044     1.0  0.00364  0.55633  0.53244  1.0000
  H   H1837     1.0  0.02910  0.49817  0.58245  1.0000
  S   S218      1.0  0.11273  0.53791  0.97692  1.0000
  H   H1838     1.0  0.03674  0.50789  0.66790  1.0000
  H   H1839     1.0  0.98853  0.50467  0.59281  1.0000
  C   C1045     1.0  0.10157  0.53741  0.74530  1.0000
  C   C1046     1.0  0.19845  0.51699  0.85023  1.0000
  C   C1047     1.0  0.18925  0.57350  0.90121  1.0000
  H   H1840     1.0  0.15062  0.60554  0.92629  1.0000
  C   C1048     1.0  0.00178  0.71801  0.48873  1.0000
  H   H1841     1.0  0.01245  0.48971  0.75300  1.0000
  H   H1842     1.0  0.18929  0.52627  0.92253  1.0000
  S   S219      1.0  0.03422  0.52204  0.60124  1.0000
  C   C1049     1.0  0.17096  0.57920  0.88949  1.0000
  H   H1843     1.0  0.19132  0.57151  0.91132  1.0000
  H   H1844     1.0  0.09584  0.50901  0.73725  1.0000
  H   H1845     1.0  0.22718  0.49773  0.85973  1.0000
  C   C1050     1.0  0.06498  0.48525  0.63216  1.0000
  H   H1846     1.0  0.18555  0.59566  0.89589  1.0000
  C   C1051     1.0  0.99008  0.53770  0.82814  1.0000
  H   H1847     1.0  0.23623  0.51451  0.85704  1.0000
  C   C1052     1.0  0.21897  0.56679  0.97956  1.0000
  C   C1053     1.0  0.18675  0.56143  0.97460  1.0000
  C   C1054     1.0  0.12405  0.50402  0.93238  1.0000
  C   C1055     1.0  0.99773  0.51079  0.61041  1.0000
  C   C1056     1.0  0.17286  0.49364  0.92701  1.0000
  C   C1057     1.0  0.07237  0.49645  0.62872  1.0000
  C   C1058     1.0  0.00217  0.49665  0.72961  1.0000
  H   H1848     1.0  0.01524  0.51906  0.67711  1.0000
  S   S220      1.0  0.23014  0.57157  0.92173  1.0000
  H   H1849     1.0  0.10561  0.52786  0.71603  1.0000
  C   C1059     1.0  0.03566  0.67166  0.50189  1.0000
  C   C1060     1.0  0.21697  0.52554  0.85201  1.0000
  C   C1061     1.0  0.18957  0.50138  0.89187  1.0000
  H   H1850     1.0  0.98796  0.54726  0.74972  1.0000
  H   H1851     1.0  0.06962  0.51563  0.75725  1.0000
  C   C1062     1.0  0.19301  0.58692  0.89302  1.0000
  H   H1852     1.0  0.16955  0.57088  0.92362  1.0000
  H   H1853     1.0  0.18553  0.50326  0.95952  1.0000
  H   H1854     1.0  0.17064  0.59001  0.88737  1.0000
  H   H1855     1.0  0.17421  0.53069  0.91651  1.0000
  H   H1856     1.0  0.15512  0.50196  0.86085  1.0000
  C   C1063     1.0  0.23635  0.53524  0.85068  1.0000
  Fe  Fe111     1.0  0.03574  0.53880  0.58316  1.0000
  Fe  Fe112     1.0  0.05627  0.51627  0.59480  1.0000
  N   N58       1.0  0.01999  0.49857  0.67529  1.0000
  N   N59       1.0  0.05968  0.57389  0.61814  1.0000
  C   C1064     1.0  0.06579  0.57949  0.62585  1.0000
  C   C1065     1.0  0.06057  0.58239  0.60415  1.0000
  C   C1066     1.0  0.04551  0.57382  0.62536  1.0000
  C   C1067     1.0  0.06688  0.55982  0.61718  1.0000
  C   C1068     1.0  0.08211  0.55755  0.61195  1.0000
  C   C1069     1.0  0.06703  0.57112  0.64009  1.0000
  C   C1070     1.0  0.03726  0.56942  0.61828  1.0000
  C   C1071     1.0  0.05199  0.59676  0.60280  1.0000
  C   C1072     1.0  0.05366  0.60415  0.58814  1.0000
  C   C1073     1.0  0.08818  0.54294  0.61143  1.0000
  C   C1074     1.0  0.07403  0.57732  0.64661  1.0000
  C   C1075     1.0  0.02275  0.57125  0.62563  1.0000
  H   H1857     1.0  0.05984  0.58953  0.62719  1.0000
  H   H1858     1.0  0.07573  0.58117  0.62008  1.0000
  H   H1859     1.0  0.07096  0.58331  0.59942  1.0000
  H   H1860     1.0  0.05797  0.57749  0.59762  1.0000
  H   H1861     1.0  0.04024  0.58376  0.62756  1.0000
  H   H1862     1.0  0.04507  0.56684  0.63531  1.0000
  H   H1863     1.0  0.06488  0.55287  0.62700  1.0000
  H   H1864     1.0  0.06304  0.55630  0.61044  1.0000
  H   H1865     1.0  0.08688  0.56015  0.61853  1.0000
  H   H1866     1.0  0.08471  0.56361  0.60171  1.0000
  H   H1867     1.0  0.05714  0.57058  0.64671  1.0000
  H   H1868     1.0  0.07276  0.56080  0.63988  1.0000
  H   H1869     1.0  0.04106  0.55870  0.61814  1.0000
  H   H1870     1.0  0.03757  0.57521  0.60787  1.0000
  H   H1871     1.0  0.04134  0.59674  0.60674  1.0000
  H   H1872     1.0  0.05491  0.60253  0.60824  1.0000
  H   H1873     1.0  0.06412  0.60488  0.58371  1.0000
  H   H1874     1.0  0.05059  0.59891  0.58226  1.0000
  H   H1875     1.0  0.04741  0.61440  0.58734  1.0000
  H   H1876     1.0  0.08595  0.53637  0.62149  1.0000
  H   H1877     1.0  0.08430  0.53998  0.60434  1.0000
  H   H1878     1.0  0.09908  0.54151  0.60788  1.0000
  H   H1879     1.0  0.07460  0.57121  0.65682  1.0000
  H   H1880     1.0  0.08424  0.57764  0.64069  1.0000
  H   H1881     1.0  0.06846  0.58758  0.64750  1.0000
  H   H1882     1.0  0.01819  0.58197  0.62526  1.0000
  H   H1883     1.0  0.01731  0.56726  0.62076  1.0000
  H   H1884     1.0  0.02179  0.56573  0.63622  1.0000
  H   H1885     1.0  0.03322  0.49064  0.56848  1.0000
  H   H1886     1.0  0.03831  0.51751  0.56836  1.0000
  H   H1887     1.0  0.19223  0.54898  0.91500  1.0000
  C   C1076     1.0  0.06146  0.48625  0.79917  1.0000
  H   H1888     1.0  0.00488  0.65500  0.49527  1.0000
  H   H1889     1.0  0.01170  0.55961  0.52409  1.0000
  C   C1077     1.0  0.09581  0.54211  0.76853  1.0000
  Fe  Fe113     1.0  0.04566  0.72133  0.50711  1.0000
  C   C1078     1.0  0.99503  0.54641  0.57540  1.0000
  H   H1890     1.0  0.11982  0.50521  0.96678  1.0000
  C   C1079     1.0  0.18231  0.54755  0.91557  1.0000
  H   H1891     1.0  0.14390  0.58548  0.87501  1.0000
  S   S221      1.0  0.05083  0.54756  0.67406  1.0000
  H   H1892     1.0  0.15988  0.48937  0.94613  1.0000
  C   C1080     1.0  0.02072  0.65424  0.53658  1.0000
  H   H1893     1.0  0.07795  0.49780  0.61815  1.0000
  N   N60       1.0  0.16472  0.50720  0.95958  1.0000
  C   C1081     1.0  0.15302  0.50114  0.96732  1.0000
  C   C1082     1.0  0.17654  0.49948  0.96548  1.0000
  C   C1083     1.0  0.16137  0.52167  0.96038  1.0000
  C   C1084     1.0  0.16795  0.50661  0.94503  1.0000
  C   C1085     1.0  0.99767  0.60028  0.50211  1.0000
  C   C1086     1.0  0.14014  0.50732  0.96206  1.0000
  C   C1087     1.0  0.17312  0.52876  0.95581  1.0000
  C   C1088     1.0  0.09023  0.69152  0.49934  1.0000
  C   C1089     1.0  0.22732  0.50183  0.83864  1.0000
  H   H1894     1.0  0.07940  0.70695  0.51028  1.0000
  H   H1895     1.0  0.09701  0.70312  0.50875  1.0000
  C   C1090     1.0  0.16823  0.54371  0.95517  1.0000
  H   H1896     1.0  0.01108  0.49606  0.60052  1.0000
  C   C1091     1.0  0.21019  0.55115  0.96575  1.0000
  C   C1092     1.0  0.07983  0.69310  0.49115  1.0000
  H   H1897     1.0  0.99424  0.51951  0.58454  1.0000
  H   H1898     1.0  0.15635  0.52292  0.97069  1.0000
  H   H1899     1.0  0.15399  0.52758  0.95425  1.0000
  H   H1900     1.0  0.16042  0.51394  0.93977  1.0000
  C   C1093     1.0  0.17586  0.57333  0.97892  1.0000
  C   C1094     1.0  0.18401  0.53309  0.91482  1.0000
  H   H1901     1.0  0.01432  0.67123  0.54572  1.0000
  H   H1902     1.0  0.99943  0.55702  0.75871  1.0000
  H   H1903     1.0  0.14158  0.50664  0.95157  1.0000
  H   H1904     1.0  0.17898  0.52741  0.94578  1.0000
  H   H1905     1.0  0.17978  0.52474  0.96294  1.0000
  C   C1095     1.0  0.00874  0.58878  0.71805  1.0000
  S   S222      1.0  0.03909  0.62670  0.48713  1.0000
  H   H1906     1.0  0.02136  0.65184  0.52693  1.0000
  Fe  Fe114     1.0  0.03494  0.61120  0.50591  1.0000
  H   H1907     1.0  0.19664  0.56594  0.89603  1.0000
  H   H1908     1.0  0.00550  0.58173  0.56414  1.0000
  H   H1909     1.0  0.22064  0.52517  0.96226  1.0000
  H   H1910     1.0  0.18933  0.52172  0.85678  1.0000
  H   H1911     1.0  0.01823  0.50849  0.55675  1.0000
  C   C1096     1.0  0.22901  0.52402  0.85797  1.0000
  H   H1912     1.0  0.99297  0.63814  0.48674  1.0000
  H   H1913     1.0  0.16246  0.54558  0.96511  1.0000
  H   H1914     1.0  0.17679  0.54854  0.95206  1.0000
  H   H1915     1.0  0.16186  0.54832  0.94781  1.0000
  H   H1916     1.0  0.00984  0.71813  0.52988  1.0000
  H   H1917     1.0  0.00809  0.54900  0.54053  1.0000
  N   N61       1.0  0.01958  0.51217  0.77980  1.0000
  C   C1097     1.0  0.00522  0.51593  0.77894  1.0000
  C   C1098     1.0  0.02399  0.52462  0.77903  1.0000
  C   C1099     1.0  0.02749  0.50668  0.76766  1.0000
  C   C1100     1.0  0.02221  0.50174  0.79219  1.0000
  C   C1101     1.0  0.01089  0.50165  0.80488  1.0000
  C   C1102     1.0  0.99976  0.50473  0.77716  1.0000
  C   C1103     1.0  0.04275  0.50322  0.76593  1.0000
  C   C1104     1.0  0.01722  0.53179  0.79076  1.0000
  C   C1105     1.0  0.02099  0.54521  0.78792  1.0000
  S   S223      1.0  0.06142  0.73241  0.50452  1.0000
  C   C1106     1.0  0.02511  0.53952  0.65749  1.0000
  H   H1918     1.0  0.99337  0.55387  0.72507  1.0000
  H   H1919     1.0  0.00372  0.52441  0.77024  1.0000
  H   H1920     1.0  0.99872  0.51965  0.78779  1.0000
  H   H1921     1.0  0.03475  0.52237  0.77878  1.0000
  H   H1922     1.0  0.02261  0.53191  0.76949  1.0000
  H   H1923     1.0  0.02510  0.51375  0.75834  1.0000
  H   H1924     1.0  0.02470  0.49736  0.76794  1.0000
  H   H1925     1.0  0.08681  0.48726  0.85955  1.0000
  H   H1926     1.0  0.03115  0.50265  0.79488  1.0000
  H   H1927     1.0  0.14934  0.58185  0.89668  1.0000
  H   H1928     1.0  0.00696  0.51156  0.80740  1.0000
  H   H1929     1.0  0.00262  0.50430  0.76646  1.0000
  H   H1930     1.0  0.15549  0.49019  0.96799  1.0000
  H   H1931     1.0  0.04574  0.49847  0.77555  1.0000
  H   H1932     1.0  0.00990  0.57824  0.53500  1.0000
  H   H1933     1.0  0.00631  0.53379  0.79270  1.0000
  H   H1934     1.0  0.02050  0.52566  0.80000  1.0000
  H   H1935     1.0  0.03170  0.54373  0.78733  1.0000
  H   H1936     1.0  0.01850  0.55169  0.77845  1.0000
  H   H1937     1.0  0.01550  0.55037  0.79618  1.0000
  H   H1938     1.0  0.06516  0.50591  0.63009  1.0000
  H   H1939     1.0  0.17555  0.58226  0.97058  1.0000
  C   C1107     1.0  0.04796  0.48868  0.72318  1.0000
  H   H1940     1.0  0.06110  0.68324  0.48742  1.0000
  Fe  Fe115     1.0  0.04621  0.54037  0.69657  1.0000
  C   C1108     1.0  0.08866  0.64366  0.49990  1.0000
  C   C1109     1.0  0.00178  0.57515  0.54341  1.0000
  Fe  Fe116     1.0  0.23070  0.55584  0.88291  1.0000
  S   S224      1.0  0.04009  0.52109  0.70706  1.0000
  C   C1110     1.0  0.98846  0.55991  0.76167  1.0000
  H   H1941     1.0  0.15624  0.57391  0.91589  1.0000
  C   C1111     1.0  0.01602  0.48582  0.68369  1.0000
  C   C1112     1.0  0.99432  0.56831  0.53767  1.0000
  H   H1942     1.0  0.23277  0.50998  0.83487  1.0000
  H   H1943     1.0  0.20171  0.48893  0.94613  1.0000
  H   H1944     1.0  0.01361  0.51283  0.59325  1.0000
  H   H1945     1.0  0.19098  0.49991  0.87198  1.0000
  H   H1946     1.0  0.21449  0.49298  0.85611  1.0000
  C   C1113     1.0  0.99223  0.54812  0.60175  1.0000
  H   H1947     1.0  0.21223  0.52613  0.94950  1.0000
  H   H1948     1.0  0.17770  0.53060  0.83760  1.0000
  N   N62       1.0  0.00435  0.50270  0.57530  1.0000
  H   H1949     1.0  0.01243  0.50751  0.69265  1.0000
  H   H1950     1.0  0.19674  0.58483  0.96285  1.0000
  S   S225      1.0  0.04588  0.72535  0.48535  1.0000
  H   H1951     1.0  0.20967  0.53462  0.85447  1.0000
  H   H1952     1.0  0.00385  0.49111  0.89306  1.0000
  H   H1953     1.0  0.22033  0.50318  0.83225  1.0000
  H   H1954     1.0  0.99865  0.52626  0.55518  1.0000
  H   H1955     1.0  0.19397  0.58772  0.88219  1.0000
  H   H1956     1.0  0.99114  0.50378  0.61601  1.0000
  S   S226      1.0  0.05751  0.53201  0.57573  1.0000
  H   H1957     1.0  0.15460  0.58875  0.93589  1.0000
  N   N63       1.0  0.99241  0.68627  0.53539  1.0000
  C   C1114     1.0  0.04463  0.66676  0.51029  1.0000
  C   C1115     1.0  0.15726  0.57801  0.88862  1.0000
  H   H1958     1.0  0.06025  0.49174  0.75483  1.0000
  S   S227      1.0  0.05625  0.60122  0.50560  1.0000
  C   C1116     1.0  0.98808  0.72126  0.49335  1.0000
  H   H1959     1.0  0.22404  0.53633  0.94608  1.0000
  H   H1960     1.0  0.13722  0.50527  0.72214  1.0000
  Fe  Fe117     1.0  0.05896  0.54514  0.58807  1.0000
  C   C1117     1.0  0.99763  0.50858  0.58744  1.0000
  H   H1961     1.0  0.00254  0.49843  0.80354  1.0000
  H   H1962     1.0  0.18456  0.48823  0.85473  1.0000
  H   H1963     1.0  0.03959  0.49536  0.60383  1.0000
  H   H1964     1.0  0.21213  0.49212  0.91494  1.0000
  S   S228      1.0  0.06360  0.53580  0.70605  1.0000
  H   H1965     1.0  0.05465  0.67174  0.52252  1.0000
  S   S229      1.0  0.03721  0.55298  0.59437  1.0000
  S   S230      1.0  0.00804  0.52988  0.73638  1.0000
  H   H1966     1.0  0.00868  0.49770  0.66176  1.0000
  H   H1967     1.0  0.02316  0.49550  0.81948  1.0000
  C   C1118     1.0  0.15394  0.58606  0.87524  1.0000
  H   H1968     1.0  0.15988  0.56730  0.97482  1.0000
  H   H1969     1.0  0.99012  0.65488  0.51749  1.0000
  H   H1970     1.0  0.22037  0.52804  0.84100  1.0000
  C   C1119     1.0  0.18716  0.52733  0.83066  1.0000
  Fe  Fe118     1.0  0.02806  0.53173  0.72336  1.0000
  H   H1971     1.0  0.00384  0.69603  0.51687  1.0000
  C   C1120     1.0  0.00600  0.54648  0.57986  1.0000
  Fe  Fe119     1.0  0.05492  0.61549  0.51806  1.0000
  H   H1972     1.0  0.09018  0.71276  0.49450  1.0000
  H   H1973     1.0  0.05275  0.53481  0.63299  1.0000
  S   S231      1.0  0.04717  0.70021  0.51928  1.0000
  H   H1974     1.0  0.20501  0.49036  0.87885  1.0000
  C   C1121     1.0  0.98919  0.59804  0.53839  1.0000
  H   H1975     1.0  0.01194  0.60436  0.53944  1.0000
  H   H1976     1.0  0.10353  0.54803  0.76556  1.0000
  H   H1977     1.0  0.19843  0.53690  0.83717  1.0000
  S   S232      1.0  0.06117  0.63126  0.50016  1.0000
  H   H1978     1.0  0.00950  0.69483  0.53138  1.0000
  H   H1979     1.0  0.99659  0.59848  0.56170  1.0000
  C   C1122     1.0  0.01456  0.66901  0.53612  1.0000
  C   C1123     1.0  0.01654  0.50810  0.56761  1.0000
  H   H1980     1.0  0.01622  0.60656  0.56055  1.0000
  C   C1124     1.0  0.19781  0.50010  0.87792  1.0000
  H   H1981     1.0  0.10771  0.48840  0.94488  1.0000
  H   H1982     1.0  0.20809  0.52361  0.82899  1.0000
  C   C1125     1.0  0.99646  0.66362  0.49646  1.0000
  C   C1126     1.0  0.05330  0.49568  0.68492  1.0000
  H   H1983     1.0  0.02150  0.58747  0.54193  1.0000
  H   H1984     1.0  0.99129  0.50776  0.63829  1.0000
  H   H1985     1.0  0.98998  0.49717  0.88494  1.0000
  C   C1127     1.0  0.99003  0.52173  0.56064  1.0000
  H   H1986     1.0  0.99616  0.54574  0.56523  1.0000
  H   H1987     1.0  0.18361  0.55880  0.96683  1.0000
  H   H1988     1.0  0.00234  0.67282  0.52205  1.0000
  H   H1989     1.0  0.16050  0.59790  0.90523  1.0000
  H   H1990     1.0  0.04250  0.49754  0.72680  1.0000
  H   H1991     1.0  0.01496  0.51865  0.56832  1.0000
  N   N64       1.0  0.09738  0.53730  0.73296  1.0000
  C   C1128     1.0  0.04655  0.53679  0.64239  1.0000
  H   H1992     1.0  0.04667  0.51242  0.76175  1.0000
  S   S233      1.0  0.02170  0.54429  0.56950  1.0000
  H   H1993     1.0  0.07000  0.69406  0.49822  1.0000
  H   H1994     1.0  0.21362  0.50920  0.87659  1.0000
  C   C1129     1.0  0.99449  0.57328  0.73423  1.0000
  C   C1130     1.0  0.12946  0.51320  0.71783  1.0000
  H   H1995     1.0  0.22573  0.52452  0.86868  1.0000
  C   C1131     1.0  0.16337  0.59137  0.91449  1.0000
  S   S234      1.0  0.22514  0.51272  0.91361  1.0000
  H   H1996     1.0  0.05564  0.50508  0.67811  1.0000
  H   H1997     1.0  0.17478  0.48497  0.87881  1.0000
  H   H1998     1.0  0.12421  0.50856  0.71337  1.0000
  H   H1999     1.0  0.13223  0.48980  0.83735  1.0000
  H   H2000     1.0  0.13777  0.48520  0.93578  1.0000
  H   H2001     1.0  0.04068  0.48650  0.83118  1.0000
  H   H2002     1.0  0.98835  0.48622  0.90128  1.0000
  C   C1132     1.0  0.17403  0.48764  0.85841  1.0000
  C   C1133     1.0  0.04479  0.48572  0.60196  1.0000
  C   C1134     1.0  0.02417  0.49809  0.63751  1.0000
  H   H2003     1.0  0.99438  0.57894  0.74150  1.0000
  C   C1135     1.0  0.98876  0.68678  0.55001  1.0000
  H   H2004     1.0  0.18515  0.49252  0.89668  1.0000
  C   C1136     1.0  0.00918  0.72779  0.48544  1.0000
  H   H2005     1.0  0.22973  0.54508  0.85165  1.0000
  C   C1137     1.0  0.01569  0.49192  0.81688  1.0000
  H   H2006     1.0  0.23308  0.58845  0.93645  1.0000
  H   H2007     1.0  0.18256  0.49648  0.92248  1.0000
  H   H2008     1.0  0.13553  0.49371  0.81931  1.0000
  C   C1138     1.0  0.03854  0.49602  0.68758  1.0000
  H   H2009     1.0  0.98779  0.54916  0.64016  1.0000
  H   H2010     1.0  0.00719  0.48941  0.72351  1.0000
  H   H2011     1.0  0.22371  0.48551  0.93122  1.0000
  C   C1139     1.0  0.02890  0.49671  0.65014  1.0000
  H   H2012     1.0  0.99129  0.54838  0.61202  1.0000
  Fe  Fe120     1.0  0.23431  0.53060  0.90431  1.0000
  H   H2013     1.0  0.04536  0.56912  0.98117  1.0000
  H   H2014     1.0  0.19514  0.50127  0.97861  1.0000
  H   H2015     1.0  0.99157  0.52097  0.60821  1.0000
  H   H2016     1.0  0.00600  0.48914  0.86567  1.0000
  C   C1140     1.0  0.99328  0.71140  0.52792  1.0000
  C   C1141     1.0  0.00732  0.48769  0.57982  1.0000
  C   C1142     1.0  0.00314  0.72051  0.52290  1.0000
  C   C1143     1.0  0.99680  0.58276  0.72025  1.0000
  C   C1144     1.0  0.99000  0.49537  0.73838  1.0000
  C   C1145     1.0  0.06178  0.48574  0.72011  1.0000
  C   C1146     1.0  0.98860  0.51397  0.64576  1.0000
  H   H2017     1.0  0.03382  0.48619  0.65325  1.0000
  H   H2018     1.0  0.99630  0.48622  0.84649  1.0000
  H   H2019     1.0  0.05908  0.48483  0.64248  1.0000
  C   C1147     1.0  0.10819  0.93506  0.37262  1.0000
  C   C1148     1.0  0.17998  0.91619  0.41848  1.0000
  H   H2020     1.0  0.05698  0.90438  0.36675  1.0000
  C   C1149     1.0  0.18971  0.93230  0.40010  1.0000
  H   H2021     1.0  0.07947  0.81423  0.41111  1.0000
  H   H2022     1.0  0.10873  0.89688  0.37219  1.0000
  H   H2023     1.0  0.21173  0.88219  0.46677  1.0000
  Fe  Fe121     1.0  0.03372  0.84276  0.41599  1.0000
  S   S235      1.0  0.04157  0.85295  0.39495  1.0000
  S   S236      1.0  0.01342  0.83848  0.42517  1.0000
  Fe  Fe122     1.0  0.06106  0.83432  0.42258  1.0000
  S   S237      1.0  0.07115  0.84313  0.40198  1.0000
  S   S238      1.0  0.07206  0.82323  0.43859  1.0000
  Fe  Fe123     1.0  0.05392  0.86054  0.40404  1.0000
  S   S239      1.0  0.05593  0.88180  0.40124  1.0000
  Fe  Fe124     1.0  0.05790  0.83450  0.39527  1.0000
  S   S240      1.0  0.06418  0.82116  0.38051  1.0000
  S   S241      1.0  0.04436  0.85194  0.42511  1.0000
  S   S242      1.0  0.04951  0.82423  0.41592  1.0000
  Fe  Fe125     1.0  0.11486  0.90981  0.40628  1.0000
  S   S243      1.0  0.09978  0.92713  0.41328  1.0000
  S   S244      1.0  0.11125  0.89381  0.39836  1.0000
  Fe  Fe126     1.0  0.13729  0.91612  0.41445  1.0000
  S   S245      1.0  0.12392  0.93389  0.42174  1.0000
  S   S246      1.0  0.15722  0.90876  0.41998  1.0000
  Fe  Fe127     1.0  0.10921  0.92099  0.43095  1.0000
  S   S247      1.0  0.09941  0.92057  0.45254  1.0000
  Fe  Fe128     1.0  0.11602  0.93843  0.40337  1.0000
  S   S248      1.0  0.11123  0.95992  0.39245  1.0000
  S   S249      1.0  0.12298  0.90283  0.42479  1.0000
  S   S250      1.0  0.13065  0.92152  0.39505  1.0000
  H   H2024     1.0  0.05128  0.78867  0.42459  1.0000
  H   H2025     1.0  0.05906  0.76169  0.42273  1.0000
  H   H2026     1.0  0.16136  0.87674  0.48130  1.0000
  H   H2027     1.0  0.08115  0.97164  0.42831  1.0000
  C   C1150     1.0  0.09743  0.96969  0.43744  1.0000
  H   H2028     1.0  0.02463  0.79204  0.44241  1.0000
  H   H2029     1.0  0.17566  0.91837  0.45766  1.0000
  C   C1151     1.0  0.99425  0.80333  0.41248  1.0000
  C   C1152     1.0  0.10936  0.92421  0.36536  1.0000
  H   H2030     1.0  0.05948  0.90269  0.47841  1.0000
  H   H2031     1.0  0.20043  0.98301  0.45321  1.0000
  H   H2032     1.0  0.10123  0.87101  0.48030  1.0000
  H   H2033     1.0  0.05040  0.78773  0.47677  1.0000
  C   C1153     1.0  0.10974  0.92286  0.47228  1.0000
  H   H2034     1.0  0.03100  0.80609  0.46943  1.0000
  C   C1154     1.0  0.08431  0.80528  0.40687  1.0000
  H   H2035     1.0  0.08867  0.77614  0.44849  1.0000
  C   C1155     1.0  0.03266  0.83745  0.46203  1.0000
  C   C1156     1.0  0.11965  0.96976  0.39638  1.0000
  H   H2036     1.0  0.99953  0.88251  0.47893  1.0000
  H   H2037     1.0  0.10677  0.95045  0.46457  1.0000
  H   H2038     1.0  0.01663  0.73775  0.44294  1.0000
  H   H2039     1.0  0.04438  0.85210  0.45599  1.0000
  C   C1157     1.0  0.13202  0.96413  0.39954  1.0000
  H   H2040     1.0  0.15146  0.93257  0.43636  1.0000
  C   C1158     1.0  0.08978  0.89501  0.44104  1.0000
  S   S251      1.0  0.14604  0.92378  0.47482  1.0000
  H   H2041     1.0  0.13671  0.95390  0.39900  1.0000
  H   H2042     1.0  0.09723  0.88156  0.37008  1.0000
  H   H2043     1.0  0.11229  0.87800  0.44256  1.0000
  H   H2044     1.0  0.16001  0.93014  0.39630  1.0000
  H   H2045     1.0  0.19734  0.87669  0.46669  1.0000
  C   C1159     1.0  0.12547  0.91504  0.45359  1.0000
  H   H2046     1.0  0.01261  0.88623  0.44867  1.0000
  H   H2047     1.0  0.12773  0.91183  0.44438  1.0000
  H   H2048     1.0  0.00271  0.89260  0.41249  1.0000
  C   C1160     1.0  0.07118  0.88447  0.40193  1.0000
  C   C1161     1.0  0.08304  0.87540  0.39859  1.0000
  C   C1162     1.0  0.09518  0.87835  0.39780  1.0000
  C   C1163     1.0  0.09562  0.89018  0.40072  1.0000
  C   C1164     1.0  0.08376  0.89909  0.40451  1.0000
  C   C1165     1.0  0.07160  0.89633  0.40490  1.0000
  H   H2049     1.0  0.08292  0.86636  0.39607  1.0000
  H   H2050     1.0  0.10430  0.87149  0.39467  1.0000
  H   H2051     1.0  0.08397  0.90828  0.40670  1.0000
  H   H2052     1.0  0.06248  0.90347  0.40735  1.0000
  C   C1166     1.0  0.05631  0.80754  0.38647  1.0000
  C   C1167     1.0  0.06223  0.79547  0.38235  1.0000
  C   C1168     1.0  0.05590  0.78463  0.38726  1.0000
  C   C1169     1.0  0.04362  0.78589  0.39627  1.0000
  C   C1170     1.0  0.03782  0.79790  0.40044  1.0000
  C   C1171     1.0  0.04406  0.80868  0.39547  1.0000
  H   H2053     1.0  0.07171  0.79451  0.37537  1.0000
  H   H2054     1.0  0.06042  0.77541  0.38393  1.0000
  H   H2055     1.0  0.02828  0.79900  0.40731  1.0000
  H   H2056     1.0  0.03907  0.81808  0.39824  1.0000
  C   C1172     1.0  0.07112  0.85433  0.46046  1.0000
  H   H2057     1.0  0.00488  0.86452  0.43052  1.0000
  C   C1173     1.0  0.07459  0.83115  0.45969  1.0000
  C   C1174     1.0  0.07278  0.83506  0.44661  1.0000
  C   C1175     1.0  0.07089  0.84854  0.44018  1.0000
  C   C1176     1.0  0.07021  0.85816  0.44706  1.0000
  H   H2058     1.0  0.18059  0.90876  0.42767  1.0000
  H   H2059     1.0  0.07621  0.82071  0.46466  1.0000
  H   H2060     1.0  0.06982  0.85160  0.42993  1.0000
  H   H2061     1.0  0.06867  0.86853  0.44207  1.0000
  C   C1177     1.0  0.07843  0.75718  0.41015  1.0000
  C   C1178     1.0  0.10321  0.84033  0.41606  1.0000
  C   C1179     1.0  0.00538  0.84917  0.40132  1.0000
  C   C1180     1.0  0.00265  0.84168  0.41439  1.0000
  C   C1181     1.0  0.13919  0.97582  0.48105  1.0000
  H   H2062     1.0  0.00215  0.79527  0.41641  1.0000
  H   H2063     1.0  0.09407  0.89551  0.44916  1.0000
  H   H2064     1.0  0.01435  0.85288  0.39757  1.0000
  N   N65       1.0  0.11242  0.86018  0.43667  1.0000
  S   S252      1.0  0.03441  0.77341  0.40166  1.0000
  N   N66       1.0  0.11798  0.96274  0.44818  1.0000
  C   C1182     1.0  0.19231  0.97739  0.38469  1.0000
  Fe  Fe129     1.0  0.21696  0.94067  0.40324  1.0000
  S   S253      1.0  0.20800  0.94531  0.42342  1.0000
  H   H2065     1.0  0.19952  0.97275  0.39128  1.0000
  H   H2066     1.0  0.17579  0.88717  0.46053  1.0000
  H   H2067     1.0  0.16499  0.90312  0.46136  1.0000
  H   H2068     1.0  0.21422  0.97051  0.35498  1.0000
  H   H2069     1.0  0.08163  0.90154  0.37705  1.0000
  C   C1183     1.0  0.99633  0.85214  0.39313  1.0000
  H   H2070     1.0  0.14250  0.97185  0.47181  1.0000
  C   C1184     1.0  0.07374  0.84079  0.46660  1.0000
  H   H2071     1.0  0.09057  0.97030  0.44723  1.0000
  H   H2072     1.0  0.07403  0.75526  0.40283  1.0000
  H   H2073     1.0  0.98937  0.83396  0.46484  1.0000
  H   H2074     1.0  0.02698  0.75788  0.43459  1.0000
  C   C1185     1.0  0.05704  0.91224  0.37166  1.0000
  H   H2075     1.0  0.17810  0.94187  0.44679  1.0000
  C   C1186     1.0  0.10478  0.88517  0.36134  1.0000
  C   C1187     1.0  0.22328  0.91959  0.47389  1.0000
  C   C1188     1.0  0.99182  0.80392  0.47432  1.0000
  H   H2076     1.0  0.02399  0.80788  0.44570  1.0000
  H   H2077     1.0  0.20452  0.90399  0.45396  1.0000
  C   C1189     1.0  0.09639  0.91784  0.34591  1.0000
  S   S254      1.0  0.06859  0.86638  0.46968  1.0000
  H   H2078     1.0  0.03656  0.88953  0.47537  1.0000
  C   C1190     1.0  0.02993  0.80025  0.43990  1.0000
  C   C1191     1.0  0.10659  0.89880  0.36214  1.0000
  C   C1192     1.0  0.10854  0.84197  0.42722  1.0000
  H   H2079     1.0  0.15128  0.84458  0.43975  1.0000
  C   C1193     1.0  0.09073  0.96468  0.42953  1.0000
  H   H2080     1.0  0.06925  0.92277  0.35492  1.0000
  H   H2081     1.0  0.04816  0.92036  0.37046  1.0000
  S   S255      1.0  0.23490  0.92574  0.40910  1.0000
  H   H2082     1.0  0.10269  0.88793  0.47230  1.0000
  H   H2083     1.0  0.16300  0.96020  0.48001  1.0000
  H   H2084     1.0  0.98904  0.88143  0.44259  1.0000
  C   C1194     1.0  0.19195  0.98066  0.45104  1.0000
  C   C1195     1.0  0.99657  0.84046  0.46176  1.0000
  H   H2085     1.0  0.18737  0.96927  0.38544  1.0000
  H   H2086     1.0  0.99527  0.76254  0.46045  1.0000
  C   C1196     1.0  0.04360  0.79495  0.44325  1.0000
  H   H2087     1.0  0.11584  0.90092  0.35490  1.0000
  H   H2088     1.0  0.12108  0.87346  0.37086  1.0000
  C   C1197     1.0  0.04674  0.79750  0.47969  1.0000
  C   C1198     1.0  0.22259  0.92629  0.46078  1.0000
  H   H2089     1.0  0.11309  0.92809  0.35459  1.0000
  C   C1199     1.0  0.09581  0.92037  0.36811  1.0000
  H   H2090     1.0  0.19127  0.90005  0.45041  1.0000
  C   C1200     1.0  0.05209  0.89470  0.43909  1.0000
  H   H2091     1.0  0.11800  0.93749  0.37077  1.0000
  H   H2092     1.0  0.01221  0.79342  0.46928  1.0000
  H   H2093     1.0  0.06420  0.78625  0.45416  1.0000
  C   C1201     1.0  0.18430  0.96847  0.47476  1.0000
  H   H2094     1.0  0.10790  0.85913  0.45807  1.0000
  H   H2095     1.0  0.98969  0.73847  0.35045  1.0000
  H   H2096     1.0  0.06509  0.77571  0.41189  1.0000
  C   C1202     1.0  0.07620  0.79454  0.41297  1.0000
  H   H2097     1.0  0.04822  0.80354  0.44133  1.0000
  H   H2098     1.0  0.06951  0.80005  0.43217  1.0000
  H   H2099     1.0  0.01394  0.89592  0.45891  1.0000
  C   C1203     1.0  0.16835  0.92823  0.40082  1.0000
  C   C1204     1.0  0.98849  0.89596  0.46492  1.0000
  C   C1205     1.0  0.09291  0.88071  0.43928  1.0000
  H   H2100     1.0  0.17205  0.97872  0.46015  1.0000
  Fe  Fe130     1.0  0.21981  0.96107  0.41621  1.0000
  C   C1206     1.0  0.05957  0.92069  0.46332  1.0000
  H   H2101     1.0  0.01882  0.89555  0.47724  1.0000
  H   H2102     1.0  0.19756  0.92519  0.45144  1.0000
  N   N67       1.0  0.01288  0.81073  0.37465  1.0000
  C   C1207     1.0  0.01766  0.82240  0.37546  1.0000
  C   C1208     1.0  0.00691  0.80360  0.38853  1.0000
  C   C1209     1.0  0.02477  0.80105  0.36877  1.0000
  C   C1210     1.0  0.00322  0.81488  0.36565  1.0000
  H   H2103     1.0  0.00223  0.75990  0.40172  1.0000
  C   C1211     1.0  0.02485  0.83020  0.36215  1.0000
  C   C1212     1.0  0.02227  0.78749  0.36857  1.0000
  C   C1213     1.0  0.00012  0.81197  0.39931  1.0000
  C   C1214     1.0  0.13085  0.95244  0.44783  1.0000
  H   H2104     1.0  0.07893  0.89871  0.44373  1.0000
  C   C1215     1.0  0.02861  0.84201  0.36442  1.0000
  C   C1216     1.0  0.03522  0.77808  0.36373  1.0000
  H   H2105     1.0  0.02457  0.81892  0.38232  1.0000
  H   H2106     1.0  0.00940  0.82977  0.37999  1.0000
  H   H2107     1.0  0.98930  0.80953  0.42001  1.0000
  H   H2108     1.0  0.01470  0.79582  0.39295  1.0000
  H   H2109     1.0  0.03278  0.79891  0.37425  1.0000
  H   H2110     1.0  0.02901  0.80544  0.35822  1.0000
  H   H2111     1.0  0.00836  0.81788  0.35504  1.0000
  H   H2112     1.0  0.99557  0.81577  0.45381  1.0000
  H   H2113     1.0  0.98783  0.77644  0.42290  1.0000
  H   H2114     1.0  0.03152  0.89772  0.43952  1.0000
  H   H2115     1.0  0.03420  0.82381  0.35782  1.0000
  H   H2116     1.0  0.01845  0.83409  0.35478  1.0000
  H   H2117     1.0  0.01568  0.78899  0.36170  1.0000
  H   H2118     1.0  0.01767  0.78230  0.37861  1.0000
  H   H2119     1.0  0.00737  0.81625  0.40147  1.0000
  C   C1217     1.0  0.99112  0.82623  0.36870  1.0000
  H   H2120     1.0  0.13017  0.97645  0.44649  1.0000
  H   H2121     1.0  0.10021  0.96763  0.46320  1.0000
  H   H2122     1.0  0.13613  0.95296  0.45516  1.0000
  H   H2123     1.0  0.10970  0.94990  0.44194  1.0000
  C   C1218     1.0  0.20831  0.96789  0.36529  1.0000
  H   H2124     1.0  0.12666  0.83993  0.45618  1.0000
  H   H2125     1.0  0.01963  0.84914  0.36830  1.0000
  H   H2126     1.0  0.03518  0.83853  0.37166  1.0000
  H   H2127     1.0  0.03399  0.84731  0.35484  1.0000
  H   H2128     1.0  0.04201  0.77588  0.37058  1.0000
  H   H2129     1.0  0.03317  0.76851  0.36361  1.0000
  H   H2130     1.0  0.04016  0.78252  0.35347  1.0000
  N   N68       1.0  0.99968  0.75439  0.44280  1.0000
  C   C1219     1.0  0.03813  0.89325  0.44669  1.0000
  C   C1220     1.0  0.00383  0.75963  0.42791  1.0000
  H   H2131     1.0  0.18549  0.95933  0.47119  1.0000
  C   C1221     1.0  0.12016  0.92332  0.47748  1.0000
  C   C1222     1.0  0.16915  0.91857  0.41266  1.0000
  H   H2132     1.0  0.19455  0.92813  0.46796  1.0000
  C   C1223     1.0  0.11384  0.98316  0.39681  1.0000
  C   C1224     1.0  0.08041  0.76801  0.46872  1.0000
  H   H2133     1.0  0.99753  0.86080  0.45341  1.0000
  H   H2134     1.0  0.21805  0.94549  0.44762  1.0000
  H   H2135     1.0  0.01016  0.75130  0.42307  1.0000
  H   H2136     1.0  0.15410  0.85710  0.42441  1.0000
  C   C1225     1.0  0.18979  0.92767  0.46020  1.0000
  H   H2137     1.0  0.06900  0.92534  0.37101  1.0000
  H   H2138     1.0  0.01004  0.76702  0.42574  1.0000
  H   H2139     1.0  0.99414  0.83533  0.36863  1.0000
  H   H2140     1.0  0.11832  0.83230  0.44909  1.0000
  H   H2141     1.0  0.99565  0.79858  0.45512  1.0000
  H   H2142     1.0  0.15742  0.94203  0.44412  1.0000
  H   H2143     1.0  0.99817  0.77424  0.44512  1.0000
  H   H2144     1.0  0.05561  0.88901  0.43106  1.0000
  C   C1226     1.0  0.08215  0.90654  0.36634  1.0000
  H   H2145     1.0  0.12345  0.95022  0.47558  1.0000
  C   C1227     1.0  0.13838  0.97170  0.40346  1.0000
  H   H2146     1.0  0.01904  0.76310  0.45005  1.0000
  H   H2147     1.0  0.00610  0.77502  0.40241  1.0000
  H   H2148     1.0  0.08182  0.78583  0.40858  1.0000
  H   H2149     1.0  0.03079  0.80503  0.42911  1.0000
  H   H2150     1.0  0.13146  0.86067  0.44916  1.0000
  H   H2151     1.0  0.08495  0.76019  0.45110  1.0000
  C   C1228     1.0  0.03533  0.85017  0.46354  1.0000
  H   H2152     1.0  0.05639  0.90797  0.38251  1.0000
  C   C1229     1.0  0.02339  0.86213  0.46168  1.0000
  C   C1230     1.0  0.18190  0.94164  0.45550  1.0000
  H   H2153     1.0  0.11597  0.86487  0.36154  1.0000
  H   H2154     1.0  0.01057  0.88650  0.42664  1.0000
  C   C1231     1.0  0.09491  0.91015  0.33632  1.0000
  C   C1232     1.0  0.21733  0.94744  0.46729  1.0000
  C   C1233     1.0  0.02623  0.87419  0.47665  1.0000
  C   C1234     1.0  0.21916  0.94023  0.45759  1.0000
  C   C1235     1.0  0.15363  0.94238  0.43537  1.0000
  C   C1236     1.0  0.18048  0.98016  0.46324  1.0000
  H   H2155     1.0  0.21850  0.88558  0.44206  1.0000
  H   H2156     1.0  0.00970  0.74235  0.45858  1.0000
  H   H2157     1.0  0.08832  0.87465  0.44870  1.0000
  S   S256      1.0  0.20308  0.93995  0.39130  1.0000
  H   H2158     1.0  0.08512  0.92747  0.32334  1.0000
  C   C1237     1.0  0.20412  0.88347  0.46108  1.0000
  H   H2159     1.0  0.99967  0.79820  0.38803  1.0000
  C   C1238     1.0  0.06953  0.91779  0.36548  1.0000
  H   H2160     1.0  0.07742  0.77774  0.47174  1.0000
  S   S257      1.0  0.03001  0.74100  0.39607  1.0000
  H   H2161     1.0  0.99014  0.77541  0.39988  1.0000
  H   H2162     1.0  0.12547  0.87739  0.35275  1.0000
  C   C1239     1.0  0.99265  0.76670  0.42022  1.0000
  H   H2163     1.0  0.98860  0.83140  0.42933  1.0000
  H   H2164     1.0  0.99694  0.87514  0.46690  1.0000
  H   H2165     1.0  0.09308  0.91623  0.37908  1.0000
  C   C1240     1.0  0.01209  0.74650  0.44765  1.0000
  H   H2166     1.0  0.06051  0.77033  0.45650  1.0000
  C   C1241     1.0  0.07299  0.76741  0.43053  1.0000
  C   C1242     1.0  0.13587  0.91576  0.45856  1.0000
  N   N69       1.0  0.18749  0.90310  0.47047  1.0000
  C   C1243     1.0  0.13322  0.92027  0.47029  1.0000
  C   C1244     1.0  0.21135  0.87921  0.44793  1.0000
  H   H2167     1.0  0.18846  0.94883  0.45226  1.0000
  H   H2168     1.0  0.19863  0.92105  0.41670  1.0000
  H   H2169     1.0  0.07322  0.76178  0.47475  1.0000
  H   H2170     1.0  0.99516  0.73784  0.43840  1.0000
  S   S258      1.0  0.04492  0.73857  0.41954  1.0000
  H   H2171     1.0  0.10470  0.93163  0.38355  1.0000
  C   C1245     1.0  0.14117  0.95338  0.43433  1.0000
  Fe  Fe131     1.0  0.04300  0.75209  0.39971  1.0000
  C   C1246     1.0  0.19017  0.92315  0.41231  1.0000
  H   H2172     1.0  0.03742  0.84808  0.47361  1.0000
  C   C1247     1.0  0.06797  0.76609  0.41870  1.0000
  C   C1248     1.0  0.19667  0.89820  0.45848  1.0000
  N   N70       1.0  0.09521  0.91073  0.36041  1.0000
  H   H2173     1.0  0.05896  0.89098  0.44602  1.0000
  H   H2174     1.0  0.10300  0.92351  0.31814  1.0000
  H   H2175     1.0  0.11691  0.91548  0.36896  1.0000
  H   H2176     1.0  0.23661  0.97487  0.42900  1.0000
  C   C1249     1.0  0.11634  0.95987  0.47347  1.0000
  H   H2177     1.0  0.10438  0.82957  0.41658  1.0000
  H   H2178     1.0  0.04167  0.82934  0.46262  1.0000
  S   S259      1.0  0.22748  0.95756  0.39553  1.0000
  H   H2179     1.0  0.01474  0.85915  0.46934  1.0000
  H   H2180     1.0  0.09335  0.91341  0.31577  1.0000
  H   H2181     1.0  0.05217  0.90535  0.43444  1.0000
  H   H2182     1.0  0.09505  0.85999  0.43034  1.0000
  H   H2183     1.0  0.12880  0.94231  0.45075  1.0000
  H   H2184     1.0  0.15542  0.85972  0.43989  1.0000
  C   C1250     1.0  0.03464  0.74554  0.45139  1.0000
  C   C1251     1.0  0.09405  0.91924  0.32257  1.0000
  H   H2185     1.0  0.08589  0.90602  0.34008  1.0000
  H   H2186     1.0  0.03019  0.83891  0.45223  1.0000
  C   C1252     1.0  0.10820  0.85303  0.45103  1.0000
  H   H2187     1.0  0.08822  0.88088  0.43120  1.0000
  H   H2188     1.0  0.99915  0.80627  0.36602  1.0000
  H   H2189     1.0  0.10374  0.90198  0.33479  1.0000
  H   H2190     1.0  0.08124  0.89891  0.36165  1.0000
  H   H2191     1.0  0.10152  0.88573  0.35224  1.0000
  C   C1253     1.0  0.00782  0.88359  0.41877  1.0000
  H   H2192     1.0  0.00483  0.74355  0.36155  1.0000
  H   H2193     1.0  0.04623  0.87345  0.45718  1.0000
  H   H2194     1.0  0.10869  0.84487  0.40612  1.0000
  C   C1254     1.0  0.99815  0.76942  0.40513  1.0000
  H   H2195     1.0  0.09254  0.84509  0.41712  1.0000
  H   H2196     1.0  0.17828  0.94206  0.38506  1.0000
  H   H2197     1.0  0.98881  0.83317  0.34802  1.0000
  H   H2198     1.0  0.08916  0.92759  0.34496  1.0000
  C   C1255     1.0  0.16914  0.89349  0.46745  1.0000
  N   N71       1.0  0.06676  0.77997  0.43583  1.0000
  H   H2199     1.0  0.09785  0.85190  0.45298  1.0000
  C   C1256     1.0  0.07423  0.79082  0.42836  1.0000
  H   H2200     1.0  0.22700  0.97026  0.44552  1.0000
  H   H2201     1.0  0.06659  0.79836  0.40995  1.0000
  H   H2202     1.0  0.11920  0.83723  0.42549  1.0000
  C   C1257     1.0  0.05234  0.78446  0.43506  1.0000
  H   H2203     1.0  0.15250  0.88549  0.46822  1.0000
  C   C1258     1.0  0.08120  0.77006  0.45377  1.0000
  C   C1259     1.0  0.11764  0.87461  0.36163  1.0000
  C   C1260     1.0  0.20081  0.98057  0.37026  1.0000
  H   H2204     1.0  0.98812  0.89809  0.45424  1.0000
  C   C1261     1.0  0.98759  0.73653  0.45953  1.0000
  H   H2205     1.0  0.04205  0.79035  0.45411  1.0000
  H   H2206     1.0  0.99689  0.87073  0.41665  1.0000
  C   C1262     1.0  0.17870  0.93496  0.39448  1.0000
  H   H2207     1.0  0.09441  0.80151  0.40887  1.0000
  H   H2208     1.0  0.99212  0.82021  0.39608  1.0000
  H   H2209     1.0  0.02440  0.83435  0.47017  1.0000
  H   H2210     1.0  0.10623  0.92045  0.34170  1.0000
  H   H2211     1.0  0.10119  0.94432  0.36899  1.0000
  H   H2212     1.0  0.07301  0.92379  0.48011  1.0000
  H   H2213     1.0  0.09881  0.97981  0.43181  1.0000
  H   H2214     1.0  0.08520  0.80818  0.39588  1.0000
  C   C1263     1.0  0.06744  0.77690  0.45036  1.0000
  C   C1264     1.0  0.11237  0.91902  0.46018  1.0000
  H   H2215     1.0  0.17350  0.94468  0.46362  1.0000
  H   H2216     1.0  0.04760  0.77571  0.43866  1.0000
  H   H2217     1.0  0.14591  0.91333  0.45293  1.0000
  H   H2218     1.0  0.03933  0.87401  0.44377  1.0000
  H   H2219     1.0  0.03503  0.89916  0.45447  1.0000
  H   H2220     1.0  0.00991  0.81034  0.47023  1.0000
  H   H2221     1.0  0.18190  0.96447  0.40940  1.0000
  H   H2222     1.0  0.01706  0.87907  0.41231  1.0000
  H   H2223     1.0  0.08396  0.76612  0.42768  1.0000
  N   N72       1.0  0.02506  0.87540  0.46259  1.0000
  C   C1265     1.0  0.12721  0.85712  0.43145  1.0000
  C   C1266     1.0  0.10597  0.85684  0.42753  1.0000
  C   C1267     1.0  0.10803  0.87505  0.43574  1.0000
  H   H2224     1.0  0.02129  0.86297  0.45179  1.0000
  C   C1268     1.0  0.13527  0.86226  0.43818  1.0000
  C   C1269     1.0  0.11103  0.96039  0.43885  1.0000
  H   H2225     1.0  0.18452  0.96988  0.42948  1.0000
  C   C1270     1.0  0.18075  0.91743  0.46571  1.0000
  C   C1271     1.0  0.14991  0.85545  0.43536  1.0000
  H   H2226     1.0  0.10327  0.83653  0.43680  1.0000
  H   H2227     1.0  0.12969  0.86165  0.42054  1.0000
  H   H2228     1.0  0.13118  0.84628  0.43218  1.0000
  C   C1272     1.0  0.06559  0.91030  0.47432  1.0000
  H   H2229     1.0  0.10898  0.86254  0.41714  1.0000
  H   H2230     1.0  0.11186  0.88051  0.42547  1.0000
  H   H2231     1.0  0.10064  0.83071  0.46997  1.0000
  C   C1273     1.0  0.03753  0.87838  0.45263  1.0000
  H   H2232     1.0  0.08848  0.92989  0.36605  1.0000
  H   H2233     1.0  0.13458  0.87312  0.43413  1.0000
  H   H2234     1.0  0.09377  0.90159  0.43158  1.0000
  C   C1274     1.0  0.11678  0.83907  0.45577  1.0000
  C   C1275     1.0  0.01312  0.88581  0.45905  1.0000
  H   H2235     1.0  0.07118  0.75843  0.43855  1.0000
  H   H2236     1.0  0.19531  0.97099  0.44789  1.0000
  H   H2237     1.0  0.08436  0.78798  0.43017  1.0000
  H   H2238     1.0  0.13732  0.95206  0.42636  1.0000
  C   C1276     1.0  0.03200  0.80275  0.47997  1.0000
  H   H2239     1.0  0.00061  0.83959  0.47052  1.0000
  H   H2240     1.0  0.20132  0.96204  0.36519  1.0000
  C   C1277     1.0  0.99080  0.80735  0.45969  1.0000
  H   H2241     1.0  0.03840  0.73616  0.44776  1.0000
  H   H2242     1.0  0.11708  0.96158  0.42849  1.0000
  H   H2243     1.0  0.00480  0.83700  0.45373  1.0000
  H   H2244     1.0  0.99842  0.85804  0.38306  1.0000
  H   H2245     1.0  0.08679  0.76209  0.40459  1.0000
  C   C1278     1.0  0.02298  0.75434  0.44538  1.0000
  C   C1279     1.0  0.10968  0.96018  0.46222  1.0000
  H   H2246     1.0  0.21527  0.95818  0.46466  1.0000
  C   C1280     1.0  0.19512  0.90290  0.48049  1.0000
  H   H2247     1.0  0.06570  0.92826  0.45845  1.0000
  H   H2248     1.0  0.98717  0.79528  0.47945  1.0000
  H   H2249     1.0  0.07571  0.90569  0.46944  1.0000
  C   C1281     1.0  0.99953  0.88390  0.46825  1.0000
  H   H2250     1.0  0.99002  0.90487  0.46716  1.0000
  H   H2251     1.0  0.98916  0.85147  0.43812  1.0000
  H   H2252     1.0  0.22584  0.90883  0.47643  1.0000
  C   C1282     1.0  0.23537  0.97498  0.43962  1.0000
  C   C1283     1.0  0.12097  0.97647  0.44367  1.0000
  S   S260      1.0  0.08025  0.73471  0.46806  1.0000
  C   C1284     1.0  0.99083  0.83714  0.41920  1.0000
  H   H2253     1.0  0.04276  0.75096  0.44860  1.0000
  H   H2254     1.0  0.05928  0.91574  0.45558  1.0000
  H   H2255     1.0  0.19434  0.96828  0.47577  1.0000
  H   H2256     1.0  0.16142  0.94420  0.42615  1.0000
  C   C1285     1.0  0.99340  0.76561  0.45014  1.0000
  C   C1286     1.0  0.21858  0.94072  0.48026  1.0000
  H   H2257     1.0  0.12314  0.97933  0.43258  1.0000
  H   H2258     1.0  0.11681  0.82254  0.47308  1.0000
  H   H2259     1.0  0.14792  0.96717  0.40594  1.0000
  H   H2260     1.0  0.21687  0.86870  0.45003  1.0000
  H   H2261     1.0  0.08883  0.95463  0.43483  1.0000
  H   H2262     1.0  0.09705  0.96410  0.41945  1.0000
  H   H2263     1.0  0.12182  0.96793  0.47053  1.0000
  C   C1287     1.0  0.17519  0.97341  0.41279  1.0000
  C   C1288     1.0  0.99902  0.87347  0.42497  1.0000
  S   S261      1.0  0.22605  0.91725  0.44843  1.0000
  C   C1289     1.0  0.11040  0.83237  0.46981  1.0000
  H   H2264     1.0  0.21518  0.96164  0.37180  1.0000
  H   H2265     1.0  0.23642  0.97675  0.40192  1.0000
  C   C1290     1.0  0.98979  0.85491  0.45700  1.0000
  H   H2266     1.0  0.04932  0.92569  0.46745  1.0000
  H   H2267     1.0  0.10908  0.83860  0.47703  1.0000
  H   H2268     1.0  0.14412  0.96312  0.43119  1.0000
  C   C1291     1.0  0.99803  0.73675  0.36707  1.0000
  H   H2269     1.0  0.17293  0.92097  0.47406  1.0000
  H   H2270     1.0  0.03539  0.86686  0.47882  1.0000
  S   S262      1.0  0.21076  0.98162  0.41966  1.0000
  H   H2271     1.0  0.17026  0.96269  0.43330  1.0000
  C   C1292     1.0  0.02676  0.88701  0.48022  1.0000
  C   C1293     1.0  0.00649  0.80094  0.47538  1.0000
  H   H2272     1.0  0.20418  0.88000  0.44188  1.0000
  H   H2273     1.0  0.09967  0.92625  0.47714  1.0000
  H   H2274     1.0  0.09025  0.76283  0.47098  1.0000
  H   H2275     1.0  0.07508  0.83764  0.47672  1.0000
  H   H2276     1.0  0.16524  0.98114  0.39113  1.0000
  H   H2277     1.0  0.05246  0.80469  0.47247  1.0000
  H   H2278     1.0  0.08226  0.74754  0.41647  1.0000
  H   H2279     1.0  0.99480  0.73754  0.37772  1.0000
  C   C1294     1.0  0.15769  0.88671  0.47529  1.0000
  H   H2280     1.0  0.16510  0.97390  0.41189  1.0000
  H   H2281     1.0  0.20495  0.90517  0.47514  1.0000
  H   H2282     1.0  0.17426  0.98456  0.36733  1.0000
  C   C1295     1.0  0.99076  0.74494  0.44515  1.0000
  H   H2283     1.0  0.16801  0.98035  0.43142  1.0000
  C   C1296     1.0  0.17449  0.97150  0.42767  1.0000
  H   H2284     1.0  0.03171  0.74284  0.46241  1.0000
  Fe  Fe132     1.0  0.22660  0.93183  0.42879  1.0000
  S   S263      1.0  0.06163  0.74101  0.38810  1.0000
  C   C1297     1.0  0.17677  0.89528  0.47697  1.0000
  S   S264      1.0  0.01194  0.75318  0.48193  1.0000
  H   H2285     1.0  0.13761  0.85367  0.51511  1.0000
  Fe  Fe133     1.0  0.07567  0.85022  0.51682  1.0000
  C   C1298     1.0  0.04659  0.78956  0.51832  1.0000
  S   S265      1.0  0.09112  0.85491  0.52463  1.0000
  Fe  Fe134     1.0  0.07069  0.82720  0.50819  1.0000
  S   S266      1.0  0.05411  0.84033  0.49881  1.0000
  S   S267      1.0  0.07882  0.80619  0.50491  1.0000
  H   H2286     1.0  0.02806  0.84239  0.50435  1.0000
  H   H2287     1.0  0.13591  0.82516  0.57340  1.0000
  Fe  Fe135     1.0  0.04752  0.84897  0.51697  1.0000
  S   S268      1.0  0.02565  0.85501  0.52610  1.0000
  H   H2288     1.0  0.18999  0.91093  0.48609  1.0000
  S   S269      1.0  0.06336  0.83471  0.52727  1.0000
  Fe  Fe136     1.0  0.12338  0.91246  0.52269  1.0000
  S   S270      1.0  0.12529  0.93256  0.50915  1.0000
  S   S271      1.0  0.10337  0.90684  0.53122  1.0000
  Fe  Fe137     1.0  0.15315  0.90297  0.52076  1.0000
  S   S272      1.0  0.15754  0.92166  0.50659  1.0000
  S   S273      1.0  0.16902  0.88532  0.52684  1.0000
  Fe  Fe138     1.0  0.14041  0.93218  0.52017  1.0000
  S   S274      1.0  0.14597  0.94885  0.52510  1.0000
  Fe  Fe139     1.0  0.14220  0.92050  0.49694  1.0000
  H   H2289     1.0  0.99207  0.78801  0.50082  1.0000
  S   S275      1.0  0.13685  0.91327  0.53516  1.0000
  S   S276      1.0  0.13948  0.90058  0.50961  1.0000
  H   H2290     1.0  0.12029  0.84707  0.57506  1.0000
  H   H2291     1.0  0.14732  0.84683  0.55515  1.0000
  N   N73       1.0  0.07102  0.90748  0.49732  1.0000
  H   H2292     1.0  0.12916  0.87698  0.53160  1.0000
  S   S277      1.0  0.22065  0.89248  0.53906  1.0000
  C   C1299     1.0  0.15459  0.88182  0.56242  1.0000
  H   H2293     1.0  0.10768  0.88008  0.48802  1.0000
  H   H2294     1.0  0.04427  0.88823  0.52813  1.0000
  C   C1300     1.0  0.00269  0.78443  0.49638  1.0000
  H   H2295     1.0  0.16772  0.98065  0.53436  1.0000
  C   C1301     1.0  0.99174  0.86131  0.51345  1.0000
  C   C1302     1.0  0.11947  0.87220  0.55725  1.0000
  C   C1303     1.0  0.05108  0.77775  0.51356  1.0000
  H   H2296     1.0  0.11803  0.92682  0.48657  1.0000
  H   H2297     1.0  0.00756  0.82369  0.51142  1.0000
  C   C1304     1.0  0.14405  0.86066  0.51371  1.0000
  H   H2298     1.0  0.18657  0.96545  0.52595  1.0000
  S   S278      1.0  0.04585  0.75659  0.48395  1.0000
  C   C1305     1.0  0.17095  0.92989  0.54880  1.0000
  H   H2299     1.0  0.20048  0.88088  0.48772  1.0000
  H   H2300     1.0  0.03293  0.87666  0.49891  1.0000
  H   H2301     1.0  0.13529  0.87768  0.57032  1.0000
  H   H2302     1.0  0.17698  0.92055  0.54577  1.0000
  C   C1306     1.0  0.19265  0.94920  0.56413  1.0000
  H   H2303     1.0  0.16399  0.95772  0.54133  1.0000
  H   H2304     1.0  0.14848  0.83116  0.57684  1.0000
  H   H2305     1.0  0.14127  0.88260  0.54439  1.0000
  S   S279      1.0  0.04037  0.76674  0.51746  1.0000
  H   H2306     1.0  0.05138  0.80756  0.51922  1.0000
  C   C1307     1.0  0.19010  0.96410  0.53521  1.0000
  H   H2307     1.0  0.15537  0.88254  0.57233  1.0000
  C   C1308     1.0  0.13731  0.96555  0.52166  1.0000
  C   C1309     1.0  0.14281  0.97542  0.52292  1.0000
  H   H2308     1.0  0.08926  0.93705  0.50939  1.0000
  H   H2309     1.0  0.16947  0.89998  0.48497  1.0000
  S   S280      1.0  0.21776  0.94972  0.49191  1.0000
  C   C1310     1.0  0.12522  0.96921  0.51775  1.0000
  H   H2310     1.0  0.15216  0.97269  0.52586  1.0000
  H   H2311     1.0  0.19023  0.95159  0.58439  1.0000
  H   H2312     1.0  0.00064  0.81438  0.52736  1.0000
  H   H2313     1.0  0.12090  0.96165  0.51677  1.0000
  C   C1311     1.0  0.18300  0.88794  0.53038  1.0000
  C   C1312     1.0  0.18508  0.90073  0.52855  1.0000
  C   C1313     1.0  0.19674  0.90236  0.53089  1.0000
  C   C1314     1.0  0.20609  0.89117  0.53549  1.0000
  C   C1315     1.0  0.20374  0.87845  0.53765  1.0000
  C   C1316     1.0  0.19234  0.87683  0.53498  1.0000
  H   H2314     1.0  0.17769  0.90928  0.52535  1.0000
  H   H2315     1.0  0.19840  0.91222  0.52938  1.0000
  H   H2316     1.0  0.21086  0.86976  0.54127  1.0000
  H   H2317     1.0  0.19078  0.86692  0.53650  1.0000
  N   N74       1.0  0.13291  0.86512  0.55073  1.0000
  H   H2318     1.0  0.03667  0.79176  0.52430  1.0000
  H   H2319     1.0  0.04722  0.91124  0.51789  1.0000
  H   H2320     1.0  0.13499  0.96831  0.48951  1.0000
  H   H2321     1.0  0.13343  0.82943  0.58922  1.0000
  C   C1317     1.0  0.09315  0.87097  0.52385  1.0000
  C   C1318     1.0  0.08377  0.87930  0.53167  1.0000
  C   C1319     1.0  0.08684  0.89058  0.53339  1.0000
  C   C1320     1.0  0.09923  0.89376  0.52717  1.0000
  C   C1321     1.0  0.10827  0.88591  0.51867  1.0000
  C   C1322     1.0  0.10537  0.87439  0.51728  1.0000
  H   H2322     1.0  0.07449  0.87654  0.53712  1.0000
  H   H2323     1.0  0.07980  0.89653  0.54005  1.0000
  H   H2324     1.0  0.11770  0.88838  0.51356  1.0000
  H   H2325     1.0  0.11276  0.86790  0.51140  1.0000
  H   H2326     1.0  0.08637  0.86984  0.56400  1.0000
  H   H2327     1.0  0.06167  0.92320  0.50827  1.0000
  H   H2328     1.0  0.20514  0.89931  0.50267  1.0000
  C   C1323     1.0  0.01810  0.84792  0.50678  1.0000
  C   C1324     1.0  0.01413  0.85438  0.51741  1.0000
  C   C1325     1.0  0.00082  0.86084  0.52090  1.0000
  C   C1326     1.0  0.14604  0.86114  0.52718  1.0000
  C   C1327     1.0  0.05489  0.79853  0.51543  1.0000
  C   C1328     1.0  0.06630  0.91681  0.48528  1.0000
  H   H2329     1.0  0.99761  0.86578  0.52918  1.0000
  Fe  Fe140     1.0  0.04503  0.75061  0.50596  1.0000
  H   H2330     1.0  0.15131  0.89204  0.55663  1.0000
  H   H2331     1.0  0.10914  0.85635  0.55882  1.0000
  H   H2332     1.0  0.09543  0.86950  0.57600  1.0000
  H   H2333     1.0  0.09269  0.88416  0.56272  1.0000
  H   H2334     1.0  0.10598  0.87074  0.54596  1.0000
  C   C1329     1.0  0.18020  0.95638  0.49814  1.0000
  H   H2335     1.0  0.18806  0.93629  0.54866  1.0000
  H   H2336     1.0  0.07146  0.94004  0.51253  1.0000
  C   C1330     1.0  0.19843  0.97465  0.53257  1.0000
  C   C1331     1.0  0.98913  0.74408  0.49136  1.0000
  N   N75       1.0  0.17472  0.96821  0.48808  1.0000
  C   C1332     1.0  0.03954  0.89448  0.51977  1.0000
  H   H2337     1.0  0.19711  0.95436  0.53612  1.0000
  C   C1333     1.0  0.06392  0.77497  0.50583  1.0000
  H   H2338     1.0  0.03883  0.88793  0.51374  1.0000
  H   H2339     1.0  0.01243  0.84378  0.49084  1.0000
  C   C1334     1.0  0.99971  0.76455  0.51575  1.0000
  H   H2340     1.0  0.18750  0.94080  0.56779  1.0000
  C   C1335     1.0  0.08633  0.88594  0.48965  1.0000
  C   C1336     1.0  0.18618  0.98438  0.49259  1.0000
  C   C1337     1.0  0.10754  0.86736  0.55628  1.0000
  H   H2341     1.0  0.12559  0.86084  0.53577  1.0000
  C   C1338     1.0  0.19828  0.94979  0.57554  1.0000
  C   C1339     1.0  0.18699  0.93150  0.50642  1.0000
  H   H2342     1.0  0.02677  0.78794  0.49765  1.0000
  H   H2343     1.0  0.13260  0.84442  0.55289  1.0000
  Fe  Fe141     1.0  0.22712  0.93599  0.50854  1.0000
  H   H2344     1.0  0.16223  0.93329  0.54418  1.0000
  H   H2345     1.0  0.09020  0.89681  0.50148  1.0000
  C   C1340     1.0  0.00510  0.80448  0.51097  1.0000
  H   H2346     1.0  0.04223  0.91107  0.50316  1.0000
  Fe  Fe142     1.0  0.22848  0.91124  0.53041  1.0000
  C   C1341     1.0  0.14478  0.87320  0.56425  1.0000
  H   H2347     1.0  0.15288  0.86790  0.52503  1.0000
  H   H2348     1.0  0.11784  0.88310  0.55266  1.0000
  C   C1342     1.0  0.19728  0.89009  0.49160  1.0000
  C   C1343     1.0  0.08206  0.92403  0.50206  1.0000
  S   S281      1.0  0.08421  0.84148  0.49863  1.0000
  C   C1344     1.0  0.09475  0.87309  0.56536  1.0000
  C   C1345     1.0  0.23456  0.97561  0.54170  1.0000
  C   C1346     1.0  0.04744  0.90491  0.51118  1.0000
  C   C1347     1.0  0.08071  0.93220  0.51222  1.0000
  H   H2349     1.0  0.14684  0.98393  0.49277  1.0000
  H   H2350     1.0  0.01805  0.87002  0.48399  1.0000
  H   H2351     1.0  0.14887  0.86317  0.56983  1.0000
  H   H2352     1.0  0.16484  0.95152  0.55837  1.0000
  C   C1348     1.0  0.18277  0.96233  0.55994  1.0000
  C   C1349     1.0  0.21030  0.97297  0.52086  1.0000
  H   H2353     1.0  0.08231  0.78151  0.49741  1.0000
  H   H2354     1.0  0.21759  0.88956  0.49177  1.0000
  C   C1350     1.0  0.17926  0.94046  0.54426  1.0000
  H   H2355     1.0  0.15615  0.97672  0.56492  1.0000
  C   C1351     1.0  0.00059  0.81705  0.51655  1.0000
  C   C1352     1.0  0.00900  0.77378  0.50737  1.0000
  H   H2356     1.0  0.19098  0.94149  0.48597  1.0000
  H   H2357     1.0  0.16755  0.92765  0.55985  1.0000
  H   H2358     1.0  0.20391  0.95782  0.57229  1.0000
  H   H2359     1.0  0.17409  0.96252  0.56849  1.0000
  H   H2360     1.0  0.01827  0.76762  0.50258  1.0000
  C   C1353     1.0  0.18281  0.94254  0.49486  1.0000
  H   H2361     1.0  0.15085  0.85098  0.53188  1.0000
  H   H2362     1.0  0.20112  0.94702  0.55582  1.0000
  H   H2363     1.0  0.06088  0.89209  0.49873  1.0000
  H   H2364     1.0  0.06608  0.89103  0.51335  1.0000
  H   H2365     1.0  0.18787  0.88955  0.49919  1.0000
  H   H2366     1.0  0.17340  0.95614  0.50820  1.0000
  H   H2367     1.0  0.00272  0.77871  0.48911  1.0000
  C   C1354     1.0  0.00282  0.74085  0.48662  1.0000
  H   H2368     1.0  0.17390  0.94088  0.49293  1.0000
  H   H2369     1.0  0.99045  0.82239  0.51528  1.0000
  H   H2370     1.0  0.08117  0.93119  0.49245  1.0000
  H   H2371     1.0  0.10079  0.95312  0.48994  1.0000
  C   C1355     1.0  0.15546  0.97937  0.55431  1.0000
  C   C1356     1.0  0.10037  0.88097  0.48211  1.0000
  C   C1357     1.0  0.07230  0.78382  0.50317  1.0000
  C   C1358     1.0  0.17313  0.98049  0.49320  1.0000
  H   H2372     1.0  0.02935  0.89948  0.52407  1.0000
  C   C1359     1.0  0.14322  0.87227  0.55058  1.0000
  C   C1360     1.0  0.99596  0.85533  0.50245  1.0000
  H   H2373     1.0  0.20518  0.94018  0.57845  1.0000
  S   S282      1.0  0.21522  0.93155  0.52941  1.0000
  H   H2374     1.0  0.06746  0.76590  0.50213  1.0000
  H   H2375     1.0  0.07224  0.90935  0.51660  1.0000
  H   H2376     1.0  0.17900  0.93179  0.51559  1.0000
  H   H2377     1.0  0.05645  0.92323  0.48840  1.0000
  Fe  Fe143     1.0  0.03094  0.74410  0.48877  1.0000
  H   H2378     1.0  0.16457  0.87734  0.55709  1.0000
  H   H2379     1.0  0.09211  0.91747  0.50104  1.0000
  H   H2380     1.0  0.07950  0.88637  0.48345  1.0000
  C   C1361     1.0  0.15077  0.97915  0.48405  1.0000
  H   H2381     1.0  0.00451  0.75699  0.52345  1.0000
  C   C1362     1.0  0.13109  0.84650  0.57268  1.0000
  C   C1363     1.0  0.13637  0.85052  0.55732  1.0000
  H   H2382     1.0  0.15321  0.86728  0.54575  1.0000
  H   H2383     1.0  0.18274  0.94206  0.53321  1.0000
  C   C1364     1.0  0.13270  0.86635  0.53634  1.0000
  H   H2384     1.0  0.01556  0.80028  0.51166  1.0000
  H   H2385     1.0  0.11877  0.87148  0.56797  1.0000
  C   C1365     1.0  0.06784  0.79560  0.50799  1.0000
  H   H2386     1.0  0.99896  0.79741  0.51754  1.0000
  C   C1366     1.0  0.17105  0.95381  0.54810  1.0000
  H   H2387     1.0  0.15376  0.85717  0.50727  1.0000
  H   H2388     1.0  0.08061  0.92572  0.52237  1.0000
  H   H2389     1.0  0.18976  0.95710  0.49946  1.0000
  S   S283      1.0  0.05924  0.86500  0.50823  1.0000
  N   N76       1.0  0.17853  0.96423  0.54709  1.0000
  C   C1367     1.0  0.13766  0.83218  0.57833  1.0000
  C   C1368     1.0  0.08489  0.89949  0.49322  1.0000
  H   H2390     1.0  0.13949  0.87072  0.50852  1.0000
  H   H2391     1.0  0.13269  0.85303  0.57818  1.0000
  C   C1369     1.0  0.07119  0.91581  0.50660  1.0000
  H   H2392     1.0  0.01158  0.77813  0.51429  1.0000
  N   N77       1.0  0.00915  0.79615  0.48931  1.0000
  C   C1370     1.0  0.06180  0.89825  0.50504  1.0000
  C   C1371     1.0  0.00324  0.80745  0.49649  1.0000
  C   C1372     1.0  0.16152  0.96640  0.48733  1.0000
  C   C1373     1.0  0.00912  0.84856  0.49922  1.0000
  H   H2393     1.0  0.20705  0.97414  0.51155  1.0000
  H   H2394     1.0  0.19616  0.93258  0.50841  1.0000
  H   H2395     1.0  0.18691  0.97085  0.55967  1.0000
  Fe  Fe144     1.0  0.06695  0.85515  0.49090  1.0000
  H   H2396     1.0  0.02567  0.89425  0.49760  1.0000
  H   H2397     1.0  0.09074  0.90567  0.48468  1.0000
  C   C1374     1.0  0.16935  0.97780  0.54474  1.0000
  S   S284      1.0  0.22771  0.95143  0.54795  1.0000
  C   C1375     1.0  0.02507  0.88499  0.49528  1.0000
  Fe  Fe145     1.0  0.06077  0.73732  0.48284  1.0000
  H   H2398     1.0  0.08416  0.87831  0.49897  1.0000
  H   H2399     1.0  0.21607  0.98061  0.51928  1.0000
  C   C1376     1.0  0.10620  0.96133  0.48651  1.0000
  H   H2400     1.0  0.18900  0.92168  0.50385  1.0000
  H   H2401     1.0  0.01527  0.88268  0.50069  1.0000
  H   H2402     1.0  0.02784  0.78337  0.48272  1.0000
  H   H2403     1.0  0.14958  0.97301  0.55297  1.0000
  H   H2404     1.0  0.22112  0.92160  0.49387  1.0000
  H   H2405     1.0  0.00699  0.81653  0.49066  1.0000
  C   C1377     1.0  0.02398  0.79188  0.48782  1.0000
  H   H2406     1.0  0.20237  0.97373  0.54140  1.0000
  H   H2407     1.0  0.99740  0.75931  0.50934  1.0000
  H   H2408     1.0  0.99238  0.81050  0.49726  1.0000
  H   H2409     1.0  0.15673  0.96063  0.49704  1.0000
  H   H2410     1.0  0.21689  0.96300  0.52302  1.0000
  H   H2411     1.0  0.11135  0.96085  0.49436  1.0000
  H   H2412     1.0  0.09905  0.97107  0.48517  1.0000
  H   H2413     1.0  0.20838  0.88139  0.50722  1.0000
  Fe  Fe146     1.0  0.23130  0.93674  0.53521  1.0000
  H   H2414     1.0  0.04858  0.79637  0.48968  1.0000
  C   C1378     1.0  0.20773  0.89015  0.49871  1.0000
  H   H2415     1.0  0.99037  0.77031  0.52092  1.0000
  S   S285      1.0  0.02928  0.73893  0.51085  1.0000
  H   H2416     1.0  0.19366  0.97587  0.49646  1.0000
  H   H2417     1.0  0.22482  0.97914  0.54743  1.0000
  C   C1379     1.0  0.11858  0.98271  0.51536  1.0000
  C   C1380     1.0  0.22095  0.92682  0.48370  1.0000
  H   H2418     1.0  0.16718  0.97931  0.50367  1.0000
  H   H2419     1.0  0.02869  0.81148  0.48466  1.0000
  H   H2420     1.0  0.18074  0.88503  0.48216  1.0000
  H   H2421     1.0  0.15044  0.89291  0.48202  1.0000
  Fe  Fe147     1.0  0.33809  0.05295  0.43848  1.0000
  S   S286      1.0  0.32385  0.04568  0.43193  1.0000
  S   S287      1.0  0.32953  0.06806  0.45142  1.0000
  Fe  Fe148     1.0  0.36227  0.03763  0.42196  1.0000
  S   S288      1.0  0.35012  0.02905  0.41406  1.0000
  S   S289      1.0  0.38450  0.03071  0.41642  1.0000
  Fe  Fe149     1.0  0.33692  0.04939  0.41158  1.0000
  S   S290      1.0  0.32946  0.05903  0.39273  1.0000
  H   H2422     1.0  0.46540  0.08368  0.98270  1.0000
  H   H2423     1.0  0.23802  0.00246  0.46614  1.0000
  S   S291      1.0  0.35012  0.05849  0.41764  1.0000
  S   S292      1.0  0.35126  0.03278  0.44336  1.0000
  Fe  Fe150     1.0  0.45263  0.04323  0.32534  1.0000
  S   S293      1.0  0.45169  0.02747  0.31588  1.0000
  Fe  Fe151     1.0  0.42484  0.04375  0.34269  1.0000
  S   S294      1.0  0.42154  0.02796  0.33475  1.0000
  S   S295      1.0  0.40856  0.05542  0.35618  1.0000
  Fe  Fe152     1.0  0.44238  0.01800  0.33656  1.0000
  H   H2424     1.0  0.37133  0.04254  0.47766  1.0000
  Fe  Fe153     1.0  0.43106  0.03870  0.31462  1.0000
  S   S296      1.0  0.42189  0.04282  0.29688  1.0000
  S   S297      1.0  0.44498  0.03281  0.34634  1.0000
  S   S298      1.0  0.43267  0.05548  0.32237  1.0000
  Fe  Fe154     1.0  0.43155  0.01852  0.11798  1.0000
  S   S299      1.0  0.43793  0.03100  0.12779  1.0000
  Fe  Fe155     1.0  0.41800  0.04245  0.09993  1.0000
  S   S300      1.0  0.42313  0.05715  0.10785  1.0000
  S   S301      1.0  0.40481  0.04695  0.08569  1.0000
  Fe  Fe156     1.0  0.44290  0.04307  0.10686  1.0000
  H   H2425     1.0  0.36762  0.03795  0.07372  1.0000
  Fe  Fe157     1.0  0.41770  0.04401  0.12804  1.0000
  S   S302      1.0  0.40421  0.05331  0.14480  1.0000
  S   S303      1.0  0.43832  0.02946  0.09698  1.0000
  S   S304      1.0  0.41077  0.03048  0.12018  1.0000
  Fe  Fe158     1.0  0.41788  0.11134  0.03327  1.0000
  S   S305      1.0  0.42176  0.12605  0.04232  1.0000
  S   S306      1.0  0.40084  0.10127  0.04282  1.0000
  H   H2426     1.0  0.37410  0.07806  0.35063  1.0000
  Fe  Fe159     1.0  0.44303  0.11703  0.03473  1.0000
  H   H2427     1.0  0.48094  0.00420  0.13922  1.0000
  H   H2428     1.0  0.48410  0.11714  0.04667  1.0000
  Fe  Fe160     1.0  0.42313  0.13908  0.02171  1.0000
  S   S307      1.0  0.41509  0.16120  0.01664  1.0000
  S   S308      1.0  0.43914  0.10103  0.02749  1.0000
  S   S309      1.0  0.41737  0.12519  0.01316  1.0000
  H   H2429     1.0  0.42520  0.10883  0.08630  1.0000
  S   S310      1.0  0.43425  0.03004  0.22244  1.0000
  H   H2430     1.0  0.30866  0.99401  0.40658  1.0000
  S   S311      1.0  0.45884  0.04414  0.20485  1.0000
  C   C1381     1.0  0.43853  0.09213  0.07909  1.0000
  Fe  Fe161     1.0  0.45411  0.03049  0.22491  1.0000
  S   S312      1.0  0.46086  0.03079  0.24306  1.0000
  Fe  Fe162     1.0  0.44007  0.04178  0.20146  1.0000
  S   S313      1.0  0.42557  0.05890  0.19210  1.0000
  Fe  Fe163     1.0  0.46775  0.02545  0.19718  1.0000
  S   S314      1.0  0.44944  0.02409  0.19219  1.0000
  Fe  Fe164     1.0  0.43289  0.21464  0.03710  1.0000
  H   H2431     1.0  0.44855  0.07341  0.32730  1.0000
  S   S315      1.0  0.43070  0.19395  0.04856  1.0000
  C   C1382     1.0  0.38747  0.02616  0.07416  1.0000
  C   C1383     1.0  0.46324  0.06480  0.36901  1.0000
  H   H2432     1.0  0.44328  0.06533  0.11838  1.0000
  C   C1384     1.0  0.39498  0.12134  0.07883  1.0000
  H   H2433     1.0  0.43313  0.07817  0.12696  1.0000
  H   H2434     1.0  0.46186  0.02287  0.10985  1.0000
  H   H2435     1.0  0.47991  0.00363  0.11492  1.0000
  H   H2436     1.0  0.39197  0.99807  0.22683  1.0000
  Fe  Fe165     1.0  0.25511  0.05677  0.40671  1.0000
  S   S316      1.0  0.26755  0.07213  0.39759  1.0000
  S   S317      1.0  0.26385  0.03498  0.41210  1.0000
  C   C1385     1.0  0.41928  0.17027  0.02565  1.0000
  C   C1386     1.0  0.41795  0.18408  0.02111  1.0000
  C   C1387     1.0  0.42147  0.19142  0.02809  1.0000
  C   C1388     1.0  0.42610  0.18500  0.03976  1.0000
  C   C1389     1.0  0.42718  0.17124  0.04444  1.0000
  C   C1390     1.0  0.42393  0.16385  0.03731  1.0000
  H   H2437     1.0  0.41426  0.18910  0.01217  1.0000
  H   H2438     1.0  0.42039  0.20208  0.02463  1.0000
  H   H2439     1.0  0.43065  0.16628  0.05353  1.0000
  H   H2440     1.0  0.42490  0.15322  0.04092  1.0000
  C   C1391     1.0  0.40457  0.06183  0.07349  1.0000
  C   C1392     1.0  0.41479  0.06874  0.06976  1.0000
  C   C1393     1.0  0.41398  0.08083  0.06010  1.0000
  C   C1394     1.0  0.40288  0.08598  0.05438  1.0000
  C   C1395     1.0  0.39275  0.07901  0.05819  1.0000
  C   C1396     1.0  0.39366  0.06692  0.06760  1.0000
  H   H2441     1.0  0.42323  0.06479  0.07435  1.0000
  H   H2442     1.0  0.42180  0.08625  0.05720  1.0000
  H   H2443     1.0  0.38416  0.08297  0.05381  1.0000
  H   H2444     1.0  0.38573  0.06165  0.07048  1.0000
  C   C1397     1.0  0.42033  0.05724  0.17854  1.0000
  C   C1398     1.0  0.40824  0.06514  0.17588  1.0000
  C   C1399     1.0  0.40341  0.06375  0.16557  1.0000
  C   C1400     1.0  0.41076  0.05466  0.15760  1.0000
  C   C1401     1.0  0.42297  0.04686  0.16007  1.0000
  C   C1402     1.0  0.42776  0.04815  0.17054  1.0000
  H   H2445     1.0  0.40246  0.07220  0.18198  1.0000
  H   H2446     1.0  0.39396  0.06980  0.16373  1.0000
  H   H2447     1.0  0.42866  0.03982  0.15396  1.0000
  H   H2448     1.0  0.43721  0.04225  0.17233  1.0000
  C   C1403     1.0  0.43222  0.03833  0.28210  1.0000
  C   C1404     1.0  0.42820  0.04392  0.26993  1.0000
  C   C1405     1.0  0.43670  0.04122  0.25788  1.0000
  C   C1406     1.0  0.44928  0.03302  0.25798  1.0000
  C   C1407     1.0  0.45310  0.02706  0.27018  1.0000
  C   C1408     1.0  0.44454  0.02960  0.28222  1.0000
  H   H2449     1.0  0.41864  0.05062  0.26979  1.0000
  H   H2450     1.0  0.43370  0.04587  0.24849  1.0000
  H   H2451     1.0  0.46272  0.02050  0.27033  1.0000
  H   H2452     1.0  0.44751  0.02487  0.29157  1.0000
  C   C1409     1.0  0.39140  0.03755  0.39974  1.0000
  C   C1410     1.0  0.38519  0.04997  0.39321  1.0000
  C   C1411     1.0  0.39074  0.05539  0.37994  1.0000
  C   C1412     1.0  0.40223  0.04821  0.37290  1.0000
  C   C1413     1.0  0.40842  0.03571  0.37935  1.0000
  C   C1414     1.0  0.40317  0.03053  0.39286  1.0000
  H   H2453     1.0  0.37621  0.05553  0.39845  1.0000
  H   H2454     1.0  0.38602  0.06514  0.37505  1.0000
  H   H2455     1.0  0.41728  0.03011  0.37397  1.0000
  H   H2456     1.0  0.40801  0.02091  0.39788  1.0000
  C   C1415     1.0  0.31235  0.06177  0.39391  1.0000
  C   C1416     1.0  0.30609  0.07374  0.38668  1.0000
  C   C1417     1.0  0.29238  0.07667  0.38788  1.0000
  C   C1418     1.0  0.28483  0.06749  0.39597  1.0000
  C   C1419     1.0  0.29114  0.05522  0.40284  1.0000
  C   C1420     1.0  0.30491  0.05240  0.40190  1.0000
  H   H2457     1.0  0.31179  0.08097  0.38042  1.0000
  H   H2458     1.0  0.28760  0.08614  0.38252  1.0000
  H   H2459     1.0  0.28538  0.04809  0.40913  1.0000
  H   H2460     1.0  0.30973  0.04306  0.40742  1.0000
  H   H2461     1.0  0.47974  0.06869  0.24880  1.0000
  C   C1421     1.0  0.33592  0.06653  0.46539  1.0000
  C   C1422     1.0  0.42461  0.10078  0.08201  1.0000
  H   H2462     1.0  0.39092  0.11447  0.10844  1.0000
  H   H2463     1.0  0.33399  0.08770  0.46194  1.0000
  H   H2464     1.0  0.43356  0.03930  0.06099  1.0000
  H   H2465     1.0  0.41724  0.02374  0.05331  1.0000
  C   C1423     1.0  0.44906  0.16472  0.99166  1.0000
  H   H2466     1.0  0.44721  0.06252  0.38665  1.0000
  C   C1424     1.0  0.37438  0.02927  0.06985  1.0000
  H   H2467     1.0  0.41301  0.99515  0.37895  1.0000
  H   H2468     1.0  0.40655  0.19352  0.99159  1.0000
  H   H2469     1.0  0.47602  0.12565  0.98363  1.0000
  H   H2470     1.0  0.38824  0.99975  0.39010  1.0000
  N   N78       1.0  0.43923  0.06313  0.36998  1.0000
  H   H2471     1.0  0.44763  0.98922  0.07934  1.0000
  H   H2472     1.0  0.44265  0.02316  0.39238  1.0000
  H   H2473     1.0  0.47223  0.16147  0.02939  1.0000
  C   C1425     1.0  0.40604  0.01399  0.45397  1.0000
  H   H2474     1.0  0.29029  0.03464  0.37510  1.0000
  C   C1426     1.0  0.29087  0.00931  0.39173  1.0000
  H   H2475     1.0  0.44703  0.17556  0.98731  1.0000
  H   H2476     1.0  0.44519  0.07826  0.37558  1.0000
  H   H2477     1.0  0.48057  0.09435  0.98791  1.0000
  C   C1427     1.0  0.48475  0.08508  0.98409  1.0000
  H   H2478     1.0  0.40442  0.01938  0.44385  1.0000
  C   C1428     1.0  0.41814  0.99896  0.36857  1.0000
  H   H2479     1.0  0.37154  0.05735  0.45818  1.0000
  H   H2480     1.0  0.46828  0.07731  0.37902  1.0000
  H   H2481     1.0  0.37433  0.01036  0.37442  1.0000
  C   C1429     1.0  0.44346  0.07879  0.34661  1.0000
  H   H2482     1.0  0.38634  0.02036  0.35519  1.0000
  H   H2483     1.0  0.41977  0.00631  0.08893  1.0000
  H   H2484     1.0  0.42628  0.00417  0.04720  1.0000
  C   C1430     1.0  0.40804  0.11435  0.12330  1.0000
  H   H2485     1.0  0.41724  0.02487  0.19285  1.0000
  C   C1431     1.0  0.48481  0.11483  0.03724  1.0000
  Fe  Fe166     1.0  0.43897  0.11614  0.00804  1.0000
  H   H2486     1.0  0.48514  0.23291  0.05583  1.0000
  H   H2487     1.0  0.39393  0.01463  0.38097  1.0000
  C   C1432     1.0  0.38395  0.03882  0.45183  1.0000
  C   C1433     1.0  0.39393  0.10668  0.08555  1.0000
  S   S318      1.0  0.47083  0.05192  0.31709  1.0000
  C   C1434     1.0  0.45927  0.05969  0.27348  1.0000
  H   H2488     1.0  0.35823  0.03095  0.47063  1.0000
  H   H2489     1.0  0.44004  0.99652  0.30088  1.0000
  H   H2490     1.0  0.41363  0.12169  0.11614  1.0000
  H   H2491     1.0  0.37985  0.03482  0.32783  1.0000
  H   H2492     1.0  0.47726  0.06793  0.98464  1.0000
  H   H2493     1.0  0.40226  0.01739  0.47396  1.0000
  H   H2494     1.0  0.35601  0.02220  0.24532  1.0000
  C   C1435     1.0  0.44380  0.06435  0.35506  1.0000
  C   C1436     1.0  0.38431  0.02610  0.33491  1.0000
  H   H2495     1.0  0.47040  0.20220  0.99916  1.0000
  H   H2496     1.0  0.46090  0.05367  0.16212  1.0000
  N   N79       1.0  0.47051  0.04929  0.14267  1.0000
  H   H2497     1.0  0.40455  0.03969  0.19519  1.0000
  H   H2498     1.0  0.38832  0.02596  0.20811  1.0000
  C   C1437     1.0  0.40980  0.00936  0.08670  1.0000
  C   C1438     1.0  0.33678  0.07811  0.46841  1.0000
  C   C1439     1.0  0.42070  0.99660  0.05378  1.0000
  H   H2499     1.0  0.48519  0.16710  0.99232  1.0000
  C   C1440     1.0  0.34120  0.07738  0.47980  1.0000
  H   H2500     1.0  0.38955  0.12790  0.08595  1.0000
  H   H2501     1.0  0.41875  0.99867  0.34842  1.0000
  C   C1441     1.0  0.39106  0.21467  0.00142  1.0000
  H   H2502     1.0  0.44238  0.08788  0.08837  1.0000
  C   C1442     1.0  0.44825  0.06737  0.37584  1.0000
  H   H2503     1.0  0.39414  0.12066  0.05890  1.0000
  H   H2504     1.0  0.44892  0.18119  0.00628  1.0000
  Fe  Fe167     1.0  0.24787  0.03255  0.40395  1.0000
  H   H2505     1.0  0.29138  0.00988  0.41701  1.0000
  C   C1443     1.0  0.44405  0.99049  0.30942  1.0000
  H   H2506     1.0  0.44345  0.00785  0.26139  1.0000
  C   C1444     1.0  0.38275  0.06995  0.11052  1.0000
  H   H2507     1.0  0.45044  0.04640  0.14789  1.0000
  H   H2508     1.0  0.39715  0.10088  0.07755  1.0000
  H   H2509     1.0  0.38756  0.15064  0.98601  1.0000
  H   H2510     1.0  0.39368  0.17564  0.98338  1.0000
  S   S319      1.0  0.25196  0.01770  0.39133  1.0000
  H   H2511     1.0  0.37351  0.06483  0.47763  1.0000
  H   H2512     1.0  0.39901  0.08326  0.11417  1.0000
  H   H2513     1.0  0.32809  0.01991  0.37526  1.0000
  H   H2514     1.0  0.40011  0.07306  0.09567  1.0000
  C   C1445     1.0  0.28263  0.02972  0.37473  1.0000
  C   C1446     1.0  0.29447  0.99356  0.43356  1.0000
  H   H2515     1.0  0.38310  0.10717  0.08921  1.0000
  H   H2516     1.0  0.39405  0.99254  0.15300  1.0000
  H   H2517     1.0  0.39449  0.99314  0.11814  1.0000
  S   S320      1.0  0.44525  0.21744  0.01628  1.0000
  H   H2518     1.0  0.43428  0.01629  0.07453  1.0000
  C   C1447     1.0  0.25613  0.03118  0.46090  1.0000
  H   H2519     1.0  0.37821  0.12592  0.06941  1.0000
  H   H2520     1.0  0.33308  0.99954  0.47400  1.0000
  C   C1448     1.0  0.47478  0.03462  0.14853  1.0000
  C   C1449     1.0  0.29879  0.99150  0.40940  1.0000
  C   C1450     1.0  0.40558  0.08206  0.38871  1.0000
  H   H2521     1.0  0.40283  0.09619  0.12445  1.0000
  C   C1451     1.0  0.45206  0.06048  0.05757  1.0000
  H   H2522     1.0  0.39208  0.03070  0.25083  1.0000
  H   H2523     1.0  0.47147  0.05734  0.07027  1.0000
  H   H2524     1.0  0.45923  0.15285  0.05205  1.0000
  S   S321      1.0  0.41643  0.23202  0.03223  1.0000
  C   C1452     1.0  0.40642  0.02917  0.19445  1.0000
  H   H2525     1.0  0.40297  0.02901  0.18564  1.0000
  C   C1453     1.0  0.41486  0.09226  0.09149  1.0000
  C   C1454     1.0  0.48006  0.05430  0.13005  1.0000
  H   H2526     1.0  0.44398  0.00219  0.09643  1.0000
  H   H2527     1.0  0.37600  0.03182  0.05878  1.0000
  H   H2528     1.0  0.45675  0.07257  0.12885  1.0000
  H   H2529     1.0  0.45717  0.07831  0.05780  1.0000
  H   H2530     1.0  0.43315  0.08378  0.34562  1.0000
  H   H2531     1.0  0.28045  0.03322  0.36460  1.0000
  H   H2532     1.0  0.44941  0.14730  0.04441  1.0000
  H   H2533     1.0  0.44936  0.02834  0.05662  1.0000
  H   H2534     1.0  0.41852  0.09840  0.11344  1.0000
  C   C1455     1.0  0.25339  0.05198  0.46726  1.0000
  H   H2535     1.0  0.38167  0.03005  0.23551  1.0000
  H   H2536     1.0  0.38111  0.06273  0.10576  1.0000
  C   C1456     1.0  0.40139  0.98741  0.24347  1.0000
  H   H2537     1.0  0.29637  0.01223  0.36983  1.0000
  C   C1457     1.0  0.36944  0.05851  0.35664  1.0000
  H   H2538     1.0  0.38537  0.03761  0.34790  1.0000
  H   H2539     1.0  0.41218  0.98935  0.07440  1.0000
  H   H2540     1.0  0.45642  0.05134  0.05352  1.0000
  C   C1458     1.0  0.38679  0.01332  0.14577  1.0000
  H   H2541     1.0  0.37823  0.01853  0.22868  1.0000
  H   H2542     1.0  0.40192  0.03186  0.22002  1.0000
  S   S322      1.0  0.43671  0.99428  0.21963  1.0000
  H   H2543     1.0  0.39807  0.01635  0.05800  1.0000
  H   H2544     1.0  0.40565  0.01929  0.08928  1.0000
  H   H2545     1.0  0.37627  0.98811  0.40869  1.0000
  H   H2546     1.0  0.43857  0.00467  0.24794  1.0000
  C   C1459     1.0  0.45230  0.98674  0.19645  1.0000
  H   H2547     1.0  0.39337  0.01085  0.11210  1.0000
  H   H2548     1.0  0.38518  0.02422  0.08524  1.0000
  C   C1460     1.0  0.29022  0.99937  0.42024  1.0000
  N   N80       1.0  0.38402  0.21450  0.99107  1.0000
  H   H2549     1.0  0.42419  0.07104  0.39376  1.0000
  N   N81       1.0  0.28400  0.07021  0.44523  1.0000
  C   C1461     1.0  0.27293  0.07462  0.43786  1.0000
  C   C1462     1.0  0.28789  0.05511  0.44877  1.0000
  C   C1463     1.0  0.27893  0.07488  0.45823  1.0000
  C   C1464     1.0  0.29579  0.07625  0.43746  1.0000
  C   C1465     1.0  0.30005  0.07687  0.42226  1.0000
  C   C1466     1.0  0.26676  0.08976  0.43505  1.0000
  C   C1467     1.0  0.28862  0.06998  0.46786  1.0000
  C   C1468     1.0  0.28733  0.04737  0.43873  1.0000
  C   C1469     1.0  0.29208  0.03233  0.44347  1.0000
  C   C1470     1.0  0.31193  0.08342  0.41599  1.0000
  C   C1471     1.0  0.25805  0.09347  0.42490  1.0000
  S   S323      1.0  0.43422  0.99626  0.12506  1.0000
  H   H2550     1.0  0.26474  0.06948  0.44358  1.0000
  H   H2551     1.0  0.27624  0.07148  0.42813  1.0000
  H   H2552     1.0  0.29801  0.05187  0.45070  1.0000
  H   H2553     1.0  0.28133  0.05110  0.45830  1.0000
  H   H2554     1.0  0.26953  0.07169  0.46382  1.0000
  H   H2555     1.0  0.27646  0.08596  0.45630  1.0000
  H   H2556     1.0  0.29405  0.08666  0.43864  1.0000
  H   H2557     1.0  0.30467  0.07084  0.44163  1.0000
  H   H2558     1.0  0.29203  0.08277  0.41701  1.0000
  H   H2559     1.0  0.30306  0.06678  0.42032  1.0000
  H   H2560     1.0  0.26042  0.09265  0.44441  1.0000
  H   H2561     1.0  0.27448  0.09573  0.43107  1.0000
  H   H2562     1.0  0.29839  0.07245  0.46279  1.0000
  H   H2563     1.0  0.30398  0.99156  0.46847  1.0000
  H   H2564     1.0  0.27704  0.04905  0.43755  1.0000
  H   H2565     1.0  0.29361  0.05045  0.42890  1.0000
  H   H2566     1.0  0.29105  0.02710  0.43629  1.0000
  H   H2567     1.0  0.30265  0.02978  0.44401  1.0000
  H   H2568     1.0  0.28606  0.02865  0.45344  1.0000
  H   H2569     1.0  0.30942  0.09378  0.41743  1.0000
  H   H2570     1.0  0.32051  0.07763  0.42048  1.0000
  H   H2571     1.0  0.31487  0.08377  0.40509  1.0000
  H   H2572     1.0  0.26413  0.09157  0.41506  1.0000
  H   H2573     1.0  0.39669  0.17342  0.99970  1.0000
  C   C1472     1.0  0.43796  0.04896  0.37655  1.0000
  Fe  Fe168     1.0  0.44505  0.01250  0.21326  1.0000
  H   H2574     1.0  0.37452  0.00281  0.24969  1.0000
  H   H2575     1.0  0.25026  0.08757  0.42837  1.0000
  H   H2576     1.0  0.42611  0.08269  0.36849  1.0000
  H   H2577     1.0  0.41917  0.07018  0.36693  1.0000
  H   H2578     1.0  0.43333  0.99725  0.15158  1.0000
  H   H2579     1.0  0.40060  0.01103  0.20569  1.0000
  H   H2580     1.0  0.46722  0.05460  0.36725  1.0000
  C   C1473     1.0  0.38878  0.12652  0.06662  1.0000
  H   H2581     1.0  0.28857  0.99983  0.44082  1.0000
  C   C1474     1.0  0.34770  0.22175  0.01161  1.0000
  H   H2582     1.0  0.41448  0.08528  0.08574  1.0000
  H   H2583     1.0  0.42299  0.00282  0.46270  1.0000
  H   H2584     1.0  0.38075  0.06431  0.43427  1.0000
  C   C1475     1.0  0.43701  0.07274  0.28392  1.0000
  C   C1476     1.0  0.42556  0.07203  0.37248  1.0000
  H   H2585     1.0  0.38022  0.01188  0.25815  1.0000
  Fe  Fe169     1.0  0.33803  0.02605  0.43500  1.0000
  C   C1477     1.0  0.48208  0.01330  0.11018  1.0000
  C   C1478     1.0  0.41040  0.02605  0.25690  1.0000
  C   C1479     1.0  0.40806  0.10342  0.11667  1.0000
  H   H2586     1.0  0.36253  0.04729  0.45494  1.0000
  C   C1480     1.0  0.42090  0.00858  0.45283  1.0000
  C   C1481     1.0  0.41801  0.02123  0.06394  1.0000
  H   H2587     1.0  0.39164  0.03522  0.07015  1.0000
  H   H2588     1.0  0.44530  0.09825  0.07180  1.0000
  H   H2589     1.0  0.43187  0.19486  0.99216  1.0000
  C   C1482     1.0  0.39898  0.02124  0.20715  1.0000
  H   H2590     1.0  0.40626  0.11737  0.09811  1.0000
  C   C1483     1.0  0.41787  0.07079  0.38726  1.0000
  H   H2591     1.0  0.47046  0.05885  0.17815  1.0000
  H   H2592     1.0  0.40765  0.01853  0.26613  1.0000
  N   N82       1.0  0.41074  0.01040  0.07210  1.0000
  N   N83       1.0  0.40111  0.09961  0.09679  1.0000
  C   C1484     1.0  0.42535  0.22879  0.98524  1.0000
  C   C1485     1.0  0.47150  0.06697  0.37742  1.0000
  C   C1486     1.0  0.35797  0.05160  0.36494  1.0000
  H   H2593     1.0  0.43033  0.07458  0.29354  1.0000
  H   H2594     1.0  0.43878  0.08243  0.27737  1.0000
  H   H2595     1.0  0.43199  0.06819  0.27912  1.0000
  H   H2596     1.0  0.38819  0.06424  0.11852  1.0000
  H   H2597     1.0  0.46557  0.18306  0.04802  1.0000
  H   H2598     1.0  0.43845  0.08386  0.07477  1.0000
  C   C1487     1.0  0.45089  0.03809  0.37597  1.0000
  C   C1488     1.0  0.45202  0.07896  0.33253  1.0000
  H   H2599     1.0  0.30510  0.99335  0.43225  1.0000
  H   H2600     1.0  0.39519  0.02396  0.33104  1.0000
  H   H2601     1.0  0.40591  0.03464  0.23764  1.0000
  H   H2602     1.0  0.41284  0.10986  0.13195  1.0000
  H   H2603     1.0  0.40816  0.03585  0.25961  1.0000
  H   H2604     1.0  0.47063  0.05979  0.38724  1.0000
  H   H2605     1.0  0.41479  0.01771  0.21732  1.0000
  C   C1489     1.0  0.39356  0.08945  0.10630  1.0000
  C   C1490     1.0  0.32946  0.00750  0.41961  1.0000
  S   S324      1.0  0.45865  0.11368  0.04613  1.0000
  H   H2606     1.0  0.41323  0.03064  0.06739  1.0000
  C   C1491     1.0  0.25254  0.04508  0.45829  1.0000
  H   H2607     1.0  0.47751  0.05326  0.12102  1.0000
  H   H2608     1.0  0.42160  0.10516  0.07229  1.0000
  S   S325      1.0  0.44476  0.13129  0.01485  1.0000
  C   C1492     1.0  0.36364  0.02197  0.47636  1.0000
  H   H2609     1.0  0.39776  0.11960  0.12699  1.0000
  H   H2610     1.0  0.36295  0.06741  0.43765  1.0000
  H   H2611     1.0  0.41947  0.08583  0.09986  1.0000
  C   C1493     1.0  0.36587  0.03171  0.35472  1.0000
  H   H2612     1.0  0.36514  0.00053  0.41742  1.0000
  H   H2613     1.0  0.42120  0.02337  0.25280  1.0000
  C   C1494     1.0  0.47359  0.07765  0.98769  1.0000
  C   C1495     1.0  0.44628  0.00161  0.25389  1.0000
  H   H2614     1.0  0.47521  0.07356  0.27167  1.0000
  N   N84       1.0  0.39782  0.01304  0.23276  1.0000
  C   C1496     1.0  0.40493  0.01331  0.24302  1.0000
  H   H2615     1.0  0.42458  0.00627  0.17848  1.0000
  C   C1497     1.0  0.40382  0.02123  0.21957  1.0000
  C   C1498     1.0  0.38325  0.01917  0.23618  1.0000
  C   C1499     1.0  0.37544  0.01282  0.24991  1.0000
  C   C1500     1.0  0.40268  0.02703  0.24652  1.0000
  C   C1501     1.0  0.45921  0.14952  0.04311  1.0000
  H   H2616     1.0  0.46700  0.99204  0.08706  1.0000
  H   H2617     1.0  0.43944  0.00678  0.31908  1.0000
  C   C1502     1.0  0.36141  0.02118  0.25314  1.0000
  H   H2618     1.0  0.40006  0.08068  0.39929  1.0000
  H   H2619     1.0  0.39894  0.08199  0.38244  1.0000
  H   H2620     1.0  0.38518  0.08442  0.09200  1.0000
  H   H2621     1.0  0.43212  0.06108  0.13424  1.0000
  C   C1503     1.0  0.40126  0.10933  0.10460  1.0000
  H   H2622     1.0  0.40130  0.00530  0.45727  1.0000
  H   H2623     1.0  0.25034  0.06270  0.46528  1.0000
  H   H2624     1.0  0.39937  0.04328  0.47775  1.0000
  H   H2625     1.0  0.38943  0.13709  0.06219  1.0000
  C   C1504     1.0  0.40035  0.02332  0.46401  1.0000
  C   C1505     1.0  0.46860  0.05695  0.15324  1.0000
  C   C1506     1.0  0.39076  0.07936  0.09999  1.0000
  H   H2626     1.0  0.38386  0.09459  0.11163  1.0000
  H   H2627     1.0  0.40839  0.09188  0.38569  1.0000
  H   H2628     1.0  0.40534  0.12252  0.07557  1.0000
  H   H2629     1.0  0.37298  0.07561  0.11502  1.0000
  H   H2630     1.0  0.45568  0.19685  0.98813  1.0000
  H   H2631     1.0  0.31128  0.00695  0.47115  1.0000
  N   N85       1.0  0.47352  0.05318  0.27411  1.0000
  H   H2632     1.0  0.48144  0.98983  0.30366  1.0000
  H   H2633     1.0  0.44512  0.07019  0.14473  1.0000
  H   H2634     1.0  0.33224  0.04846  0.36861  1.0000
  H   H2635     1.0  0.32184  0.03145  0.38634  1.0000
  C   C1507     1.0  0.32500  0.03060  0.37572  1.0000
  H   H2636     1.0  0.47907  0.02878  0.12933  1.0000
  H   H2637     1.0  0.42897  0.99580  0.36791  1.0000
  C   C1508     1.0  0.43894  0.06774  0.12835  1.0000
  H   H2638     1.0  0.31637  0.03525  0.37098  1.0000
  H   H2639     1.0  0.34506  0.03454  0.38526  1.0000
  H   H2640     1.0  0.46483  0.06777  0.14954  1.0000
  C   C1509     1.0  0.33629  0.03778  0.36838  1.0000
  H   H2641     1.0  0.43866  0.00989  0.05962  1.0000
  H   H2642     1.0  0.35689  0.07838  0.35238  1.0000
  C   C1510     1.0  0.43873  0.03057  0.05640  1.0000
  C   C1511     1.0  0.48077  0.16278  0.00286  1.0000
  H   H2643     1.0  0.46179  0.20106  0.04355  1.0000
  C   C1512     1.0  0.43286  0.01845  0.06420  1.0000
  C   C1513     1.0  0.28331  0.07646  0.47991  1.0000
  H   H2644     1.0  0.32698  0.01825  0.41794  1.0000
  H   H2645     1.0  0.25322  0.10422  0.42354  1.0000
  H   H2646     1.0  0.36713  0.03585  0.38549  1.0000
  H   H2647     1.0  0.36467  0.01316  0.39041  1.0000
  H   H2648     1.0  0.47105  0.03984  0.34496  1.0000
  H   H2649     1.0  0.46502  0.07175  0.35913  1.0000
  H   H2650     1.0  0.41130  0.99832  0.05061  1.0000
  H   H2651     1.0  0.45741  0.01657  0.38113  1.0000
  H   H2652     1.0  0.27966  0.01003  0.37704  1.0000
  H   H2653     1.0  0.37897  0.01495  0.46038  1.0000
  H   H2654     1.0  0.44863  0.14692  0.98572  1.0000
  H   H2655     1.0  0.47904  0.06522  0.12863  1.0000
  C   C1514     1.0  0.37838  0.01881  0.46925  1.0000
  H   H2656     1.0  0.46692  0.14024  0.04241  1.0000
  C   C1515     1.0  0.47846  0.05894  0.24829  1.0000
  S   S326      1.0  0.46155  0.05070  0.09912  1.0000
  H   H2657     1.0  0.47875  0.05286  0.05475  1.0000
  H   H2658     1.0  0.44185  0.01924  0.16805  1.0000
  H   H2659     1.0  0.45477  0.06826  0.29127  1.0000
  C   C1516     1.0  0.31498  0.03027  0.46959  1.0000
  H   H2660     1.0  0.45669  0.03836  0.36562  1.0000
  N   N86       1.0  0.46602  0.16483  0.00474  1.0000
  H   H2661     1.0  0.44921  0.15856  0.01937  1.0000
  H   H2662     1.0  0.37565  0.22638  0.01474  1.0000
  C   C1517     1.0  0.48076  0.04156  0.33991  1.0000
  C   C1518     1.0  0.45722  0.05150  0.13933  1.0000
  H   H2663     1.0  0.45872  0.06905  0.26561  1.0000
  C   C1519     1.0  0.26081  0.02416  0.47245  1.0000
  N   N87       1.0  0.36097  0.03657  0.36762  1.0000
  H   H2664     1.0  0.33912  0.03677  0.35784  1.0000
  H   H2665     1.0  0.46470  0.07226  0.04276  1.0000
  H   H2666     1.0  0.39234  0.00536  0.07292  1.0000
  H   H2667     1.0  0.40475  0.01308  0.15994  1.0000
  C   C1520     1.0  0.37315  0.01580  0.38226  1.0000
  C   C1521     1.0  0.46008  0.15699  0.01815  1.0000
  H   H2668     1.0  0.46611  0.10834  0.01991  1.0000
  H   H2669     1.0  0.48615  0.04530  0.19395  1.0000
  S   S327      1.0  0.46434  0.01191  0.21729  1.0000
  H   H2670     1.0  0.36167  0.03124  0.25388  1.0000
  H   H2671     1.0  0.46178  0.18283  0.01215  1.0000
  C   C1522     1.0  0.44987  0.06626  0.13551  1.0000
  C   C1523     1.0  0.28745  0.01456  0.37775  1.0000
  H   H2672     1.0  0.40676  0.98779  0.20621  1.0000
  H   H2673     1.0  0.46822  0.03176  0.15850  1.0000
  C   C1524     1.0  0.33121  0.98937  0.47838  1.0000
  H   H2674     1.0  0.35000  0.05606  0.35930  1.0000
  H   H2675     1.0  0.48191  0.18213  0.02697  1.0000
  H   H2676     1.0  0.29017  0.05901  0.47169  1.0000
  N   N88       1.0  0.41513  0.99233  0.16429  1.0000
  S   S328      1.0  0.25472  0.02243  0.44993  1.0000
  H   H2677     1.0  0.48596  0.04575  0.16192  1.0000
  H   H2678     1.0  0.35419  0.05491  0.37459  1.0000
  C   C1525     1.0  0.47396  0.00997  0.07771  1.0000
  H   H2679     1.0  0.46832  0.04447  0.29521  1.0000
  H   H2680     1.0  0.29963  0.01318  0.39124  1.0000
  C   C1526     1.0  0.39962  0.00086  0.11105  1.0000
  H   H2681     1.0  0.44607  0.01267  0.15323  1.0000
  H   H2682     1.0  0.46381  0.14608  0.01875  1.0000
  H   H2683     1.0  0.47335  0.01673  0.34321  1.0000
  H   H2684     1.0  0.40916  0.99972  0.11373  1.0000
  C   C1527     1.0  0.38548  0.01077  0.38809  1.0000
  H   H2685     1.0  0.37281  0.05346  0.43046  1.0000
  C   C1528     1.0  0.48337  0.04701  0.32617  1.0000
  H   H2686     1.0  0.37853  0.05418  0.36055  1.0000
  H   H2687     1.0  0.44872  0.05761  0.06861  1.0000
  C   C1529     1.0  0.47182  0.02429  0.10753  1.0000
  H   H2688     1.0  0.40868  0.98927  0.33841  1.0000
  C   C1530     1.0  0.33936  0.05420  0.47394  1.0000
  H   H2689     1.0  0.47808  0.06296  0.28697  1.0000
  H   H2690     1.0  0.37667  0.01227  0.14642  1.0000
  H   H2691     1.0  0.36296  0.02216  0.35596  1.0000
  H   H2692     1.0  0.45582  0.00335  0.24715  1.0000
  H   H2693     1.0  0.38060  0.01727  0.33532  1.0000
  C   C1531     1.0  0.34827  0.03207  0.37520  1.0000
  H   H2694     1.0  0.38336  0.03290  0.44502  1.0000
  H   H2695     1.0  0.39261  0.01296  0.13547  1.0000
  C   C1532     1.0  0.45992  0.17945  0.00403  1.0000
  H   H2696     1.0  0.37163  0.05769  0.34607  1.0000
  C   C1533     1.0  0.38106  0.02909  0.34879  1.0000
  H   H2697     1.0  0.45136  0.08939  0.32670  1.0000
  H   H2698     1.0  0.48690  0.08106  0.01608  1.0000
  C   C1534     1.0  0.33081  0.00131  0.40918  1.0000
  H   H2699     1.0  0.27341  0.03279  0.38203  1.0000
  H   H2700     1.0  0.32757  0.98647  0.47114  1.0000
  H   H2701     1.0  0.45616  0.99558  0.19420  1.0000
  H   H2702     1.0  0.45830  0.04686  0.13084  1.0000
  H   H2703     1.0  0.44752  0.05423  0.29374  1.0000
  C   C1535     1.0  0.44384  0.99634  0.31969  1.0000
  C   C1536     1.0  0.45003  0.06337  0.28655  1.0000
  S   S329      1.0  0.44876  0.99600  0.34357  1.0000
  H   H2704     1.0  0.38358  0.01401  0.39759  1.0000
  C   C1537     1.0  0.24268  0.99528  0.39582  1.0000
  H   H2705     1.0  0.38029  0.03385  0.37166  1.0000
  H   H2706     1.0  0.47051  0.01368  0.08708  1.0000
  S   S330      1.0  0.33101  0.00723  0.44487  1.0000
  H   H2707     1.0  0.42364  0.10868  0.99165  1.0000
  H   H2708     1.0  0.34990  0.02104  0.37711  1.0000
  H   H2709     1.0  0.46619  0.01437  0.07181  1.0000
  H   H2710     1.0  0.25222  0.99126  0.39005  1.0000
  C   C1538     1.0  0.40013  0.17743  0.98886  1.0000
  H   H2711     1.0  0.42194  0.01717  0.16272  1.0000
  H   H2712     1.0  0.42624  0.01686  0.44908  1.0000
  C   C1539     1.0  0.35694  0.01059  0.47797  1.0000
  H   H2713     1.0  0.46788  0.03456  0.28463  1.0000
  C   C1540     1.0  0.47890  0.19167  0.03022  1.0000
  C   C1541     1.0  0.47628  0.99478  0.08089  1.0000
  H   H2714     1.0  0.47601  0.03994  0.26112  1.0000
  C   C1542     1.0  0.40694  0.00387  0.15614  1.0000
  C   C1543     1.0  0.42820  0.00797  0.16746  1.0000
  C   C1544     1.0  0.39998  0.99895  0.23102  1.0000
  C   C1545     1.0  0.48104  0.05618  0.15815  1.0000
  C   C1546     1.0  0.39325  0.00198  0.15583  1.0000
  H   H2715     1.0  0.45512  0.16985  0.03238  1.0000
  H   H2716     1.0  0.41578  0.00956  0.23965  1.0000
  C   C1547     1.0  0.44212  0.01054  0.16420  1.0000
  H   H2717     1.0  0.46556  0.14877  0.99633  1.0000
  H   H2718     1.0  0.39047  0.23430  0.02293  1.0000
  C   C1548     1.0  0.43646  0.98735  0.11277  1.0000
  H   H2719     1.0  0.38139  0.19444  0.00064  1.0000
  C   C1549     1.0  0.39720  0.01401  0.06900  1.0000
  H   H2720     1.0  0.40205  0.00644  0.25268  1.0000
  H   H2721     1.0  0.35661  0.00943  0.46807  1.0000
  C   C1550     1.0  0.36114  0.21300  0.00685  1.0000
  H   H2722     1.0  0.45472  0.05317  0.27045  1.0000
  C   C1551     1.0  0.36759  0.98988  0.41694  1.0000
  H   H2723     1.0  0.40759  0.98887  0.09638  1.0000
  H   H2724     1.0  0.39340  0.13270  0.99031  1.0000
  H   H2725     1.0  0.46435  0.02459  0.14073  1.0000
  H   H2726     1.0  0.30028  0.99057  0.37709  1.0000
  H   H2727     1.0  0.48208  0.06534  0.37213  1.0000
  H   H2728     1.0  0.38609  0.02315  0.14781  1.0000
  H   H2729     1.0  0.39089  0.20549  0.00956  1.0000
  H   H2730     1.0  0.35592  0.01625  0.26288  1.0000
  N   N89       1.0  0.38584  0.02989  0.46526  1.0000
  H   H2731     1.0  0.36956  0.02062  0.07393  1.0000
  H   H2732     1.0  0.28232  0.98562  0.47543  1.0000
  C   C1552     1.0  0.41419  0.99373  0.35865  1.0000
  C   C1553     1.0  0.47979  0.23216  0.03803  1.0000
  C   C1554     1.0  0.47748  0.06347  0.16952  1.0000
  H   H2733     1.0  0.43112  0.04618  0.37220  1.0000
  H   H2734     1.0  0.40174  0.21432  0.99687  1.0000
  H   H2735     1.0  0.32945  0.00728  0.39947  1.0000
  H   H2736     1.0  0.28250  0.01436  0.39868  1.0000
  C   C1555     1.0  0.47465  0.06161  0.05939  1.0000
  C   C1556     1.0  0.47468  0.02513  0.13997  1.0000
  H   H2737     1.0  0.40650  0.03093  0.46079  1.0000
  C   C1557     1.0  0.36573  0.07335  0.35670  1.0000
  H   H2738     1.0  0.44169  0.16275  0.00112  1.0000
  H   H2739     1.0  0.36362  0.07480  0.36706  1.0000
  H   H2740     1.0  0.32369  0.02561  0.46269  1.0000
  C   C1558     1.0  0.47351  0.04129  0.28573  1.0000
  H   H2741     1.0  0.39280  0.04315  0.44660  1.0000
  C   C1559     1.0  0.42789  0.21564  0.99256  1.0000
  H   H2742     1.0  0.33818  0.04532  0.47190  1.0000
  C   C1560     1.0  0.46335  0.15987  0.99400  1.0000
  H   H2743     1.0  0.47840  0.00557  0.33200  1.0000
  H   H2744     1.0  0.42804  0.21367  0.00296  1.0000
  H   H2745     1.0  0.39786  0.14337  0.99794  1.0000
  H   H2746     1.0  0.39305  0.05292  0.46331  1.0000
  C   C1561     1.0  0.37215  0.05949  0.43764  1.0000
  C   C1562     1.0  0.33124  0.99976  0.43220  1.0000
  H   H2747     1.0  0.43746  0.06016  0.35139  1.0000
  H   H2748     1.0  0.41261  0.00621  0.14562  1.0000
  H   H2749     1.0  0.44689  0.08482  0.35134  1.0000
  H   H2750     1.0  0.27197  0.99763  0.40312  1.0000
  C   C1563     1.0  0.46205  0.16037  0.03058  1.0000
  H   H2751     1.0  0.45814  0.19168  0.03395  1.0000
  C   C1564     1.0  0.44144  0.99258  0.09935  1.0000
  H   H2752     1.0  0.43785  0.03314  0.04582  1.0000
  H   H2753     1.0  0.48582  0.14173  0.00119  1.0000
  H   H2754     1.0  0.39466  0.21636  0.02574  1.0000
  C   C1565     1.0  0.46530  0.19188  0.03955  1.0000
  C   C1566     1.0  0.47875  0.08023  0.06532  1.0000
  C   C1567     1.0  0.46212  0.06924  0.05383  1.0000
  H   H2755     1.0  0.45389  0.05825  0.35238  1.0000
  H   H2756     1.0  0.31288  0.99205  0.38408  1.0000
  C   C1568     1.0  0.44797  0.02417  0.38173  1.0000
  H   H2757     1.0  0.40929  0.99647  0.22353  1.0000
  H   H2758     1.0  0.43351  0.04792  0.38740  1.0000
  C   C1569     1.0  0.37064  0.03111  0.37669  1.0000
  H   H2759     1.0  0.47093  0.08787  0.06082  1.0000
  H   H2760     1.0  0.47872  0.99167  0.07125  1.0000
  C   C1570     1.0  0.23968  0.00840  0.39732  1.0000
  H   H2761     1.0  0.39804  0.98821  0.17979  1.0000
  H   H2762     1.0  0.48599  0.20428  0.03776  1.0000
  C   C1571     1.0  0.39974  0.19228  0.98617  1.0000
  H   H2763     1.0  0.47768  0.19995  0.02142  1.0000
  C   C1572     1.0  0.41792  0.99712  0.06870  1.0000
  H   H2764     1.0  0.36638  0.20926  0.01519  1.0000
  H   H2765     1.0  0.28194  0.08746  0.47665  1.0000
  C   C1573     1.0  0.42837  0.99568  0.16237  1.0000
  H   H2766     1.0  0.36089  0.03887  0.34688  1.0000
  Fe  Fe170     1.0  0.24856  0.03545  0.43116  1.0000
  H   H2767     1.0  0.46956  0.07580  0.99865  1.0000
  H   H2768     1.0  0.36499  0.22156  0.98564  1.0000
  C   C1574     1.0  0.47992  0.06320  0.27611  1.0000
  H   H2769     1.0  0.41431  0.06135  0.39094  1.0000
  C   C1575     1.0  0.44769  0.98698  0.26101  1.0000
  H   H2770     1.0  0.47914  0.00383  0.23865  1.0000
  H   H2771     1.0  0.43523  0.98730  0.16743  1.0000
  H   H2772     1.0  0.41548  0.01002  0.36623  1.0000
  S   S331      1.0  0.45067  0.11170  0.98808  1.0000
  C   C1576     1.0  0.38197  0.03756  0.47616  1.0000
  C   C1577     1.0  0.46445  0.18911  0.99056  1.0000
  C   C1578     1.0  0.47368  0.11288  0.03439  1.0000
  H   H2773     1.0  0.44332  0.06607  0.05326  1.0000
  C   C1579     1.0  0.47451  0.03696  0.10195  1.0000
  C   C1580     1.0  0.25787  0.04498  0.47888  1.0000
  H   H2774     1.0  0.48478  0.03219  0.15061  1.0000
  H   H2775     1.0  0.47372  0.07582  0.07563  1.0000
  C   C1581     1.0  0.47894  0.00664  0.34187  1.0000
  H   H2776     1.0  0.26362  0.01340  0.47451  1.0000
  C   C1582     1.0  0.47458  0.11010  0.02210  1.0000
  H   H2777     1.0  0.44890  0.00180  0.16893  1.0000
  H   H2778     1.0  0.29575  0.01355  0.48046  1.0000
  H   H2779     1.0  0.27957  0.99951  0.42191  1.0000
  C   C1583     1.0  0.48009  0.04834  0.26135  1.0000
  C   C1584     1.0  0.40194  0.99921  0.09676  1.0000
  H   H2780     1.0  0.46254  0.07439  0.33291  1.0000
  H   H2781     1.0  0.39213  0.00044  0.09466  1.0000
  S   S332      1.0  0.24046  0.05438  0.39659  1.0000
  S   S333      1.0  0.24059  0.05759  0.42632  1.0000
  H   H2782     1.0  0.38641  0.00201  0.16575  1.0000
  H   H2783     1.0  0.47879  0.01528  0.29866  1.0000
  H   H2784     1.0  0.40167  0.99137  0.31791  1.0000
  H   H2785     1.0  0.40533  0.00003  0.18214  1.0000
  H   H2786     1.0  0.24899  0.05054  0.44944  1.0000
  H   H2787     1.0  0.42469  0.00186  0.44570  1.0000
  C   C1585     1.0  0.39016  0.04816  0.47402  1.0000
  H   H2788     1.0  0.30637  0.03369  0.46486  1.0000
  H   H2789     1.0  0.48148  0.98632  0.28129  1.0000
  H   H2790     1.0  0.47291  0.07415  0.16618  1.0000
  H   H2791     1.0  0.44188  0.02214  0.37600  1.0000
  C   C1586     1.0  0.38544  0.20018  0.99059  1.0000
  H   H2792     1.0  0.45702  0.03940  0.38209  1.0000
  H   H2793     1.0  0.48182  0.02399  0.30941  1.0000
  S   S334      1.0  0.44298  0.22621  0.04422  1.0000
  C   C1587     1.0  0.37184  0.05076  0.45170  1.0000
  H   H2794     1.0  0.38303  0.01014  0.47633  1.0000
  H   H2795     1.0  0.35911  0.98761  0.41477  1.0000
  C   C1588     1.0  0.39602  0.14246  0.98855  1.0000
  C   C1589     1.0  0.44897  0.98862  0.33079  1.0000
  N   N90       1.0  0.29339  0.99437  0.39705  1.0000
  H   H2796     1.0  0.42743  0.99359  0.07198  1.0000
  H   H2797     1.0  0.47880  0.00730  0.15553  1.0000
  H   H2798     1.0  0.35928  0.20427  0.00455  1.0000
  C   C1590     1.0  0.36942  0.22067  0.99419  1.0000
  C   C1591     1.0  0.48234  0.01100  0.14463  1.0000
  H   H2799     1.0  0.47415  0.99920  0.34987  1.0000
  C   C1592     1.0  0.40774  0.99058  0.17869  1.0000
  H   H2800     1.0  0.31726  0.03904  0.47139  1.0000
  H   H2801     1.0  0.34189  0.21583  0.02038  1.0000
  H   H2802     1.0  0.41046  0.17201  0.98564  1.0000
  H   H2803     1.0  0.47303  0.10596  0.06952  1.0000
  H   H2804     1.0  0.46840  0.06036  0.24660  1.0000
  H   H2805     1.0  0.40330  0.99677  0.35985  1.0000
  H   H2806     1.0  0.47130  0.22792  0.04345  1.0000
  H   H2807     1.0  0.40467  0.22620  0.01226  1.0000
  H   H2808     1.0  0.47579  0.09427  0.08492  1.0000
  H   H2809     1.0  0.38887  0.06641  0.47989  1.0000
  C   C1593     1.0  0.33405  0.98591  0.43444  1.0000
  H   H2810     1.0  0.46807  0.98892  0.11329  1.0000
  H   H2811     1.0  0.48033  0.08396  0.03954  1.0000
  C   C1594     1.0  0.47449  0.19648  0.99114  1.0000
  H   H2812     1.0  0.48389  0.18952  0.99287  1.0000
  C   C1595     1.0  0.42998  0.20498  0.98645  1.0000
  C   C1596     1.0  0.48067  0.09879  0.07466  1.0000
  C   C1597     1.0  0.33392  0.98740  0.41134  1.0000
  H   H2813     1.0  0.43856  0.98611  0.26888  1.0000
  H   H2814     1.0  0.48317  0.16837  0.00891  1.0000
  H   H2815     1.0  0.34207  0.22552  0.00355  1.0000
  C   C1598     1.0  0.38576  0.22652  0.00854  1.0000
  S   S335      1.0  0.47570  0.22845  0.01510  1.0000
  Fe  Fe171     1.0  0.45396  0.23042  0.02292  1.0000
  C   C1599     1.0  0.28063  0.98980  0.39989  1.0000
  H   H2816     1.0  0.47012  0.16260  0.98418  1.0000
  N   N91       1.0  0.48493  0.06955  0.05729  1.0000
  C   C1600     1.0  0.39444  0.22574  0.01794  1.0000
  C   C1601     1.0  0.48657  0.10921  0.01271  1.0000
  H   H2817     1.0  0.39364  0.98933  0.25242  1.0000
  H   H2818     1.0  0.48682  0.18814  0.04784  1.0000
  C   C1602     1.0  0.44351  0.98521  0.08970  1.0000
  C   C1603     1.0  0.30628  0.00915  0.48112  1.0000
  H   H2819     1.0  0.48656  0.06283  0.17284  1.0000
  H   H2820     1.0  0.48318  0.01331  0.07186  1.0000
  H   H2821     1.0  0.48609  0.14400  0.01717  1.0000
  H   H2822     1.0  0.34900  0.23033  0.01466  1.0000
  H   H2823     1.0  0.27904  0.98849  0.39051  1.0000
  C   C1604     1.0  0.30379  0.98802  0.38651  1.0000
  H   H2824     1.0  0.36767  0.23105  0.99528  1.0000
  H   H2825     1.0  0.41115  0.98612  0.24571  1.0000
  C   C1605     1.0  0.48564  0.02077  0.29975  1.0000
  C   C1606     1.0  0.38255  0.05928  0.48143  1.0000
  C   C1607     1.0  0.48362  0.23394  0.02409  1.0000
  H   H2826     1.0  0.48667  0.06210  0.22697  1.0000
  H   H2827     1.0  0.23910  0.09602  0.47057  1.0000
  H   H2828     1.0  0.37953  0.19965  0.98377  1.0000
  H   H2829     1.0  0.48562  0.00471  0.26003  1.0000
  C   C1608     1.0  0.26171  0.03107  0.48143  1.0000
  H   H2830     1.0  0.48681  0.99380  0.09580  1.0000
  C   C1609     1.0  0.40600  0.14286  0.96390  1.0000
  H   H2831     1.0  0.37966  0.05521  0.49231  1.0000
  H   H2832     1.0  0.45787  0.10740  0.86873  1.0000
  Fe  Fe172     1.0  0.34562  0.02511  0.54177  1.0000
  S   S336      1.0  0.34555  0.02826  0.52019  1.0000
  S   S337      1.0  0.32873  0.01925  0.55846  1.0000
  Fe  Fe173     1.0  0.37347  0.02989  0.53637  1.0000
  S   S338      1.0  0.37567  0.03324  0.51415  1.0000
  S   S339      1.0  0.39202  0.03053  0.54218  1.0000
  Fe  Fe174     1.0  0.35492  0.04530  0.51723  1.0000
  H   H2833     1.0  0.44176  0.99581  0.55499  1.0000
  C   C1610     1.0  0.41100  0.99377  0.55496  1.0000
  H   H2834     1.0  0.28819  0.99351  0.49229  1.0000
  S   S340      1.0  0.35325  0.04345  0.53914  1.0000
  S   S341      1.0  0.36576  0.01137  0.54061  1.0000
  Fe  Fe175     1.0  0.42243  0.02924  0.60130  1.0000
  S   S342      1.0  0.43941  0.03407  0.58441  1.0000
  S   S343      1.0  0.40189  0.03061  0.59848  1.0000
  Fe  Fe176     1.0  0.43992  0.01884  0.62219  1.0000
  S   S344      1.0  0.45827  0.02214  0.60663  1.0000
  S   S345      1.0  0.44391  0.00860  0.64270  1.0000
  Fe  Fe177     1.0  0.44553  0.04163  0.59891  1.0000
  S   S346      1.0  0.45231  0.06086  0.59400  1.0000
  Fe  Fe178     1.0  0.45051  0.01425  0.59378  1.0000
  S   S347      1.0  0.46193  0.99878  0.58200  1.0000
  S   S348      1.0  0.42737  0.03882  0.61518  1.0000
  S   S349      1.0  0.43337  0.00896  0.61009  1.0000
  H   H2835     1.0  0.47794  0.98689  0.68823  1.0000
  Fe  Fe179     1.0  0.42615  0.02870  0.71040  1.0000
  S   S350      1.0  0.44828  0.02320  0.70554  1.0000
  S   S351      1.0  0.41416  0.02898  0.69593  1.0000
  Fe  Fe180     1.0  0.42511  0.03351  0.73794  1.0000
  S   S352      1.0  0.44715  0.02850  0.73480  1.0000
  S   S353      1.0  0.41190  0.03857  0.75726  1.0000
  Fe  Fe181     1.0  0.44685  0.04056  0.71399  1.0000
  S   S354      1.0  0.45871  0.05615  0.70353  1.0000
  Fe  Fe182     1.0  0.44614  0.01175  0.72678  1.0000
  H   H2836     1.0  0.42601  0.22272  0.95557  1.0000
  S   S355      1.0  0.42476  0.04697  0.71764  1.0000
  S   S356      1.0  0.42404  0.01589  0.73115  1.0000
  H   H2837     1.0  0.42511  0.12286  0.73095  1.0000
  C   C1611     1.0  0.42655  0.99104  0.58527  1.0000
  C   C1612     1.0  0.40964  0.07827  0.75859  1.0000
  C   C1613     1.0  0.48112  0.98847  0.80485  1.0000
  C   C1614     1.0  0.48091  0.05576  0.81543  1.0000
  Fe  Fe183     1.0  0.43220  0.04640  0.84656  1.0000
  S   S357      1.0  0.43791  0.02418  0.85387  1.0000
  S   S358      1.0  0.42503  0.06106  0.86025  1.0000
  Fe  Fe184     1.0  0.43485  0.04400  0.81782  1.0000
  S   S359      1.0  0.44049  0.02170  0.82298  1.0000
  S   S360      1.0  0.43658  0.05474  0.79613  1.0000
  Fe  Fe185     1.0  0.42466  0.02307  0.84152  1.0000
  S   S361      1.0  0.40994  0.00987  0.85035  1.0000
  Fe  Fe186     1.0  0.45318  0.02480  0.83465  1.0000
  S   S362      1.0  0.47394  0.01280  0.83212  1.0000
  S   S363      1.0  0.41770  0.04530  0.83543  1.0000
  S   S364      1.0  0.44874  0.04708  0.82832  1.0000
  Fe  Fe187     1.0  0.45050  0.09532  0.90195  1.0000
  S   S365      1.0  0.45541  0.09075  0.92220  1.0000
  S   S366      1.0  0.45877  0.08084  0.88799  1.0000
  Fe  Fe188     1.0  0.43816  0.12445  0.90262  1.0000
  S   S367      1.0  0.44190  0.12233  0.92256  1.0000
  S   S368      1.0  0.42880  0.14401  0.89075  1.0000
  Fe  Fe189     1.0  0.46166  0.11026  0.91532  1.0000
  C   C1615     1.0  0.36365  0.98935  0.51057  1.0000
  Fe  Fe190     1.0  0.43518  0.10322  0.92831  1.0000
  S   S369      1.0  0.42245  0.10002  0.94915  1.0000
  S   S370      1.0  0.45865  0.11391  0.89455  1.0000
  S   S371      1.0  0.42954  0.10621  0.90869  1.0000
  C   C1616     1.0  0.42706  0.15916  0.89526  1.0000
  C   C1617     1.0  0.41934  0.17058  0.88880  1.0000
  H   H2838     1.0  0.35796  0.99033  0.58576  1.0000
  C   C1618     1.0  0.43331  0.16023  0.90471  1.0000
  H   H2839     1.0  0.41451  0.16988  0.88147  1.0000
  H   H2840     1.0  0.40839  0.99716  0.70464  1.0000
  H   H2841     1.0  0.43952  0.15148  0.90952  1.0000
  C   C1619     1.0  0.43463  0.06495  0.86905  1.0000
  C   C1620     1.0  0.42818  0.07266  0.87867  1.0000
  C   C1621     1.0  0.43544  0.07699  0.88510  1.0000
  C   C1622     1.0  0.44925  0.07396  0.88168  1.0000
  C   C1623     1.0  0.45573  0.06591  0.87235  1.0000
  C   C1624     1.0  0.44845  0.06136  0.86610  1.0000
  H   H2842     1.0  0.41749  0.07543  0.88105  1.0000
  H   H2843     1.0  0.43033  0.08302  0.89239  1.0000
  H   H2844     1.0  0.46641  0.06335  0.86976  1.0000
  H   H2845     1.0  0.45352  0.05540  0.85874  1.0000
  C   C1625     1.0  0.45289  0.10113  0.84831  1.0000
  C   C1626     1.0  0.30898  0.10239  0.50038  1.0000
  H   H2846     1.0  0.41920  0.98800  0.73812  1.0000
  C   C1627     1.0  0.47555  0.02827  0.84784  1.0000
  C   C1628     1.0  0.48650  0.18188  0.86199  1.0000
  H   H2847     1.0  0.32549  0.03797  0.49946  1.0000
  C   C1629     1.0  0.44399  0.09531  0.84327  1.0000
  H   H2848     1.0  0.46492  0.03140  0.84945  1.0000
  H   H2849     1.0  0.46565  0.00282  0.77114  1.0000
  H   H2850     1.0  0.42716  0.00816  0.55936  1.0000
  H   H2851     1.0  0.48477  0.07914  0.77661  1.0000
  C   C1630     1.0  0.43022  0.10265  0.96040  1.0000
  C   C1631     1.0  0.44355  0.10328  0.95648  1.0000
  C   C1632     1.0  0.44969  0.10584  0.96516  1.0000
  H   H2852     1.0  0.46733  0.23281  0.91741  1.0000
  C   C1633     1.0  0.30815  0.08780  0.50344  1.0000
  H   H2853     1.0  0.44922  0.10177  0.94673  1.0000
  H   H2854     1.0  0.45997  0.10633  0.96191  1.0000
  C   C1634     1.0  0.41902  0.04187  0.76869  1.0000
  C   C1635     1.0  0.43261  0.04106  0.76616  1.0000
  C   C1636     1.0  0.43801  0.04446  0.77494  1.0000
  C   C1637     1.0  0.42989  0.04852  0.78648  1.0000
  C   C1638     1.0  0.41633  0.04889  0.78933  1.0000
  C   C1639     1.0  0.41091  0.04561  0.78043  1.0000
  H   H2855     1.0  0.43898  0.03816  0.75727  1.0000
  H   H2856     1.0  0.44848  0.04412  0.77267  1.0000
  H   H2857     1.0  0.40996  0.05215  0.79816  1.0000
  H   H2858     1.0  0.40038  0.04619  0.78255  1.0000
  C   C1640     1.0  0.28940  0.03424  0.56414  1.0000
  C   C1641     1.0  0.47774  0.16479  0.90670  1.0000
  C   C1642     1.0  0.47525  0.06567  0.71179  1.0000
  C   C1643     1.0  0.47094  0.05442  0.71205  1.0000
  H   H2859     1.0  0.47045  0.14885  0.86648  1.0000
  H   H2860     1.0  0.34644  0.04396  0.49203  1.0000
  C   C1644     1.0  0.43272  0.00240  0.77335  1.0000
  H   H2861     1.0  0.47131  0.07528  0.70600  1.0000
  H   H2862     1.0  0.48499  0.03180  0.80250  1.0000
  H   H2863     1.0  0.44204  0.12281  0.72220  1.0000
  H   H2864     1.0  0.42243  0.16779  0.95782  1.0000
  H   H2865     1.0  0.48215  0.15579  0.92626  1.0000
  H   H2866     1.0  0.29905  0.08740  0.50089  1.0000
  H   H2867     1.0  0.48089  0.10901  0.86570  1.0000
  Fe  Fe191     1.0  0.36625  0.01590  0.51874  1.0000
  H   H2868     1.0  0.34808  0.99401  0.56030  1.0000
  C   C1645     1.0  0.44340  0.01585  0.54564  1.0000
  H   H2869     1.0  0.32101  0.01618  0.48671  1.0000
  H   H2870     1.0  0.41220  0.19159  0.95265  1.0000
  H   H2871     1.0  0.45042  0.12469  0.86562  1.0000
  C   C1646     1.0  0.46715  0.06050  0.59811  1.0000
  C   C1647     1.0  0.46879  0.07217  0.60028  1.0000
  H   H2872     1.0  0.44836  0.98504  0.81195  1.0000
  H   H2873     1.0  0.42177  0.01313  0.53787  1.0000
  C   C1648     1.0  0.40493  0.00062  0.51403  1.0000
  C   C1649     1.0  0.47707  0.04886  0.59972  1.0000
  H   H2874     1.0  0.46129  0.08125  0.59883  1.0000
  H   H2875     1.0  0.43561  0.98695  0.70830  1.0000
  H   H2876     1.0  0.44530  0.07928  0.64083  1.0000
  H   H2877     1.0  0.47606  0.03988  0.59776  1.0000
  C   C1650     1.0  0.43572  0.01573  0.65663  1.0000
  C   C1651     1.0  0.44260  0.01395  0.66656  1.0000
  C   C1652     1.0  0.43615  0.01831  0.67843  1.0000
  C   C1653     1.0  0.42275  0.02454  0.68052  1.0000
  C   C1654     1.0  0.41596  0.02679  0.67036  1.0000
  C   C1655     1.0  0.42245  0.02249  0.65837  1.0000
  H   H2878     1.0  0.45289  0.00885  0.66522  1.0000
  H   H2879     1.0  0.44146  0.01623  0.68618  1.0000
  H   H2880     1.0  0.40558  0.03162  0.67186  1.0000
  H   H2881     1.0  0.41707  0.02394  0.65074  1.0000
  H   H2882     1.0  0.42290  0.01925  0.79072  1.0000
  C   C1656     1.0  0.31194  0.05930  0.51215  1.0000
  H   H2883     1.0  0.41909  0.09498  0.71642  1.0000
  H   H2884     1.0  0.43384  0.00826  0.58370  1.0000
  H   H2885     1.0  0.41274  0.10401  0.97626  1.0000
  H   H2886     1.0  0.47128  0.05313  0.90376  1.0000
  H   H2887     1.0  0.42815  0.09622  0.74830  1.0000
  S   S372      1.0  0.24506  0.04691  0.52915  1.0000
  H   H2888     1.0  0.48017  0.01204  0.66177  1.0000
  C   C1657     1.0  0.43652  0.99785  0.58335  1.0000
  C   C1658     1.0  0.39430  0.03044  0.55806  1.0000
  C   C1659     1.0  0.38447  0.02882  0.56977  1.0000
  C   C1660     1.0  0.38694  0.02878  0.58211  1.0000
  C   C1661     1.0  0.39928  0.03018  0.58288  1.0000
  C   C1662     1.0  0.40914  0.03157  0.57118  1.0000
  C   C1663     1.0  0.40660  0.03182  0.55887  1.0000
  H   H2889     1.0  0.37494  0.02774  0.56933  1.0000
  H   H2890     1.0  0.37923  0.02772  0.59109  1.0000
  H   H2891     1.0  0.41865  0.03274  0.57156  1.0000
  H   H2892     1.0  0.41418  0.03328  0.54986  1.0000
  C   C1664     1.0  0.31241  0.02427  0.55605  1.0000
  C   C1665     1.0  0.30894  0.02166  0.54547  1.0000
  H   H2893     1.0  0.47550  0.11326  0.96771  1.0000
  C   C1666     1.0  0.30256  0.03040  0.56544  1.0000
  H   H2894     1.0  0.31651  0.01689  0.53819  1.0000
  H   H2895     1.0  0.30512  0.03228  0.57375  1.0000
  N   N92       1.0  0.30719  0.99665  0.49206  1.0000
  C   C1667     1.0  0.48513  0.22218  0.90640  1.0000
  H   H2896     1.0  0.36265  0.02346  0.48651  1.0000
  C   C1668     1.0  0.41020  0.99646  0.84375  1.0000
  H   H2897     1.0  0.39616  0.98851  0.73458  1.0000
  H   H2898     1.0  0.47534  0.99479  0.65294  1.0000
  H   H2899     1.0  0.45374  0.16018  0.97196  1.0000
  H   H2900     1.0  0.38936  0.99766  0.85177  1.0000
  H   H2901     1.0  0.41367  0.98637  0.88357  1.0000
  H   H2902     1.0  0.39519  0.01311  0.72745  1.0000
  H   H2903     1.0  0.42961  0.05247  0.63570  1.0000
  Fe  Fe192     1.0  0.43141  0.23157  0.92558  1.0000
  H   H2904     1.0  0.48120  0.98579  0.56174  1.0000
  H   H2905     1.0  0.39312  0.00806  0.62210  1.0000
  C   C1669     1.0  0.47769  0.23230  0.91310  1.0000
  H   H2906     1.0  0.41647  0.13494  0.98033  1.0000
  H   H2907     1.0  0.45881  0.17831  0.90520  1.0000
  H   H2908     1.0  0.31674  0.08280  0.49669  1.0000
  C   C1670     1.0  0.43520  0.00516  0.55098  1.0000
  H   H2909     1.0  0.43734  0.02559  0.54154  1.0000
  H   H2910     1.0  0.30896  0.10691  0.48967  1.0000
  H   H2911     1.0  0.39267  0.98487  0.63537  1.0000
  C   C1671     1.0  0.48388  0.17930  0.87736  1.0000
  H   H2912     1.0  0.47154  0.03292  0.68893  1.0000
  H   H2913     1.0  0.45449  0.99421  0.81981  1.0000
  H   H2914     1.0  0.47637  0.02534  0.62595  1.0000
  C   C1672     1.0  0.44588  0.14015  0.82000  1.0000
  H   H2915     1.0  0.44978  0.18981  0.88629  1.0000
  H   H2916     1.0  0.44049  0.15765  0.94081  1.0000
  H   H2917     1.0  0.41848  0.00884  0.87478  1.0000
  H   H2918     1.0  0.43688  0.00359  0.53059  1.0000
  H   H2919     1.0  0.47303  0.03321  0.71943  1.0000
  H   H2920     1.0  0.38384  0.99665  0.56658  1.0000
  H   H2921     1.0  0.34665  0.01278  0.48390  1.0000
  C   C1673     1.0  0.45967  0.16736  0.87249  1.0000
  H   H2922     1.0  0.48259  0.05770  0.67691  1.0000
  C   C1674     1.0  0.46835  0.11991  0.85161  1.0000
  H   H2923     1.0  0.42592  0.99416  0.68842  1.0000
  H   H2924     1.0  0.24012  0.99454  0.53676  1.0000
  C   C1675     1.0  0.47596  0.16499  0.92133  1.0000
  H   H2925     1.0  0.46792  0.03133  0.67402  1.0000
  H   H2926     1.0  0.48532  0.17323  0.85901  1.0000
  H   H2927     1.0  0.46203  0.08787  0.77240  1.0000
  C   C1676     1.0  0.47138  0.03774  0.67830  1.0000
  C   C1677     1.0  0.47756  0.98641  0.54291  1.0000
  H   H2928     1.0  0.47757  0.04637  0.82075  1.0000
  C   C1678     1.0  0.44983  0.99115  0.58129  1.0000
  S   S373      1.0  0.47721  0.11416  0.92301  1.0000
  H   H2929     1.0  0.47899  0.17380  0.92210  1.0000
  H   H2930     1.0  0.28629  0.06751  0.51056  1.0000
  S   S374      1.0  0.45640  0.99086  0.73435  1.0000
  H   H2931     1.0  0.47492  0.15567  0.90648  1.0000
  C   C1679     1.0  0.34460  0.06510  0.48843  1.0000
  C   C1680     1.0  0.47798  0.11933  0.85997  1.0000
  H   H2932     1.0  0.45587  0.12843  0.94541  1.0000
  H   H2933     1.0  0.41730  0.10085  0.73727  1.0000
  H   H2934     1.0  0.47340  0.12599  0.86711  1.0000
  H   H2935     1.0  0.42214  0.01132  0.81510  1.0000
  H   H2936     1.0  0.43189  0.99013  0.86291  1.0000
  C   C1681     1.0  0.29560  0.02521  0.54434  1.0000
  H   H2937     1.0  0.41420  0.06709  0.61965  1.0000
  C   C1682     1.0  0.42470  0.07405  0.63020  1.0000
  H   H2938     1.0  0.48476  0.08043  0.89384  1.0000
  N   N93       1.0  0.42283  0.99186  0.54359  1.0000
  C   C1683     1.0  0.43171  0.17276  0.90765  1.0000
  H   H2939     1.0  0.47177  0.06746  0.74920  1.0000
  H   H2940     1.0  0.43836  0.11580  0.73990  1.0000
  C   C1684     1.0  0.30864  0.08094  0.51823  1.0000
  C   C1685     1.0  0.42684  0.22063  0.96579  1.0000
  C   C1686     1.0  0.31839  0.98633  0.55169  1.0000
  H   H2941     1.0  0.48577  0.08343  0.86749  1.0000
  C   C1687     1.0  0.40286  0.13377  0.92770  1.0000
  C   C1688     1.0  0.45671  0.00455  0.76716  1.0000
  H   H2942     1.0  0.47963  0.03820  0.89749  1.0000
  C   C1689     1.0  0.42922  0.10721  0.98185  1.0000
  H   H2943     1.0  0.39726  0.00917  0.51044  1.0000
  C   C1690     1.0  0.45292  0.07528  0.74327  1.0000
  H   H2944     1.0  0.46097  0.12545  0.82866  1.0000
  H   H2945     1.0  0.46153  0.10283  0.84006  1.0000
  H   H2946     1.0  0.45359  0.07242  0.62675  1.0000
  C   C1691     1.0  0.43547  0.11706  0.73034  1.0000
  C   C1692     1.0  0.41213  0.18517  0.94614  1.0000
  H   H2947     1.0  0.42920  0.08272  0.62832  1.0000
  Fe  Fe193     1.0  0.25533  0.03958  0.51051  1.0000
  H   H2948     1.0  0.43097  0.00446  0.88453  1.0000
  H   H2949     1.0  0.31864  0.08118  0.51911  1.0000
  C   C1693     1.0  0.29602  0.99441  0.53081  1.0000
  H   H2950     1.0  0.44744  0.09834  0.72643  1.0000
  S   S375      1.0  0.44080  0.22458  0.90645  1.0000
  H   H2951     1.0  0.41022  0.02655  0.81138  1.0000
  H   H2952     1.0  0.46994  0.04294  0.77940  1.0000
  C   C1694     1.0  0.46200  0.06479  0.75164  1.0000
  H   H2953     1.0  0.38296  0.03054  0.48593  1.0000
  C   C1695     1.0  0.44174  0.12551  0.84334  1.0000
  H   H2954     1.0  0.48319  0.20671  0.93630  1.0000
  H   H2955     1.0  0.40255  0.16477  0.94363  1.0000
  C   C1696     1.0  0.48615  0.98841  0.60632  1.0000
  C   C1697     1.0  0.47885  0.12981  0.97272  1.0000
  H   H2956     1.0  0.46432  0.04755  0.67779  1.0000
  H   H2957     1.0  0.41382  0.00511  0.89271  1.0000
  H   H2958     1.0  0.39497  0.13694  0.94758  1.0000
  H   H2959     1.0  0.44912  0.17255  0.87503  1.0000
  H   H2960     1.0  0.32271  0.05901  0.50852  1.0000
  C   C1698     1.0  0.46858  0.98882  0.70849  1.0000
  H   H2961     1.0  0.45203  0.14060  0.80969  1.0000
  H   H2962     1.0  0.48198  0.09274  0.96382  1.0000
  H   H2963     1.0  0.30759  0.06437  0.50330  1.0000
  H   H2964     1.0  0.41720  0.07877  0.71680  1.0000
  H   H2965     1.0  0.41421  0.99348  0.56408  1.0000
  C   C1699     1.0  0.47016  0.07875  0.63909  1.0000
  H   H2966     1.0  0.48519  0.12320  0.95421  1.0000
  C   C1700     1.0  0.42991  0.20747  0.97291  1.0000
  H   H2967     1.0  0.45374  0.21628  0.86408  1.0000
  H   H2968     1.0  0.45775  0.07561  0.73264  1.0000
  C   C1701     1.0  0.42750  0.09536  0.73835  1.0000
  H   H2969     1.0  0.40354  0.19566  0.97529  1.0000
  H   H2970     1.0  0.45811  0.09018  0.82537  1.0000
  H   H2971     1.0  0.43516  0.07245  0.75733  1.0000
  H   H2972     1.0  0.46358  0.05484  0.74945  1.0000
  C   C1702     1.0  0.43438  0.07821  0.72426  1.0000
  H   H2973     1.0  0.41139  0.15265  0.97690  1.0000
  C   C1703     1.0  0.43159  0.08631  0.70008  1.0000
  S   S376      1.0  0.41993  0.21548  0.93402  1.0000
  C   C1704     1.0  0.41292  0.11859  0.88050  1.0000
  C   C1705     1.0  0.48557  0.98876  0.65288  1.0000
  H   H2974     1.0  0.30914  0.04430  0.49587  1.0000
  H   H2975     1.0  0.40714  0.12299  0.93093  1.0000
  H   H2976     1.0  0.34130  0.99806  0.58331  1.0000
  H   H2977     1.0  0.47042  0.08425  0.62857  1.0000
  S   S377      1.0  0.26699  0.99035  0.52093  1.0000
  S   S378      1.0  0.44836  0.22038  0.93540  1.0000
  C   C1706     1.0  0.41270  0.16165  0.94550  1.0000
  H   H2978     1.0  0.47205  0.23166  0.97242  1.0000
  H   H2979     1.0  0.42490  0.13136  0.86602  1.0000
  H   H2980     1.0  0.40647  0.11952  0.87366  1.0000
  H   H2981     1.0  0.43661  0.06729  0.72473  1.0000
  H   H2982     1.0  0.43630  0.07635  0.69784  1.0000
  H   H2983     1.0  0.41506  0.07090  0.76587  1.0000
  H   H2984     1.0  0.40576  0.01877  0.79380  1.0000
  H   H2985     1.0  0.32728  0.98859  0.56624  1.0000
  C   C1707     1.0  0.42459  0.08494  0.71481  1.0000
  Fe  Fe194     1.0  0.43735  0.20394  0.94283  1.0000
  C   C1708     1.0  0.47995  0.04458  0.90395  1.0000
  S   S379      1.0  0.43401  0.19430  0.96467  1.0000
  H   H2986     1.0  0.43648  0.17360  0.91494  1.0000
  H   H2987     1.0  0.40910  0.08837  0.75982  1.0000
  S   S380      1.0  0.24846  0.01560  0.54516  1.0000
  C   C1709     1.0  0.41645  0.07659  0.74408  1.0000
  H   H2988     1.0  0.45632  0.14715  0.88026  1.0000
  H   H2989     1.0  0.42428  0.09137  0.69373  1.0000
  H   H2990     1.0  0.43924  0.09227  0.69752  1.0000
  C   C1710     1.0  0.42645  0.12125  0.87254  1.0000
  H   H2991     1.0  0.47542  0.15796  0.88325  1.0000
  C   C1711     1.0  0.47619  0.07811  0.78515  1.0000
  N   N94       1.0  0.48411  0.05237  0.79156  1.0000
  H   H2992     1.0  0.40088  0.21697  0.97456  1.0000
  C   C1712     1.0  0.39250  0.00021  0.61750  1.0000
  C   C1713     1.0  0.43911  0.07205  0.74664  1.0000
  H   H2993     1.0  0.43228  0.13125  0.95699  1.0000
  C   C1714     1.0  0.47511  0.03477  0.78638  1.0000
  H   H2994     1.0  0.41621  0.07451  0.63892  1.0000
  H   H2995     1.0  0.44052  0.14524  0.93256  1.0000
  H   H2996     1.0  0.45561  0.99899  0.80206  1.0000
  H   H2997     1.0  0.47768  0.12671  0.89506  1.0000
  C   C1715     1.0  0.39553  0.07608  0.76243  1.0000
  H   H2998     1.0  0.41970  0.12895  0.94408  1.0000
  C   C1716     1.0  0.41767  0.18293  0.89177  1.0000
  H   H2999     1.0  0.42710  0.07542  0.60890  1.0000
  S   S381      1.0  0.27190  0.02543  0.51919  1.0000
  H   H3000     1.0  0.40809  0.12597  0.88688  1.0000
  H   H3001     1.0  0.44056  0.06147  0.74614  1.0000
  C   C1717     1.0  0.30103  0.98922  0.51796  1.0000
  H   H3002     1.0  0.29290  0.02322  0.53621  1.0000
  C   C1718     1.0  0.46647  0.16615  0.88393  1.0000
  C   C1719     1.0  0.42381  0.18414  0.90116  1.0000
  H   H3003     1.0  0.38923  0.08392  0.75620  1.0000
  H   H3004     1.0  0.43159  0.12588  0.84241  1.0000
  N   N95       1.0  0.41602  0.14690  0.95129  1.0000
  C   C1720     1.0  0.40171  0.14121  0.93842  1.0000
  C   C1721     1.0  0.44537  0.00039  0.77850  1.0000
  H   H3005     1.0  0.40549  0.13228  0.96526  1.0000
  H   H3006     1.0  0.46012  0.20477  0.89191  1.0000
  H   H3007     1.0  0.42169  0.14349  0.93118  1.0000
  H   H3008     1.0  0.44352  0.98598  0.87316  1.0000
  H   H3009     1.0  0.45060  0.98969  0.68556  1.0000
  H   H3010     1.0  0.39121  0.07647  0.77309  1.0000
  C   C1722     1.0  0.31187  0.02031  0.48275  1.0000
  H   H3011     1.0  0.43699  0.10115  0.87179  1.0000
  H   H3012     1.0  0.42683  0.10853  0.85995  1.0000
  H   H3013     1.0  0.43204  0.12110  0.87987  1.0000
  H   H3014     1.0  0.26528  0.02561  0.49036  1.0000
  H   H3015     1.0  0.33085  0.98958  0.52171  1.0000
  H   H3016     1.0  0.40984  0.98654  0.67306  1.0000
  C   C1723     1.0  0.44106  0.14685  0.94212  1.0000
  H   H3017     1.0  0.46587  0.01958  0.78540  1.0000
  Fe  Fe195     1.0  0.26057  0.03128  0.53847  1.0000
  C   C1724     1.0  0.45534  0.11620  0.86062  1.0000
  H   H3018     1.0  0.46682  0.09895  0.77927  1.0000
  C   C1725     1.0  0.47837  0.04008  0.79695  1.0000
  H   H3019     1.0  0.47354  0.11313  0.84476  1.0000
  H   H3020     1.0  0.32571  0.99267  0.49819  1.0000
  H   H3021     1.0  0.45557  0.08861  0.78983  1.0000
  H   H3022     1.0  0.28564  0.00008  0.53160  1.0000
  H   H3023     1.0  0.41927  0.16416  0.93548  1.0000
  H   H3024     1.0  0.40116  0.99138  0.51643  1.0000
  H   H3025     1.0  0.30233  0.00083  0.53119  1.0000
  C   C1726     1.0  0.41296  0.01578  0.81131  1.0000
  H   H3026     1.0  0.41398  0.10844  0.88707  1.0000
  H   H3027     1.0  0.39593  0.14890  0.96295  1.0000
  H   H3028     1.0  0.45590  0.14062  0.95422  1.0000
  C   C1727     1.0  0.45114  0.06979  0.63789  1.0000
  H   H3029     1.0  0.42709  0.07174  0.65465  1.0000
  H   H3030     1.0  0.41815  0.98639  0.61360  1.0000
  C   C1728     1.0  0.34128  0.98581  0.51814  1.0000
  H   H3031     1.0  0.46665  0.02029  0.64245  1.0000
  C   C1729     1.0  0.46012  0.15361  0.87059  1.0000
  H   H3032     1.0  0.48488  0.06501  0.88404  1.0000
  H   H3033     1.0  0.41767  0.06594  0.74389  1.0000
  C   C1730     1.0  0.42160  0.00242  0.88399  1.0000
  H   H3034     1.0  0.48118  0.05984  0.83415  1.0000
  C   C1731     1.0  0.28583  0.03160  0.55368  1.0000
  S   S382      1.0  0.37472  0.99979  0.50703  1.0000
  Fe  Fe196     1.0  0.25866  0.01084  0.52507  1.0000
  C   C1732     1.0  0.39018  0.22152  0.97730  1.0000
  N   N96       1.0  0.42181  0.99609  0.78306  1.0000
  C   C1733     1.0  0.40935  0.00178  0.77774  1.0000
  C   C1734     1.0  0.41916  0.99896  0.79672  1.0000
  C   C1735     1.0  0.42331  0.98773  0.88414  1.0000
  C   C1736     1.0  0.48428  0.06458  0.71944  1.0000
  C   C1737     1.0  0.32126  0.98897  0.49208  1.0000
  C   C1738     1.0  0.40914  0.99708  0.76536  1.0000
  C   C1739     1.0  0.47607  0.04199  0.71950  1.0000
  C   C1740     1.0  0.41514  0.01393  0.79716  1.0000
  H   H3035     1.0  0.44171  0.05978  0.62287  1.0000
  C   C1741     1.0  0.39708  0.00500  0.75959  1.0000
  H   H3036     1.0  0.48435  0.02971  0.78040  1.0000
  H   H3037     1.0  0.40758  0.01285  0.77489  1.0000
  H   H3038     1.0  0.40048  0.99968  0.78564  1.0000
  H   H3039     1.0  0.40455  0.17079  0.96265  1.0000
  H   H3040     1.0  0.38194  0.00091  0.61792  1.0000
  H   H3041     1.0  0.42913  0.01332  0.77001  1.0000
  H   H3042     1.0  0.46963  0.06348  0.77976  1.0000
  H   H3043     1.0  0.47723  0.99412  0.63070  1.0000
  C   C1742     1.0  0.46925  0.17759  0.89949  1.0000
  S   S383      1.0  0.34883  0.06492  0.50328  1.0000
  H   H3044     1.0  0.41517  0.99870  0.71718  1.0000
  H   H3045     1.0  0.48464  0.09062  0.84370  1.0000
  H   H3046     1.0  0.38836  0.01387  0.71356  1.0000
  C   C1743     1.0  0.43411  0.11042  0.86442  1.0000
  H   H3047     1.0  0.46410  0.06396  0.79679  1.0000
  C   C1744     1.0  0.40985  0.99231  0.71494  1.0000
  S   S384      1.0  0.25798  0.05362  0.49050  1.0000
  H   H3048     1.0  0.30841  0.99127  0.55659  1.0000
  H   H3049     1.0  0.46911  0.04198  0.80468  1.0000
  H   H3050     1.0  0.43581  0.99856  0.76401  1.0000
  H   H3051     1.0  0.29052  0.07277  0.48646  1.0000
  H   H3052     1.0  0.46434  0.17302  0.86279  1.0000
  C   C1745     1.0  0.30116  0.00071  0.50533  1.0000
  H   H3053     1.0  0.46254  0.14274  0.93641  1.0000
  H   H3054     1.0  0.39291  0.13484  0.92595  1.0000
  H   H3055     1.0  0.46546  0.16542  0.92663  1.0000
  H   H3056     1.0  0.44083  0.13481  0.84659  1.0000
  H   H3057     1.0  0.30148  0.08760  0.52461  1.0000
  C   C1746     1.0  0.45465  0.13921  0.94477  1.0000
  C   C1747     1.0  0.43499  0.06073  0.63275  1.0000
  C   C1748     1.0  0.45990  0.19081  0.88037  1.0000
  H   H3058     1.0  0.28190  0.03914  0.57140  1.0000
  N   N97       1.0  0.44614  0.11348  0.85381  1.0000
  H   H3059     1.0  0.40283  0.18890  0.94244  1.0000
  C   C1749     1.0  0.44698  0.15788  0.98186  1.0000
  H   H3060     1.0  0.40868  0.98642  0.76806  1.0000
  Fe  Fe197     1.0  0.43116  0.20705  0.91605  1.0000
  S   S385      1.0  0.26912  0.03700  0.55253  1.0000
  H   H3061     1.0  0.46999  0.01734  0.80132  1.0000
  H   H3062     1.0  0.41085  0.01231  0.52368  1.0000
  H   H3063     1.0  0.42067  0.18589  0.93747  1.0000
  C   C1750     1.0  0.41317  0.17083  0.95411  1.0000
  H   H3064     1.0  0.37926  0.00917  0.73048  1.0000
  H   H3065     1.0  0.48104  0.99575  0.53769  1.0000
  H   H3066     1.0  0.40482  0.01109  0.81808  1.0000
  H   H3067     1.0  0.45207  0.08499  0.74562  1.0000
  H   H3068     1.0  0.29625  0.98586  0.53955  1.0000
  C   C1751     1.0  0.46628  0.02476  0.79289  1.0000
  Fe  Fe198     1.0  0.45682  0.21199  0.91707  1.0000
  C   C1752     1.0  0.39850  0.98639  0.62493  1.0000
  C   C1753     1.0  0.41554  0.13982  0.94106  1.0000
  C   C1754     1.0  0.42984  0.14232  0.95386  1.0000
  C   C1755     1.0  0.42917  0.00367  0.54002  1.0000
  S   S386      1.0  0.44771  0.19408  0.92560  1.0000
  C   C1756     1.0  0.43692  0.10350  0.72739  1.0000
  H   H3069     1.0  0.40910  0.08240  0.73794  1.0000
  H   H3070     1.0  0.46401  0.08544  0.64586  1.0000
  H   H3071     1.0  0.47001  0.13681  0.96953  1.0000
  H   H3072     1.0  0.45902  0.07726  0.84043  1.0000
  H   H3073     1.0  0.39548  0.06616  0.76113  1.0000
  C   C1757     1.0  0.39588  0.99368  0.72409  1.0000
  C   C1758     1.0  0.47302  0.06414  0.78843  1.0000
  C   C1759     1.0  0.46190  0.20427  0.88132  1.0000
  C   C1760     1.0  0.42184  0.98947  0.83670  1.0000
  H   H3074     1.0  0.45769  0.06428  0.76246  1.0000
  C   C1761     1.0  0.38929  0.00835  0.72387  1.0000
  H   H3075     1.0  0.40913  0.99144  0.64936  1.0000
  C   C1762     1.0  0.42306  0.10454  0.97315  1.0000
  N   N98       1.0  0.30636  0.06687  0.52321  1.0000
  H   H3076     1.0  0.46671  0.98907  0.54679  1.0000
  N   N99       1.0  0.42951  0.08085  0.73818  1.0000
  C   C1763     1.0  0.31392  0.05991  0.53413  1.0000
  C   C1764     1.0  0.29190  0.06693  0.52917  1.0000
  C   C1765     1.0  0.28256  0.07219  0.51929  1.0000
  C   C1766     1.0  0.31018  0.04478  0.51580  1.0000
  C   C1767     1.0  0.30993  0.06635  0.54644  1.0000
  H   H3077     1.0  0.41156  0.19166  0.88672  1.0000
  C   C1768     1.0  0.48249  0.03390  0.85333  1.0000
  C   C1769     1.0  0.26887  0.06926  0.52598  1.0000
  H   H3078     1.0  0.44704  0.01701  0.55392  1.0000
  C   C1770     1.0  0.31977  0.06017  0.55552  1.0000
  H   H3079     1.0  0.45951  0.19190  0.86986  1.0000
  H   H3080     1.0  0.45400  0.01530  0.76249  1.0000
  H   H3081     1.0  0.45709  0.09299  0.85613  1.0000
  H   H3082     1.0  0.48101  0.99501  0.79471  1.0000
  H   H3083     1.0  0.32477  0.05909  0.52995  1.0000
  H   H3084     1.0  0.31259  0.04953  0.53828  1.0000
  H   H3085     1.0  0.29061  0.05678  0.53493  1.0000
  H   H3086     1.0  0.28791  0.07319  0.53674  1.0000
  H   H3087     1.0  0.43755  0.10325  0.83729  1.0000
  C   C1771     1.0  0.29880  0.98812  0.49070  1.0000
  H   H3088     1.0  0.31626  0.03859  0.52300  1.0000
  H   H3089     1.0  0.29967  0.04425  0.52002  1.0000
  H   H3090     1.0  0.30008  0.06468  0.55247  1.0000
  H   H3091     1.0  0.30949  0.07721  0.54349  1.0000
  H   H3092     1.0  0.44962  0.11885  0.82435  1.0000
  H   H3093     1.0  0.30662  0.00739  0.50679  1.0000
  S   S387      1.0  0.42105  0.20019  0.90417  1.0000
  C   C1772     1.0  0.45214  0.21596  0.87488  1.0000
  H   H3094     1.0  0.26212  0.07385  0.51896  1.0000
  H   H3095     1.0  0.26950  0.05835  0.52865  1.0000
  H   H3096     1.0  0.26460  0.07331  0.53515  1.0000
  C   C1773     1.0  0.39837  0.99233  0.84630  1.0000
  H   H3097     1.0  0.44540  0.98681  0.67209  1.0000
  H   H3098     1.0  0.43066  0.14583  0.96236  1.0000
  H   H3099     1.0  0.32101  0.04916  0.55846  1.0000
  H   H3100     1.0  0.32952  0.06267  0.55037  1.0000
  H   H3101     1.0  0.31613  0.06416  0.56474  1.0000
  N   N100      1.0  0.44286  0.05933  0.64296  1.0000
  C   C1774     1.0  0.45104  0.04529  0.64512  1.0000
  C   C1775     1.0  0.43304  0.06134  0.65583  1.0000
  C   C1776     1.0  0.46465  0.06630  0.64202  1.0000
  C   C1777     1.0  0.45976  0.04075  0.63230  1.0000
  C   C1778     1.0  0.43881  0.05879  0.66826  1.0000
  C   C1779     1.0  0.42784  0.06140  0.68044  1.0000
  C   C1780     1.0  0.47081  0.02864  0.63534  1.0000
  H   H3102     1.0  0.44444  0.03821  0.65004  1.0000
  H   H3103     1.0  0.45746  0.04367  0.65216  1.0000
  H   H3104     1.0  0.42587  0.05475  0.65841  1.0000
  H   H3105     1.0  0.47201  0.05925  0.63625  1.0000
  H   H3106     1.0  0.46402  0.06159  0.65272  1.0000
  H   H3107     1.0  0.45358  0.03803  0.62715  1.0000
  H   H3108     1.0  0.46427  0.04888  0.62535  1.0000
  H   H3109     1.0  0.44416  0.04828  0.67083  1.0000
  H   H3110     1.0  0.44542  0.06562  0.66662  1.0000
  H   H3111     1.0  0.42254  0.07202  0.67884  1.0000
  H   H3112     1.0  0.42066  0.05500  0.68260  1.0000
  H   H3113     1.0  0.43229  0.05904  0.68924  1.0000
  H   H3114     1.0  0.48042  0.07584  0.64062  1.0000
  H   H3115     1.0  0.43455  0.10536  0.71749  1.0000
  H   H3116     1.0  0.47781  0.03123  0.63960  1.0000
  H   H3117     1.0  0.31829  0.10319  0.50235  1.0000
  C   C1781     1.0  0.46440  0.08903  0.78144  1.0000
  H   H3118     1.0  0.46617  0.13027  0.84565  1.0000
  H   H3119     1.0  0.41423  0.99381  0.62740  1.0000
  H   H3120     1.0  0.45585  0.99167  0.85121  1.0000
  H   H3121     1.0  0.41169  0.08494  0.61660  1.0000
  H   H3122     1.0  0.44400  0.08107  0.71933  1.0000
  H   H3123     1.0  0.41812  0.99834  0.75742  1.0000
  H   H3124     1.0  0.39707  0.15177  0.93481  1.0000
  H   H3125     1.0  0.40921  0.13789  0.91812  1.0000
  H   H3126     1.0  0.47841  0.08001  0.79390  1.0000
  H   H3127     1.0  0.34649  0.00405  0.51676  1.0000
  C   C1782     1.0  0.41889  0.99104  0.53141  1.0000
  H   H3128     1.0  0.44179  0.21513  0.87991  1.0000
  C   C1783     1.0  0.35017  0.99404  0.51535  1.0000
  H   H3129     1.0  0.43749  0.09003  0.85193  1.0000
  H   H3130     1.0  0.40460  0.00386  0.55272  1.0000
  H   H3131     1.0  0.44339  0.00660  0.78587  1.0000
  C   C1784     1.0  0.41911  0.07541  0.61810  1.0000
  C   C1785     1.0  0.48243  0.01882  0.84013  1.0000
  C   C1786     1.0  0.45224  0.08521  0.83481  1.0000
  H   H3132     1.0  0.36463  0.98656  0.56253  1.0000
  H   H3133     1.0  0.45610  0.03003  0.79674  1.0000
  H   H3134     1.0  0.39776  0.00207  0.60683  1.0000
  H   H3135     1.0  0.43538  0.14165  0.81959  1.0000
  H   H3136     1.0  0.29080  0.00643  0.50553  1.0000
  H   H3137     1.0  0.44699  0.14834  0.82381  1.0000
  H   H3138     1.0  0.30038  0.10807  0.50657  1.0000
  H   H3139     1.0  0.30424  0.02588  0.48981  1.0000
  H   H3140     1.0  0.48591  0.10020  0.90038  1.0000
  H   H3141     1.0  0.38781  0.00399  0.76725  1.0000
  C   C1787     1.0  0.44256  0.10795  0.97781  1.0000
  H   H3142     1.0  0.45917  0.99863  0.75940  1.0000
  C   C1788     1.0  0.40840  0.14345  0.97739  1.0000
  C   C1789     1.0  0.31479  0.03851  0.50367  1.0000
  H   H3143     1.0  0.47722  0.04145  0.85902  1.0000
  N   N101      1.0  0.46993  0.17854  0.88494  1.0000
  C   C1790     1.0  0.45040  0.12663  0.82892  1.0000
  H   H3144     1.0  0.28125  0.08316  0.51586  1.0000
  H   H3145     1.0  0.41095  0.99441  0.80362  1.0000
  H   H3146     1.0  0.48107  0.08120  0.60626  1.0000
  H   H3147     1.0  0.45952  0.16234  0.89322  1.0000
  H   H3148     1.0  0.39746  0.01572  0.75602  1.0000
  H   H3149     1.0  0.42784  0.99417  0.80137  1.0000
  H   H3150     1.0  0.47832  0.99528  0.81187  1.0000
  H   H3151     1.0  0.43102  0.99258  0.83481  1.0000
  H   H3152     1.0  0.45207  0.01293  0.53771  1.0000
  H   H3153     1.0  0.47249  0.18610  0.90069  1.0000
  H   H3154     1.0  0.32278  0.99389  0.54352  1.0000
  H   H3155     1.0  0.47202  0.20572  0.87619  1.0000
  C   C1791     1.0  0.45623  0.99039  0.81068  1.0000
  H   H3156     1.0  0.44557  0.08044  0.83232  1.0000
  H   H3157     1.0  0.39699  0.00116  0.75101  1.0000
  H   H3158     1.0  0.44883  0.98990  0.78340  1.0000
  H   H3159     1.0  0.41627  0.99617  0.58736  1.0000
  C   C1792     1.0  0.40785  0.00263  0.52644  1.0000
  S   S388      1.0  0.24308  0.02456  0.51463  1.0000
  H   H3160     1.0  0.39850  0.00330  0.53416  1.0000
  H   H3161     1.0  0.38566  0.22018  0.96969  1.0000
  H   H3162     1.0  0.47210  0.06391  0.81419  1.0000
  C   C1793     1.0  0.48521  0.03947  0.67060  1.0000
  H   H3163     1.0  0.47981  0.19107  0.85780  1.0000
  C   C1794     1.0  0.34385  0.05346  0.48539  1.0000
  H   H3164     1.0  0.48009  0.99975  0.73285  1.0000
  H   H3165     1.0  0.45458  0.23250  0.97533  1.0000
  C   C1795     1.0  0.35404  0.98792  0.56767  1.0000
  H   H3166     1.0  0.43664  0.16163  0.98050  1.0000
  H   H3167     1.0  0.47669  0.20369  0.98149  1.0000
  H   H3168     1.0  0.39347  0.98757  0.57900  1.0000
  H   H3169     1.0  0.38955  0.98956  0.72041  1.0000
  C   C1796     1.0  0.47993  0.07213  0.60458  1.0000
  C   C1797     1.0  0.35192  0.99587  0.57824  1.0000
  H   H3170     1.0  0.45390  0.15459  0.86352  1.0000
  H   H3171     1.0  0.35492  0.00553  0.57336  1.0000
  S   S389      1.0  0.47817  0.20920  0.90633  1.0000
  H   H3172     1.0  0.45362  0.22546  0.87591  1.0000
  C   C1798     1.0  0.48543  0.12901  0.89796  1.0000
  H   H3173     1.0  0.46929  0.99906  0.70664  1.0000
  H   H3174     1.0  0.31320  0.02819  0.50687  1.0000
  H   H3175     1.0  0.47579  0.99423  0.60804  1.0000
  H   H3176     1.0  0.48668  0.13540  0.97079  1.0000
  C   C1799     1.0  0.42457  0.23125  0.97192  1.0000
  H   H3177     1.0  0.42758  0.99075  0.52285  1.0000
  H   H3178     1.0  0.48486  0.04379  0.65995  1.0000
  H   H3179     1.0  0.27374  0.07389  0.48575  1.0000
  C   C1800     1.0  0.39025  0.98693  0.57023  1.0000
  H   H3180     1.0  0.47922  0.03863  0.91437  1.0000
  H   H3181     1.0  0.41394  0.00002  0.50587  1.0000
  C   C1801     1.0  0.48524  0.04087  0.72701  1.0000
  C   C1802     1.0  0.41327  0.98508  0.62437  1.0000
  C   C1803     1.0  0.48358  0.11861  0.96506  1.0000
  H   H3182     1.0  0.36234  0.00107  0.48329  1.0000
  H   H3183     1.0  0.46846  0.18415  0.98202  1.0000
  H   H3184     1.0  0.34172  0.08643  0.48208  1.0000
  C   C1804     1.0  0.46493  0.27736  0.02928  1.0000
  H   H3185     1.0  0.24357  0.45752  0.02616  1.0000
  S   S390      1.0  0.41614  0.25802  0.05099  1.0000
  Fe  Fe199     1.0  0.42823  0.33153  0.02935  1.0000
  S   S391      1.0  0.43037  0.34941  0.03507  1.0000
  S   S392      1.0  0.41429  0.31922  0.04375  1.0000
  H   H3186     1.0  0.33293  0.39811  0.98570  1.0000
  H   H3187     1.0  0.43232  0.29229  0.98305  1.0000
  Fe  Fe200     1.0  0.35719  0.44096  0.99123  1.0000
  C   C1805     1.0  0.46876  0.26775  0.04184  1.0000
  Fe  Fe201     1.0  0.44700  0.33658  0.00273  1.0000
  C   C1806     1.0  0.39596  0.34926  0.06103  1.0000
  C   C1807     1.0  0.26476  0.46277  0.00635  1.0000
  C   C1808     1.0  0.26819  0.48239  0.04755  1.0000
  C   C1809     1.0  0.37021  0.38566  0.99642  1.0000
  Fe  Fe202     1.0  0.34211  0.45518  0.01380  1.0000
  S   S393      1.0  0.33812  0.45596  0.99416  1.0000
  S   S394      1.0  0.33597  0.47433  0.02099  1.0000
  Fe  Fe203     1.0  0.35151  0.42528  0.01950  1.0000
  S   S395      1.0  0.34770  0.42348  0.00061  1.0000
  S   S396      1.0  0.36055  0.40669  0.03296  1.0000
  H   H3188     1.0  0.39136  0.38284  0.99027  1.0000
  C   C1810     1.0  0.30790  0.47912  0.98519  1.0000
  Fe  Fe204     1.0  0.32880  0.43848  0.00493  1.0000
  S   S397      1.0  0.31138  0.43747  0.99760  1.0000
  S   S398      1.0  0.36232  0.44192  0.00984  1.0000
  S   S399      1.0  0.33147  0.43860  0.02501  1.0000
  Fe  Fe205     1.0  0.24159  0.42683  0.02305  1.0000
  C   C1811     1.0  0.47633  0.26115  0.99089  1.0000
  S   S400      1.0  0.25671  0.42607  0.03436  1.0000
  Fe  Fe206     1.0  0.42970  0.23585  0.01190  1.0000
  H   H3189     1.0  0.46950  0.26184  0.01853  1.0000
  C   C1812     1.0  0.29656  0.43381  0.00827  1.0000
  C   C1813     1.0  0.29371  0.43331  0.02198  1.0000
  C   C1814     1.0  0.28152  0.43071  0.03001  1.0000
  C   C1815     1.0  0.27221  0.42855  0.02435  1.0000
  C   C1816     1.0  0.27524  0.42875  0.01070  1.0000
  C   C1817     1.0  0.28734  0.43144  0.00269  1.0000
  H   H3190     1.0  0.30081  0.43507  0.02635  1.0000
  H   H3191     1.0  0.27925  0.43048  0.04058  1.0000
  H   H3192     1.0  0.26821  0.42693  0.00630  1.0000
  H   H3193     1.0  0.28953  0.43172  0.99214  1.0000
  S   S401      1.0  0.45090  0.35469  0.00597  1.0000
  C   C1818     1.0  0.39748  0.38333  0.02698  1.0000
  C   C1819     1.0  0.38466  0.38933  0.03303  1.0000
  C   C1820     1.0  0.37700  0.40007  0.02559  1.0000
  C   C1821     1.0  0.38239  0.40515  0.01220  1.0000
  H   H3194     1.0  0.47960  0.26571  0.04101  1.0000
  H   H3195     1.0  0.40344  0.37516  0.03278  1.0000
  H   H3196     1.0  0.38068  0.38578  0.04350  1.0000
  H   H3197     1.0  0.40369  0.35465  0.05452  1.0000
  H   H3198     1.0  0.45286  0.27072  0.00701  1.0000
  H   H3199     1.0  0.27771  0.47707  0.05048  1.0000
  H   H3200     1.0  0.43489  0.27656  0.99473  1.0000
  C   C1822     1.0  0.41560  0.30221  0.04483  1.0000
  C   C1823     1.0  0.42429  0.29516  0.03535  1.0000
  C   C1824     1.0  0.42458  0.28151  0.03689  1.0000
  C   C1825     1.0  0.41628  0.27503  0.04795  1.0000
  C   C1826     1.0  0.40766  0.28220  0.05725  1.0000
  C   C1827     1.0  0.40728  0.29568  0.05567  1.0000
  H   H3201     1.0  0.43066  0.30022  0.02690  1.0000
  H   H3202     1.0  0.43117  0.27599  0.02966  1.0000
  H   H3203     1.0  0.40125  0.27726  0.06579  1.0000
  H   H3204     1.0  0.40058  0.30104  0.06301  1.0000
  C   C1828     1.0  0.32001  0.40230  0.00379  1.0000
  C   C1829     1.0  0.40268  0.38815  0.01347  1.0000
  C   C1830     1.0  0.47215  0.27164  0.01662  1.0000
  S   S402      1.0  0.43955  0.24927  0.01664  1.0000
  H   H3205     1.0  0.37663  0.41352  0.00640  1.0000
  H   H3206     1.0  0.40209  0.32748  0.00158  1.0000
  H   H3207     1.0  0.43269  0.32268  0.99435  1.0000
  C   C1831     1.0  0.45481  0.28092  0.00393  1.0000
  S   S403      1.0  0.41844  0.38070  0.00529  1.0000
  Fe  Fe207     1.0  0.42761  0.24402  0.03742  1.0000
  H   H3208     1.0  0.26779  0.46922  0.99652  1.0000
  Fe  Fe208     1.0  0.45205  0.34257  0.02657  1.0000
  H   H3209     1.0  0.40003  0.33835  0.06225  1.0000
  H   H3210     1.0  0.31122  0.46855  0.99016  1.0000
  S   S404      1.0  0.42299  0.24225  0.99255  1.0000
  H   H3211     1.0  0.39231  0.45397  0.98733  1.0000
  C   C1832     1.0  0.39524  0.33704  0.00325  1.0000
  H   H3212     1.0  0.34972  0.38752  0.02480  1.0000
  H   H3213     1.0  0.38760  0.47055  0.99024  1.0000
  C   C1833     1.0  0.39519  0.39921  0.00617  1.0000
  C   C1834     1.0  0.47400  0.30385  0.04743  1.0000
  H   H3214     1.0  0.46673  0.26235  0.98833  1.0000
  H   H3215     1.0  0.26209  0.47730  0.01756  1.0000
  H   H3216     1.0  0.47646  0.25379  0.00039  1.0000
  H   H3217     1.0  0.36134  0.38882  0.99201  1.0000
  C   C1835     1.0  0.48234  0.34628  0.02813  1.0000
  H   H3218     1.0  0.47751  0.31399  0.00947  1.0000
  H   H3219     1.0  0.25722  0.45504  0.03324  1.0000
  C   C1836     1.0  0.32285  0.40410  0.98861  1.0000
  Fe  Fe209     1.0  0.42899  0.36003  0.01400  1.0000
  H   H3220     1.0  0.38699  0.33888  0.99820  1.0000
  C   C1837     1.0  0.31219  0.39985  0.98448  1.0000
  S   S405      1.0  0.44991  0.32383  0.02264  1.0000
  S   S406      1.0  0.42498  0.34279  0.00901  1.0000
  H   H3221     1.0  0.27373  0.45696  0.01014  1.0000
  H   H3222     1.0  0.25942  0.45594  0.00498  1.0000
  H   H3223     1.0  0.39326  0.35173  0.07101  1.0000
  H   H3224     1.0  0.47231  0.30442  0.05802  1.0000
  H   H3225     1.0  0.44808  0.28626  0.01167  1.0000
  N   N102      1.0  0.37557  0.35044  0.03557  1.0000
  C   C1838     1.0  0.38714  0.35052  0.04081  1.0000
  C   C1839     1.0  0.38047  0.34933  0.02112  1.0000
  C   C1840     1.0  0.36610  0.36385  0.03576  1.0000
  C   C1841     1.0  0.36845  0.33950  0.04384  1.0000
  C   C1842     1.0  0.37700  0.32615  0.05020  1.0000
  C   C1843     1.0  0.38375  0.35340  0.05501  1.0000
  C   C1844     1.0  0.35299  0.36586  0.03132  1.0000
  C   C1845     1.0  0.39003  0.33618  0.01827  1.0000
  H   H3226     1.0  0.24542  0.45392  0.05538  1.0000
  C   C1846     1.0  0.36909  0.31522  0.05586  1.0000
  H   H3227     1.0  0.33502  0.38099  0.02909  1.0000
  C   C1847     1.0  0.34451  0.37984  0.03189  1.0000
  H   H3228     1.0  0.39270  0.35801  0.03390  1.0000
  H   H3229     1.0  0.39443  0.34099  0.04088  1.0000
  H   H3230     1.0  0.37213  0.35032  0.01654  1.0000
  H   H3231     1.0  0.38547  0.35768  0.01526  1.0000
  H   H3232     1.0  0.37115  0.37201  0.02947  1.0000
  H   H3233     1.0  0.36290  0.36575  0.04601  1.0000
  H   H3234     1.0  0.36085  0.34295  0.05238  1.0000
  H   H3235     1.0  0.36284  0.33723  0.03775  1.0000
  H   H3236     1.0  0.38043  0.32738  0.05857  1.0000
  H   H3237     1.0  0.38595  0.32239  0.04308  1.0000
  H   H3238     1.0  0.37991  0.36422  0.05453  1.0000
  H   H3239     1.0  0.37607  0.34822  0.06197  1.0000
  H   H3240     1.0  0.34712  0.35856  0.03798  1.0000
  H   H3241     1.0  0.35471  0.36481  0.02092  1.0000
  H   H3242     1.0  0.39871  0.33370  0.02279  1.0000
  H   H3243     1.0  0.38473  0.32788  0.02211  1.0000
  H   H3244     1.0  0.28855  0.48043  0.99941  1.0000
  C   C1848     1.0  0.48499  0.30967  0.00142  1.0000
  S   S407      1.0  0.46790  0.34066  0.03741  1.0000
  H   H3245     1.0  0.36600  0.31305  0.04775  1.0000
  H   H3246     1.0  0.37537  0.30594  0.06057  1.0000
  H   H3247     1.0  0.36022  0.31824  0.06356  1.0000
  H   H3248     1.0  0.36319  0.47327  0.00579  1.0000
  H   H3249     1.0  0.32132  0.39156  0.00874  1.0000
  H   H3250     1.0  0.34226  0.38166  0.04213  1.0000
  C   C1849     1.0  0.25590  0.47149  0.01588  1.0000
  H   H3251     1.0  0.46293  0.29963  0.00887  1.0000
  H   H3252     1.0  0.35527  0.48165  0.98261  1.0000
  H   H3253     1.0  0.46362  0.27218  0.05067  1.0000
  H   H3254     1.0  0.30761  0.47874  0.03804  1.0000
  H   H3255     1.0  0.26822  0.46716  0.03824  1.0000
  H   H3256     1.0  0.30976  0.40746  0.00766  1.0000
  H   H3257     1.0  0.40078  0.34511  0.99871  1.0000
  H   H3258     1.0  0.47494  0.35622  0.01035  1.0000
  H   H3259     1.0  0.28925  0.39149  0.98682  1.0000
  H   H3260     1.0  0.48311  0.31574  0.99158  1.0000
  H   H3261     1.0  0.30690  0.47347  0.01208  1.0000
  H   H3262     1.0  0.42903  0.29194  0.00060  1.0000
  C   C1850     1.0  0.44998  0.28800  0.99085  1.0000
  H   H3263     1.0  0.39925  0.40313  0.99578  1.0000
  H   H3264     1.0  0.46930  0.30030  0.99167  1.0000
  S   S408      1.0  0.24077  0.44060  0.00313  1.0000
  N   N103      1.0  0.24060  0.47066  0.03938  1.0000
  C   C1851     1.0  0.26137  0.47234  0.04601  1.0000
  H   H3265     1.0  0.46652  0.31189  0.04285  1.0000
  H   H3266     1.0  0.24165  0.48404  0.05077  1.0000
  H   H3267     1.0  0.45406  0.27905  0.03080  1.0000
  C   C1852     1.0  0.24780  0.47939  0.04231  1.0000
  H   H3268     1.0  0.37028  0.37573  0.00322  1.0000
  H   H3269     1.0  0.38542  0.23625  0.00136  1.0000
  H   H3270     1.0  0.47254  0.29412  0.04704  1.0000
  C   C1853     1.0  0.24935  0.46298  0.02906  1.0000
  H   H3271     1.0  0.26007  0.46492  0.05563  1.0000
  H   H3272     1.0  0.47785  0.28169  0.98242  1.0000
  H   H3273     1.0  0.24827  0.47850  0.01075  1.0000
  H   H3274     1.0  0.32693  0.40656  0.00648  1.0000
  H   H3275     1.0  0.46742  0.28693  0.02858  1.0000
  H   H3276     1.0  0.31075  0.39005  0.99115  1.0000
  C   C1854     1.0  0.38285  0.38530  0.98545  1.0000
  C   C1855     1.0  0.47834  0.27447  0.99217  1.0000
  N   N104      1.0  0.46901  0.28033  0.00358  1.0000
  H   H3277     1.0  0.46567  0.25825  0.04347  1.0000
  H   H3278     1.0  0.45041  0.29864  0.98823  1.0000
  C   C1856     1.0  0.47075  0.29427  0.00171  1.0000
  H   H3279     1.0  0.36945  0.39294  0.00236  1.0000
  H   H3280     1.0  0.30283  0.40712  0.98718  1.0000
  C   C1857     1.0  0.43570  0.28712  0.99245  1.0000
  C   C1858     1.0  0.48324  0.35372  0.01499  1.0000
  H   H3281     1.0  0.45760  0.38313  0.99129  1.0000
  C   C1859     1.0  0.48449  0.29526  0.00280  1.0000
  H   H3282     1.0  0.47686  0.36622  0.98401  1.0000
  H   H3283     1.0  0.48298  0.26912  0.01612  1.0000
  H   H3284     1.0  0.45607  0.28349  0.98239  1.0000
  H   H3285     1.0  0.38727  0.36479  0.98368  1.0000
  H   H3286     1.0  0.31025  0.48355  0.05793  1.0000
  S   S409      1.0  0.45785  0.33032  0.98360  1.0000
  H   H3287     1.0  0.31657  0.48367  0.98296  1.0000
  C   C1860     1.0  0.39157  0.46469  0.98237  1.0000
  H   H3288     1.0  0.32292  0.41475  0.98397  1.0000
  H   H3289     1.0  0.29580  0.46237  0.98269  1.0000
  H   H3290     1.0  0.40830  0.36566  0.98489  1.0000
  C   C1861     1.0  0.35845  0.48351  0.00625  1.0000
  C   C1862     1.0  0.43518  0.32354  0.98368  1.0000
  H   H3291     1.0  0.41806  0.31693  0.98364  1.0000
  C   C1863     1.0  0.30232  0.48403  0.00822  1.0000
  H   H3292     1.0  0.48687  0.28956  0.01254  1.0000
  S   S410      1.0  0.23782  0.40976  0.01738  1.0000
  H   H3293     1.0  0.30934  0.48427  0.10024  1.0000
  C   C1864     1.0  0.43263  0.26686  0.90762  1.0000
  H   H3294     1.0  0.43829  0.37211  0.92190  1.0000
  S   S411      1.0  0.37055  0.44259  0.97075  1.0000
  H   H3295     1.0  0.42236  0.28523  0.96592  1.0000
  H   H3296     1.0  0.42938  0.35695  0.86751  1.0000
  C   C1865     1.0  0.48374  0.24172  0.91445  1.0000
  H   H3297     1.0  0.29439  0.47674  0.92899  1.0000
  S   S412      1.0  0.42003  0.25138  0.93039  1.0000
  C   C1866     1.0  0.43264  0.40918  0.87629  1.0000
  H   H3298     1.0  0.39481  0.40791  0.89826  1.0000
  H   H3299     1.0  0.38132  0.36870  0.94653  1.0000
  S   S413      1.0  0.23946  0.43346  0.88394  1.0000
  C   C1867     1.0  0.38738  0.34739  0.95231  1.0000
  C   C1868     1.0  0.32799  0.38918  0.96714  1.0000
  H   H3300     1.0  0.33098  0.39262  0.94512  1.0000
  C   C1869     1.0  0.33139  0.38422  0.95394  1.0000
  C   C1870     1.0  0.38418  0.36122  0.95537  1.0000
  S   S414      1.0  0.26218  0.41073  0.90970  1.0000
  H   H3301     1.0  0.33610  0.37623  0.90004  1.0000
  H   H3302     1.0  0.42940  0.28410  0.94185  1.0000
  H   H3303     1.0  0.31463  0.37743  0.91448  1.0000
  H   H3304     1.0  0.38662  0.24257  0.95469  1.0000
  C   C1871     1.0  0.31611  0.47377  0.96313  1.0000
  Fe  Fe210     1.0  0.42487  0.32430  0.93479  1.0000
  S   S415      1.0  0.42081  0.31528  0.95666  1.0000
  C   C1872     1.0  0.47451  0.31635  0.89143  1.0000
  H   H3305     1.0  0.47810  0.24909  0.92019  1.0000
  Fe  Fe211     1.0  0.41223  0.34728  0.91513  1.0000
  S   S416      1.0  0.39557  0.36502  0.91847  1.0000
  S   S417      1.0  0.41004  0.32610  0.92305  1.0000
  Fe  Fe212     1.0  0.32041  0.43832  0.91057  1.0000
  C   C1873     1.0  0.48136  0.32854  0.93110  1.0000
  S   S418      1.0  0.29862  0.44628  0.91233  1.0000
  Fe  Fe213     1.0  0.34295  0.42487  0.92469  1.0000
  S   S419      1.0  0.35851  0.42958  0.90632  1.0000
  S   S420      1.0  0.34855  0.41143  0.94331  1.0000
  Fe  Fe214     1.0  0.34635  0.42271  0.89670  1.0000
  S   S421      1.0  0.35633  0.40685  0.88478  1.0000
  C   C1874     1.0  0.43084  0.39578  0.87504  1.0000
  S   S422      1.0  0.33133  0.41717  0.91536  1.0000
  H   H3306     1.0  0.26975  0.39676  0.97723  1.0000
  C   C1875     1.0  0.35640  0.41929  0.95008  1.0000
  C   C1876     1.0  0.35976  0.43144  0.94302  1.0000
  C   C1877     1.0  0.36495  0.43828  0.94908  1.0000
  C   C1878     1.0  0.36660  0.43300  0.96221  1.0000
  C   C1879     1.0  0.36402  0.42046  0.96887  1.0000
  C   C1880     1.0  0.35885  0.41361  0.96286  1.0000
  H   H3307     1.0  0.35793  0.43582  0.93311  1.0000
  H   H3308     1.0  0.36687  0.44798  0.94386  1.0000
  H   H3309     1.0  0.39168  0.48373  0.95867  1.0000
  H   H3310     1.0  0.35641  0.40414  0.96825  1.0000
  C   C1881     1.0  0.36649  0.39403  0.89422  1.0000
  C   C1882     1.0  0.37556  0.38368  0.88869  1.0000
  C   C1883     1.0  0.38433  0.37416  0.89613  1.0000
  C   C1884     1.0  0.38401  0.37515  0.90903  1.0000
  C   C1885     1.0  0.37453  0.38509  0.91467  1.0000
  C   C1886     1.0  0.36581  0.39444  0.90735  1.0000
  H   H3311     1.0  0.37602  0.38319  0.87859  1.0000
  H   H3312     1.0  0.39143  0.36629  0.89183  1.0000
  H   H3313     1.0  0.37396  0.38567  0.92477  1.0000
  H   H3314     1.0  0.35864  0.40204  0.91193  1.0000
  C   C1887     1.0  0.43053  0.32047  0.96396  1.0000
  H   H3315     1.0  0.28686  0.40802  0.97688  1.0000
  H   H3316     1.0  0.36469  0.47094  0.95919  1.0000
  H   H3317     1.0  0.47037  0.27876  0.94359  1.0000
  C   C1888     1.0  0.43068  0.37956  0.90385  1.0000
  C   C1889     1.0  0.44211  0.32447  0.95622  1.0000
  C   C1890     1.0  0.28894  0.47047  0.96399  1.0000
  H   H3318     1.0  0.38801  0.47035  0.92068  1.0000
  H   H3319     1.0  0.40372  0.23746  0.95592  1.0000
  S   S423      1.0  0.33417  0.44331  0.89078  1.0000
  C   C1891     1.0  0.46152  0.24917  0.96044  1.0000
  C   C1892     1.0  0.25814  0.46223  0.94406  1.0000
  H   H3320     1.0  0.35100  0.35912  0.88841  1.0000
  H   H3321     1.0  0.43249  0.36211  0.98155  1.0000
  H   H3322     1.0  0.46150  0.28475  0.90332  1.0000
  H   H3323     1.0  0.28528  0.45062  0.97359  1.0000
  H   H3324     1.0  0.43365  0.37121  0.96444  1.0000
  S   S424      1.0  0.23856  0.44469  0.90996  1.0000
  H   H3325     1.0  0.44350  0.28406  0.96332  1.0000
  C   C1893     1.0  0.24126  0.47774  0.98187  1.0000
  C   C1894     1.0  0.27312  0.41998  0.90999  1.0000
  C   C1895     1.0  0.28048  0.41580  0.91993  1.0000
  C   C1896     1.0  0.28886  0.42355  0.92039  1.0000
  C   C1897     1.0  0.29015  0.43526  0.91068  1.0000
  C   C1898     1.0  0.28336  0.43900  0.90036  1.0000
  C   C1899     1.0  0.27465  0.43155  0.90016  1.0000
  H   H3326     1.0  0.27923  0.40690  0.92760  1.0000
  H   H3327     1.0  0.33583  0.44238  0.95979  1.0000
  H   H3328     1.0  0.28462  0.44782  0.89264  1.0000
  H   H3329     1.0  0.26911  0.43473  0.89237  1.0000
  H   H3330     1.0  0.34233  0.38328  0.88280  1.0000
  C   C1900     1.0  0.47103  0.37244  0.97651  1.0000
  C   C1901     1.0  0.26275  0.46698  0.91485  1.0000
  C   C1902     1.0  0.24865  0.47008  0.92377  1.0000
  H   H3331     1.0  0.46312  0.32824  0.92671  1.0000
  C   C1903     1.0  0.30607  0.43588  0.95058  1.0000
  H   H3332     1.0  0.32447  0.37815  0.95421  1.0000
  C   C1904     1.0  0.42318  0.26646  0.91966  1.0000
  C   C1905     1.0  0.41609  0.27836  0.92357  1.0000
  C   C1906     1.0  0.41872  0.29061  0.91576  1.0000
  C   C1907     1.0  0.38759  0.38842  0.95450  1.0000
  H   H3333     1.0  0.26761  0.42739  0.95284  1.0000
  H   H3334     1.0  0.45076  0.26005  0.93461  1.0000
  H   H3335     1.0  0.40861  0.27810  0.93274  1.0000
  H   H3336     1.0  0.41330  0.29969  0.91898  1.0000
  H   H3337     1.0  0.44472  0.26158  0.97121  1.0000
  H   H3338     1.0  0.42935  0.38926  0.91979  1.0000
  H   H3339     1.0  0.31700  0.46177  0.86984  1.0000
  C   C1908     1.0  0.46332  0.36074  0.95416  1.0000
  S   S425      1.0  0.43194  0.30642  0.89428  1.0000
  C   C1909     1.0  0.39625  0.36383  0.95864  1.0000
  H   H3340     1.0  0.30751  0.47472  0.85903  1.0000
  H   H3341     1.0  0.38096  0.46057  0.94486  1.0000
  H   H3342     1.0  0.30657  0.38239  0.97070  1.0000
  Fe  Fe215     1.0  0.24363  0.42488  0.90446  1.0000
  H   H3343     1.0  0.37802  0.40312  0.93173  1.0000
  H   H3344     1.0  0.27091  0.46401  0.97576  1.0000
  H   H3345     1.0  0.27266  0.46853  0.89395  1.0000
  H   H3346     1.0  0.44089  0.25227  0.96201  1.0000
  H   H3347     1.0  0.37904  0.34611  0.94898  1.0000
  C   C1910     1.0  0.41860  0.38925  0.89870  1.0000
  C   C1911     1.0  0.28991  0.39739  0.97636  1.0000
  H   H3348     1.0  0.40557  0.38781  0.96737  1.0000
  H   H3349     1.0  0.32854  0.38016  0.97544  1.0000
  C   C1912     1.0  0.38438  0.37481  0.97727  1.0000
  H   H3350     1.0  0.24269  0.47884  0.91799  1.0000
  H   H3351     1.0  0.30175  0.40796  0.86805  1.0000
  H   H3352     1.0  0.42916  0.26685  0.94597  1.0000
  C   C1913     1.0  0.30170  0.47595  0.88000  1.0000
  C   C1914     1.0  0.31606  0.41213  0.96063  1.0000
  H   H3353     1.0  0.40708  0.38216  0.86730  1.0000
  C   C1915     1.0  0.39375  0.24283  0.96031  1.0000
  H   H3354     1.0  0.40163  0.46623  0.97701  1.0000
  H   H3355     1.0  0.45423  0.40415  0.87172  1.0000
  C   C1916     1.0  0.38811  0.40386  0.93161  1.0000
  C   C1917     1.0  0.41968  0.37727  0.88195  1.0000
  H   H3356     1.0  0.46655  0.27465  0.96163  1.0000
  H   H3357     1.0  0.48233  0.35500  0.94128  1.0000
  S   S426      1.0  0.33037  0.44558  0.92205  1.0000
  H   H3358     1.0  0.28332  0.48011  0.95906  1.0000
  Fe  Fe216     1.0  0.34476  0.44962  0.90254  1.0000
  H   H3359     1.0  0.48422  0.35725  0.89965  1.0000
  H   H3360     1.0  0.41384  0.37862  0.95481  1.0000
  H   H3361     1.0  0.39975  0.35488  0.96612  1.0000
  C   C1918     1.0  0.40622  0.40001  0.88065  1.0000
  H   H3362     1.0  0.39375  0.40556  0.92111  1.0000
  H   H3363     1.0  0.30884  0.43388  0.94039  1.0000
  H   H3364     1.0  0.25597  0.44507  0.93757  1.0000
  H   H3365     1.0  0.44354  0.28394  0.92290  1.0000
  S   S427      1.0  0.35005  0.46973  0.89440  1.0000
  H   H3366     1.0  0.42233  0.26774  0.97070  1.0000
  C   C1919     1.0  0.43153  0.27468  0.94939  1.0000
  H   H3367     1.0  0.31412  0.43933  0.95229  1.0000
  C   C1920     1.0  0.41730  0.37692  0.86836  1.0000
  H   H3368     1.0  0.46503  0.32194  0.89652  1.0000
  H   H3369     1.0  0.33074  0.45608  0.94667  1.0000
  C   C1921     1.0  0.26885  0.43772  0.95127  1.0000
  H   H3370     1.0  0.45899  0.29916  0.96143  1.0000
  C   C1922     1.0  0.31396  0.38896  0.92813  1.0000
  H   H3371     1.0  0.43220  0.40926  0.88675  1.0000
  C   C1923     1.0  0.30340  0.42330  0.96098  1.0000
  H   H3372     1.0  0.34629  0.36657  0.95996  1.0000
  C   C1924     1.0  0.39521  0.39106  0.93972  1.0000
  H   H3373     1.0  0.41210  0.35744  0.87536  1.0000
  H   H3374     1.0  0.30595  0.42413  0.87696  1.0000
  H   H3375     1.0  0.40525  0.39240  0.93887  1.0000
  H   H3376     1.0  0.40956  0.38572  0.90499  1.0000
  C   C1925     1.0  0.47734  0.36297  0.94699  1.0000
  H   H3377     1.0  0.24385  0.46178  0.92484  1.0000
  H   H3378     1.0  0.44005  0.38257  0.89805  1.0000
  N   N105      1.0  0.39380  0.37628  0.96377  1.0000
  H   H3379     1.0  0.25837  0.48140  0.89698  1.0000
  C   C1926     1.0  0.44703  0.32706  0.97603  1.0000
  H   H3380     1.0  0.34086  0.36318  0.87638  1.0000
  H   H3381     1.0  0.37949  0.24224  0.97875  1.0000
  H   H3382     1.0  0.44518  0.29212  0.94639  1.0000
  C   C1927     1.0  0.40684  0.37811  0.96470  1.0000
  H   H3383     1.0  0.37735  0.38800  0.95461  1.0000
  H   H3384     1.0  0.28018  0.40468  0.86761  1.0000
  H   H3385     1.0  0.41767  0.39890  0.90114  1.0000
  H   H3386     1.0  0.38643  0.39759  0.95803  1.0000
  C   C1928     1.0  0.30924  0.48241  0.90298  1.0000
  C   C1929     1.0  0.46575  0.29536  0.95272  1.0000
  C   C1930     1.0  0.34450  0.47464  0.91970  1.0000
  H   H3387     1.0  0.39832  0.39431  0.88329  1.0000
  C   C1931     1.0  0.38240  0.46862  0.97264  1.0000
  H   H3388     1.0  0.33467  0.42769  0.86802  1.0000
  C   C1932     1.0  0.44604  0.41195  0.86800  1.0000
  C   C1933     1.0  0.44898  0.28265  0.95317  1.0000
  C   C1934     1.0  0.42959  0.37926  0.91850  1.0000
  H   H3389     1.0  0.37433  0.37530  0.97608  1.0000
  H   H3390     1.0  0.34463  0.46416  0.92353  1.0000
  C   C1935     1.0  0.47247  0.34329  0.91236  1.0000
  N   N106      1.0  0.44591  0.27100  0.95019  1.0000
  H   H3391     1.0  0.29975  0.42579  0.97095  1.0000
  H   H3392     1.0  0.39640  0.34611  0.94423  1.0000
  C   C1936     1.0  0.42127  0.27677  0.96255  1.0000
  C   C1937     1.0  0.32084  0.45842  0.96694  1.0000
  H   H3393     1.0  0.27727  0.39721  0.88524  1.0000
  H   H3394     1.0  0.25725  0.46403  0.95406  1.0000
  H   H3395     1.0  0.46461  0.26398  0.93711  1.0000
  H   H3396     1.0  0.38244  0.39549  0.97919  1.0000
  S   S428      1.0  0.45982  0.34948  0.90341  1.0000
  H   H3397     1.0  0.46001  0.26769  0.90996  1.0000
  H   H3398     1.0  0.45973  0.33009  0.95642  1.0000
  C   C1938     1.0  0.31061  0.38788  0.91556  1.0000
  C   C1939     1.0  0.34536  0.37549  0.95166  1.0000
  H   H3399     1.0  0.33629  0.39374  0.96652  1.0000
  C   C1940     1.0  0.46267  0.27616  0.91193  1.0000
  C   C1941     1.0  0.43502  0.27921  0.89958  1.0000
  H   H3400     1.0  0.24802  0.44594  0.95454  1.0000
  C   C1942     1.0  0.30699  0.46796  0.86909  1.0000
  C   C1943     1.0  0.46213  0.23847  0.97335  1.0000
  H   H3401     1.0  0.47319  0.27335  0.91270  1.0000
  H   H3402     1.0  0.30090  0.39066  0.87356  1.0000
  C   C1944     1.0  0.45364  0.28006  0.92471  1.0000
  H   H3403     1.0  0.37548  0.36162  0.96384  1.0000
  H   H3404     1.0  0.44699  0.42175  0.86881  1.0000
  C   C1945     1.0  0.44768  0.25872  0.96135  1.0000
  H   H3405     1.0  0.46370  0.35151  0.96205  1.0000
  N   N107      1.0  0.31487  0.39889  0.97008  1.0000
  H   H3406     1.0  0.38656  0.46184  0.96562  1.0000
  H   H3407     1.0  0.26719  0.45620  0.91757  1.0000
  H   H3408     1.0  0.25648  0.46483  0.89796  1.0000
  C   C1946     1.0  0.48346  0.34917  0.90838  1.0000
  H   H3409     1.0  0.45741  0.36938  0.95853  1.0000
  H   H3410     1.0  0.47642  0.30077  0.90894  1.0000
  H   H3411     1.0  0.24475  0.41422  0.95295  1.0000
  C   C1947     1.0  0.40716  0.27993  0.96059  1.0000
  H   H3412     1.0  0.27823  0.41455  0.87947  1.0000
  H   H3413     1.0  0.29748  0.46674  0.95642  1.0000
  C   C1948     1.0  0.42717  0.37020  0.97458  1.0000
  H   H3414     1.0  0.31987  0.44036  0.86631  1.0000
  H   H3415     1.0  0.41244  0.37222  0.89000  1.0000
  H   H3416     1.0  0.43134  0.36923  0.90321  1.0000
  C   C1949     1.0  0.47155  0.33282  0.92361  1.0000
  H   H3417     1.0  0.42053  0.37589  0.92480  1.0000
  H   H3418     1.0  0.31312  0.45313  0.96765  1.0000
  H   H3419     1.0  0.29561  0.42032  0.95827  1.0000
  H   H3420     1.0  0.42959  0.37073  0.88271  1.0000
  C   C1950     1.0  0.37908  0.47553  0.92695  1.0000
  C   C1951     1.0  0.46365  0.28183  0.95266  1.0000
  H   H3421     1.0  0.41714  0.36262  0.85749  1.0000
  H   H3422     1.0  0.42515  0.37970  0.97780  1.0000
  H   H3423     1.0  0.29189  0.48217  0.87852  1.0000
  H   H3424     1.0  0.29390  0.42077  0.92852  1.0000
  H   H3425     1.0  0.42226  0.24139  0.96627  1.0000
  H   H3426     1.0  0.30997  0.39921  0.92990  1.0000
  H   H3427     1.0  0.39611  0.38277  0.93501  1.0000
  H   H3428     1.0  0.31626  0.42396  0.88767  1.0000
  H   H3429     1.0  0.38732  0.41257  0.93573  1.0000
  H   H3430     1.0  0.40441  0.36380  0.94953  1.0000
  H   H3431     1.0  0.32461  0.42745  0.85709  1.0000
  H   H3432     1.0  0.26964  0.43911  0.96092  1.0000
  C   C1952     1.0  0.48026  0.37512  0.96239  1.0000
  H   H3433     1.0  0.46390  0.30270  0.94340  1.0000
  H   H3434     1.0  0.32485  0.38640  0.92711  1.0000
  H   H3435     1.0  0.30391  0.39624  0.95719  1.0000
  H   H3436     1.0  0.27945  0.40074  0.96053  1.0000
  H   H3437     1.0  0.39003  0.47281  0.94208  1.0000
  H   H3438     1.0  0.34136  0.45763  0.95644  1.0000
  H   H3439     1.0  0.43062  0.39714  0.86440  1.0000
  H   H3440     1.0  0.33450  0.35611  0.89378  1.0000
  C   C1953     1.0  0.25691  0.44758  0.94659  1.0000
  C   C1954     1.0  0.38153  0.48332  0.96482  1.0000
  H   H3441     1.0  0.48041  0.32068  0.94002  1.0000
  H   H3442     1.0  0.44699  0.41225  0.85730  1.0000
  H   H3443     1.0  0.40698  0.41716  0.88816  1.0000
  H   H3444     1.0  0.35282  0.38121  0.95083  1.0000
  H   H3445     1.0  0.29702  0.44391  0.95111  1.0000
  H   H3446     1.0  0.38905  0.33948  0.96134  1.0000
  H   H3447     1.0  0.40005  0.28142  0.97010  1.0000
  C   C1955     1.0  0.39976  0.41178  0.88781  1.0000
  Fe  Fe217     1.0  0.44240  0.33959  0.91149  1.0000
  N   N108      1.0  0.48610  0.36349  0.95557  1.0000
  H   H3448     1.0  0.31937  0.41097  0.95013  1.0000
  H   H3449     1.0  0.34755  0.37214  0.94216  1.0000
  N   N109      1.0  0.41887  0.39087  0.88412  1.0000
  H   H3450     1.0  0.40770  0.40403  0.86965  1.0000
  H   H3451     1.0  0.29967  0.38993  0.91723  1.0000
  H   H3452     1.0  0.42432  0.38160  0.85982  1.0000
  H   H3453     1.0  0.30951  0.38192  0.93691  1.0000
  S   S429      1.0  0.44278  0.31779  0.91947  1.0000
  C   C1956     1.0  0.41910  0.36260  0.86716  1.0000
  S   S430      1.0  0.42888  0.34280  0.89778  1.0000
  H   H3454     1.0  0.27807  0.43894  0.94361  1.0000
  H   H3455     1.0  0.37265  0.46665  0.97843  1.0000
  H   H3456     1.0  0.46952  0.25450  0.95853  1.0000
  H   H3457     1.0  0.32391  0.41599  0.96228  1.0000
  H   H3458     1.0  0.44237  0.27954  0.89029  1.0000
  H   H3459     1.0  0.47935  0.34845  0.97277  1.0000
  H   H3460     1.0  0.34049  0.47890  0.93922  1.0000
  H   H3461     1.0  0.40538  0.28920  0.95279  1.0000
  H   H3462     1.0  0.47569  0.37244  0.93945  1.0000
  H   H3463     1.0  0.40538  0.27154  0.95762  1.0000
  H   H3464     1.0  0.44005  0.38812  0.87639  1.0000
  C   C1957     1.0  0.45050  0.32752  0.96231  1.0000
  C   C1958     1.0  0.38922  0.42187  0.88096  1.0000
  C   C1959     1.0  0.42820  0.29109  0.90376  1.0000
  N   N110      1.0  0.24801  0.47253  0.93722  1.0000
  H   H3465     1.0  0.31111  0.40799  0.90495  1.0000
  N   N111      1.0  0.31503  0.39668  0.88986  1.0000
  C   C1960     1.0  0.32113  0.38276  0.88761  1.0000
  C   C1961     1.0  0.30053  0.39985  0.88974  1.0000
  C   C1962     1.0  0.32221  0.40621  0.87892  1.0000
  C   C1963     1.0  0.31632  0.39792  0.90313  1.0000
  H   H3466     1.0  0.46348  0.36710  0.97690  1.0000
  C   C1964     1.0  0.33552  0.37698  0.88965  1.0000
  C   C1965     1.0  0.31624  0.42126  0.87838  1.0000
  C   C1966     1.0  0.29726  0.40051  0.87629  1.0000
  C   C1967     1.0  0.28233  0.40447  0.87725  1.0000
  H   H3467     1.0  0.45700  0.28827  0.92629  1.0000
  C   C1968     1.0  0.34073  0.36299  0.88687  1.0000
  C   C1969     1.0  0.32438  0.42966  0.86672  1.0000
  H   H3468     1.0  0.32139  0.38242  0.87722  1.0000
  H   H3469     1.0  0.31488  0.37567  0.89408  1.0000
  H   H3470     1.0  0.29552  0.39228  0.89732  1.0000
  H   H3471     1.0  0.29547  0.40942  0.89284  1.0000
  H   H3472     1.0  0.32315  0.40429  0.86894  1.0000
  H   H3473     1.0  0.33255  0.40448  0.87993  1.0000
  H   H3474     1.0  0.32686  0.39717  0.90301  1.0000
  H   H3475     1.0  0.46177  0.35140  0.93913  1.0000
  H   H3476     1.0  0.44630  0.35714  0.94970  1.0000
  H   H3477     1.0  0.38128  0.41707  0.88110  1.0000
  Fe  Fe218     1.0  0.42804  0.32131  0.90694  1.0000
  H   H3478     1.0  0.42494  0.41746  0.87235  1.0000
  H   H3479     1.0  0.39364  0.42619  0.87046  1.0000
  H   H3480     1.0  0.43811  0.25770  0.90452  1.0000
  C   C1970     1.0  0.45604  0.35954  0.94430  1.0000
  C   C1971     1.0  0.29316  0.47229  0.97597  1.0000
  H   H3481     1.0  0.44486  0.32471  0.94564  1.0000
  C   C1972     1.0  0.45402  0.26804  0.93688  1.0000
  H   H3482     1.0  0.45445  0.36900  0.93672  1.0000
  C   C1973     1.0  0.38040  0.47147  0.94152  1.0000
  S   S431      1.0  0.42595  0.34570  0.92814  1.0000
  H   H3483     1.0  0.38473  0.43012  0.88633  1.0000
  H   H3484     1.0  0.26836  0.46310  0.93846  1.0000
  C   C1974     1.0  0.41429  0.36693  0.97452  1.0000
  C   C1975     1.0  0.26248  0.47061  0.90004  1.0000
  H   H3485     1.0  0.27733  0.45923  0.95991  1.0000
  C   C1976     1.0  0.38954  0.23658  0.97515  1.0000
  H   H3486     1.0  0.32139  0.47865  0.87821  1.0000
  C   C1977     1.0  0.33294  0.45340  0.95676  1.0000
  C   C1978     1.0  0.28005  0.46047  0.96865  1.0000
  H   H3487     1.0  0.24903  0.47313  0.97467  1.0000
  H   H3488     1.0  0.47472  0.38359  0.95590  1.0000
  H   H3489     1.0  0.31163  0.47012  0.92978  1.0000
  H   H3490     1.0  0.39413  0.25337  0.95904  1.0000
  H   H3491     1.0  0.47226  0.31011  0.88596  1.0000
  C   C1979     1.0  0.48251  0.30765  0.90173  1.0000
  H   H3492     1.0  0.36589  0.41613  0.97875  1.0000
  H   H3493     1.0  0.34640  0.48128  0.97072  1.0000
  C   C1980     1.0  0.36848  0.47879  0.95091  1.0000
  H   H3494     1.0  0.46356  0.24395  0.95219  1.0000
  H   H3495     1.0  0.41698  0.35724  0.97150  1.0000
  C   C1981     1.0  0.42698  0.32014  0.97765  1.0000
  H   H3496     1.0  0.47605  0.29446  0.95338  1.0000
  H   H3497     1.0  0.26948  0.47243  0.91609  1.0000
  H   H3498     1.0  0.45728  0.39179  0.97427  1.0000
  H   H3499     1.0  0.32367  0.45541  0.97665  1.0000
  H   H3500     1.0  0.30051  0.46871  0.88969  1.0000
  C   C1982     1.0  0.27975  0.39445  0.97071  1.0000
  H   H3501     1.0  0.47999  0.32374  0.88422  1.0000
  C   C1983     1.0  0.30420  0.39350  0.96799  1.0000
  S   S432      1.0  0.24423  0.41886  0.97827  1.0000
  H   H3502     1.0  0.30190  0.47606  0.90594  1.0000
  H   H3503     1.0  0.30030  0.46127  0.87029  1.0000
  H   H3504     1.0  0.31900  0.47522  0.90175  1.0000
  H   H3505     1.0  0.31465  0.47652  0.95274  1.0000
  C   C1984     1.0  0.30385  0.47937  0.92832  1.0000
  H   H3506     1.0  0.48574  0.24568  0.97964  1.0000
  H   H3507     1.0  0.32470  0.47793  0.96250  1.0000
  H   H3508     1.0  0.39646  0.23799  0.98036  1.0000
  C   C1985     1.0  0.34711  0.47981  0.90589  1.0000
  H   H3509     1.0  0.36013  0.48337  0.94571  1.0000
  H   H3510     1.0  0.28210  0.38377  0.97031  1.0000
  H   H3511     1.0  0.47104  0.39093  0.98134  1.0000
  C   C1986     1.0  0.34221  0.48298  0.92858  1.0000
  H   H3512     1.0  0.48412  0.31414  0.90732  1.0000
  N   N112      1.0  0.30400  0.47980  0.97250  1.0000
  C   C1987     1.0  0.46384  0.38541  0.98106  1.0000
  H   H3513     1.0  0.37035  0.47257  0.92606  1.0000
  H   H3514     1.0  0.28404  0.47767  0.98179  1.0000
  H   H3515     1.0  0.46035  0.24307  0.98200  1.0000
  H   H3516     1.0  0.30236  0.48462  0.93638  1.0000
  H   H3517     1.0  0.30964  0.51243  0.04122  1.0000
  H   H3518     1.0  0.33205  0.50558  0.06592  1.0000
  H   H3519     1.0  0.32048  0.50266  0.08640  1.0000
  H   H3520     1.0  0.30874  0.51574  0.01125  1.0000
  H   H3521     1.0  0.29650  0.50750  0.05397  1.0000
  H   H3522     1.0  0.35505  0.50222  0.04942  1.0000
  Fe  Fe219     1.0  0.44724  0.61358  0.01004  1.0000
  S   S433      1.0  0.43029  0.61354  0.02816  1.0000
  S   S434      1.0  0.46796  0.60083  0.00650  1.0000
  Fe  Fe220     1.0  0.43097  0.63555  0.99260  1.0000
  S   S435      1.0  0.41326  0.63784  0.00919  1.0000
  H   H3523     1.0  0.28979  0.52905  0.05597  1.0000
  Fe  Fe221     1.0  0.42763  0.63595  0.02150  1.0000
  S   S436      1.0  0.42409  0.64991  0.03521  1.0000
  Fe  Fe222     1.0  0.41728  0.61544  0.01399  1.0000
  S   S437      1.0  0.39943  0.60930  0.01207  1.0000
  S   S438      1.0  0.44515  0.63572  0.00426  1.0000
  S   S439      1.0  0.43460  0.61347  0.99670  1.0000
  Fe  Fe223     1.0  0.35794  0.53843  0.00072  1.0000
  S   S440      1.0  0.35194  0.53818  0.02265  1.0000
  S   S441      1.0  0.27147  0.52261  0.98496  1.0000
  Fe  Fe224     1.0  0.34785  0.56834  0.99306  1.0000
  S   S442      1.0  0.34123  0.57047  0.01433  1.0000
  H   H3524     1.0  0.44413  0.64099  0.05105  1.0000
  Fe  Fe225     1.0  0.36061  0.55643  0.01691  1.0000
  S   S443      1.0  0.37475  0.55797  0.02840  1.0000
  Fe  Fe226     1.0  0.33319  0.55220  0.01786  1.0000
  S   S444      1.0  0.31196  0.55209  0.02894  1.0000
  S   S445      1.0  0.36787  0.55569  0.99523  1.0000
  S   S446      1.0  0.33855  0.55102  0.99640  1.0000
  Fe  Fe227     1.0  0.43320  0.72503  0.01419  1.0000
  S   S447      1.0  0.45442  0.72443  0.01316  1.0000
  S   S448      1.0  0.42815  0.70947  0.00706  1.0000
  H   H3525     1.0  0.29409  0.48742  0.01629  1.0000
  H   H3526     1.0  0.48665  0.61639  0.98508  1.0000
  H   H3527     1.0  0.45221  0.62811  0.04190  1.0000
  H   H3528     1.0  0.40808  0.57149  0.00123  1.0000
  C   C1988     1.0  0.35944  0.50693  0.00083  1.0000
  C   C1989     1.0  0.34634  0.50998  0.00775  1.0000
  C   C1990     1.0  0.33925  0.49988  0.01380  1.0000
  C   C1991     1.0  0.45542  0.68843  0.03828  1.0000
  H   H3529     1.0  0.30592  0.49771  0.10862  1.0000
  H   H3530     1.0  0.34173  0.52016  0.00835  1.0000
  H   H3531     1.0  0.32905  0.50234  0.01895  1.0000
  H   H3532     1.0  0.31364  0.56677  0.98436  1.0000
  C   C1992     1.0  0.30337  0.54258  0.02474  1.0000
  H   H3533     1.0  0.45478  0.64889  0.02633  1.0000
  H   H3534     1.0  0.39455  0.68099  0.98342  1.0000
  H   H3535     1.0  0.36116  0.65313  0.98969  1.0000
  H   H3536     1.0  0.28416  0.55294  0.03367  1.0000
  C   C1993     1.0  0.39307  0.59469  0.01679  1.0000
  C   C1994     1.0  0.38285  0.59464  0.01107  1.0000
  C   C1995     1.0  0.37732  0.58339  0.01439  1.0000
  C   C1996     1.0  0.38178  0.57213  0.02372  1.0000
  C   C1997     1.0  0.39197  0.57216  0.02953  1.0000
  C   C1998     1.0  0.39763  0.58339  0.02607  1.0000
  H   H3537     1.0  0.37914  0.60341  0.00404  1.0000
  H   H3538     1.0  0.36941  0.58351  0.00995  1.0000
  H   H3539     1.0  0.39538  0.56352  0.03685  1.0000
  H   H3540     1.0  0.40520  0.58341  0.03086  1.0000
  C   C1999     1.0  0.42635  0.66624  0.02757  1.0000
  C   C2000     1.0  0.43084  0.66998  0.01375  1.0000
  C   C2001     1.0  0.43208  0.68315  0.00778  1.0000
  C   C2002     1.0  0.42865  0.69274  0.01548  1.0000
  C   C2003     1.0  0.42470  0.68893  0.02938  1.0000
  C   C2004     1.0  0.42357  0.67568  0.03541  1.0000
  H   H3541     1.0  0.43310  0.66282  0.00762  1.0000
  H   H3542     1.0  0.43564  0.68602  0.99710  1.0000
  H   H3543     1.0  0.42200  0.69629  0.03540  1.0000
  H   H3544     1.0  0.42014  0.67282  0.04612  1.0000
  C   C2005     1.0  0.30636  0.54289  0.98482  1.0000
  H   H3545     1.0  0.47302  0.64765  0.99735  1.0000
  C   C2006     1.0  0.43079  0.58052  0.99500  1.0000
  C   C2007     1.0  0.31020  0.53223  0.01822  1.0000
  H   H3546     1.0  0.46027  0.63107  0.05316  1.0000
  H   H3547     1.0  0.35527  0.50802  0.03185  1.0000
  H   H3548     1.0  0.44325  0.58500  0.01330  1.0000
  H   H3549     1.0  0.47672  0.68363  0.03105  1.0000
  H   H3550     1.0  0.43081  0.55381  0.99815  1.0000
  H   H3551     1.0  0.32282  0.48891  0.04383  1.0000
  H   H3552     1.0  0.42050  0.58668  0.99650  1.0000
  H   H3553     1.0  0.44238  0.56446  0.00811  1.0000
  C   C2008     1.0  0.33556  0.51028  0.04464  1.0000
  H   H3554     1.0  0.33551  0.52065  0.04472  1.0000
  C   C2009     1.0  0.31210  0.49107  0.04849  1.0000
  C   C2010     1.0  0.30179  0.58397  0.99139  1.0000
  S   S449      1.0  0.36815  0.51971  0.99301  1.0000
  H   H3555     1.0  0.48279  0.67833  0.00322  1.0000
  C   C2011     1.0  0.47863  0.60287  0.01527  1.0000
  C   C2012     1.0  0.47358  0.60752  0.02708  1.0000
  C   C2013     1.0  0.46048  0.65819  0.03913  1.0000
  H   H3556     1.0  0.29677  0.50113  0.07623  1.0000
  H   H3557     1.0  0.38224  0.66405  0.99011  1.0000
  H   H3558     1.0  0.46300  0.60976  0.03098  1.0000
  H   H3559     1.0  0.47180  0.69160  0.01070  1.0000
  H   H3560     1.0  0.47207  0.69570  0.98674  1.0000
  H   H3561     1.0  0.29145  0.58871  0.99536  1.0000
  C   C2014     1.0  0.28259  0.53687  0.02610  1.0000
  H   H3562     1.0  0.25394  0.56999  0.00083  1.0000
  H   H3563     1.0  0.40694  0.56912  0.98560  1.0000
  C   C2015     1.0  0.29444  0.52893  0.06407  1.0000
  C   C2016     1.0  0.30332  0.52396  0.01600  1.0000
  H   H3564     1.0  0.45787  0.69412  0.05541  1.0000
  H   H3565     1.0  0.32059  0.57917  0.99732  1.0000
  C   C2017     1.0  0.47226  0.68306  0.00653  1.0000
  C   C2018     1.0  0.30758  0.50022  0.07480  1.0000
  H   H3566     1.0  0.34081  0.65324  0.98425  1.0000
  C   C2019     1.0  0.46877  0.67807  0.03652  1.0000
  C   C2020     1.0  0.28950  0.52622  0.01995  1.0000
  H   H3567     1.0  0.47052  0.64040  0.03031  1.0000
  C   C2021     1.0  0.45387  0.63591  0.04583  1.0000
  H   H3568     1.0  0.32083  0.53036  0.01527  1.0000
  C   C2022     1.0  0.31011  0.58400  0.00080  1.0000
  H   H3569     1.0  0.43449  0.57507  0.02782  1.0000
  S   S450      1.0  0.28132  0.51455  0.01884  1.0000
  C   C2023     1.0  0.29698  0.48548  0.99595  1.0000
  H   H3570     1.0  0.45002  0.66379  0.04081  1.0000
  C   C2024     1.0  0.30428  0.49487  0.10006  1.0000
  H   H3571     1.0  0.40899  0.54768  0.01132  1.0000
  H   H3572     1.0  0.47828  0.61210  0.04342  1.0000
  H   H3573     1.0  0.29807  0.53845  0.99157  1.0000
  H   H3574     1.0  0.45406  0.67730  0.01889  1.0000
  H   H3575     1.0  0.35050  0.49254  0.04058  1.0000
  H   H3576     1.0  0.28106  0.54755  0.06758  1.0000
  C   C2025     1.0  0.29187  0.54329  0.06550  1.0000
  C   C2026     1.0  0.24233  0.48909  0.98517  1.0000
  H   H3577     1.0  0.29386  0.49186  0.04287  1.0000
  H   H3578     1.0  0.42540  0.58946  0.01813  1.0000
  C   C2027     1.0  0.30472  0.48927  0.03906  1.0000
  C   C2028     1.0  0.46045  0.64580  0.03433  1.0000
  H   H3579     1.0  0.41409  0.62723  0.98408  1.0000
  C   C2029     1.0  0.40594  0.55204  0.00162  1.0000
  H   H3580     1.0  0.27194  0.53852  0.02943  1.0000
  C   C2030     1.0  0.34526  0.48663  0.01309  1.0000
  C   C2031     1.0  0.28952  0.54496  0.02857  1.0000
  C   C2032     1.0  0.43411  0.58101  0.01753  1.0000
  H   H3581     1.0  0.29587  0.54366  0.07387  1.0000
  H   H3582     1.0  0.33104  0.49253  0.05949  1.0000
  H   H3583     1.0  0.29653  0.54954  0.05615  1.0000
  C   C2033     1.0  0.46631  0.68868  0.99418  1.0000
  C   C2034     1.0  0.43313  0.57223  0.00893  1.0000
  H   H3584     1.0  0.40246  0.68189  0.00864  1.0000
  S   S451      1.0  0.23966  0.53073  0.98477  1.0000
  C   C2035     1.0  0.30316  0.56965  0.98977  1.0000
  H   H3585     1.0  0.38683  0.67979  0.00754  1.0000
  H   H3586     1.0  0.31451  0.52529  0.06710  1.0000
  C   C2036     1.0  0.34996  0.50277  0.04151  1.0000
  H   H3587     1.0  0.42477  0.56725  0.01430  1.0000
  H   H3588     1.0  0.30477  0.51429  0.08759  1.0000
  H   H3589     1.0  0.30971  0.59441  0.00104  1.0000
  H   H3590     1.0  0.44720  0.68359  0.04444  1.0000
  H   H3591     1.0  0.30979  0.49020  0.00578  1.0000
  H   H3592     1.0  0.46580  0.66460  0.01189  1.0000
  H   H3593     1.0  0.45292  0.69386  0.02851  1.0000
  C   C2037     1.0  0.25956  0.57065  0.00781  1.0000
  C   C2038     1.0  0.30949  0.52279  0.06063  1.0000
  H   H3594     1.0  0.39497  0.55473  0.00368  1.0000
  H   H3595     1.0  0.34038  0.50397  0.98536  1.0000
  H   H3596     1.0  0.30245  0.56290  0.99988  1.0000
  H   H3597     1.0  0.26141  0.56088  0.01492  1.0000
  Fe  Fe228     1.0  0.26529  0.52133  0.00710  1.0000
  N   N113      1.0  0.31315  0.50802  0.06120  1.0000
  H   H3598     1.0  0.33202  0.49045  0.99034  1.0000
  C   C2039     1.0  0.36551  0.49369  0.00009  1.0000
  H   H3599     1.0  0.45598  0.69429  0.99695  1.0000
  H   H3600     1.0  0.48387  0.64228  0.04400  1.0000
  S   S452      1.0  0.25039  0.50902  0.01036  1.0000
  C   C2040     1.0  0.28157  0.56397  0.99230  1.0000
  C   C2041     1.0  0.32802  0.50354  0.05839  1.0000
  H   H3601     1.0  0.38224  0.64684  0.99846  1.0000
  H   H3602     1.0  0.45278  0.72460  0.98777  1.0000
  H   H3603     1.0  0.27759  0.57555  0.00743  1.0000
  H   H3604     1.0  0.28933  0.52328  0.07355  1.0000
  H   H3605     1.0  0.32000  0.67255  0.98667  1.0000
  H   H3606     1.0  0.39252  0.59050  0.98478  1.0000
  H   H3607     1.0  0.39586  0.69548  0.98751  1.0000
  H   H3608     1.0  0.47083  0.67373  0.04668  1.0000
  H   H3609     1.0  0.43718  0.58792  0.99149  1.0000
  H   H3610     1.0  0.29323  0.49624  0.99210  1.0000
  H   H3611     1.0  0.31326  0.52834  0.05038  1.0000
  H   H3612     1.0  0.25344  0.57825  0.01359  1.0000
  H   H3613     1.0  0.34274  0.67556  0.98412  1.0000
  H   H3614     1.0  0.46279  0.65489  0.04924  1.0000
  H   H3615     1.0  0.44642  0.70623  0.04623  1.0000
  C   C2042     1.0  0.27261  0.57462  0.00004  1.0000
  N   N114      1.0  0.46941  0.66712  0.02984  1.0000
  H   H3616     1.0  0.29348  0.49596  0.10134  1.0000
  H   H3617     1.0  0.40151  0.66700  0.00447  1.0000
  C   C2043     1.0  0.45601  0.69886  0.04525  1.0000
  C   C2044     1.0  0.30981  0.50385  0.08698  1.0000
  H   H3618     1.0  0.40937  0.54448  0.99538  1.0000
  C   C2045     1.0  0.48222  0.60883  0.03410  1.0000
  C   C2046     1.0  0.39761  0.67792  0.00314  1.0000
  H   H3619     1.0  0.46392  0.70429  0.03935  1.0000
  H   H3620     1.0  0.26191  0.48784  0.05537  1.0000
  S   S453      1.0  0.25019  0.54056  0.00590  1.0000
  C   C2047     1.0  0.30750  0.50540  0.05099  1.0000
  H   H3621     1.0  0.28430  0.55498  0.00007  1.0000
  C   C2048     1.0  0.46480  0.67274  0.01692  1.0000
  N   N115      1.0  0.29380  0.56766  0.98257  1.0000
  H   H3622     1.0  0.31196  0.48939  0.07558  1.0000
  H   H3623     1.0  0.30632  0.57864  0.01110  1.0000
  C   C2049     1.0  0.42666  0.56099  0.98977  1.0000
  C   C2050     1.0  0.41141  0.56450  0.99441  1.0000
  H   H3624     1.0  0.30732  0.49567  0.02900  1.0000
  C   C2051     1.0  0.48358  0.65954  0.02687  1.0000
  H   H3625     1.0  0.31250  0.54423  0.99088  1.0000
  C   C2052     1.0  0.47888  0.63791  0.99510  1.0000
  H   H3626     1.0  0.48502  0.65315  0.01973  1.0000
  S   S454      1.0  0.45367  0.73278  0.04745  1.0000
  H   H3627     1.0  0.47400  0.62997  0.00204  1.0000
  H   H3628     1.0  0.33104  0.51074  0.03641  1.0000
  H   H3629     1.0  0.39677  0.65124  0.98670  1.0000
  H   H3630     1.0  0.37574  0.49133  0.99500  1.0000
  H   H3631     1.0  0.40915  0.70814  0.98671  1.0000
  H   H3632     1.0  0.46639  0.68059  0.98951  1.0000
  H   H3633     1.0  0.42059  0.68255  0.98862  1.0000
  H   H3634     1.0  0.24930  0.48793  0.03374  1.0000
  H   H3635     1.0  0.37540  0.59406  0.98406  1.0000
  C   C2053     1.0  0.40014  0.68473  0.98831  1.0000
  Fe  Fe229     1.0  0.25533  0.54102  0.98396  1.0000
  H   H3636     1.0  0.27032  0.48968  0.03792  1.0000
  C   C2054     1.0  0.38579  0.65361  0.98890  1.0000
  H   H3637     1.0  0.31853  0.52329  0.98346  1.0000
  N   N116      1.0  0.43334  0.57265  0.98449  1.0000
  H   H3638     1.0  0.27552  0.56103  0.98715  1.0000
  Fe  Fe230     1.0  0.25521  0.51205  0.98807  1.0000
  H   H3639     1.0  0.45147  0.55899  0.98865  1.0000
  H   H3640     1.0  0.27017  0.58446  0.99328  1.0000
  Fe  Fe231     1.0  0.25809  0.54269  0.88944  1.0000
  H   H3641     1.0  0.29684  0.49420  0.95605  1.0000
  S   S455      1.0  0.27961  0.53658  0.87923  1.0000
  H   H3642     1.0  0.45110  0.56994  0.95868  1.0000
  C   C2055     1.0  0.47528  0.66736  0.88959  1.0000
  H   H3643     1.0  0.27669  0.56147  0.91653  1.0000
  C   C2056     1.0  0.38477  0.55490  0.87008  1.0000
  Fe  Fe232     1.0  0.43717  0.61039  0.91203  1.0000
  S   S456      1.0  0.43140  0.61820  0.89205  1.0000
  S   S457      1.0  0.45688  0.59976  0.91756  1.0000
  Fe  Fe233     1.0  0.40988  0.62162  0.92710  1.0000
  S   S458      1.0  0.40176  0.63059  0.90874  1.0000
  S   S459      1.0  0.39775  0.62242  0.94782  1.0000
  Fe  Fe234     1.0  0.41242  0.61122  0.90265  1.0000
  S   S460      1.0  0.40023  0.60384  0.89314  1.0000
  Fe  Fe235     1.0  0.42105  0.63689  0.89962  1.0000
  S   S461      1.0  0.42192  0.65743  0.88666  1.0000
  S   S462      1.0  0.41910  0.60173  0.92192  1.0000
  S   S463      1.0  0.42834  0.62959  0.91864  1.0000
  Fe  Fe236     1.0  0.33601  0.55025  0.90193  1.0000
  S   S464      1.0  0.32313  0.54308  0.92155  1.0000
  S   S465      1.0  0.32877  0.55600  0.88278  1.0000
  Fe  Fe237     1.0  0.35890  0.54857  0.91460  1.0000
  S   S466      1.0  0.34765  0.54085  0.93521  1.0000
  S   S467      1.0  0.38007  0.54995  0.91207  1.0000
  Fe  Fe238     1.0  0.34151  0.52805  0.92555  1.0000
  S   S468      1.0  0.34020  0.50663  0.93500  1.0000
  Fe  Fe239     1.0  0.33050  0.55660  0.92895  1.0000
  S   S469      1.0  0.31663  0.57193  0.93983  1.0000
  S   S470      1.0  0.35419  0.53443  0.90539  1.0000
  S   S471      1.0  0.34208  0.56507  0.90897  1.0000
  C   C2057     1.0  0.38663  0.51958  0.93521  1.0000
  H   H3644     1.0  0.39999  0.69938  0.96416  1.0000
  C   C2058     1.0  0.34249  0.49651  0.92371  1.0000
  C   C2059     1.0  0.23815  0.56796  0.93488  1.0000
  H   H3645     1.0  0.47888  0.60584  0.97377  1.0000
  H   H3646     1.0  0.28905  0.49825  0.97170  1.0000
  H   H3647     1.0  0.35294  0.64128  0.95419  1.0000
  C   C2060     1.0  0.34487  0.50170  0.90992  1.0000
  H   H3648     1.0  0.27557  0.56427  0.89500  1.0000
  H   H3649     1.0  0.45870  0.67429  0.94981  1.0000
  H   H3650     1.0  0.31829  0.49953  0.95818  1.0000
  H   H3651     1.0  0.34488  0.51213  0.90604  1.0000
  C   C2061     1.0  0.32517  0.57637  0.94905  1.0000
  C   C2062     1.0  0.32261  0.58959  0.95026  1.0000
  C   C2063     1.0  0.32877  0.59289  0.95849  1.0000
  C   C2064     1.0  0.33722  0.58291  0.96570  1.0000
  C   C2065     1.0  0.33994  0.56981  0.96424  1.0000
  C   C2066     1.0  0.33400  0.56654  0.95588  1.0000
  H   H3652     1.0  0.31578  0.59722  0.94497  1.0000
  H   H3653     1.0  0.32669  0.60306  0.95958  1.0000
  H   H3654     1.0  0.34669  0.56215  0.96951  1.0000
  H   H3655     1.0  0.33586  0.55630  0.95517  1.0000
  C   C2067     1.0  0.39432  0.58903  0.90005  1.0000
  C   C2068     1.0  0.40265  0.57694  0.90446  1.0000
  C   C2069     1.0  0.39802  0.56505  0.90852  1.0000
  C   C2070     1.0  0.38500  0.56521  0.90836  1.0000
  C   C2071     1.0  0.37655  0.57736  0.90439  1.0000
  C   C2072     1.0  0.38132  0.58916  0.89992  1.0000
  H   H3656     1.0  0.41279  0.57670  0.90425  1.0000
  H   H3657     1.0  0.40464  0.55567  0.91149  1.0000
  H   H3658     1.0  0.36649  0.57760  0.90433  1.0000
  H   H3659     1.0  0.37492  0.59847  0.89629  1.0000
  C   C2073     1.0  0.41865  0.66952  0.89607  1.0000
  C   C2074     1.0  0.42075  0.68239  0.88979  1.0000
  H   H3660     1.0  0.40080  0.56511  0.84408  1.0000
  C   C2075     1.0  0.41459  0.66615  0.90994  1.0000
  H   H3661     1.0  0.42368  0.68510  0.87902  1.0000
  H   H3662     1.0  0.41265  0.65639  0.91475  1.0000
  C   C2076     1.0  0.40584  0.62986  0.95491  1.0000
  C   C2077     1.0  0.41165  0.64046  0.94709  1.0000
  H   H3663     1.0  0.48682  0.72044  0.92582  1.0000
  H   H3664     1.0  0.41051  0.64451  0.93693  1.0000
  H   H3665     1.0  0.42108  0.70151  0.89267  1.0000
  S   S472      1.0  0.43154  0.73039  0.89909  1.0000
  C   C2078     1.0  0.34734  0.49335  0.90105  1.0000
  C   C2079     1.0  0.46846  0.61982  0.90034  1.0000
  C   C2080     1.0  0.46919  0.60926  0.91147  1.0000
  C   C2081     1.0  0.34458  0.65939  0.97429  1.0000
  H   H3666     1.0  0.44943  0.70917  0.97649  1.0000
  H   H3667     1.0  0.37997  0.48953  0.97215  1.0000
  H   H3668     1.0  0.46022  0.62227  0.89556  1.0000
  C   C2082     1.0  0.44385  0.67670  0.96805  1.0000
  H   H3669     1.0  0.41278  0.70007  0.94974  1.0000
  C   C2083     1.0  0.29236  0.54291  0.88091  1.0000
  C   C2084     1.0  0.29522  0.54126  0.89336  1.0000
  C   C2085     1.0  0.30641  0.54513  0.89413  1.0000
  C   C2086     1.0  0.31462  0.55091  0.88249  1.0000
  C   C2087     1.0  0.31165  0.55257  0.87011  1.0000
  C   C2088     1.0  0.30077  0.54833  0.86930  1.0000
  H   H3670     1.0  0.28902  0.53667  0.90235  1.0000
  H   H3671     1.0  0.30871  0.54351  0.90370  1.0000
  H   H3672     1.0  0.31797  0.55688  0.86104  1.0000
  H   H3673     1.0  0.29882  0.54934  0.85963  1.0000
  H   H3674     1.0  0.46377  0.64730  0.85742  1.0000
  H   H3675     1.0  0.35188  0.60953  0.93137  1.0000
  H   H3676     1.0  0.44529  0.59123  0.96405  1.0000
  H   H3677     1.0  0.38493  0.68689  0.96171  1.0000
  H   H3678     1.0  0.38250  0.67239  0.93366  1.0000
  H   H3679     1.0  0.28365  0.57083  0.95941  1.0000
  H   H3680     1.0  0.39678  0.51364  0.93227  1.0000
  C   C2089     1.0  0.27915  0.59192  0.95258  1.0000
  C   C2090     1.0  0.39292  0.68477  0.95293  1.0000
  C   C2091     1.0  0.35864  0.49639  0.96378  1.0000
  N   N117      1.0  0.35932  0.65443  0.96971  1.0000
  C   C2092     1.0  0.40945  0.69343  0.95952  1.0000
  Fe  Fe240     1.0  0.42852  0.71282  0.91608  1.0000
  H   H3681     1.0  0.46070  0.70965  0.86494  1.0000
  H   H3682     1.0  0.32262  0.50641  0.86471  1.0000
  C   C2093     1.0  0.24553  0.60587  0.91208  1.0000
  H   H3683     1.0  0.44448  0.69826  0.89239  1.0000
  C   C2094     1.0  0.28055  0.57961  0.96397  1.0000
  H   H3684     1.0  0.37373  0.64571  0.94468  1.0000
  H   H3685     1.0  0.36031  0.52194  0.86681  1.0000
  C   C2095     1.0  0.38095  0.56188  0.84691  1.0000
  H   H3686     1.0  0.35938  0.55288  0.87642  1.0000
  C   C2096     1.0  0.45168  0.70970  0.87311  1.0000
  C   C2097     1.0  0.41375  0.63074  0.97367  1.0000
  H   H3687     1.0  0.24371  0.60674  0.92260  1.0000
  C   C2098     1.0  0.40646  0.68138  0.95637  1.0000
  H   H3688     1.0  0.37657  0.53352  0.86827  1.0000
  C   C2099     1.0  0.45633  0.72020  0.95671  1.0000
  H   H3689     1.0  0.25959  0.58041  0.91539  1.0000
  H   H3690     1.0  0.46577  0.68524  0.87084  1.0000
  H   H3691     1.0  0.24427  0.54680  0.93605  1.0000
  H   H3692     1.0  0.43578  0.68823  0.95068  1.0000
  H   H3693     1.0  0.38405  0.50881  0.95570  1.0000
  C   C2100     1.0  0.37653  0.49926  0.94428  1.0000
  H   H3694     1.0  0.45944  0.63931  0.87479  1.0000
  C   C2101     1.0  0.39570  0.57092  0.82506  1.0000
  H   H3695     1.0  0.38165  0.52241  0.92672  1.0000
  C   C2102     1.0  0.45747  0.68448  0.87979  1.0000
  H   H3696     1.0  0.41015  0.67253  0.92837  1.0000
  H   H3697     1.0  0.37992  0.55011  0.88030  1.0000
  H   H3698     1.0  0.39875  0.58659  0.93731  1.0000
  H   H3699     1.0  0.46212  0.63268  0.96181  1.0000
  H   H3700     1.0  0.47123  0.55254  0.95557  1.0000
  H   H3701     1.0  0.34860  0.53759  0.86372  1.0000
  H   H3702     1.0  0.47991  0.68564  0.89089  1.0000
  C   C2103     1.0  0.28355  0.56719  0.91725  1.0000
  H   H3703     1.0  0.37222  0.60821  0.93745  1.0000
  H   H3704     1.0  0.44816  0.65268  0.91333  1.0000
  C   C2104     1.0  0.46376  0.65897  0.87110  1.0000
  C   C2105     1.0  0.45364  0.65949  0.91456  1.0000
  H   H3705     1.0  0.40174  0.54823  0.88734  1.0000
  H   H3706     1.0  0.45369  0.57494  0.97950  1.0000
  C   C2106     1.0  0.44773  0.66249  0.92846  1.0000
  C   C2107     1.0  0.46369  0.62245  0.96804  1.0000
  S   S473      1.0  0.24589  0.56359  0.88743  1.0000
  H   H3707     1.0  0.47838  0.63454  0.88608  1.0000
  H   H3708     1.0  0.43724  0.66792  0.92924  1.0000
  C   C2108     1.0  0.37092  0.58709  0.94100  1.0000
  H   H3709     1.0  0.39960  0.58351  0.96356  1.0000
  S   S474      1.0  0.25784  0.56023  0.96959  1.0000
  H   H3710     1.0  0.44812  0.55388  0.96809  1.0000
  H   H3711     1.0  0.30733  0.58313  0.89744  1.0000
  C   C2109     1.0  0.45383  0.69768  0.88466  1.0000
  H   H3712     1.0  0.24450  0.58416  0.95485  1.0000
  H   H3713     1.0  0.43040  0.67325  0.95866  1.0000
  H   H3714     1.0  0.26424  0.58849  0.92507  1.0000
  H   H3715     1.0  0.36043  0.59976  0.91899  1.0000
  H   H3716     1.0  0.30687  0.57472  0.91460  1.0000
  H   H3717     1.0  0.42592  0.55645  0.94088  1.0000
  C   C2110     1.0  0.28538  0.55058  0.93927  1.0000
  H   H3718     1.0  0.43059  0.60156  0.97176  1.0000
  H   H3719     1.0  0.43628  0.59343  0.94490  1.0000
  H   H3720     1.0  0.30085  0.49827  0.91455  1.0000
  H   H3721     1.0  0.28761  0.57428  0.87130  1.0000
  C   C2111     1.0  0.43219  0.68209  0.96072  1.0000
  H   H3722     1.0  0.38422  0.56162  0.96436  1.0000
  H   H3723     1.0  0.45307  0.65929  0.95927  1.0000
  C   C2112     1.0  0.31097  0.59428  0.90930  1.0000
  C   C2113     1.0  0.26031  0.60126  0.90654  1.0000
  C   C2114     1.0  0.38562  0.59377  0.97794  1.0000
  H   H3724     1.0  0.38356  0.59858  0.95205  1.0000
  H   H3725     1.0  0.31033  0.52343  0.95128  1.0000
  C   C2115     1.0  0.41310  0.67535  0.91761  1.0000
  Fe  Fe241     1.0  0.44535  0.71900  0.93114  1.0000
  H   H3726     1.0  0.46385  0.73317  0.93836  1.0000
  N   N118      1.0  0.46068  0.67147  0.88975  1.0000
  C   C2116     1.0  0.37585  0.65455  0.94646  1.0000
  H   H3727     1.0  0.36672  0.54527  0.96947  1.0000
  H   H3728     1.0  0.27178  0.59155  0.94731  1.0000
  H   H3729     1.0  0.47666  0.63074  0.94040  1.0000
  H   H3730     1.0  0.30926  0.55904  0.96759  1.0000
  C   C2117     1.0  0.28293  0.56533  0.93235  1.0000
  C   C2118     1.0  0.47866  0.62684  0.89506  1.0000
  H   H3731     1.0  0.43435  0.60975  0.94774  1.0000
  C   C2119     1.0  0.48612  0.63352  0.93938  1.0000
  H   H3732     1.0  0.41402  0.67839  0.94763  1.0000
  H   H3733     1.0  0.44612  0.66314  0.88644  1.0000
  C   C2120     1.0  0.45238  0.67246  0.90352  1.0000
  H   H3734     1.0  0.32190  0.68932  0.97860  1.0000
  C   C2121     1.0  0.28316  0.58135  0.89490  1.0000
  H   H3735     1.0  0.24359  0.50994  0.88840  1.0000
  H   H3736     1.0  0.38639  0.65701  0.96808  1.0000
  S   S475      1.0  0.45390  0.70888  0.94913  1.0000
  S   S476      1.0  0.42364  0.72446  0.93193  1.0000
  C   C2122     1.0  0.28247  0.49593  0.89991  1.0000
  H   H3737     1.0  0.36764  0.57005  0.96559  1.0000
  C   C2123     1.0  0.30806  0.48857  0.91492  1.0000
  H   H3738     1.0  0.35232  0.50282  0.95673  1.0000
  H   H3739     1.0  0.39946  0.56079  0.82291  1.0000
  H   H3740     1.0  0.36449  0.66807  0.97809  1.0000
  C   C2124     1.0  0.42011  0.64093  0.96564  1.0000
  H   H3741     1.0  0.46408  0.66527  0.96503  1.0000
  H   H3742     1.0  0.29532  0.54526  0.93481  1.0000
  H   H3743     1.0  0.28878  0.59218  0.94531  1.0000
  H   H3744     1.0  0.46209  0.66843  0.86357  1.0000
  H   H3745     1.0  0.24748  0.49457  0.87365  1.0000
  H   H3746     1.0  0.46407  0.65417  0.91420  1.0000
  N   N119      1.0  0.28030  0.58138  0.90955  1.0000
  H   H3747     1.0  0.24296  0.48959  0.82659  1.0000
  H   H3748     1.0  0.42451  0.72341  0.97839  1.0000
  H   H3749     1.0  0.36899  0.51831  0.95054  1.0000
  S   S477      1.0  0.24379  0.53571  0.88258  1.0000
  C   C2125     1.0  0.36141  0.60687  0.92428  1.0000
  H   H3750     1.0  0.46940  0.63910  0.97947  1.0000
  S   S478      1.0  0.42993  0.64722  0.97192  1.0000
  H   H3751     1.0  0.42227  0.57431  0.93829  1.0000
  C   C2126     1.0  0.35896  0.62051  0.96307  1.0000
  C   C2127     1.0  0.33758  0.49667  0.98164  1.0000
  H   H3752     1.0  0.34317  0.63560  0.97045  1.0000
  C   C2128     1.0  0.29883  0.49397  0.96578  1.0000
  H   H3753     1.0  0.47865  0.64250  0.95626  1.0000
  S   S479      1.0  0.25682  0.49535  0.97841  1.0000
  C   C2129     1.0  0.41937  0.69163  0.89749  1.0000
  H   H3754     1.0  0.36582  0.67149  0.95543  1.0000
  C   C2130     1.0  0.37262  0.60085  0.93178  1.0000
  H   H3755     1.0  0.44816  0.65303  0.93616  1.0000
  H   H3756     1.0  0.47333  0.56402  0.96392  1.0000
  C   C2131     1.0  0.45565  0.66836  0.96002  1.0000
  H   H3757     1.0  0.42656  0.70799  0.95849  1.0000
  H   H3758     1.0  0.38836  0.65786  0.92659  1.0000
  C   C2132     1.0  0.45832  0.64901  0.86749  1.0000
  H   H3759     1.0  0.38842  0.58045  0.84157  1.0000
  H   H3760     1.0  0.45547  0.60504  0.97165  1.0000
  H   H3761     1.0  0.36178  0.58071  0.85564  1.0000
  C   C2133     1.0  0.40671  0.62512  0.96829  1.0000
  H   H3762     1.0  0.27782  0.54584  0.93840  1.0000
  C   C2134     1.0  0.36836  0.53938  0.86327  1.0000
  H   H3763     1.0  0.44947  0.71904  0.87664  1.0000
  C   C2135     1.0  0.46134  0.73140  0.94915  1.0000
  C   C2136     1.0  0.30381  0.58443  0.90789  1.0000
  H   H3764     1.0  0.27312  0.57017  0.93753  1.0000
  H   H3765     1.0  0.36071  0.50329  0.96866  1.0000
  H   H3766     1.0  0.29051  0.56961  0.93384  1.0000
  C   C2137     1.0  0.41584  0.68796  0.91145  1.0000
  C   C2138     1.0  0.37389  0.54440  0.95984  1.0000
  H   H3767     1.0  0.37050  0.53854  0.95490  1.0000
  H   H3768     1.0  0.28247  0.49470  0.91056  1.0000
  H   H3769     1.0  0.45926  0.65101  0.89234  1.0000
  H   H3770     1.0  0.30296  0.51500  0.94393  1.0000
  H   H3771     1.0  0.39382  0.57566  0.93100  1.0000
  H   H3772     1.0  0.25473  0.54231  0.95532  1.0000
  C   C2139     1.0  0.30329  0.51684  0.95356  1.0000
  H   H3773     1.0  0.45433  0.68037  0.90707  1.0000
  H   H3774     1.0  0.42031  0.60208  0.95269  1.0000
  H   H3775     1.0  0.39636  0.57085  0.86313  1.0000
  H   H3776     1.0  0.39191  0.54653  0.86593  1.0000
  C   C2140     1.0  0.39278  0.56381  0.87232  1.0000
  H   H3777     1.0  0.39216  0.69354  0.94443  1.0000
  H   H3778     1.0  0.32180  0.59023  0.90717  1.0000
  C   C2141     1.0  0.45699  0.66089  0.88554  1.0000
  H   H3779     1.0  0.26530  0.60882  0.90703  1.0000
  C   C2142     1.0  0.28860  0.58970  0.91138  1.0000
  C   C2143     1.0  0.35693  0.53216  0.86871  1.0000
  C   C2144     1.0  0.41882  0.64596  0.95242  1.0000
  C   C2145     1.0  0.39458  0.57752  0.94045  1.0000
  H   H3780     1.0  0.45335  0.66867  0.93050  1.0000
  H   H3781     1.0  0.39162  0.67616  0.94997  1.0000
  C   C2146     1.0  0.26592  0.58732  0.91466  1.0000
  H   H3782     1.0  0.30787  0.59598  0.91963  1.0000
  H   H3783     1.0  0.40203  0.61708  0.97449  1.0000
  C   C2147     1.0  0.35924  0.57703  0.87701  1.0000
  H   H3784     1.0  0.38592  0.55165  0.84544  1.0000
  H   H3785     1.0  0.30885  0.60395  0.90213  1.0000
  H   H3786     1.0  0.42344  0.65401  0.94624  1.0000
  C   C2148     1.0  0.25031  0.50590  0.94376  1.0000
  C   C2149     1.0  0.38036  0.58932  0.95821  1.0000
  H   H3787     1.0  0.41192  0.54984  0.87056  1.0000
  H   H3788     1.0  0.44743  0.68487  0.96937  1.0000
  H   H3789     1.0  0.26156  0.60123  0.89589  1.0000
  H   H3790     1.0  0.29337  0.57561  0.89166  1.0000
  H   H3791     1.0  0.26337  0.57954  0.89401  1.0000
  C   C2150     1.0  0.27399  0.57513  0.89069  1.0000
  H   H3792     1.0  0.36348  0.61603  0.91680  1.0000
  C   C2151     1.0  0.35606  0.59130  0.87891  1.0000
  H   H3793     1.0  0.40526  0.56500  0.95633  1.0000
  H   H3794     1.0  0.31779  0.49043  0.91460  1.0000
  H   H3795     1.0  0.32374  0.53647  0.96986  1.0000
  H   H3796     1.0  0.44321  0.70967  0.86914  1.0000
  C   C2152     1.0  0.41149  0.71241  0.97579  1.0000
  H   H3797     1.0  0.29360  0.56203  0.91272  1.0000
  H   H3798     1.0  0.45753  0.61455  0.95451  1.0000
  H   H3799     1.0  0.38614  0.49467  0.93841  1.0000
  H   H3800     1.0  0.38712  0.57616  0.82037  1.0000
  H   H3801     1.0  0.36077  0.58845  0.94748  1.0000
  C   C2153     1.0  0.37467  0.55812  0.95074  1.0000
  H   H3802     1.0  0.47193  0.71799  0.91347  1.0000
  S   S480      1.0  0.41487  0.69868  0.92162  1.0000
  H   H3803     1.0  0.35579  0.55921  0.86029  1.0000
  H   H3804     1.0  0.34950  0.59192  0.88890  1.0000
  H   H3805     1.0  0.38744  0.52882  0.93742  1.0000
  H   H3806     1.0  0.44875  0.68474  0.87597  1.0000
  C   C2154     1.0  0.40480  0.55541  0.87793  1.0000
  H   H3807     1.0  0.40366  0.57658  0.82048  1.0000
  N   N120      1.0  0.41955  0.68990  0.96796  1.0000
  H   H3808     1.0  0.41916  0.56656  0.92674  1.0000
  S   S481      1.0  0.24947  0.53611  0.91138  1.0000
  H   H3809     1.0  0.37548  0.58194  0.86078  1.0000
  H   H3810     1.0  0.38219  0.59983  0.92437  1.0000
  H   H3811     1.0  0.37104  0.58087  0.93417  1.0000
  H   H3812     1.0  0.28301  0.59162  0.88868  1.0000
  H   H3813     1.0  0.43072  0.70018  0.97420  1.0000
  N   N121      1.0  0.37471  0.56167  0.86150  1.0000
  H   H3814     1.0  0.28626  0.58895  0.97595  1.0000
  C   C2155     1.0  0.48636  0.64661  0.92903  1.0000
  H   H3815     1.0  0.27169  0.57123  0.87263  1.0000
  S   S482      1.0  0.44998  0.70602  0.91666  1.0000
  C   C2156     1.0  0.25034  0.56298  0.95626  1.0000
  C   C2157     1.0  0.41892  0.56576  0.93740  1.0000
  C   C2158     1.0  0.39175  0.57009  0.84013  1.0000
  H   H3816     1.0  0.35556  0.66471  0.95001  1.0000
  H   H3817     1.0  0.37310  0.56555  0.84100  1.0000
  H   H3818     1.0  0.40986  0.56201  0.88014  1.0000
  H   H3819     1.0  0.36514  0.56228  0.94750  1.0000
  H   H3820     1.0  0.36963  0.50299  0.93730  1.0000
  H   H3821     1.0  0.35260  0.61741  0.95845  1.0000
  H   H3822     1.0  0.30538  0.59029  0.98152  1.0000
  C   C2159     1.0  0.36398  0.55381  0.86557  1.0000
  S   S483      1.0  0.34413  0.58667  0.97682  1.0000
  C   C2160     1.0  0.31839  0.50037  0.88679  1.0000
  C   C2161     1.0  0.29448  0.50169  0.89068  1.0000
  C   C2162     1.0  0.48318  0.72557  0.89407  1.0000
  H   H3823     1.0  0.36406  0.57030  0.88509  1.0000
  C   C2163     1.0  0.31926  0.51105  0.87349  1.0000
  H   H3824     1.0  0.36526  0.59436  0.87835  1.0000
  H   H3825     1.0  0.29974  0.58180  0.96455  1.0000
  C   C2164     1.0  0.26939  0.50520  0.89745  1.0000
  H   H3826     1.0  0.46155  0.69872  0.88896  1.0000
  C   C2165     1.0  0.32935  0.51915  0.87216  1.0000
  H   H3827     1.0  0.28481  0.54955  0.95005  1.0000
  H   H3828     1.0  0.36993  0.59239  0.96359  1.0000
  H   H3829     1.0  0.38368  0.64084  0.97786  1.0000
  C   C2166     1.0  0.37697  0.56753  0.95819  1.0000
  C   C2167     1.0  0.36591  0.65716  0.97913  1.0000
  H   H3830     1.0  0.31675  0.50587  0.89475  1.0000
  H   H3831     1.0  0.29425  0.51061  0.89425  1.0000
  H   H3832     1.0  0.29249  0.50582  0.88045  1.0000
  H   H3833     1.0  0.44768  0.65294  0.86731  1.0000
  N   N122      1.0  0.38104  0.58014  0.94948  1.0000
  H   H3834     1.0  0.48121  0.66823  0.87914  1.0000
  H   H3835     1.0  0.47049  0.54774  0.97331  1.0000
  H   H3836     1.0  0.30955  0.51802  0.87298  1.0000
  H   H3837     1.0  0.48001  0.61051  0.95636  1.0000
  C   C2168     1.0  0.40500  0.56544  0.94595  1.0000
  H   H3838     1.0  0.38260  0.55687  0.94168  1.0000
  C   C2169     1.0  0.45340  0.71776  0.97062  1.0000
  H   H3839     1.0  0.40270  0.55600  0.94587  1.0000
  C   C2170     1.0  0.27686  0.57729  0.87547  1.0000
  H   H3840     1.0  0.28260  0.48609  0.89848  1.0000
  H   H3841     1.0  0.26097  0.50103  0.90433  1.0000
  H   H3842     1.0  0.24411  0.49375  0.92878  1.0000
  H   H3843     1.0  0.29333  0.52201  0.95822  1.0000
  H   H3844     1.0  0.26864  0.51508  0.89930  1.0000
  H   H3845     1.0  0.37155  0.53939  0.85246  1.0000
  H   H3846     1.0  0.33941  0.51264  0.87155  1.0000
  H   H3847     1.0  0.32938  0.52713  0.86292  1.0000
  H   H3848     1.0  0.32689  0.52387  0.88084  1.0000
  C   C2171     1.0  0.37869  0.51164  0.94750  1.0000
  H   H3849     1.0  0.44180  0.67567  0.90313  1.0000
  C   C2172     1.0  0.36188  0.63956  0.97107  1.0000
  H   H3850     1.0  0.37145  0.66680  0.92746  1.0000
  H   H3851     1.0  0.28661  0.59990  0.90503  1.0000
  C   C2173     1.0  0.42272  0.70250  0.96874  1.0000
  H   H3852     1.0  0.28578  0.59113  0.92183  1.0000
  C   C2174     1.0  0.31113  0.48491  0.87898  1.0000
  H   H3853     1.0  0.33113  0.50218  0.97451  1.0000
  C   C2175     1.0  0.38904  0.58412  0.96868  1.0000
  C   C2176     1.0  0.36812  0.57573  0.86306  1.0000
  C   C2177     1.0  0.43110  0.60015  0.95192  1.0000
  N   N123      1.0  0.37137  0.48910  0.95620  1.0000
  H   H3854     1.0  0.32835  0.49359  0.88659  1.0000
  C   C2178     1.0  0.32494  0.67882  0.97748  1.0000
  H   H3855     1.0  0.35331  0.53135  0.87963  1.0000
  H   H3856     1.0  0.34969  0.57435  0.87812  1.0000
  H   H3857     1.0  0.38648  0.56989  0.87958  1.0000
  C   C2179     1.0  0.45523  0.72660  0.97704  1.0000
  H   H3858     1.0  0.27335  0.58795  0.87093  1.0000
  C   C2180     1.0  0.47825  0.61468  0.96532  1.0000
  C   C2181     1.0  0.37972  0.66352  0.93275  1.0000
  H   H3859     1.0  0.35092  0.59829  0.87116  1.0000
  C   C2182     1.0  0.45476  0.61521  0.96518  1.0000
  H   H3860     1.0  0.34945  0.49739  0.89040  1.0000
  H   H3861     1.0  0.24948  0.50937  0.95288  1.0000
  C   C2183     1.0  0.41580  0.72537  0.97397  1.0000
  H   H3862     1.0  0.40681  0.67256  0.96481  1.0000
  H   H3863     1.0  0.47458  0.65514  0.87011  1.0000
  H   H3864     1.0  0.37246  0.63538  0.96710  1.0000
  C   C2184     1.0  0.30802  0.50373  0.96297  1.0000
  C   C2185     1.0  0.25015  0.55240  0.95108  1.0000
  H   H3865     1.0  0.42853  0.57598  0.96526  1.0000
  H   H3866     1.0  0.26089  0.48655  0.92874  1.0000
  C   C2186     1.0  0.43439  0.59389  0.96563  1.0000
  N   N124      1.0  0.30795  0.49235  0.88999  1.0000
  H   H3867     1.0  0.33920  0.65824  0.96733  1.0000
  C   C2187     1.0  0.36369  0.66188  0.95548  1.0000
  H   H3868     1.0  0.38761  0.57430  0.97507  1.0000
  S   S484      1.0  0.47153  0.72514  0.88565  1.0000
  H   H3869     1.0  0.47801  0.65658  0.89430  1.0000
  C   C2188     1.0  0.38098  0.65164  0.97755  1.0000
  C   C2189     1.0  0.48062  0.67515  0.89640  1.0000
  C   C2190     1.0  0.25078  0.48617  0.93487  1.0000
  H   H3870     1.0  0.30816  0.50601  0.97244  1.0000
  H   H3871     1.0  0.48537  0.64520  0.91949  1.0000
  H   H3872     1.0  0.47732  0.68330  0.93942  1.0000
  H   H3873     1.0  0.24176  0.61580  0.90605  1.0000
  C   C2191     1.0  0.33997  0.67421  0.97539  1.0000
  C   C2192     1.0  0.23808  0.57843  0.94032  1.0000
  H   H3874     1.0  0.44090  0.67028  0.97803  1.0000
  C   C2193     1.0  0.35342  0.63496  0.96431  1.0000
  H   H3875     1.0  0.24011  0.53507  0.83991  1.0000
  C   C2194     1.0  0.41511  0.68167  0.98170  1.0000
  H   H3876     1.0  0.48347  0.64666  0.97416  1.0000
  C   C2195     1.0  0.45302  0.56190  0.96752  1.0000
  C   C2196     1.0  0.46793  0.55621  0.96499  1.0000
  H   H3877     1.0  0.38374  0.53894  0.96193  1.0000
  H   H3878     1.0  0.27065  0.57960  0.97072  1.0000
  H   H3879     1.0  0.27572  0.60115  0.95653  1.0000
  H   H3880     1.0  0.44434  0.62075  0.96722  1.0000
  C   C2197     1.0  0.29051  0.57988  0.97184  1.0000
  H   H3881     1.0  0.29423  0.55376  0.97089  1.0000
  H   H3882     1.0  0.26861  0.50645  0.88700  1.0000
  Fe  Fe242     1.0  0.45263  0.72484  0.90139  1.0000
  H   H3883     1.0  0.48446  0.72006  0.96636  1.0000
  H   H3884     1.0  0.38449  0.65113  0.95106  1.0000
  H   H3885     1.0  0.41835  0.73020  0.96320  1.0000
  H   H3886     1.0  0.34447  0.68082  0.96623  1.0000
  C   C2198     1.0  0.48550  0.68736  0.93197  1.0000
  H   H3887     1.0  0.47533  0.67474  0.90698  1.0000
  H   H3888     1.0  0.23999  0.59876  0.91158  1.0000
  C   C2199     1.0  0.24429  0.55494  0.94016  1.0000
  C   C2200     1.0  0.31500  0.53275  0.97661  1.0000
  H   H3889     1.0  0.37801  0.48644  0.92307  1.0000
  H   H3890     1.0  0.40247  0.71505  0.97176  1.0000
  H   H3891     1.0  0.31095  0.49195  0.86916  1.0000
  C   C2201     1.0  0.44807  0.56728  0.98055  1.0000
  C   C2202     1.0  0.23969  0.49410  0.88261  1.0000
  H   H3892     1.0  0.48068  0.59780  0.92609  1.0000
  C   C2203     1.0  0.48004  0.60602  0.91751  1.0000
  C   C2204     1.0  0.30086  0.55621  0.97573  1.0000
  C   C2205     1.0  0.34987  0.48780  0.97484  1.0000
  H   H3893     1.0  0.32157  0.67828  0.96875  1.0000
  C   C2206     1.0  0.48059  0.72182  0.90800  1.0000
  H   H3894     1.0  0.48443  0.71228  0.85941  1.0000
  H   H3895     1.0  0.25980  0.50747  0.93675  1.0000
  H   H3896     1.0  0.24196  0.51204  0.93905  1.0000
  C   C2207     1.0  0.24978  0.49115  0.94746  1.0000
  H   H3897     1.0  0.30919  0.53074  0.97062  1.0000
  H   H3898     1.0  0.36909  0.61942  0.95666  1.0000
  H   H3899     1.0  0.24494  0.53397  0.85504  1.0000
  H   H3900     1.0  0.36001  0.63440  0.98183  1.0000
  H   H3901     1.0  0.47804  0.65465  0.93234  1.0000
  C   C2208     1.0  0.42796  0.58172  0.97271  1.0000
  H   H3902     1.0  0.41724  0.58605  0.97589  1.0000
  H   H3903     1.0  0.48115  0.69544  0.92432  1.0000
  H   H3904     1.0  0.35924  0.61384  0.97309  1.0000
  H   H3905     1.0  0.38646  0.60397  0.97212  1.0000
  H   H3906     1.0  0.48554  0.70070  0.94357  1.0000
  C   C2209     1.0  0.24444  0.57600  0.95077  1.0000
  H   H3907     1.0  0.25819  0.48547  0.95226  1.0000
  H   H3908     1.0  0.40763  0.73228  0.97914  1.0000
  H   H3909     1.0  0.41776  0.67089  0.98158  1.0000
  H   H3910     1.0  0.24480  0.48695  0.84346  1.0000
  H   H3911     1.0  0.46036  0.62304  0.97872  1.0000
  C   C2210     1.0  0.47958  0.63785  0.98061  1.0000
  H   H3912     1.0  0.24044  0.49010  0.95489  1.0000
  C   C2211     1.0  0.23735  0.50299  0.89088  1.0000
  C   C2212     1.0  0.23753  0.48887  0.83718  1.0000
  H   H3913     1.0  0.42875  0.55520  0.98197  1.0000
  H   H3914     1.0  0.44939  0.87366  0.23905  1.0000
  Fe  Fe243     1.0  0.42832  0.84887  0.01832  1.0000
  S   S485      1.0  0.41460  0.84928  0.03853  1.0000
  S   S486      1.0  0.42408  0.86135  0.99853  1.0000
  Fe  Fe244     1.0  0.44853  0.82607  0.02934  1.0000
  S   S487      1.0  0.43677  0.82405  0.05035  1.0000
  S   S488      1.0  0.46880  0.81399  0.02351  1.0000
  Fe  Fe245     1.0  0.41952  0.82697  0.04130  1.0000
  S   S489      1.0  0.40397  0.81473  0.04905  1.0000
  Fe  Fe246     1.0  0.43301  0.84644  0.04589  1.0000
  S   S490      1.0  0.43499  0.85416  0.06279  1.0000
  S   S491      1.0  0.43168  0.82682  0.02072  1.0000
  S   S492      1.0  0.44628  0.84813  0.02538  1.0000
  Fe  Fe247     1.0  0.43486  0.92033  0.07857  1.0000
  S   S493      1.0  0.45333  0.92696  0.07690  1.0000
  S   S494      1.0  0.43158  0.91470  0.06099  1.0000
  Fe  Fe248     1.0  0.42398  0.92371  0.10739  1.0000
  S   S495      1.0  0.44160  0.93023  0.10822  1.0000
  S   S496      1.0  0.40698  0.92068  0.12492  1.0000
  Fe  Fe249     1.0  0.44005  0.94271  0.08776  1.0000
  S   S497      1.0  0.44286  0.96389  0.08089  1.0000
  Fe  Fe250     1.0  0.45317  0.91400  0.09737  1.0000
  H   H3915     1.0  0.37578  0.94638  0.10149  1.0000
  S   S498      1.0  0.42142  0.93734  0.08760  1.0000
  S   S499      1.0  0.43567  0.90625  0.09837  1.0000
  Fe  Fe251     1.0  0.42797  0.92188  0.19121  1.0000
  H   H3916     1.0  0.40497  0.91241  0.07457  1.0000
  S   S500      1.0  0.41387  0.91553  0.18335  1.0000
  Fe  Fe252     1.0  0.42920  0.93045  0.21602  1.0000
  C   C2213     1.0  0.37593  0.95944  0.45328  1.0000
  S   S501      1.0  0.41770  0.93855  0.23440  1.0000
  Fe  Fe253     1.0  0.44708  0.93866  0.18939  1.0000
  H   H3917     1.0  0.40036  0.93699  0.42469  1.0000
  H   H3918     1.0  0.40686  0.89266  0.11659  1.0000
  S   S502      1.0  0.42500  0.94174  0.19597  1.0000
  S   S503      1.0  0.42987  0.91075  0.21207  1.0000
  H   H3919     1.0  0.26182  0.89821  0.41150  1.0000
  C   C2214     1.0  0.44300  0.98371  0.20835  1.0000
  S   S504      1.0  0.26561  0.94424  0.39273  1.0000
  C   C2215     1.0  0.47895  0.76313  0.99466  1.0000
  H   H3920     1.0  0.26449  0.93642  0.45405  1.0000
  H   H3921     1.0  0.42133  0.78004  0.05758  1.0000
  H   H3922     1.0  0.46179  0.96745  0.22773  1.0000
  C   C2216     1.0  0.48228  0.82063  0.05219  1.0000
  H   H3923     1.0  0.46970  0.78064  0.03467  1.0000
  H   H3924     1.0  0.41150  0.96988  0.20970  1.0000
  C   C2217     1.0  0.39519  0.75066  0.00165  1.0000
  H   H3925     1.0  0.45037  0.88188  0.25810  1.0000
  Fe  Fe254     1.0  0.32874  0.93212  0.41903  1.0000
  S   S505      1.0  0.34644  0.92150  0.42807  1.0000
  S   S506      1.0  0.31044  0.92354  0.42566  1.0000
  Fe  Fe255     1.0  0.33936  0.95751  0.40695  1.0000
  S   S507      1.0  0.35784  0.94880  0.41463  1.0000
  H   H3926     1.0  0.38006  0.96566  0.47570  1.0000
  Fe  Fe256     1.0  0.35814  0.93060  0.40810  1.0000
  S   S508      1.0  0.37817  0.91936  0.39893  1.0000
  H   H3927     1.0  0.38535  0.85171  0.00389  1.0000
  S   S509      1.0  0.34053  0.93997  0.39861  1.0000
  S   S510      1.0  0.32595  0.95050  0.42624  1.0000
  H   H3928     1.0  0.41889  0.98429  0.31157  1.0000
  Fe  Fe257     1.0  0.44410  0.94896  0.30792  1.0000
  S   S511      1.0  0.44789  0.96938  0.29825  1.0000
  H   H3929     1.0  0.45372  0.80577  0.00818  1.0000
  S   S512      1.0  0.40254  0.94041  0.33758  1.0000
  S   S513      1.0  0.42681  0.94370  0.30468  1.0000
  H   H3930     1.0  0.39600  0.83931  0.02943  1.0000
  H   H3931     1.0  0.39677  0.96717  0.44033  1.0000
  Fe  Fe258     1.0  0.42441  0.75475  0.01608  1.0000
  S   S514      1.0  0.44502  0.75638  0.01451  1.0000
  S   S515      1.0  0.40709  0.77239  0.01647  1.0000
  H   H3932     1.0  0.26174  0.90969  0.37037  1.0000
  C   C2218     1.0  0.47164  0.86258  0.08533  1.0000
  C   C2219     1.0  0.35957  0.92241  0.46348  1.0000
  H   H3933     1.0  0.26396  0.97446  0.47082  1.0000
  H   H3934     1.0  0.33530  0.88329  0.47626  1.0000
  H   H3935     1.0  0.41245  0.76095  0.05393  1.0000
  C   C2220     1.0  0.39619  0.90780  0.07888  1.0000
  H   H3936     1.0  0.48693  0.95036  0.31393  1.0000
  H   H3937     1.0  0.40492  0.91654  0.09607  1.0000
  C   C2221     1.0  0.38186  0.89799  0.09955  1.0000
  C   C2222     1.0  0.47732  0.97076  0.10576  1.0000
  C   C2223     1.0  0.44170  0.88066  0.29508  1.0000
  H   H3938     1.0  0.30851  0.85997  0.40784  1.0000
  H   H3939     1.0  0.38333  0.85417  0.02665  1.0000
  C   C2224     1.0  0.48468  0.89849  0.30041  1.0000
  C   C2225     1.0  0.44187  0.84108  0.98799  1.0000
  H   H3940     1.0  0.37522  0.92578  0.09580  1.0000
  H   H3941     1.0  0.28582  0.95367  0.46788  1.0000
  H   H3942     1.0  0.36544  0.95843  0.45609  1.0000
  C   C2226     1.0  0.44329  0.76771  0.07882  1.0000
  Fe  Fe259     1.0  0.44610  0.73650  0.02892  1.0000
  H   H3943     1.0  0.42460  0.76629  0.09416  1.0000
  C   C2227     1.0  0.38508  0.92546  0.38197  1.0000
  C   C2228     1.0  0.39782  0.91917  0.37610  1.0000
  C   C2229     1.0  0.40338  0.92367  0.36250  1.0000
  C   C2230     1.0  0.39623  0.93452  0.35473  1.0000
  C   C2231     1.0  0.38356  0.94089  0.36065  1.0000
  C   C2232     1.0  0.37801  0.93640  0.37422  1.0000
  H   H3944     1.0  0.40331  0.91065  0.38203  1.0000
  H   H3945     1.0  0.41306  0.91857  0.35797  1.0000
  H   H3946     1.0  0.37795  0.94923  0.35466  1.0000
  H   H3947     1.0  0.36818  0.94127  0.37862  1.0000
  C   C2233     1.0  0.47978  0.93234  0.32258  1.0000
  H   H3948     1.0  0.46037  0.86678  0.29229  1.0000
  S   S516      1.0  0.43625  0.91382  0.32294  1.0000
  H   H3949     1.0  0.46641  0.73606  0.06603  1.0000
  H   H3950     1.0  0.28880  0.91555  0.39774  1.0000
  H   H3951     1.0  0.42441  0.97857  0.26105  1.0000
  C   C2234     1.0  0.47854  0.96339  0.08114  1.0000
  C   C2235     1.0  0.45980  0.93745  0.13287  1.0000
  H   H3952     1.0  0.45482  0.87337  0.09791  1.0000
  H   H3953     1.0  0.33844  0.96913  0.42576  1.0000
  C   C2236     1.0  0.46927  0.85805  0.03693  1.0000
  H   H3954     1.0  0.38856  0.77145  0.99362  1.0000
  H   H3955     1.0  0.39991  0.97026  0.33511  1.0000
  H   H3956     1.0  0.30069  0.98071  0.41410  1.0000
  H   H3957     1.0  0.40745  0.89028  0.07052  1.0000
  C   C2237     1.0  0.30606  0.90133  0.39027  1.0000
  H   H3958     1.0  0.46548  0.85703  0.08315  1.0000
  H   H3959     1.0  0.47131  0.89784  0.25123  1.0000
  H   H3960     1.0  0.39366  0.94938  0.46175  1.0000
  C   C2238     1.0  0.47819  0.81855  0.03173  1.0000
  C   C2239     1.0  0.27746  0.94029  0.40252  1.0000
  C   C2240     1.0  0.29017  0.94266  0.39646  1.0000
  C   C2241     1.0  0.30020  0.93824  0.40373  1.0000
  C   C2242     1.0  0.29764  0.93116  0.41698  1.0000
  C   C2243     1.0  0.28480  0.92927  0.42319  1.0000
  C   C2244     1.0  0.27471  0.93394  0.41602  1.0000
  H   H3961     1.0  0.29235  0.94759  0.38602  1.0000
  H   H3962     1.0  0.31009  0.93970  0.39887  1.0000
  H   H3963     1.0  0.28273  0.92391  0.43349  1.0000
  H   H3964     1.0  0.26493  0.93220  0.42079  1.0000
  H   H3965     1.0  0.27825  0.91203  0.36164  1.0000
  C   C2245     1.0  0.45710  0.86844  0.24492  1.0000
  H   H3966     1.0  0.43874  0.80497  0.98569  1.0000
  H   H3967     1.0  0.44393  0.78262  0.04584  1.0000
  H   H3968     1.0  0.40132  0.75241  0.00749  1.0000
  C   C2246     1.0  0.47327  0.90848  0.03822  1.0000
  H   H3969     1.0  0.47728  0.77064  0.04833  1.0000
  C   C2247     1.0  0.45169  0.96672  0.19031  1.0000
  C   C2248     1.0  0.47353  0.87508  0.07401  1.0000
  H   H3970     1.0  0.41363  0.75123  0.07063  1.0000
  H   H3971     1.0  0.46389  0.89001  0.28286  1.0000
  C   C2249     1.0  0.43830  0.97212  0.21130  1.0000
  C   C2250     1.0  0.44260  0.96371  0.20233  1.0000
  C   C2251     1.0  0.47180  0.78068  0.04421  1.0000
  H   H3972     1.0  0.47064  0.96244  0.13426  1.0000
  H   H3973     1.0  0.48532  0.88893  0.30798  1.0000
  H   H3974     1.0  0.43859  0.95500  0.20475  1.0000
  C   C2252     1.0  0.42550  0.93270  0.24804  1.0000
  N   N125      1.0  0.38232  0.95701  0.43938  1.0000
  H   H3975     1.0  0.48154  0.79827  0.08160  1.0000
  H   H3976     1.0  0.40409  0.90999  0.05157  1.0000
  C   C2253     1.0  0.42495  0.93071  0.27153  1.0000
  C   C2254     1.0  0.41885  0.93575  0.26052  1.0000
  H   H3977     1.0  0.41563  0.89547  0.09123  1.0000
  H   H3978     1.0  0.38660  0.91005  0.05597  1.0000
  H   H3979     1.0  0.41960  0.93251  0.28128  1.0000
  H   H3980     1.0  0.40885  0.94165  0.26177  1.0000
  C   C2255     1.0  0.44041  0.97264  0.09337  1.0000
  H   H3981     1.0  0.38542  0.74969  0.00836  1.0000
  H   H3982     1.0  0.46337  0.89900  0.16404  1.0000
  C   C2256     1.0  0.45401  0.87425  0.28588  1.0000
  C   C2257     1.0  0.43343  0.97474  0.11649  1.0000
  C   C2258     1.0  0.43531  0.96743  0.10680  1.0000
  H   H3983     1.0  0.38777  0.93572  0.44746  1.0000
  H   H3984     1.0  0.39528  0.96384  0.35842  1.0000
  H   H3985     1.0  0.42948  0.97068  0.12684  1.0000
  H   H3986     1.0  0.43268  0.95784  0.10973  1.0000
  C   C2259     1.0  0.40921  0.91994  0.14088  1.0000
  C   C2260     1.0  0.41789  0.92653  0.14277  1.0000
  C   C2261     1.0  0.41954  0.92533  0.15576  1.0000
  C   C2262     1.0  0.41243  0.91762  0.16681  1.0000
  C   C2263     1.0  0.40362  0.91131  0.16484  1.0000
  C   C2264     1.0  0.40197  0.91250  0.15198  1.0000
  H   H3987     1.0  0.42314  0.93269  0.13427  1.0000
  H   H3988     1.0  0.42619  0.93038  0.15727  1.0000
  H   H3989     1.0  0.39801  0.90543  0.17334  1.0000
  H   H3990     1.0  0.39515  0.90750  0.15066  1.0000
  C   C2265     1.0  0.43476  0.87096  0.06158  1.0000
  C   C2266     1.0  0.43229  0.88090  0.05032  1.0000
  C   C2267     1.0  0.43172  0.89427  0.05006  1.0000
  C   C2268     1.0  0.43366  0.89774  0.06101  1.0000
  C   C2269     1.0  0.43666  0.88770  0.07199  1.0000
  C   C2270     1.0  0.43703  0.87441  0.07236  1.0000
  H   H3991     1.0  0.43061  0.87831  0.04193  1.0000
  H   H3992     1.0  0.42954  0.90197  0.04144  1.0000
  H   H3993     1.0  0.43855  0.89017  0.08029  1.0000
  H   H3994     1.0  0.43912  0.86673  0.08103  1.0000
  C   C2271     1.0  0.40522  0.80314  0.03966  1.0000
  C   C2272     1.0  0.41752  0.79597  0.03400  1.0000
  C   C2273     1.0  0.41821  0.78599  0.02743  1.0000
  C   C2274     1.0  0.40662  0.78373  0.02585  1.0000
  C   C2275     1.0  0.39436  0.79121  0.03119  1.0000
  C   C2276     1.0  0.39365  0.80066  0.03831  1.0000
  H   H3995     1.0  0.42645  0.79785  0.03507  1.0000
  H   H3996     1.0  0.42769  0.78026  0.02333  1.0000
  H   H3997     1.0  0.38536  0.78951  0.03002  1.0000
  H   H3998     1.0  0.38411  0.80614  0.04271  1.0000
  C   C2277     1.0  0.45403  0.97495  0.33175  1.0000
  H   H3999     1.0  0.30244  0.87804  0.38859  1.0000
  C   C2278     1.0  0.31484  0.91096  0.38854  1.0000
  H   H4000     1.0  0.36766  0.88066  0.11979  1.0000
  C   C2279     1.0  0.24816  0.96731  0.44412  1.0000
  H   H4001     1.0  0.46623  0.81284  0.05137  1.0000
  C   C2280     1.0  0.48601  0.93424  0.19500  1.0000
  C   C2281     1.0  0.40678  0.97881  0.20302  1.0000
  H   H4002     1.0  0.38636  0.76048  0.98488  1.0000
  C   C2282     1.0  0.43097  0.75933  0.05933  1.0000
  C   C2283     1.0  0.48430  0.78729  0.08261  1.0000
  H   H4003     1.0  0.39857  0.89592  0.05070  1.0000
  H   H4004     1.0  0.35385  0.89853  0.45348  1.0000
  H   H4005     1.0  0.47819  0.78785  0.04211  1.0000
  C   C2284     1.0  0.30087  0.85965  0.40286  1.0000
  C   C2285     1.0  0.46294  0.87648  0.98217  1.0000
  H   H4006     1.0  0.33096  0.92768  0.48080  1.0000
  H   H4007     1.0  0.41847  0.97026  0.42313  1.0000
  C   C2286     1.0  0.25606  0.93639  0.46279  1.0000
  H   H4008     1.0  0.23978  0.97841  0.48018  1.0000
  H   H4009     1.0  0.31159  0.89118  0.39410  1.0000
  H   H4010     1.0  0.25613  0.97225  0.43742  1.0000
  C   C2287     1.0  0.31914  0.96777  0.37848  1.0000
  Fe  Fe260     1.0  0.45154  0.90966  0.20395  1.0000
  H   H4011     1.0  0.40687  0.88342  0.09179  1.0000
  C   C2288     1.0  0.29282  0.90466  0.40031  1.0000
  H   H4012     1.0  0.38564  0.94415  0.41802  1.0000
  H   H4013     1.0  0.41663  0.95246  0.34919  1.0000
  H   H4014     1.0  0.47985  0.87324  0.03371  1.0000
  H   H4015     1.0  0.46757  0.84856  0.04399  1.0000
  H   H4016     1.0  0.39686  0.97487  0.41668  1.0000
  H   H4017     1.0  0.42853  0.93012  0.36066  1.0000
  H   H4018     1.0  0.44061  0.93671  0.36411  1.0000
  H   H4019     1.0  0.25481  0.91412  0.43255  1.0000
  S   S517      1.0  0.23758  0.94815  0.42374  1.0000
  H   H4020     1.0  0.31615  0.97142  0.36873  1.0000
  H   H4021     1.0  0.35843  0.89275  0.12969  1.0000
  N   N126      1.0  0.47728  0.77760  0.98742  1.0000
  H   H4022     1.0  0.27071  0.89385  0.38992  1.0000
  H   H4023     1.0  0.48491  0.79412  0.98781  1.0000
  C   C2289     1.0  0.45546  0.89789  0.15987  1.0000
  H   H4024     1.0  0.47009  0.93825  0.25779  1.0000
  H   H4025     1.0  0.47273  0.95516  0.23733  1.0000
  C   C2290     1.0  0.27034  0.90211  0.41163  1.0000
  H   H4026     1.0  0.47510  0.78345  0.08567  1.0000
  H   H4027     1.0  0.46929  0.86193  0.26533  1.0000
  H   H4028     1.0  0.44201  0.98203  0.24524  1.0000
  H   H4029     1.0  0.47828  0.94389  0.28070  1.0000
  H   H4030     1.0  0.47262  0.74155  0.02356  1.0000
  H   H4031     1.0  0.40046  0.95838  0.41405  1.0000
  H   H4032     1.0  0.42039  0.82692  0.98393  1.0000
  S   S518      1.0  0.47040  0.90957  0.33371  1.0000
  H   H4033     1.0  0.45442  0.91434  0.25613  1.0000
  H   H4034     1.0  0.42410  0.78742  0.09126  1.0000
  C   C2291     1.0  0.48382  0.88604  0.14631  1.0000
  C   C2292     1.0  0.27177  0.89864  0.42639  1.0000
  C   C2293     1.0  0.47227  0.73890  0.05609  1.0000
  H   H4035     1.0  0.26722  0.91316  0.40892  1.0000
  C   C2294     1.0  0.38496  0.92755  0.09548  1.0000
  N   N127      1.0  0.39459  0.90290  0.09385  1.0000
  C   C2295     1.0  0.24737  0.96765  0.45872  1.0000
  C   C2296     1.0  0.47316  0.86588  0.05554  1.0000
  H   H4036     1.0  0.42030  0.96785  0.40661  1.0000
  C   C2297     1.0  0.29910  0.90012  0.46002  1.0000
  C   C2298     1.0  0.48250  0.90122  0.26324  1.0000
  H   H4037     1.0  0.47260  0.91233  0.14370  1.0000
  H   H4038     1.0  0.26507  0.92616  0.36484  1.0000
  H   H4039     1.0  0.42488  0.97927  0.33485  1.0000
  H   H4040     1.0  0.47810  0.91342  0.04282  1.0000
  H   H4041     1.0  0.46317  0.89841  0.05686  1.0000
  H   H4042     1.0  0.28804  0.96879  0.41017  1.0000
  C   C2299     1.0  0.44758  0.88446  0.18301  1.0000
  C   C2300     1.0  0.45081  0.88499  0.16802  1.0000
  C   C2301     1.0  0.40718  0.88524  0.11099  1.0000
  H   H4043     1.0  0.42282  0.95257  0.37550  1.0000
  H   H4044     1.0  0.45188  0.75997  0.07520  1.0000
  H   H4045     1.0  0.47179  0.97289  0.07794  1.0000
  C   C2302     1.0  0.37923  0.97085  0.38065  1.0000
  H   H4046     1.0  0.42277  0.74440  0.05630  1.0000
  C   C2303     1.0  0.38956  0.93765  0.42675  1.0000
  C   C2304     1.0  0.47468  0.81699  0.04564  1.0000
  H   H4047     1.0  0.37235  0.94114  0.44261  1.0000
  H   H4048     1.0  0.46914  0.91284  0.12821  1.0000
  C   C2305     1.0  0.30243  0.98342  0.47740  1.0000
  H   H4049     1.0  0.45914  0.97976  0.24339  1.0000
  C   C2306     1.0  0.36359  0.89147  0.11941  1.0000
  Fe  Fe261     1.0  0.44064  0.92451  0.30133  1.0000
  H   H4050     1.0  0.38987  0.89131  0.07539  1.0000
  H   H4051     1.0  0.42081  0.80961  0.00496  1.0000
  H   H4052     1.0  0.48021  0.87868  0.18467  1.0000
  S   S519      1.0  0.33566  0.97954  0.39834  1.0000
  C   C2307     1.0  0.38261  0.94273  0.43973  1.0000
  C   C2308     1.0  0.42003  0.87472  0.11176  1.0000
  H   H4053     1.0  0.26649  0.91765  0.47339  1.0000
  C   C2309     1.0  0.41917  0.75369  0.06013  1.0000
  H   H4054     1.0  0.45875  0.87748  0.00315  1.0000
  H   H4055     1.0  0.41041  0.94576  0.37284  1.0000
  H   H4056     1.0  0.37442  0.90352  0.09338  1.0000
  C   C2310     1.0  0.39763  0.89721  0.07087  1.0000
  H   H4057     1.0  0.38364  0.88740  0.09891  1.0000
  H   H4058     1.0  0.44593  0.83865  0.99674  1.0000
  H   H4059     1.0  0.39608  0.80787  0.98404  1.0000
  C   C2311     1.0  0.46450  0.94732  0.22597  1.0000
  C   C2312     1.0  0.39335  0.76227  0.98967  1.0000
  H   H4060     1.0  0.39314  0.92002  0.41891  1.0000
  C   C2313     1.0  0.38913  0.84282  0.01122  1.0000
  H   H4061     1.0  0.46366  0.98064  0.17814  1.0000
  C   C2314     1.0  0.47984  0.93885  0.27242  1.0000
  C   C2315     1.0  0.43193  0.79088  0.06962  1.0000
  C   C2316     1.0  0.42053  0.79266  0.08198  1.0000
  C   C2317     1.0  0.41555  0.80736  0.08263  1.0000
  H   H4062     1.0  0.43976  0.79500  0.07092  1.0000
  H   H4063     1.0  0.42843  0.79759  0.06063  1.0000
  H   H4064     1.0  0.45542  0.79563  0.05114  1.0000
  H   H4065     1.0  0.39995  0.85390  0.01694  1.0000
  C   C2318     1.0  0.43410  0.75984  0.09037  1.0000
  H   H4066     1.0  0.42365  0.81157  0.08320  1.0000
  H   H4067     1.0  0.41157  0.81324  0.07371  1.0000
  H   H4068     1.0  0.40749  0.80838  0.09165  1.0000
  C   C2319     1.0  0.27832  0.89964  0.38853  1.0000
  H   H4069     1.0  0.37932  0.82723  0.00207  1.0000
  N   N128      1.0  0.45090  0.96344  0.25703  1.0000
  C   C2320     1.0  0.45127  0.95653  0.24638  1.0000
  C   C2321     1.0  0.43914  0.96098  0.26830  1.0000
  H   H4070     1.0  0.46147  0.97870  0.13687  1.0000
  C   C2322     1.0  0.46325  0.95818  0.26253  1.0000
  C   C2323     1.0  0.26924  0.91555  0.36896  1.0000
  H   H4071     1.0  0.45354  0.86011  0.25272  1.0000
  H   H4072     1.0  0.43958  0.96413  0.27721  1.0000
  C   C2324     1.0  0.42537  0.96772  0.26497  1.0000
  C   C2325     1.0  0.41418  0.96601  0.27733  1.0000
  H   H4073     1.0  0.39146  0.91659  0.43674  1.0000
  C   C2326     1.0  0.35258  0.93532  0.46465  1.0000
  C   C2327     1.0  0.35174  0.89002  0.46191  1.0000
  H   H4074     1.0  0.44232  0.96088  0.24209  1.0000
  H   H4075     1.0  0.45079  0.94591  0.25079  1.0000
  C   C2328     1.0  0.39367  0.97203  0.37542  1.0000
  S   S520      1.0  0.42497  0.73542  0.03135  1.0000
  C   C2329     1.0  0.47858  0.92214  0.10170  1.0000
  C   C2330     1.0  0.38766  0.92366  0.42814  1.0000
  C   C2331     1.0  0.37771  0.95578  0.47742  1.0000
  H   H4076     1.0  0.46194  0.96199  0.27161  1.0000
  C   C2332     1.0  0.39616  0.95952  0.43541  1.0000
  H   H4077     1.0  0.45959  0.93858  0.27408  1.0000
  H   H4078     1.0  0.39324  0.91151  0.11048  1.0000
  H   H4079     1.0  0.30513  0.94320  0.45253  1.0000
  C   C2333     1.0  0.48237  0.95562  0.07011  1.0000
  H   H4080     1.0  0.48077  0.90685  0.30565  1.0000
  C   C2334     1.0  0.39830  0.97224  0.36021  1.0000
  H   H4081     1.0  0.42374  0.96333  0.25746  1.0000
  H   H4082     1.0  0.47366  0.85601  0.02678  1.0000
  H   H4083     1.0  0.41799  0.97402  0.37138  1.0000
  H   H4084     1.0  0.41178  0.76795  0.98527  1.0000
  H   H4085     1.0  0.24633  0.94602  0.47909  1.0000
  H   H4086     1.0  0.46815  0.97296  0.10205  1.0000
  S   S521      1.0  0.44018  0.94050  0.32995  1.0000
  H   H4087     1.0  0.44430  0.87511  0.18867  1.0000
  C   C2335     1.0  0.41692  0.97999  0.15906  1.0000
  C   C2336     1.0  0.46322  0.95731  0.23428  1.0000
  H   H4088     1.0  0.39968  0.96367  0.38141  1.0000
  H   H4089     1.0  0.43035  0.98263  0.04083  1.0000
  H   H4090     1.0  0.25989  0.90099  0.44605  1.0000
  H   H4091     1.0  0.47349  0.90996  0.21550  1.0000
  H   H4092     1.0  0.31674  0.94849  0.47018  1.0000
  H   H4093     1.0  0.43940  0.95012  0.27182  1.0000
  H   H4094     1.0  0.40430  0.82490  0.01251  1.0000
  C   C2337     1.0  0.47876  0.89167  0.25706  1.0000
  H   H4095     1.0  0.26881  0.96968  0.40038  1.0000
  C   C2338     1.0  0.44446  0.92013  0.25746  1.0000
  H   H4096     1.0  0.43945  0.89300  0.18554  1.0000
  H   H4097     1.0  0.35757  0.88888  0.46939  1.0000
  H   H4098     1.0  0.29368  0.88066  0.41383  1.0000
  H   H4099     1.0  0.42013  0.86976  0.12237  1.0000
  H   H4100     1.0  0.47905  0.95990  0.11048  1.0000
  Fe  Fe262     1.0  0.34455  0.94073  0.43359  1.0000
  C   C2339     1.0  0.27261  0.91434  0.38229  1.0000
  H   H4101     1.0  0.27868  0.87772  0.41261  1.0000
  C   C2340     1.0  0.25610  0.94531  0.47197  1.0000
  H   H4102     1.0  0.44285  0.76013  0.10637  1.0000
  H   H4103     1.0  0.46241  0.93781  0.12198  1.0000
  C   C2341     1.0  0.37060  0.98114  0.43018  1.0000
  H   H4104     1.0  0.38889  0.93272  0.08512  1.0000
  C   C2342     1.0  0.45418  0.92517  0.14060  1.0000
  C   C2343     1.0  0.40641  0.89177  0.09627  1.0000
  H   H4105     1.0  0.48022  0.91870  0.19053  1.0000
  H   H4106     1.0  0.46880  0.92733  0.10033  1.0000
  C   C2344     1.0  0.45976  0.87826  0.25133  1.0000
  C   C2345     1.0  0.42033  0.94817  0.36855  1.0000
  H   H4107     1.0  0.35627  0.89529  0.11296  1.0000
  H   H4108     1.0  0.30453  0.90198  0.38025  1.0000
  H   H4109     1.0  0.27142  0.95461  0.44635  1.0000
  C   C2346     1.0  0.46758  0.94284  0.26654  1.0000
  H   H4110     1.0  0.28668  0.89596  0.38073  1.0000
  N   N129      1.0  0.39960  0.82887  0.99305  1.0000
  H   H4111     1.0  0.29325  0.85471  0.41036  1.0000
  H   H4112     1.0  0.39898  0.87999  0.11596  1.0000
  S   S522      1.0  0.46520  0.88967  0.20862  1.0000
  H   H4113     1.0  0.37547  0.96987  0.45353  1.0000
  C   C2347     1.0  0.47011  0.89562  0.04773  1.0000
  H   H4114     1.0  0.43486  0.88810  0.28913  1.0000
  H   H4115     1.0  0.37802  0.96129  0.37952  1.0000
  H   H4116     1.0  0.37875  0.93239  0.11517  1.0000
  C   C2348     1.0  0.40085  0.97421  0.24100  1.0000
  H   H4117     1.0  0.47988  0.90639  0.02865  1.0000
  H   H4118     1.0  0.32454  0.90796  0.38184  1.0000
  C   C2349     1.0  0.33697  0.89221  0.46833  1.0000
  H   H4119     1.0  0.46225  0.88684  0.24320  1.0000
  S   S523      1.0  0.45115  0.92836  0.20959  1.0000
  C   C2350     1.0  0.43776  0.92281  0.26999  1.0000
  H   H4120     1.0  0.31015  0.92125  0.38397  1.0000
  H   H4121     1.0  0.31288  0.92714  0.47001  1.0000
  H   H4122     1.0  0.38073  0.94022  0.46726  1.0000
  C   C2351     1.0  0.48123  0.83352  0.98580  1.0000
  C   C2352     1.0  0.39533  0.84114  0.98269  1.0000
  C   C2353     1.0  0.37352  0.96607  0.43021  1.0000
  H   H4123     1.0  0.48161  0.91797  0.24605  1.0000
  C   C2354     1.0  0.48396  0.74306  0.05441  1.0000
  H   H4124     1.0  0.36372  0.96327  0.43304  1.0000
  H   H4125     1.0  0.37755  0.96474  0.41981  1.0000
  H   H4126     1.0  0.36188  0.98353  0.43831  1.0000
  H   H4127     1.0  0.48620  0.90072  0.18234  1.0000
  H   H4128     1.0  0.47974  0.81919  0.06296  1.0000
  H   H4129     1.0  0.25110  0.89798  0.43550  1.0000
  H   H4130     1.0  0.29277  0.98332  0.43769  1.0000
  H   H4131     1.0  0.43790  0.75158  0.06489  1.0000
  C   C2355     1.0  0.38279  0.95034  0.46467  1.0000
  N   N130      1.0  0.47387  0.87990  0.26671  1.0000
  C   C2356     1.0  0.36546  0.91390  0.47393  1.0000
  H   H4132     1.0  0.47797  0.98066  0.20584  1.0000
  C   C2357     1.0  0.46151  0.88493  0.27634  1.0000
  C   C2358     1.0  0.40907  0.98197  0.31679  1.0000
  H   H4133     1.0  0.26332  0.91846  0.38890  1.0000
  C   C2359     1.0  0.46457  0.86652  0.09866  1.0000
  H   H4134     1.0  0.41533  0.97036  0.28513  1.0000
  C   C2360     1.0  0.42982  0.96914  0.16017  1.0000
  C   C2361     1.0  0.42875  0.95593  0.15818  1.0000
  H   H4135     1.0  0.47017  0.93682  0.32035  1.0000
  H   H4136     1.0  0.45329  0.76727  0.05321  1.0000
  H   H4137     1.0  0.44448  0.88573  0.30133  1.0000
  H   H4138     1.0  0.46293  0.85748  0.10653  1.0000
  H   H4139     1.0  0.47240  0.78642  0.01101  1.0000
  H   H4140     1.0  0.45793  0.95851  0.32235  1.0000
  C   C2362     1.0  0.28722  0.88234  0.40673  1.0000
  H   H4141     1.0  0.42221  0.95358  0.42024  1.0000
  H   H4142     1.0  0.45083  0.92584  0.15125  1.0000
  H   H4143     1.0  0.29952  0.96839  0.39003  1.0000
  H   H4144     1.0  0.47806  0.86147  0.99103  1.0000
  C   C2363     1.0  0.47123  0.87160  0.25880  1.0000
  H   H4145     1.0  0.30571  0.85361  0.39517  1.0000
  H   H4146     1.0  0.32816  0.97125  0.37772  1.0000
  H   H4147     1.0  0.43641  0.87290  0.30181  1.0000
  H   H4148     1.0  0.37018  0.90968  0.11460  1.0000
  H   H4149     1.0  0.45446  0.89271  0.27089  1.0000
  H   H4150     1.0  0.43825  0.97250  0.15242  1.0000
  H   H4151     1.0  0.43230  0.96705  0.17000  1.0000
  H   H4152     1.0  0.42659  0.95718  0.14829  1.0000
  H   H4153     1.0  0.43824  0.94857  0.15880  1.0000
  H   H4154     1.0  0.42080  0.95192  0.16613  1.0000
  H   H4155     1.0  0.40613  0.97706  0.31052  1.0000
  H   H4156     1.0  0.43356  0.78979  0.99563  1.0000
  C   C2364     1.0  0.37470  0.89911  0.11414  1.0000
  C   C2365     1.0  0.40979  0.97258  0.33041  1.0000
  H   H4157     1.0  0.40454  0.97116  0.27460  1.0000
  H   H4158     1.0  0.47022  0.75934  0.99506  1.0000
  H   H4159     1.0  0.45850  0.87599  0.16611  1.0000
  H   H4160     1.0  0.38146  0.89527  0.12112  1.0000
  H   H4161     1.0  0.45960  0.86523  0.03676  1.0000
  H   H4162     1.0  0.48456  0.87632  0.28228  1.0000
  H   H4163     1.0  0.47279  0.95756  0.09003  1.0000
  C   C2366     1.0  0.39487  0.91428  0.09943  1.0000
  H   H4164     1.0  0.43103  0.95746  0.34927  1.0000
  H   H4165     1.0  0.31662  0.91089  0.39833  1.0000
  C   C2367     1.0  0.26761  0.97154  0.41042  1.0000
  H   H4166     1.0  0.31156  0.97542  0.47714  1.0000
  C   C2368     1.0  0.46468  0.91211  0.13905  1.0000
  H   H4167     1.0  0.45497  0.94839  0.22332  1.0000
  C   C2369     1.0  0.43038  0.93501  0.36765  1.0000
  C   C2370     1.0  0.42051  0.95752  0.35455  1.0000
  H   H4168     1.0  0.48124  0.85576  0.08663  1.0000
  H   H4169     1.0  0.44156  0.88476  0.16556  1.0000
  H   H4170     1.0  0.46749  0.93697  0.23163  1.0000
  H   H4171     1.0  0.43128  0.96960  0.22054  1.0000
  H   H4172     1.0  0.46833  0.87833  0.14455  1.0000
  C   C2371     1.0  0.47806  0.88902  0.21592  1.0000
  C   C2372     1.0  0.38908  0.82078  0.99873  1.0000
  H   H4173     1.0  0.44730  0.88925  0.99368  1.0000
  H   H4174     1.0  0.41690  0.98271  0.14819  1.0000
  H   H4175     1.0  0.37703  0.92378  0.42954  1.0000
  C   C2373     1.0  0.42648  0.77218  0.06486  1.0000
  C   C2374     1.0  0.39236  0.84783  0.02169  1.0000
  H   H4176     1.0  0.38343  0.79524  0.00401  1.0000
  H   H4177     1.0  0.39113  0.81337  0.00799  1.0000
  H   H4178     1.0  0.46343  0.88114  0.07351  1.0000
  H   H4179     1.0  0.37608  0.97106  0.39143  1.0000
  H   H4180     1.0  0.45018  0.74578  0.09886  1.0000
  C   C2375     1.0  0.47863  0.86379  0.04103  1.0000
  C   C2376     1.0  0.37807  0.80345  0.99716  1.0000
  C   C2377     1.0  0.30792  0.97264  0.38962  1.0000
  H   H4181     1.0  0.46871  0.93739  0.13618  1.0000
  H   H4182     1.0  0.29549  0.90290  0.41008  1.0000
  H   H4183     1.0  0.41199  0.78896  0.08176  1.0000
  H   H4184     1.0  0.44646  0.87197  0.99873  1.0000
  C   C2378     1.0  0.44821  0.77750  0.05478  1.0000
  H   H4185     1.0  0.41858  0.77068  0.07399  1.0000
  H   H4186     1.0  0.47922  0.76200  0.00524  1.0000
  N   N131      1.0  0.25867  0.95902  0.46511  1.0000
  H   H4187     1.0  0.47179  0.96200  0.25537  1.0000
  C   C2379     1.0  0.44078  0.75277  0.10212  1.0000
  C   C2380     1.0  0.25860  0.90323  0.43563  1.0000
  C   C2381     1.0  0.29634  0.94958  0.44874  1.0000
  C   C2382     1.0  0.40183  0.96440  0.42024  1.0000
  S   S524      1.0  0.45649  0.95619  0.17897  1.0000
  H   H4188     1.0  0.39130  0.97491  0.23856  1.0000
  C   C2383     1.0  0.27163  0.95844  0.45490  1.0000
  H   H4189     1.0  0.42873  0.87937  0.10745  1.0000
  S   S525      1.0  0.44557  0.91535  0.28351  1.0000
  H   H4190     1.0  0.26719  0.96199  0.41786  1.0000
  H   H4191     1.0  0.24671  0.97832  0.45822  1.0000
  C   C2384     1.0  0.45908  0.78470  0.05426  1.0000
  H   H4192     1.0  0.45068  0.86900  0.28025  1.0000
  H   H4193     1.0  0.43611  0.76153  0.04863  1.0000
  H   H4194     1.0  0.45639  0.88472  0.18626  1.0000
  C   C2385     1.0  0.41817  0.80761  0.99651  1.0000
  H   H4195     1.0  0.43414  0.74696  0.11008  1.0000
  H   H4196     1.0  0.41082  0.80125  0.00048  1.0000
  H   H4197     1.0  0.41405  0.95533  0.28145  1.0000
  H   H4198     1.0  0.38108  0.83741  0.01646  1.0000
  H   H4199     1.0  0.45104  0.79549  0.02470  1.0000
  C   C2386     1.0  0.43168  0.85231  0.98593  1.0000
  H   H4200     1.0  0.45223  0.94660  0.13463  1.0000
  H   H4201     1.0  0.29519  0.94548  0.44075  1.0000
  C   C2387     1.0  0.30878  0.90188  0.47850  1.0000
  H   H4202     1.0  0.29819  0.95975  0.44440  1.0000
  S   S526      1.0  0.45825  0.93066  0.30277  1.0000
  H   H4203     1.0  0.46491  0.89139  0.04284  1.0000
  N   N132      1.0  0.45988  0.89925  0.14494  1.0000
  C   C2388     1.0  0.46496  0.97215  0.12959  1.0000
  C   C2389     1.0  0.43833  0.92490  0.24659  1.0000
  H   H4204     1.0  0.36872  0.80840  0.00310  1.0000
  H   H4205     1.0  0.46161  0.78254  0.06413  1.0000
  H   H4206     1.0  0.46619  0.86437  0.23802  1.0000
  Fe  Fe263     1.0  0.42368  0.93379  0.32657  1.0000
  H   H4207     1.0  0.44351  0.92235  0.23715  1.0000
  H   H4208     1.0  0.35494  0.88082  0.45794  1.0000
  H   H4209     1.0  0.47636  0.94134  0.19464  1.0000
  C   C2390     1.0  0.44841  0.90008  0.13897  1.0000
  H   H4210     1.0  0.33314  0.91349  0.46470  1.0000
  H   H4211     1.0  0.30605  0.89050  0.45872  1.0000
  C   C2391     1.0  0.44994  0.97809  0.25097  1.0000
  H   H4212     1.0  0.47265  0.85580  0.06196  1.0000
  S   S527      1.0  0.34427  0.94621  0.45251  1.0000
  C   C2392     1.0  0.44616  0.88683  0.13763  1.0000
  C   C2393     1.0  0.43225  0.88855  0.13568  1.0000
  C   C2394     1.0  0.45391  0.96904  0.32163  1.0000
  H   H4213     1.0  0.42956  0.92815  0.37766  1.0000
  C   C2395     1.0  0.27912  0.97691  0.41091  1.0000
  H   H4214     1.0  0.23775  0.96536  0.46498  1.0000
  H   H4215     1.0  0.43905  0.90525  0.14471  1.0000
  H   H4216     1.0  0.44963  0.90629  0.12859  1.0000
  H   H4217     1.0  0.28743  0.87278  0.39095  1.0000
  H   H4218     1.0  0.44247  0.79475  0.01274  1.0000
  H   H4219     1.0  0.44753  0.77340  0.08324  1.0000
  H   H4220     1.0  0.36026  0.91895  0.45467  1.0000
  H   H4221     1.0  0.37901  0.98394  0.43194  1.0000
  Fe  Fe264     1.0  0.45306  0.92152  0.32453  1.0000
  S   S528      1.0  0.44983  0.91968  0.18280  1.0000
  N   N133      1.0  0.28245  0.89714  0.40158  1.0000
  H   H4222     1.0  0.42088  0.86700  0.10627  1.0000
  H   H4223     1.0  0.44550  0.92577  0.13674  1.0000
  H   H4224     1.0  0.45339  0.88360  0.12880  1.0000
  H   H4225     1.0  0.44742  0.87864  0.14646  1.0000
  H   H4226     1.0  0.43127  0.87926  0.13375  1.0000
  H   H4227     1.0  0.42477  0.89066  0.14481  1.0000
  H   H4228     1.0  0.43022  0.89687  0.12711  1.0000
  C   C2396     1.0  0.47125  0.88807  0.14106  1.0000
  H   H4229     1.0  0.27985  0.92063  0.38032  1.0000
  H   H4230     1.0  0.28299  0.93933  0.46435  1.0000
  C   C2397     1.0  0.40146  0.83351  0.00440  1.0000
  H   H4231     1.0  0.27902  0.90363  0.42745  1.0000
  H   H4232     1.0  0.39997  0.74114  0.99841  1.0000
  S   S529      1.0  0.47137  0.89944  0.10243  1.0000
  Fe  Fe265     1.0  0.45102  0.74422  0.99888  1.0000
  C   C2398     1.0  0.46444  0.78510  0.99454  1.0000
  H   H4233     1.0  0.46272  0.87149  0.05646  1.0000
  H   H4234     1.0  0.38754  0.91582  0.07648  1.0000
  H   H4235     1.0  0.37551  0.79909  0.99018  1.0000
  C   C2399     1.0  0.46331  0.78480  0.00940  1.0000
  H   H4236     1.0  0.27334  0.96872  0.45038  1.0000
  C   C2400     1.0  0.31275  0.92238  0.48070  1.0000
  H   H4237     1.0  0.32158  0.95672  0.38068  1.0000
  C   C2401     1.0  0.45190  0.79584  0.01403  1.0000
  H   H4238     1.0  0.48141  0.88371  0.15738  1.0000
  H   H4239     1.0  0.48240  0.73629  0.99432  1.0000
  C   C2402     1.0  0.38674  0.81345  0.98931  1.0000
  H   H4240     1.0  0.33932  0.90543  0.47927  1.0000
  H   H4241     1.0  0.45602  0.78131  0.99402  1.0000
  C   C2403     1.0  0.29456  0.87372  0.39622  1.0000
  H   H4242     1.0  0.43006  0.97653  0.35651  1.0000
  H   H4243     1.0  0.33558  0.97987  0.44410  1.0000
  C   C2404     1.0  0.39663  0.90375  0.05640  1.0000
  H   H4244     1.0  0.45804  0.96893  0.34028  1.0000
  C   C2405     1.0  0.38284  0.93699  0.10464  1.0000
  N   N134      1.0  0.43736  0.77688  0.06734  1.0000
  H   H4245     1.0  0.43178  0.75206  0.08694  1.0000
  H   H4246     1.0  0.46144  0.77510  0.01585  1.0000
  H   H4247     1.0  0.39233  0.93948  0.10411  1.0000
  H   H4248     1.0  0.44690  0.90614  0.16229  1.0000
  H   H4249     1.0  0.47758  0.89900  0.29440  1.0000
  H   H4250     1.0  0.39646  0.97809  0.20404  1.0000
  C   C2406     1.0  0.28405  0.94977  0.46011  1.0000
  H   H4251     1.0  0.47781  0.83577  0.99593  1.0000
  H   H4252     1.0  0.40320  0.95034  0.43923  1.0000
  C   C2407     1.0  0.44889  0.97680  0.31049  1.0000
  H   H4253     1.0  0.48369  0.93959  0.10313  1.0000
  H   H4254     1.0  0.47067  0.87151  0.10167  1.0000
  C   C2408     1.0  0.41914  0.97841  0.36054  1.0000
  H   H4255     1.0  0.48242  0.97952  0.11980  1.0000
  H   H4256     1.0  0.46472  0.85549  0.98971  1.0000
  H   H4257     1.0  0.40909  0.97131  0.23271  1.0000
  H   H4258     1.0  0.31134  0.96861  0.39913  1.0000
  H   H4259     1.0  0.40186  0.96621  0.25010  1.0000
  S   S530      1.0  0.43032  0.74437  0.99921  1.0000
  H   H4260     1.0  0.41698  0.96330  0.32845  1.0000
  H   H4261     1.0  0.28993  0.89817  0.46745  1.0000
  C   C2409     1.0  0.46822  0.73829  0.04497  1.0000
  H   H4262     1.0  0.31243  0.89105  0.47899  1.0000
  H   H4263     1.0  0.27502  0.88778  0.43014  1.0000
  H   H4264     1.0  0.45613  0.98423  0.26597  1.0000
  H   H4265     1.0  0.24670  0.93981  0.45923  1.0000
  C   C2410     1.0  0.45662  0.97824  0.18740  1.0000
  Fe  Fe266     1.0  0.24454  0.94328  0.40358  1.0000
  N   N135      1.0  0.41283  0.97172  0.35401  1.0000
  H   H4266     1.0  0.43881  0.98112  0.05370  1.0000
  C   C2411     1.0  0.41462  0.97925  0.18866  1.0000
  C   C2412     1.0  0.47367  0.97870  0.11689  1.0000
  C   C2413     1.0  0.42892  0.98298  0.05144  1.0000
  C   C2414     1.0  0.33555  0.97977  0.42399  1.0000
  H   H4267     1.0  0.25028  0.95706  0.44262  1.0000
  H   H4268     1.0  0.39209  0.98141  0.35518  1.0000
  H   H4269     1.0  0.46395  0.91543  0.03606  1.0000
  H   H4270     1.0  0.47421  0.88964  0.12996  1.0000
  H   H4271     1.0  0.47363  0.90645  0.26951  1.0000
  C   C2415     1.0  0.41435  0.97876  0.33942  1.0000
  H   H4272     1.0  0.48105  0.86189  0.28036  1.0000
  H   H4273     1.0  0.25591  0.91591  0.46382  1.0000
  C   C2416     1.0  0.30557  0.90861  0.46453  1.0000
  H   H4274     1.0  0.48018  0.86889  0.25102  1.0000
  H   H4275     1.0  0.48611  0.97009  0.21892  1.0000
  C   C2417     1.0  0.48290  0.88566  0.05113  1.0000
  C   C2418     1.0  0.29143  0.97768  0.47620  1.0000
  N   N136      1.0  0.48100  0.87250  0.06042  1.0000
  H   H4276     1.0  0.39439  0.98139  0.37741  1.0000
  H   H4277     1.0  0.47213  0.94912  0.21662  1.0000
  H   H4278     1.0  0.29464  0.97361  0.46703  1.0000
  H   H4279     1.0  0.34653  0.94982  0.47683  1.0000
  H   H4280     1.0  0.25816  0.97875  0.41282  1.0000
  H   H4281     1.0  0.47330  0.95415  0.06825  1.0000
  C   C2419     1.0  0.45330  0.87890  0.99525  1.0000
  C   C2420     1.0  0.48265  0.90842  0.10245  1.0000
  C   C2421     1.0  0.33207  0.90520  0.47371  1.0000
  H   H4282     1.0  0.47823  0.88129  0.07730  1.0000
  C   C2422     1.0  0.48025  0.90058  0.21775  1.0000
  C   C2423     1.0  0.48257  0.91902  0.32928  1.0000
  H   H4283     1.0  0.27712  0.97905  0.42096  1.0000
  H   H4284     1.0  0.48586  0.92894  0.20555  1.0000
  C   C2424     1.0  0.47582  0.74197  0.03213  1.0000
  C   C2425     1.0  0.41661  0.96398  0.41744  1.0000
  H   H4285     1.0  0.40836  0.97514  0.16400  1.0000
  H   H4286     1.0  0.48078  0.97323  0.30383  1.0000
  H   H4287     1.0  0.37266  0.97923  0.37517  1.0000
  H   H4288     1.0  0.40979  0.83880  0.00086  1.0000
  H   H4289     1.0  0.48509  0.86782  0.21787  1.0000
  H   H4290     1.0  0.41524  0.96956  0.18649  1.0000
  H   H4291     1.0  0.38447  0.84508  0.98547  1.0000
  H   H4292     1.0  0.33172  0.89279  0.46055  1.0000
  H   H4293     1.0  0.48474  0.81256  0.99507  1.0000
  C   C2426     1.0  0.25967  0.96546  0.47563  1.0000
  C   C2427     1.0  0.41278  0.82079  0.98721  1.0000
  H   H4294     1.0  0.46273  0.79583  0.98948  1.0000
  H   H4295     1.0  0.42387  0.97491  0.05787  1.0000
  C   C2428     1.0  0.25686  0.92189  0.47034  1.0000
  H   H4296     1.0  0.31456  0.91055  0.45681  1.0000
  C   C2429     1.0  0.35186  0.93983  0.47596  1.0000
  C   C2430     1.0  0.43057  0.79955  0.98895  1.0000
  C   C2431     1.0  0.31521  0.94515  0.48122  1.0000
  C   C2432     1.0  0.34451  0.97999  0.47993  1.0000
  H   H4297     1.0  0.26327  0.93975  0.47843  1.0000
  H   H4298     1.0  0.29647  0.90547  0.45028  1.0000
  C   C2433     1.0  0.48406  0.87138  0.27459  1.0000
  H   H4299     1.0  0.45619  0.97051  0.12733  1.0000
  C   C2434     1.0  0.47168  0.86217  0.98413  1.0000
  H   H4300     1.0  0.24875  0.92114  0.47938  1.0000
  H   H4301     1.0  0.48220  0.96228  0.16079  1.0000
  H   H4302     1.0  0.47245  0.83335  0.98250  1.0000
  H   H4303     1.0  0.48595  0.78815  0.06201  1.0000
  H   H4304     1.0  0.42461  0.98047  0.18811  1.0000
  H   H4305     1.0  0.29848  0.91831  0.46496  1.0000
  H   H4306     1.0  0.39997  0.84933  0.98247  1.0000
  H   H4307     1.0  0.48188  0.92796  0.27649  1.0000
  H   H4308     1.0  0.37064  0.90382  0.47323  1.0000
  H   H4309     1.0  0.35130  0.98011  0.46995  1.0000
  H   H4310     1.0  0.48696  0.93024  0.17621  1.0000
  C   C2435     1.0  0.48679  0.87681  0.21917  1.0000
  H   H4311     1.0  0.48690  0.96960  0.17832  1.0000
  H   H4312     1.0  0.36686  0.95673  0.48089  1.0000
  H   H4313     1.0  0.26654  0.95855  0.48190  1.0000
  Fe  Fe267     1.0  0.45383  0.82705  0.90812  1.0000
  S   S531      1.0  0.45363  0.84331  0.91763  1.0000
  S   S532      1.0  0.47327  0.81934  0.89543  1.0000
  Fe  Fe268     1.0  0.42547  0.82619  0.92106  1.0000
  S   S533      1.0  0.42269  0.84252  0.93163  1.0000
  S   S534      1.0  0.40814  0.81723  0.92412  1.0000
  Fe  Fe269     1.0  0.43404  0.85260  0.91203  1.0000
  S   S535      1.0  0.42895  0.87482  0.90354  1.0000
  H   H4314     1.0  0.43940  0.97957  0.60810  1.0000
  S   S536      1.0  0.43506  0.83714  0.90107  1.0000
  S   S537      1.0  0.44436  0.81459  0.92703  1.0000
  Fe  Fe270     1.0  0.44263  0.91667  0.83070  1.0000
  S   S538      1.0  0.46136  0.92154  0.81710  1.0000
  S   S539      1.0  0.44408  0.89488  0.84062  1.0000
  H   H4315     1.0  0.36425  0.93923  0.57507  1.0000
  H   H4316     1.0  0.32460  0.90623  0.50028  1.0000
  H   H4317     1.0  0.47691  0.80015  0.96622  1.0000
  C   C2436     1.0  0.35474  0.94351  0.58125  1.0000
  C   C2437     1.0  0.34129  0.97392  0.55510  1.0000
  H   H4318     1.0  0.30724  0.96152  0.51900  1.0000
  H   H4319     1.0  0.30767  0.93639  0.55698  1.0000
  H   H4320     1.0  0.47498  0.83706  0.95966  1.0000
  C   C2438     1.0  0.42157  0.97823  0.83243  1.0000
  Fe  Fe271     1.0  0.25341  0.92181  0.51679  1.0000
  S   S540      1.0  0.27518  0.92013  0.50794  1.0000
  H   H4321     1.0  0.24056  0.96766  0.56709  1.0000
  Fe  Fe272     1.0  0.33293  0.91532  0.53832  1.0000
  S   S541      1.0  0.33806  0.92685  0.51737  1.0000
  S   S542      1.0  0.31416  0.90734  0.54671  1.0000
  Fe  Fe273     1.0  0.35753  0.91857  0.54529  1.0000
  S   S543      1.0  0.36458  0.93050  0.52479  1.0000
  S   S544      1.0  0.36574  0.91465  0.56371  1.0000
  Fe  Fe274     1.0  0.34321  0.94077  0.52624  1.0000
  S   S545      1.0  0.33446  0.96258  0.52084  1.0000
  Fe  Fe275     1.0  0.35886  0.91550  0.51758  1.0000
  S   S546      1.0  0.37026  0.90754  0.49926  1.0000
  S   S547      1.0  0.33654  0.93019  0.54729  1.0000
  S   S548      1.0  0.35347  0.90258  0.53801  1.0000
  Fe  Fe276     1.0  0.43615  0.92004  0.60617  1.0000
  S   S549      1.0  0.44460  0.93826  0.59931  1.0000
  S   S550      1.0  0.43475  0.90870  0.62775  1.0000
  Fe  Fe277     1.0  0.43018  0.92261  0.57906  1.0000
  S   S551      1.0  0.43815  0.94112  0.57026  1.0000
  S   S552      1.0  0.42401  0.91599  0.56367  1.0000
  Fe  Fe278     1.0  0.45475  0.93071  0.58067  1.0000
  H   H4322     1.0  0.48440  0.96093  0.64375  1.0000
  Fe  Fe279     1.0  0.42746  0.94719  0.58940  1.0000
  S   S553      1.0  0.41749  0.96864  0.58856  1.0000
  S   S554      1.0  0.44781  0.91147  0.58817  1.0000
  S   S555      1.0  0.41790  0.92961  0.59764  1.0000
  Fe  Fe280     1.0  0.44834  0.93302  0.68479  1.0000
  S   S556      1.0  0.47031  0.93053  0.67855  1.0000
  S   S557      1.0  0.43613  0.94052  0.66904  1.0000
  Fe  Fe281     1.0  0.44818  0.92911  0.71459  1.0000
  S   S558      1.0  0.47025  0.92598  0.71061  1.0000
  S   S559      1.0  0.43416  0.93080  0.73471  1.0000
  H   H4323     1.0  0.41649  0.93648  0.62520  1.0000
  Fe  Fe282     1.0  0.47060  0.91371  0.69656  1.0000
  H   H4324     1.0  0.48087  0.93652  0.64525  1.0000
  H   H4325     1.0  0.33907  0.93584  0.59696  1.0000
  S   S560      1.0  0.44857  0.91516  0.70195  1.0000
  H   H4326     1.0  0.48277  0.78308  0.87127  1.0000
  C   C2439     1.0  0.45319  0.97794  0.57999  1.0000
  H   H4327     1.0  0.39538  0.86117  0.95930  1.0000
  S   S561      1.0  0.41278  0.76087  0.91328  1.0000
  C   C2440     1.0  0.48670  0.93758  0.82418  1.0000
  H   H4328     1.0  0.48017  0.97008  0.55962  1.0000
  H   H4329     1.0  0.42895  0.85067  0.95537  1.0000
  H   H4330     1.0  0.39474  0.85108  0.94863  1.0000
  H   H4331     1.0  0.40462  0.83611  0.55529  1.0000
  H   H4332     1.0  0.45165  0.97296  0.68429  1.0000
  H   H4333     1.0  0.40362  0.74679  0.94454  1.0000
  C   C2441     1.0  0.24651  0.97004  0.48540  1.0000
  C   C2442     1.0  0.41945  0.95888  0.79093  1.0000
  C   C2443     1.0  0.43166  0.98382  0.69100  1.0000
  H   H4334     1.0  0.46115  0.95570  0.65037  1.0000
  H   H4335     1.0  0.45848  0.96379  0.73369  1.0000
  H   H4336     1.0  0.40664  0.87909  0.53087  1.0000
  N   N137      1.0  0.41814  0.97836  0.71542  1.0000
  C   C2444     1.0  0.44913  0.76923  0.88939  1.0000
  H   H4337     1.0  0.26723  0.90900  0.56493  1.0000
  H   H4338     1.0  0.46149  0.85486  0.96958  1.0000
  H   H4339     1.0  0.29404  0.93486  0.54529  1.0000
  C   C2445     1.0  0.23849  0.96237  0.54029  1.0000
  H   H4340     1.0  0.48214  0.84170  0.86839  1.0000
  C   C2446     1.0  0.25887  0.91740  0.56730  1.0000
  C   C2447     1.0  0.39805  0.98135  0.84183  1.0000
  C   C2448     1.0  0.46089  0.79093  0.89027  1.0000
  H   H4341     1.0  0.40964  0.83861  0.96388  1.0000
  H   H4342     1.0  0.36858  0.87109  0.56120  1.0000
  H   H4343     1.0  0.38424  0.86647  0.57785  1.0000
  H   H4344     1.0  0.41250  0.81805  0.97805  1.0000
  C   C2449     1.0  0.39664  0.91385  0.85392  1.0000
  C   C2450     1.0  0.40785  0.95349  0.63461  1.0000
  H   H4345     1.0  0.45219  0.81857  0.88255  1.0000
  C   C2451     1.0  0.41201  0.97006  0.71045  1.0000
  C   C2452     1.0  0.40965  0.97411  0.83512  1.0000
  H   H4346     1.0  0.25574  0.91636  0.57830  1.0000
  H   H4347     1.0  0.37864  0.97272  0.50462  1.0000
  H   H4348     1.0  0.47108  0.86042  0.93559  1.0000
  H   H4349     1.0  0.48281  0.87759  0.96182  1.0000
  H   H4350     1.0  0.44656  0.93941  0.90560  1.0000
  C   C2453     1.0  0.39207  0.85229  0.95912  1.0000
  H   H4351     1.0  0.43502  0.97536  0.75283  1.0000
  H   H4352     1.0  0.48122  0.96445  0.65961  1.0000
  N   N138      1.0  0.27927  0.94478  0.55980  1.0000
  H   H4353     1.0  0.40419  0.96046  0.86419  1.0000
  C   C2454     1.0  0.43607  0.91699  0.63935  1.0000
  C   C2455     1.0  0.44314  0.92710  0.63534  1.0000
  C   C2456     1.0  0.44370  0.93385  0.64466  1.0000
  C   C2457     1.0  0.43741  0.93037  0.65811  1.0000
  C   C2458     1.0  0.43067  0.91999  0.66223  1.0000
  C   C2459     1.0  0.43008  0.91326  0.65290  1.0000
  H   H4354     1.0  0.44826  0.92970  0.62509  1.0000
  H   H4355     1.0  0.44897  0.94181  0.64139  1.0000
  H   H4356     1.0  0.42554  0.91743  0.67255  1.0000
  H   H4357     1.0  0.42466  0.90539  0.65612  1.0000
  C   C2460     1.0  0.39263  0.85621  0.55045  1.0000
  C   C2461     1.0  0.47628  0.84714  0.95384  1.0000
  H   H4358     1.0  0.25386  0.93868  0.56248  1.0000
  Fe  Fe283     1.0  0.45648  0.93891  0.82669  1.0000
  H   H4359     1.0  0.44596  0.96115  0.58028  1.0000
  C   C2462     1.0  0.47673  0.76734  0.92596  1.0000
  H   H4360     1.0  0.38882  0.97825  0.84393  1.0000
  C   C2463     1.0  0.25109  0.95789  0.53282  1.0000
  H   H4361     1.0  0.46577  0.77298  0.87292  1.0000
  C   C2464     1.0  0.40723  0.88047  0.86936  1.0000
  C   C2465     1.0  0.45823  0.79954  0.87656  1.0000
  H   H4362     1.0  0.35729  0.93511  0.49487  1.0000
  H   H4363     1.0  0.45277  0.76914  0.95563  1.0000
  H   H4364     1.0  0.41253  0.94430  0.86090  1.0000
  H   H4365     1.0  0.38591  0.74873  0.94963  1.0000
  C   C2466     1.0  0.38150  0.91686  0.56321  1.0000
  C   C2467     1.0  0.39095  0.91868  0.55124  1.0000
  C   C2468     1.0  0.40388  0.91884  0.55145  1.0000
  C   C2469     1.0  0.40730  0.91769  0.56356  1.0000
  C   C2470     1.0  0.39765  0.91656  0.57543  1.0000
  C   C2471     1.0  0.38488  0.91587  0.57527  1.0000
  H   H4366     1.0  0.38845  0.91948  0.54188  1.0000
  H   H4367     1.0  0.41134  0.91966  0.54224  1.0000
  H   H4368     1.0  0.40024  0.91552  0.58481  1.0000
  H   H4369     1.0  0.37768  0.91432  0.58459  1.0000
  C   C2472     1.0  0.36430  0.96306  0.55621  1.0000
  C   C2473     1.0  0.35933  0.96797  0.51155  1.0000
  H   H4370     1.0  0.34050  0.97571  0.58113  1.0000
  C   C2474     1.0  0.42526  0.95497  0.86419  1.0000
  H   H4371     1.0  0.25042  0.91685  0.56362  1.0000
  H   H4372     1.0  0.36498  0.94377  0.55207  1.0000
  H   H4373     1.0  0.36287  0.95794  0.50997  1.0000
  C   C2475     1.0  0.45741  0.97238  0.61500  1.0000
  H   H4374     1.0  0.44238  0.78261  0.96313  1.0000
  H   H4375     1.0  0.41043  0.91018  0.83578  1.0000
  H   H4376     1.0  0.30398  0.93551  0.58682  1.0000
  C   C2476     1.0  0.28470  0.91763  0.51972  1.0000
  C   C2477     1.0  0.28269  0.90866  0.53209  1.0000
  C   C2478     1.0  0.29168  0.90561  0.54044  1.0000
  C   C2479     1.0  0.30276  0.91138  0.53635  1.0000
  C   C2480     1.0  0.30443  0.92059  0.52418  1.0000
  C   C2481     1.0  0.29528  0.92394  0.51608  1.0000
  H   H4377     1.0  0.27451  0.90373  0.53501  1.0000
  H   H4378     1.0  0.29024  0.89851  0.54989  1.0000
  H   H4379     1.0  0.31275  0.92519  0.52098  1.0000
  H   H4380     1.0  0.29651  0.93128  0.50683  1.0000
  C   C2482     1.0  0.43146  0.97951  0.70620  1.0000
  C   C2483     1.0  0.44694  0.83298  0.97866  1.0000
  H   H4381     1.0  0.24139  0.97183  0.58197  1.0000
  H   H4382     1.0  0.47324  0.91542  0.65709  1.0000
  H   H4383     1.0  0.34012  0.96732  0.54929  1.0000
  H   H4384     1.0  0.37153  0.95859  0.56278  1.0000
  H   H4385     1.0  0.40097  0.87216  0.58354  1.0000
  H   H4386     1.0  0.45634  0.94440  0.87508  1.0000
  C   C2484     1.0  0.40195  0.92563  0.85402  1.0000
  H   H4387     1.0  0.38920  0.86271  0.54145  1.0000
  S   S562      1.0  0.24360  0.91594  0.53836  1.0000
  H   H4388     1.0  0.35499  0.92450  0.59550  1.0000
  C   C2485     1.0  0.45356  0.93386  0.74517  1.0000
  C   C2486     1.0  0.44061  0.93231  0.74764  1.0000
  C   C2487     1.0  0.43260  0.93216  0.76057  1.0000
  C   C2488     1.0  0.43758  0.93343  0.77094  1.0000
  H   H4389     1.0  0.29044  0.95570  0.56523  1.0000
  S   S563      1.0  0.44918  0.73760  0.91608  1.0000
  H   H4390     1.0  0.42256  0.93095  0.76258  1.0000
  H   H4391     1.0  0.43141  0.93317  0.78088  1.0000
  H   H4392     1.0  0.47617  0.91956  0.59574  1.0000
  H   H4393     1.0  0.48221  0.87370  0.67232  1.0000
  C   C2489     1.0  0.47465  0.96497  0.76163  1.0000
  H   H4394     1.0  0.28586  0.96524  0.53516  1.0000
  C   C2490     1.0  0.41434  0.97063  0.64708  1.0000
  H   H4395     1.0  0.41294  0.75405  0.97874  1.0000
  C   C2491     1.0  0.43374  0.88036  0.88609  1.0000
  C   C2492     1.0  0.43913  0.87131  0.87773  1.0000
  C   C2493     1.0  0.44255  0.87592  0.86382  1.0000
  C   C2494     1.0  0.44060  0.88960  0.85815  1.0000
  C   C2495     1.0  0.43534  0.89869  0.86648  1.0000
  C   C2496     1.0  0.43190  0.89407  0.88042  1.0000
  H   H4396     1.0  0.44063  0.86075  0.88197  1.0000
  H   H4397     1.0  0.44655  0.86884  0.85743  1.0000
  H   H4398     1.0  0.43371  0.90926  0.86221  1.0000
  H   H4399     1.0  0.42769  0.90113  0.88683  1.0000
  C   C2497     1.0  0.41066  0.80157  0.92048  1.0000
  C   C2498     1.0  0.40002  0.79858  0.91779  1.0000
  C   C2499     1.0  0.40108  0.78609  0.91549  1.0000
  C   C2500     1.0  0.41270  0.77630  0.91608  1.0000
  C   C2501     1.0  0.42344  0.77910  0.91897  1.0000
  C   C2502     1.0  0.42247  0.79185  0.92102  1.0000
  H   H4400     1.0  0.39088  0.80598  0.91746  1.0000
  H   H4401     1.0  0.39275  0.78398  0.91331  1.0000
  H   H4402     1.0  0.43235  0.77147  0.91971  1.0000
  H   H4403     1.0  0.43066  0.79406  0.92330  1.0000
  H   H4404     1.0  0.41943  0.86469  0.97231  1.0000
  H   H4405     1.0  0.28314  0.94429  0.57874  1.0000
  C   C2503     1.0  0.47267  0.96862  0.70048  1.0000
  H   H4406     1.0  0.39586  0.83115  0.96683  1.0000
  H   H4407     1.0  0.43412  0.76103  0.88657  1.0000
  H   H4408     1.0  0.29443  0.98287  0.51828  1.0000
  C   C2504     1.0  0.40743  0.90419  0.84602  1.0000
  H   H4409     1.0  0.23963  0.97764  0.50359  1.0000
  C   C2505     1.0  0.46498  0.89307  0.65910  1.0000
  H   H4410     1.0  0.43367  0.97810  0.55804  1.0000
  H   H4411     1.0  0.46867  0.77319  0.97362  1.0000
  H   H4412     1.0  0.46422  0.97855  0.63858  1.0000
  C   C2506     1.0  0.46030  0.89649  0.67311  1.0000
  H   H4413     1.0  0.45050  0.75063  0.88397  1.0000
  C   C2507     1.0  0.47503  0.86062  0.87469  1.0000
  C   C2508     1.0  0.44315  0.77640  0.95607  1.0000
  H   H4414     1.0  0.45798  0.85259  0.94667  1.0000
  C   C2509     1.0  0.44896  0.88981  0.68162  1.0000
  H   H4415     1.0  0.46907  0.96177  0.85434  1.0000
  H   H4416     1.0  0.42922  0.97877  0.77427  1.0000
  H   H4417     1.0  0.43265  0.76253  0.97079  1.0000
  H   H4418     1.0  0.26948  0.96303  0.52109  1.0000
  H   H4419     1.0  0.46570  0.88224  0.66030  1.0000
  H   H4420     1.0  0.45663  0.89814  0.65406  1.0000
  H   H4421     1.0  0.46673  0.91663  0.64328  1.0000
  C   C2510     1.0  0.38972  0.88620  0.54636  1.0000
  C   C2511     1.0  0.40674  0.76408  0.97980  1.0000
  C   C2512     1.0  0.41960  0.96045  0.62744  1.0000
  H   H4422     1.0  0.46135  0.89876  0.63305  1.0000
  H   H4423     1.0  0.35752  0.96870  0.58046  1.0000
  H   H4424     1.0  0.45665  0.90741  0.67216  1.0000
  H   H4425     1.0  0.46829  0.89316  0.67869  1.0000
  H   H4426     1.0  0.44301  0.78285  0.94593  1.0000
  H   H4427     1.0  0.26182  0.95715  0.55300  1.0000
  C   C2513     1.0  0.29340  0.95609  0.53780  1.0000
  H   H4428     1.0  0.38491  0.78115  0.97130  1.0000
  H   H4429     1.0  0.46548  0.79682  0.89403  1.0000
  C   C2514     1.0  0.42178  0.88843  0.82407  1.0000
  H   H4430     1.0  0.35990  0.95795  0.53949  1.0000
  H   H4431     1.0  0.31892  0.92894  0.57585  1.0000
  H   H4432     1.0  0.40930  0.94759  0.64467  1.0000
  H   H4433     1.0  0.46749  0.80215  0.86987  1.0000
  C   C2515     1.0  0.25913  0.95864  0.57350  1.0000
  H   H4434     1.0  0.44057  0.89282  0.67654  1.0000
  H   H4435     1.0  0.45237  0.87880  0.68357  1.0000
  H   H4436     1.0  0.44539  0.89282  0.69138  1.0000
  C   C2516     1.0  0.39820  0.88435  0.85920  1.0000
  H   H4437     1.0  0.44525  0.97605  0.52845  1.0000
  H   H4438     1.0  0.26583  0.93118  0.54962  1.0000
  C   C2517     1.0  0.30961  0.93672  0.57628  1.0000
  C   C2518     1.0  0.46902  0.96566  0.77628  1.0000
  C   C2519     1.0  0.45502  0.96353  0.54391  1.0000
  H   H4439     1.0  0.43880  0.96994  0.70800  1.0000
  C   C2520     1.0  0.40050  0.87353  0.88313  1.0000
  C   C2521     1.0  0.47100  0.85723  0.96318  1.0000
  C   C2522     1.0  0.39414  0.75396  0.94708  1.0000
  C   C2523     1.0  0.46120  0.96993  0.85810  1.0000
  H   H4440     1.0  0.46912  0.88402  0.97907  1.0000
  C   C2524     1.0  0.47296  0.84960  0.86949  1.0000
  H   H4441     1.0  0.45709  0.87820  0.97457  1.0000
  C   C2525     1.0  0.46976  0.98092  0.80851  1.0000
  H   H4442     1.0  0.46804  0.86737  0.95699  1.0000
  H   H4443     1.0  0.46505  0.96246  0.53728  1.0000
  H   H4444     1.0  0.45599  0.96332  0.55406  1.0000
  H   H4445     1.0  0.45099  0.95492  0.54432  1.0000
  H   H4446     1.0  0.44387  0.96185  0.61360  1.0000
  N   N139      1.0  0.43716  0.96902  0.87163  1.0000
  H   H4447     1.0  0.36075  0.86470  0.58605  1.0000
  H   H4448     1.0  0.38441  0.97910  0.57352  1.0000
  H   H4449     1.0  0.32072  0.95035  0.48476  1.0000
  C   C2526     1.0  0.36822  0.97636  0.50844  1.0000
  H   H4450     1.0  0.39382  0.75116  0.96771  1.0000
  C   C2527     1.0  0.47177  0.89886  0.62801  1.0000
  H   H4451     1.0  0.41527  0.96893  0.67348  1.0000
  H   H4452     1.0  0.39469  0.96774  0.72741  1.0000
  H   H4453     1.0  0.39334  0.90884  0.86448  1.0000
  C   C2528     1.0  0.40246  0.96175  0.72089  1.0000
  C   C2529     1.0  0.39570  0.95560  0.71405  1.0000
  H   H4454     1.0  0.32229  0.97305  0.56987  1.0000
  H   H4455     1.0  0.47257  0.90937  0.62358  1.0000
  S   S564      1.0  0.44837  0.82546  0.95600  1.0000
  H   H4456     1.0  0.42714  0.96139  0.72889  1.0000
  H   H4457     1.0  0.41124  0.96949  0.73642  1.0000
  H   H4458     1.0  0.45126  0.98465  0.53695  1.0000
  H   H4459     1.0  0.41988  0.96245  0.70577  1.0000
  H   H4460     1.0  0.47777  0.85599  0.88450  1.0000
  H   H4461     1.0  0.39406  0.93257  0.85951  1.0000
  H   H4462     1.0  0.41791  0.96433  0.88122  1.0000
  H   H4463     1.0  0.38377  0.90183  0.84289  1.0000
  H   H4464     1.0  0.40480  0.94949  0.61692  1.0000
  H   H4465     1.0  0.44638  0.81851  0.86835  1.0000
  C   C2530     1.0  0.47599  0.77883  0.97337  1.0000
  H   H4466     1.0  0.39597  0.90332  0.82788  1.0000
  S   S565      1.0  0.44603  0.94701  0.69780  1.0000
  H   H4467     1.0  0.34837  0.87685  0.57806  1.0000
  H   H4468     1.0  0.40812  0.95338  0.72737  1.0000
  H   H4469     1.0  0.46339  0.97264  0.57854  1.0000
  H   H4470     1.0  0.38954  0.96350  0.70772  1.0000
  H   H4471     1.0  0.40320  0.94910  0.70774  1.0000
  H   H4472     1.0  0.43871  0.81059  0.88487  1.0000
  H   H4473     1.0  0.45421  0.79433  0.87150  1.0000
  H   H4474     1.0  0.46944  0.75871  0.88556  1.0000
  H   H4475     1.0  0.47324  0.88147  0.62044  1.0000
  H   H4476     1.0  0.44614  0.76549  0.87150  1.0000
  H   H4477     1.0  0.41479  0.75679  0.95603  1.0000
  H   H4478     1.0  0.39238  0.79026  0.94623  1.0000
  H   H4479     1.0  0.44875  0.96482  0.88657  1.0000
  C   C2531     1.0  0.35818  0.87515  0.58043  1.0000
  C   C2532     1.0  0.30156  0.93517  0.56730  1.0000
  H   H4480     1.0  0.29988  0.92487  0.57059  1.0000
  C   C2533     1.0  0.48112  0.89198  0.63786  1.0000
  H   H4481     1.0  0.28912  0.96958  0.48502  1.0000
  C   C2534     1.0  0.26283  0.93073  0.56052  1.0000
  H   H4482     1.0  0.47475  0.75912  0.90482  1.0000
  S   S566      1.0  0.47804  0.96022  0.68734  1.0000
  H   H4483     1.0  0.45125  0.79040  0.89752  1.0000
  C   C2535     1.0  0.40920  0.87352  0.57468  1.0000
  H   H4484     1.0  0.35693  0.94809  0.58825  1.0000
  H   H4485     1.0  0.39284  0.76219  0.93821  1.0000
  H   H4486     1.0  0.30218  0.92445  0.48610  1.0000
  C   C2536     1.0  0.46881  0.85110  0.94260  1.0000
  C   C2537     1.0  0.41183  0.95144  0.86697  1.0000
  C   C2538     1.0  0.32029  0.93011  0.48526  1.0000
  H   H4487     1.0  0.48528  0.98310  0.66340  1.0000
  H   H4488     1.0  0.48357  0.79173  0.94554  1.0000
  C   C2539     1.0  0.47553  0.91193  0.64766  1.0000
  C   C2540     1.0  0.34570  0.95368  0.57227  1.0000
  C   C2541     1.0  0.48122  0.81841  0.91769  1.0000
  C   C2542     1.0  0.42050  0.97143  0.72922  1.0000
  C   C2543     1.0  0.46405  0.76935  0.88397  1.0000
  C   C2544     1.0  0.36661  0.95380  0.54653  1.0000
  C   C2545     1.0  0.38077  0.95218  0.53816  1.0000
  H   H4489     1.0  0.31104  0.94449  0.52726  1.0000
  H   H4490     1.0  0.38799  0.94788  0.54472  1.0000
  H   H4491     1.0  0.40977  0.88930  0.87065  1.0000
  H   H4492     1.0  0.29913  0.90274  0.48594  1.0000
  H   H4493     1.0  0.25538  0.94954  0.57909  1.0000
  H   H4494     1.0  0.34410  0.94833  0.56548  1.0000
  C   C2546     1.0  0.44323  0.97127  0.58150  1.0000
  H   H4495     1.0  0.47001  0.85369  0.85973  1.0000
  H   H4496     1.0  0.40077  0.80046  0.95042  1.0000
  C   C2547     1.0  0.28825  0.94559  0.56799  1.0000
  C   C2548     1.0  0.46351  0.74009  0.95563  1.0000
  C   C2549     1.0  0.25583  0.97980  0.52823  1.0000
  H   H4497     1.0  0.41303  0.88205  0.55367  1.0000
  H   H4498     1.0  0.46226  0.94349  0.89616  1.0000
  H   H4499     1.0  0.46545  0.86775  0.87645  1.0000
  C   C2550     1.0  0.39302  0.89618  0.83742  1.0000
  N   N140      1.0  0.42013  0.97227  0.63224  1.0000
  C   C2551     1.0  0.36428  0.91834  0.48548  1.0000
  S   S567      1.0  0.45743  0.93709  0.78069  1.0000
  H   H4500     1.0  0.38793  0.91792  0.84929  1.0000
  H   H4501     1.0  0.42970  0.95400  0.79211  1.0000
  C   C2552     1.0  0.37864  0.89041  0.82563  1.0000
  C   C2553     1.0  0.46706  0.96220  0.71329  1.0000
  H   H4502     1.0  0.45974  0.76988  0.91046  1.0000
  S   S568      1.0  0.44564  0.95280  0.81142  1.0000
  H   H4503     1.0  0.46191  0.96427  0.62255  1.0000
  C   C2554     1.0  0.44825  0.81258  0.87824  1.0000
  H   H4504     1.0  0.47262  0.81441  0.92316  1.0000
  H   H4505     1.0  0.39811  0.86428  0.88258  1.0000
  H   H4506     1.0  0.43702  0.96067  0.74697  1.0000
  H   H4507     1.0  0.41035  0.86295  0.54872  1.0000
  C   C2555     1.0  0.24907  0.97489  0.49642  1.0000
  C   C2556     1.0  0.43251  0.84795  0.96449  1.0000
  H   H4508     1.0  0.39904  0.93850  0.63243  1.0000
  H   H4509     1.0  0.36724  0.97241  0.54986  1.0000
  H   H4510     1.0  0.27972  0.94422  0.53956  1.0000
  H   H4511     1.0  0.42796  0.97028  0.54906  1.0000
  C   C2557     1.0  0.38236  0.87596  0.57032  1.0000
  C   C2558     1.0  0.44745  0.96731  0.85896  1.0000
  H   H4512     1.0  0.48162  0.77166  0.93107  1.0000
  H   H4513     1.0  0.31221  0.94665  0.57284  1.0000
  H   H4514     1.0  0.47190  0.78594  0.91244  1.0000
  H   H4515     1.0  0.37591  0.88210  0.82345  1.0000
  H   H4516     1.0  0.46637  0.76754  0.93165  1.0000
  H   H4517     1.0  0.40789  0.97332  0.56296  1.0000
  H   H4518     1.0  0.29918  0.97883  0.49862  1.0000
  H   H4519     1.0  0.37900  0.81285  0.94653  1.0000
  H   H4520     1.0  0.38454  0.76710  0.96034  1.0000
  H   H4521     1.0  0.46949  0.95865  0.75916  1.0000
  C   C2559     1.0  0.35776  0.93142  0.48628  1.0000
  H   H4522     1.0  0.39635  0.87483  0.85863  1.0000
  C   C2560     1.0  0.27422  0.93211  0.56592  1.0000
  C   C2561     1.0  0.37975  0.80552  0.95614  1.0000
  H   H4523     1.0  0.39745  0.97909  0.61990  1.0000
  C   C2562     1.0  0.39481  0.89713  0.52169  1.0000
  C   C2563     1.0  0.45426  0.93880  0.89624  1.0000
  H   H4524     1.0  0.40682  0.97644  0.70243  1.0000
  C   C2564     1.0  0.44329  0.97148  0.61594  1.0000
  H   H4525     1.0  0.41378  0.87301  0.83990  1.0000
  H   H4526     1.0  0.42845  0.95234  0.62872  1.0000
  H   H4527     1.0  0.38257  0.89682  0.81598  1.0000
  C   C2565     1.0  0.42432  0.96631  0.87102  1.0000
  C   C2566     1.0  0.47693  0.77553  0.91173  1.0000
  H   H4528     1.0  0.25434  0.94759  0.53200  1.0000
  H   H4529     1.0  0.42236  0.87411  0.58654  1.0000
  H   H4530     1.0  0.38104  0.88406  0.57558  1.0000
  H   H4531     1.0  0.39510  0.83854  0.54305  1.0000
  Fe  Fe284     1.0  0.42805  0.94557  0.82530  1.0000
  C   C2567     1.0  0.43449  0.98347  0.87235  1.0000
  H   H4532     1.0  0.39820  0.96062  0.63595  1.0000
  C   C2568     1.0  0.36854  0.87774  0.56747  1.0000
  H   H4533     1.0  0.38833  0.89200  0.51941  1.0000
  S   S569      1.0  0.40878  0.95971  0.83078  1.0000
  H   H4534     1.0  0.38837  0.89000  0.86366  1.0000
  H   H4535     1.0  0.47036  0.97617  0.80031  1.0000
  H   H4536     1.0  0.39890  0.97770  0.67085  1.0000
  C   C2569     1.0  0.40109  0.84323  0.54657  1.0000
  H   H4537     1.0  0.40284  0.85572  0.56509  1.0000
  S   S570      1.0  0.47473  0.93445  0.56875  1.0000
  H   H4538     1.0  0.39130  0.88028  0.88724  1.0000
  H   H4539     1.0  0.40285  0.89893  0.51271  1.0000
  N   N141      1.0  0.40359  0.89190  0.84541  1.0000
  H   H4540     1.0  0.41651  0.87343  0.86601  1.0000
  Fe  Fe285     1.0  0.42798  0.74167  0.91508  1.0000
  H   H4541     1.0  0.38264  0.96195  0.53189  1.0000
  C   C2570     1.0  0.48066  0.96926  0.64908  1.0000
  H   H4542     1.0  0.43926  0.96479  0.63744  1.0000
  C   C2571     1.0  0.26812  0.95695  0.55967  1.0000
  C   C2572     1.0  0.40074  0.88860  0.53359  1.0000
  C   C2573     1.0  0.44476  0.76108  0.88239  1.0000
  C   C2574     1.0  0.40702  0.94391  0.62679  1.0000
  H   H4543     1.0  0.39478  0.79002  0.97452  1.0000
  N   N142      1.0  0.35043  0.96622  0.56442  1.0000
  H   H4544     1.0  0.40524  0.93119  0.84366  1.0000
  Fe  Fe286     1.0  0.44874  0.93488  0.80292  1.0000
  H   H4545     1.0  0.35742  0.88208  0.58679  1.0000
  H   H4546     1.0  0.45454  0.82408  0.98052  1.0000
  H   H4547     1.0  0.39988  0.89209  0.56315  1.0000
  H   H4548     1.0  0.41518  0.86357  0.57321  1.0000
  H   H4549     1.0  0.41634  0.90143  0.85028  1.0000
  Fe  Fe287     1.0  0.44249  0.83172  0.93613  1.0000
  S   S571      1.0  0.48602  0.89493  0.69454  1.0000
  C   C2575     1.0  0.47358  0.98190  0.69811  1.0000
  H   H4550     1.0  0.46862  0.89724  0.60940  1.0000
  C   C2576     1.0  0.31826  0.90181  0.49691  1.0000
  C   C2577     1.0  0.24713  0.97013  0.57197  1.0000
  H   H4551     1.0  0.47190  0.84310  0.93692  1.0000
  H   H4552     1.0  0.25024  0.97948  0.56592  1.0000
  H   H4553     1.0  0.48689  0.84626  0.94904  1.0000
  C   C2578     1.0  0.32337  0.88661  0.50118  1.0000
  C   C2579     1.0  0.32118  0.88225  0.51642  1.0000
  H   H4554     1.0  0.27203  0.96618  0.55528  1.0000
  H   H4555     1.0  0.42755  0.97724  0.68765  1.0000
  H   H4556     1.0  0.43333  0.96045  0.89293  1.0000
  C   C2580     1.0  0.44175  0.96045  0.88408  1.0000
  C   C2581     1.0  0.47507  0.89171  0.61656  1.0000
  H   H4557     1.0  0.30807  0.90435  0.50302  1.0000
  H   H4558     1.0  0.46282  0.96985  0.86789  1.0000
  H   H4559     1.0  0.40380  0.97012  0.64953  1.0000
  H   H4560     1.0  0.38477  0.89605  0.54886  1.0000
  H   H4561     1.0  0.48122  0.88116  0.64028  1.0000
  H   H4562     1.0  0.46808  0.80351  0.94572  1.0000
  H   H4563     1.0  0.40872  0.94679  0.87770  1.0000
  H   H4564     1.0  0.31821  0.88091  0.49788  1.0000
  H   H4565     1.0  0.33418  0.88392  0.49708  1.0000
  H   H4566     1.0  0.31046  0.88442  0.52113  1.0000
  H   H4567     1.0  0.32515  0.87136  0.51934  1.0000
  H   H4568     1.0  0.32633  0.88751  0.52032  1.0000
  H   H4569     1.0  0.27089  0.93077  0.57697  1.0000
  C   C2582     1.0  0.48422  0.82124  0.90373  1.0000
  H   H4570     1.0  0.26468  0.96092  0.57960  1.0000
  C   C2583     1.0  0.47300  0.79353  0.95065  1.0000
  H   H4571     1.0  0.47209  0.95591  0.78300  1.0000
  H   H4572     1.0  0.42530  0.98257  0.65221  1.0000
  H   H4573     1.0  0.33588  0.95622  0.57899  1.0000
  S   S572      1.0  0.43866  0.93309  0.84138  1.0000
  C   C2584     1.0  0.46256  0.96893  0.72376  1.0000
  C   C2585     1.0  0.45058  0.93498  0.76838  1.0000
  C   C2586     1.0  0.39429  0.78463  0.96722  1.0000
  H   H4574     1.0  0.48684  0.78565  0.88511  1.0000
  S   S573      1.0  0.43016  0.92856  0.81575  1.0000
  H   H4575     1.0  0.29933  0.95821  0.54359  1.0000
  H   H4576     1.0  0.46627  0.95200  0.71517  1.0000
  H   H4577     1.0  0.40727  0.87077  0.89010  1.0000
  H   H4578     1.0  0.41233  0.89005  0.58070  1.0000
  H   H4579     1.0  0.40973  0.84523  0.53835  1.0000
  H   H4580     1.0  0.41788  0.78602  0.96733  1.0000
  C   C2587     1.0  0.30278  0.95296  0.52486  1.0000
  C   C2588     1.0  0.32711  0.98040  0.56185  1.0000
  C   C2589     1.0  0.42990  0.97760  0.58477  1.0000
  C   C2590     1.0  0.46032  0.73776  0.96960  1.0000
  H   H4581     1.0  0.45902  0.95981  0.66628  1.0000
  H   H4582     1.0  0.38923  0.94941  0.72172  1.0000
  C   C2591     1.0  0.38906  0.88480  0.83411  1.0000
  H   H4583     1.0  0.38207  0.88317  0.54350  1.0000
  H   H4584     1.0  0.37959  0.81095  0.96365  1.0000
  H   H4585     1.0  0.28241  0.92328  0.56435  1.0000
  C   C2592     1.0  0.46995  0.76986  0.90433  1.0000
  H   H4586     1.0  0.42004  0.96323  0.61647  1.0000
  H   H4587     1.0  0.36517  0.88814  0.56216  1.0000
  H   H4588     1.0  0.46859  0.93619  0.75346  1.0000
  H   H4589     1.0  0.42637  0.88257  0.56926  1.0000
  H   H4590     1.0  0.40743  0.89406  0.53501  1.0000
  H   H4591     1.0  0.42858  0.95823  0.85322  1.0000
  H   H4592     1.0  0.44278  0.77939  0.88780  1.0000
  H   H4593     1.0  0.38894  0.90692  0.52380  1.0000
  S   S574      1.0  0.47156  0.94417  0.83385  1.0000
  H   H4594     1.0  0.29745  0.95059  0.51860  1.0000
  N   N143      1.0  0.39403  0.87650  0.55846  1.0000
  C   C2593     1.0  0.45850  0.93518  0.75547  1.0000
  H   H4595     1.0  0.46835  0.78602  0.94947  1.0000
  C   C2594     1.0  0.34807  0.93209  0.58976  1.0000
  C   C2595     1.0  0.41810  0.88050  0.57793  1.0000
  C   C2596     1.0  0.40407  0.88167  0.56191  1.0000
  H   H4596     1.0  0.47612  0.90564  0.87540  1.0000
  H   H4597     1.0  0.41875  0.78499  0.95072  1.0000
  H   H4598     1.0  0.36958  0.89634  0.83103  1.0000
  H   H4599     1.0  0.24118  0.96188  0.49011  1.0000
  H   H4600     1.0  0.34525  0.92723  0.58337  1.0000
  C   C2597     1.0  0.28655  0.94436  0.54559  1.0000
  H   H4601     1.0  0.45857  0.92811  0.89611  1.0000
  C   C2598     1.0  0.48586  0.86763  0.86468  1.0000
  H   H4602     1.0  0.41947  0.96090  0.65245  1.0000
  C   C2599     1.0  0.39880  0.83982  0.96792  1.0000
  H   H4603     1.0  0.40770  0.77160  0.94592  1.0000
  H   H4604     1.0  0.43809  0.88261  0.80806  1.0000
  N   N144      1.0  0.46952  0.77718  0.89011  1.0000
  S   S575      1.0  0.23956  0.91527  0.50900  1.0000
  H   H4605     1.0  0.47021  0.97302  0.81776  1.0000
  C   C2600     1.0  0.34586  0.97271  0.51653  1.0000
  C   C2601     1.0  0.44825  0.94561  0.88401  1.0000
  C   C2602     1.0  0.41575  0.88293  0.83897  1.0000
  H   H4606     1.0  0.44711  0.76475  0.90022  1.0000
  C   C2603     1.0  0.40222  0.98340  0.55913  1.0000
  H   H4607     1.0  0.44159  0.87609  0.82446  1.0000
  H   H4608     1.0  0.37108  0.80081  0.95942  1.0000
  H   H4609     1.0  0.40562  0.97753  0.79139  1.0000
  C   C2604     1.0  0.43227  0.97896  0.54791  1.0000
  H   H4610     1.0  0.39842  0.98300  0.55066  1.0000
  H   H4611     1.0  0.47848  0.93940  0.80737  1.0000
  C   C2605     1.0  0.43384  0.87836  0.81865  1.0000
  Fe  Fe288     1.0  0.46807  0.94302  0.69300  1.0000
  H   H4612     1.0  0.44721  0.96822  0.65605  1.0000
  C   C2606     1.0  0.44221  0.83633  0.96696  1.0000
  H   H4613     1.0  0.48301  0.97458  0.73486  1.0000
  H   H4614     1.0  0.34563  0.98191  0.54739  1.0000
  H   H4615     1.0  0.42378  0.88075  0.84440  1.0000
  C   C2607     1.0  0.47558  0.90524  0.86532  1.0000
  H   H4616     1.0  0.41041  0.92210  0.85904  1.0000
  H   H4617     1.0  0.30454  0.94792  0.48582  1.0000
  H   H4618     1.0  0.47219  0.97523  0.75563  1.0000
  H   H4619     1.0  0.38480  0.87816  0.84339  1.0000
  C   C2608     1.0  0.46317  0.91529  0.86192  1.0000
  C   C2609     1.0  0.35031  0.97421  0.57408  1.0000
  H   H4620     1.0  0.46605  0.88866  0.87234  1.0000
  H   H4621     1.0  0.47314  0.89142  0.85509  1.0000
  H   H4622     1.0  0.43103  0.86900  0.81913  1.0000
  H   H4623     1.0  0.48156  0.95198  0.74077  1.0000
  H   H4624     1.0  0.48297  0.97193  0.62269  1.0000
  C   C2610     1.0  0.47512  0.89098  0.86493  1.0000
  H   H4625     1.0  0.46070  0.79691  0.96929  1.0000
  H   H4626     1.0  0.41458  0.89064  0.81769  1.0000
  H   H4627     1.0  0.46776  0.74850  0.94987  1.0000
  H   H4628     1.0  0.45981  0.93407  0.73532  1.0000
  C   C2611     1.0  0.47141  0.79318  0.96540  1.0000
  H   H4629     1.0  0.39765  0.87867  0.82840  1.0000
  H   H4630     1.0  0.43351  0.76248  0.95372  1.0000
  H   H4631     1.0  0.42559  0.98187  0.89389  1.0000
  H   H4632     1.0  0.46494  0.84504  0.87672  1.0000
  H   H4633     1.0  0.43237  0.94577  0.86744  1.0000
  H   H4634     1.0  0.42512  0.89769  0.82286  1.0000
  C   C2612     1.0  0.45787  0.96391  0.65581  1.0000
  H   H4635     1.0  0.38230  0.94538  0.53144  1.0000
  H   H4636     1.0  0.44073  0.94016  0.88452  1.0000
  H   H4637     1.0  0.47798  0.87639  0.88878  1.0000
  H   H4638     1.0  0.34906  0.98319  0.48630  1.0000
  H   H4639     1.0  0.46229  0.91533  0.85179  1.0000
  H   H4640     1.0  0.45420  0.91283  0.86936  1.0000
  H   H4641     1.0  0.46382  0.92545  0.86195  1.0000
  H   H4642     1.0  0.38115  0.85395  0.96255  1.0000
  H   H4643     1.0  0.41577  0.98152  0.53311  1.0000
  H   H4644     1.0  0.44941  0.95709  0.85731  1.0000
  N   N145      1.0  0.40613  0.77314  0.96615  1.0000
  C   C2613     1.0  0.40057  0.86280  0.55578  1.0000
  H   H4645     1.0  0.38403  0.85358  0.55837  1.0000
  C   C2614     1.0  0.41832  0.77900  0.96114  1.0000
  C   C2615     1.0  0.40618  0.76541  0.95628  1.0000
  C   C2616     1.0  0.39389  0.75954  0.95885  1.0000
  C   C2617     1.0  0.39262  0.79505  0.95407  1.0000
  C   C2618     1.0  0.43187  0.76896  0.96078  1.0000
  S   S576      1.0  0.24202  0.94286  0.51419  1.0000
  C   C2619     1.0  0.42719  0.85591  0.97403  1.0000
  C   C2620     1.0  0.25973  0.96659  0.52679  1.0000
  H   H4646     1.0  0.42864  0.79763  0.98006  1.0000
  S   S577      1.0  0.46283  0.74858  0.97785  1.0000
  H   H4647     1.0  0.45807  0.96817  0.77820  1.0000
  C   C2621     1.0  0.41569  0.97304  0.79321  1.0000
  C   C2622     1.0  0.46361  0.98300  0.84847  1.0000
  H   H4648     1.0  0.31908  0.92759  0.49624  1.0000
  N   N146      1.0  0.47764  0.89699  0.65058  1.0000
  C   C2623     1.0  0.40938  0.97846  0.66868  1.0000
  C   C2624     1.0  0.46300  0.98233  0.72131  1.0000
  C   C2625     1.0  0.43448  0.97280  0.62997  1.0000
  H   H4649     1.0  0.38245  0.94881  0.48548  1.0000
  H   H4650     1.0  0.25355  0.98377  0.49214  1.0000
  H   H4651     1.0  0.43526  0.98239  0.63152  1.0000
  H   H4652     1.0  0.48403  0.93633  0.72623  1.0000
  H   H4653     1.0  0.41527  0.97239  0.80384  1.0000
  H   H4654     1.0  0.44351  0.97368  0.85010  1.0000
  C   C2626     1.0  0.44611  0.97658  0.53838  1.0000
  H   H4655     1.0  0.31108  0.98298  0.51815  1.0000
  H   H4656     1.0  0.46350  0.97141  0.60490  1.0000
  N   N147      1.0  0.48004  0.85757  0.97159  1.0000
  C   C2627     1.0  0.43003  0.97010  0.74879  1.0000
  H   H4657     1.0  0.41873  0.95898  0.78073  1.0000
  C   C2628     1.0  0.48418  0.97918  0.55463  1.0000
  C   C2629     1.0  0.48315  0.77855  0.88192  1.0000
  H   H4658     1.0  0.48651  0.81918  0.93541  1.0000
  H   H4659     1.0  0.31739  0.97842  0.54741  1.0000
  H   H4660     1.0  0.41844  0.97534  0.86538  1.0000
  H   H4661     1.0  0.48417  0.90865  0.85797  1.0000
  H   H4662     1.0  0.43058  0.97265  0.82731  1.0000
  C   C2630     1.0  0.48369  0.93314  0.63570  1.0000
  H   H4663     1.0  0.48366  0.86986  0.85459  1.0000
  H   H4664     1.0  0.34321  0.96965  0.48458  1.0000
  H   H4665     1.0  0.47246  0.97344  0.77858  1.0000
  H   H4666     1.0  0.42106  0.96771  0.75625  1.0000
  C   C2631     1.0  0.46578  0.97472  0.64892  1.0000
  H   H4667     1.0  0.43553  0.98178  0.72921  1.0000
  H   H4668     1.0  0.47331  0.98457  0.84863  1.0000
  H   H4669     1.0  0.41260  0.95289  0.79831  1.0000
  C   C2632     1.0  0.42644  0.97888  0.73578  1.0000
  H   H4670     1.0  0.32139  0.97831  0.49709  1.0000
  H   H4671     1.0  0.46156  0.98297  0.65419  1.0000
  H   H4672     1.0  0.25583  0.96688  0.50200  1.0000
  C   C2633     1.0  0.41499  0.98164  0.65361  1.0000
  H   H4673     1.0  0.47534  0.93714  0.63050  1.0000
  H   H4674     1.0  0.45745  0.98220  0.61654  1.0000
  H   H4675     1.0  0.48210  0.75685  0.92589  1.0000
  H   H4676     1.0  0.48532  0.77419  0.96728  1.0000
  C   C2634     1.0  0.48600  0.92069  0.59022  1.0000
  H   H4677     1.0  0.47965  0.97991  0.53576  1.0000
  H   H4678     1.0  0.43493  0.97708  0.78864  1.0000
  H   H4679     1.0  0.46385  0.98259  0.83816  1.0000
  C   C2635     1.0  0.44573  0.98330  0.68279  1.0000
  C   C2636     1.0  0.42603  0.98121  0.78429  1.0000
  C   C2637     1.0  0.24322  0.98433  0.53565  1.0000
  N   N148      1.0  0.31821  0.90754  0.48230  1.0000
  H   H4680     1.0  0.48554  0.89114  0.61113  1.0000
  H   H4681     1.0  0.38142  0.82077  0.98187  1.0000
  H   H4682     1.0  0.52223  0.04422  0.05716  1.0000
  H   H4683     1.0  0.51129  0.06985  0.27065  1.0000
  H   H4684     1.0  0.49853  0.15267  0.02991  1.0000
  H   H4685     1.0  0.60081  0.20779  0.99406  1.0000
  C   C2638     1.0  0.57739  0.03379  0.01146  1.0000
  Fe  Fe289     1.0  0.72521  0.03692  0.42531  1.0000
  N   N149      1.0  0.51618  0.98774  0.33921  1.0000
  C   C2639     1.0  0.51298  0.01737  0.20885  1.0000
  S   S578      1.0  0.55047  0.22993  0.03395  1.0000
  H   H4686     1.0  0.49866  0.05352  0.23707  1.0000
  C   C2640     1.0  0.66486  0.02607  0.44858  1.0000
  H   H4687     1.0  0.58346  0.99210  0.36525  1.0000
  H   H4688     1.0  0.58944  0.17617  0.03069  1.0000
  Fe  Fe290     1.0  0.63055  0.02676  0.41500  1.0000
  S   S579      1.0  0.62102  0.04816  0.40779  1.0000
  S   S580      1.0  0.62989  0.01398  0.43581  1.0000
  Fe  Fe291     1.0  0.64208  0.02274  0.38666  1.0000
  S   S581      1.0  0.63380  0.04366  0.37711  1.0000
  S   S582      1.0  0.65366  0.00810  0.37407  1.0000
  Fe  Fe292     1.0  0.64045  0.04877  0.39287  1.0000
  S   S583      1.0  0.65084  0.06558  0.38880  1.0000
  Fe  Fe293     1.0  0.61530  0.04093  0.39262  1.0000
  S   S584      1.0  0.59467  0.04623  0.38847  1.0000
  S   S585      1.0  0.65030  0.02787  0.40113  1.0000
  S   S586      1.0  0.62324  0.01955  0.40127  1.0000
  Fe  Fe294     1.0  0.56385  0.04286  0.32974  1.0000
  S   S587      1.0  0.55471  0.02670  0.34458  1.0000
  S   S588      1.0  0.57981  0.05068  0.33360  1.0000
  Fe  Fe295     1.0  0.55104  0.04159  0.30775  1.0000
  S   S589      1.0  0.54134  0.02516  0.32098  1.0000
  S   S590      1.0  0.54595  0.04912  0.28738  1.0000
  Fe  Fe296     1.0  0.53622  0.03685  0.33674  1.0000
  S   S591      1.0  0.51559  0.03750  0.34974  1.0000
  Fe  Fe297     1.0  0.56049  0.01664  0.32741  1.0000
  H   H4689     1.0  0.54511  0.20193  0.00385  1.0000
  S   S592      1.0  0.54474  0.05413  0.32320  1.0000
  S   S593      1.0  0.57083  0.03197  0.31287  1.0000
  S   S594      1.0  0.55881  0.02072  0.09790  1.0000
  S   S595      1.0  0.71343  0.03428  0.44641  1.0000
  H   H4690     1.0  0.59767  0.99582  0.36784  1.0000
  S   S596      1.0  0.71342  0.05052  0.37965  1.0000
  S   S597      1.0  0.72488  0.02553  0.41077  1.0000
  Fe  Fe298     1.0  0.54746  0.01085  0.11773  1.0000
  C   C2641     1.0  0.50053  0.07091  0.27509  1.0000
  S   S598      1.0  0.52982  0.05362  0.08450  1.0000
  S   S599      1.0  0.52783  0.02374  0.11443  1.0000
  H   H4691     1.0  0.68286  0.04545  0.35674  1.0000
  C   C2642     1.0  0.55714  0.00813  0.14849  1.0000
  H   H4692     1.0  0.48761  0.10436  0.07542  1.0000
  C   C2643     1.0  0.49509  0.01486  0.10693  1.0000
  H   H4693     1.0  0.59625  0.18896  0.00766  1.0000
  H   H4694     1.0  0.57076  0.03339  0.14815  1.0000
  C   C2644     1.0  0.61573  0.98732  0.24594  1.0000
  H   H4695     1.0  0.48723  0.04486  0.23528  1.0000
  H   H4696     1.0  0.52752  0.99955  0.29736  1.0000
  H   H4697     1.0  0.54037  0.99658  0.33638  1.0000
  H   H4698     1.0  0.48955  0.04844  0.09496  1.0000
  C   C2645     1.0  0.69132  0.99631  0.37328  1.0000
  C   C2646     1.0  0.61628  0.99838  0.34458  1.0000
  S   S600      1.0  0.55566  0.03225  0.21134  1.0000
  S   S601      1.0  0.51774  0.03300  0.22262  1.0000
  H   H4699     1.0  0.61786  0.98963  0.35299  1.0000
  C   C2647     1.0  0.70291  0.07875  0.44998  1.0000
  Fe  Fe299     1.0  0.56521  0.01671  0.22689  1.0000
  S   S602      1.0  0.57691  0.01967  0.24000  1.0000
  H   H4700     1.0  0.52140  0.00922  0.14255  1.0000
  H   H4701     1.0  0.50148  0.21015  0.01924  1.0000
  H   H4702     1.0  0.49840  0.01244  0.23827  1.0000
  H   H4703     1.0  0.51216  0.07392  0.20952  1.0000
  C   C2648     1.0  0.49989  0.03988  0.20675  1.0000
  C   C2649     1.0  0.50963  0.02983  0.21211  1.0000
  C   C2650     1.0  0.49070  0.03860  0.34711  1.0000
  H   H4704     1.0  0.52682  0.02718  0.25044  1.0000
  C   C2651     1.0  0.49887  0.00153  0.24142  1.0000
  H   H4705     1.0  0.59348  0.99075  0.40009  1.0000
  C   C2652     1.0  0.61704  0.22737  0.00736  1.0000
  H   H4706     1.0  0.68172  0.06609  0.46387  1.0000
  H   H4707     1.0  0.66195  0.07845  0.47508  1.0000
  C   C2653     1.0  0.51851  0.00122  0.16407  1.0000
  H   H4708     1.0  0.50327  0.08197  0.01661  1.0000
  C   C2654     1.0  0.50974  0.00951  0.25944  1.0000
  H   H4709     1.0  0.56089  0.00669  0.30557  1.0000
  H   H4710     1.0  0.58091  0.05068  0.17267  1.0000
  H   H4711     1.0  0.53613  0.02753  0.16325  1.0000
  C   C2655     1.0  0.52173  0.06912  0.21254  1.0000
  H   H4712     1.0  0.50279  0.17542  0.02020  1.0000
  H   H4713     1.0  0.52368  0.07543  0.21813  1.0000
  C   C2656     1.0  0.60832  0.02685  0.30783  1.0000
  H   H4714     1.0  0.60406  0.16713  0.02127  1.0000
  H   H4715     1.0  0.50825  0.08722  0.98930  1.0000
  H   H4716     1.0  0.58927  0.99580  0.25704  1.0000
  H   H4717     1.0  0.52251  0.01727  0.29666  1.0000
  C   C2657     1.0  0.68651  0.07344  0.41981  1.0000
  H   H4718     1.0  0.49194  0.98795  0.18312  1.0000
  C   C2658     1.0  0.59504  0.22896  0.98900  1.0000
  H   H4719     1.0  0.50904  0.99626  0.23754  1.0000
  H   H4720     1.0  0.49701  0.06489  0.25911  1.0000
  Fe  Fe300     1.0  0.52942  0.11491  0.00761  1.0000
  H   H4721     1.0  0.49552  0.08151  0.27212  1.0000
  H   H4722     1.0  0.53167  0.08321  0.02992  1.0000
  H   H4723     1.0  0.49897  0.20568  0.05081  1.0000
  C   C2659     1.0  0.56677  0.02452  0.15203  1.0000
  S   S603      1.0  0.54754  0.00756  0.23614  1.0000
  C   C2660     1.0  0.48888  0.07635  0.04281  1.0000
  H   H4724     1.0  0.63874  0.07368  0.43172  1.0000
  H   H4725     1.0  0.51345  0.03292  0.26343  1.0000
  H   H4726     1.0  0.68396  0.08898  0.45920  1.0000
  C   C2661     1.0  0.55195  0.08269  0.05155  1.0000
  C   C2662     1.0  0.53827  0.08433  0.05356  1.0000
  C   C2663     1.0  0.53166  0.07528  0.06364  1.0000
  C   C2664     1.0  0.53867  0.06445  0.07169  1.0000
  C   C2665     1.0  0.55234  0.06282  0.06970  1.0000
  C   C2666     1.0  0.55893  0.07196  0.05971  1.0000
  H   H4727     1.0  0.53277  0.09274  0.04754  1.0000
  H   H4728     1.0  0.52106  0.07674  0.06527  1.0000
  H   H4729     1.0  0.55779  0.05469  0.07605  1.0000
  H   H4730     1.0  0.56950  0.07073  0.05832  1.0000
  H   H4731     1.0  0.56515  0.05453  0.04290  1.0000
  H   H4732     1.0  0.50644  0.14922  0.99074  1.0000
  S   S604      1.0  0.56985  0.99494  0.33027  1.0000
  H   H4733     1.0  0.52279  0.04984  0.16648  1.0000
  H   H4734     1.0  0.59801  0.09934  0.34872  1.0000
  H   H4735     1.0  0.53904  0.05383  0.02795  1.0000
  H   H4736     1.0  0.58521  0.21584  0.04050  1.0000
  H   H4737     1.0  0.51975  0.04372  0.18432  1.0000
  C   C2667     1.0  0.52257  0.02522  0.26137  1.0000
  C   C2668     1.0  0.50691  0.01505  0.19998  1.0000
  H   H4738     1.0  0.65567  0.03129  0.46791  1.0000
  C   C2669     1.0  0.49781  0.02755  0.10133  1.0000
  S   S605      1.0  0.53542  0.15948  0.00575  1.0000
  H   H4739     1.0  0.50641  0.15418  0.00562  1.0000
  N   N150      1.0  0.69337  0.99877  0.35828  1.0000
  C   C2670     1.0  0.50336  0.04084  0.34053  1.0000
  C   C2671     1.0  0.50606  0.04592  0.32672  1.0000
  H   H4740     1.0  0.60105  0.22025  0.03490  1.0000
  S   S606      1.0  0.56175  0.12383  0.00779  1.0000
  H   H4741     1.0  0.69949  0.07435  0.44364  1.0000
  H   H4742     1.0  0.71224  0.98472  0.35519  1.0000
  H   H4743     1.0  0.51578  0.04774  0.32156  1.0000
  S   S607      1.0  0.51267  0.10901  0.00381  1.0000
  H   H4744     1.0  0.60783  0.03768  0.30609  1.0000
  H   H4745     1.0  0.60728  0.99043  0.24095  1.0000
  C   C2672     1.0  0.55428  0.04005  0.27482  1.0000
  C   C2673     1.0  0.54853  0.04183  0.26398  1.0000
  C   C2674     1.0  0.55518  0.03522  0.25350  1.0000
  C   C2675     1.0  0.56783  0.02715  0.25357  1.0000
  C   C2676     1.0  0.57359  0.02539  0.26438  1.0000
  C   C2677     1.0  0.56675  0.03161  0.27510  1.0000
  H   H4746     1.0  0.53893  0.04840  0.26368  1.0000
  H   H4747     1.0  0.55070  0.03671  0.24516  1.0000
  H   H4748     1.0  0.58344  0.01933  0.26436  1.0000
  H   H4749     1.0  0.57129  0.03027  0.28335  1.0000
  C   C2678     1.0  0.58415  0.04706  0.34929  1.0000
  C   C2679     1.0  0.57452  0.04686  0.36121  1.0000
  C   C2680     1.0  0.57798  0.04614  0.37322  1.0000
  C   C2681     1.0  0.59115  0.04520  0.37355  1.0000
  C   C2682     1.0  0.60091  0.04468  0.36177  1.0000
  C   C2683     1.0  0.59737  0.04585  0.34967  1.0000
  H   H4750     1.0  0.56429  0.04795  0.36104  1.0000
  H   H4751     1.0  0.57035  0.04661  0.38225  1.0000
  H   H4752     1.0  0.61107  0.04401  0.36185  1.0000
  H   H4753     1.0  0.60487  0.04610  0.34049  1.0000
  C   C2684     1.0  0.66822  0.06103  0.38664  1.0000
  C   C2685     1.0  0.67539  0.04870  0.38378  1.0000
  C   C2686     1.0  0.68923  0.04525  0.38225  1.0000
  C   C2687     1.0  0.69598  0.05408  0.38360  1.0000
  C   C2688     1.0  0.68882  0.06646  0.38635  1.0000
  C   C2689     1.0  0.67500  0.06991  0.38787  1.0000
  H   H4754     1.0  0.67030  0.04189  0.38256  1.0000
  H   H4755     1.0  0.69475  0.03582  0.37979  1.0000
  H   H4756     1.0  0.69400  0.07352  0.38692  1.0000
  H   H4757     1.0  0.66956  0.07952  0.38991  1.0000
  C   C2690     1.0  0.62894  0.00472  0.37603  1.0000
  C   C2691     1.0  0.64251  0.99906  0.37392  1.0000
  C   C2692     1.0  0.61302  0.21388  0.00976  1.0000
  H   H4758     1.0  0.62543  0.01518  0.37615  1.0000
  H   H4759     1.0  0.56499  0.98581  0.25904  1.0000
  H   H4760     1.0  0.70157  0.99093  0.45152  1.0000
  C   C2693     1.0  0.72999  0.04865  0.44841  1.0000
  C   C2694     1.0  0.71884  0.03640  0.46913  1.0000
  C   C2695     1.0  0.72127  0.04019  0.45522  1.0000
  H   H4761     1.0  0.67067  0.01691  0.44504  1.0000
  H   H4762     1.0  0.50412  0.14342  0.04493  1.0000
  H   H4763     1.0  0.49337  0.16699  0.04587  1.0000
  H   H4764     1.0  0.60608  0.00182  0.29498  1.0000
  H   H4765     1.0  0.67995  0.02294  0.36965  1.0000
  H   H4766     1.0  0.51856  0.98660  0.15357  1.0000
  H   H4767     1.0  0.49307  0.01081  0.14236  1.0000
  C   C2696     1.0  0.62353  0.04081  0.45852  1.0000
  C   C2697     1.0  0.62455  0.03519  0.44775  1.0000
  C   C2698     1.0  0.62811  0.02137  0.44917  1.0000
  C   C2699     1.0  0.63036  0.01320  0.46146  1.0000
  C   C2700     1.0  0.58972  0.22521  0.01913  1.0000
  H   H4768     1.0  0.62087  0.05152  0.45737  1.0000
  H   H4769     1.0  0.62257  0.04152  0.43837  1.0000
  H   H4770     1.0  0.63309  0.00250  0.46262  1.0000
  C   C2701     1.0  0.59140  0.99579  0.40848  1.0000
  H   H4771     1.0  0.51320  0.00516  0.17310  1.0000
  C   C2702     1.0  0.73682  0.99747  0.38338  1.0000
  H   H4772     1.0  0.57678  0.06869  0.17002  1.0000
  H   H4773     1.0  0.50567  0.06537  0.05780  1.0000
  C   C2703     1.0  0.55581  0.18591  0.01670  1.0000
  C   C2704     1.0  0.56177  0.03525  0.04373  1.0000
  C   C2705     1.0  0.52922  0.07991  0.98363  1.0000
  C   C2706     1.0  0.53705  0.00039  0.35585  1.0000
  C   C2707     1.0  0.60394  0.00622  0.32596  1.0000
  H   H4774     1.0  0.68714  0.08100  0.42478  1.0000
  H   H4775     1.0  0.67215  0.03824  0.47598  1.0000
  C   C2708     1.0  0.56141  0.00620  0.17028  1.0000
  H   H4776     1.0  0.61340  0.98870  0.27713  1.0000
  H   H4777     1.0  0.51597  0.00978  0.27740  1.0000
  H   H4778     1.0  0.49726  0.04955  0.20918  1.0000
  C   C2709     1.0  0.67271  0.03731  0.44300  1.0000
  H   H4779     1.0  0.55108  0.03780  0.04388  1.0000
  H   H4780     1.0  0.68072  0.00011  0.37769  1.0000
  H   H4781     1.0  0.61731  0.99630  0.24796  1.0000
  H   H4782     1.0  0.69533  0.04024  0.42527  1.0000
  H   H4783     1.0  0.50074  0.05164  0.27286  1.0000
  H   H4784     1.0  0.57794  0.99266  0.11633  1.0000
  S   S608      1.0  0.57191  0.02409  0.17607  1.0000
  H   H4785     1.0  0.53287  0.02124  0.18117  1.0000
  H   H4786     1.0  0.69614  0.05977  0.47038  1.0000
  H   H4787     1.0  0.49526  0.19714  0.00567  1.0000
  H   H4788     1.0  0.49324  0.00639  0.35249  1.0000
  C   C2710     1.0  0.54031  0.04570  0.17497  1.0000
  S   S609      1.0  0.53617  0.01715  0.08440  1.0000
  H   H4789     1.0  0.51456  0.99335  0.35757  1.0000
  H   H4790     1.0  0.51947  0.02709  0.17257  1.0000
  H   H4791     1.0  0.64764  0.04561  0.42578  1.0000
  C   C2711     1.0  0.68703  0.01304  0.35271  1.0000
  H   H4792     1.0  0.48909  0.98657  0.21162  1.0000
  H   H4793     1.0  0.62939  0.00737  0.32652  1.0000
  C   C2712     1.0  0.49657  0.07516  0.01835  1.0000
  H   H4794     1.0  0.60936  0.00115  0.38044  1.0000
  H   H4795     1.0  0.69687  0.00201  0.37609  1.0000
  H   H4796     1.0  0.50431  0.99069  0.18916  1.0000
  H   H4797     1.0  0.69153  0.01599  0.34187  1.0000
  H   H4798     1.0  0.53375  0.98816  0.32317  1.0000
  H   H4799     1.0  0.52047  0.07219  0.03545  1.0000
  H   H4800     1.0  0.61490  0.10649  0.35421  1.0000
  C   C2713     1.0  0.60131  0.98539  0.34271  1.0000
  C   C2714     1.0  0.63855  0.06595  0.42673  1.0000
  H   H4801     1.0  0.54676  0.04485  0.16500  1.0000
  H   H4802     1.0  0.52858  0.06940  0.98515  1.0000
  C   C2715     1.0  0.57960  0.01010  0.37218  1.0000
  N   N151      1.0  0.60819  0.08835  0.36464  1.0000
  C   C2716     1.0  0.61964  0.08088  0.35570  1.0000
  C   C2717     1.0  0.60597  0.07963  0.37857  1.0000
  C   C2718     1.0  0.59171  0.08208  0.38739  1.0000
  C   C2719     1.0  0.63344  0.07792  0.35902  1.0000
  C   C2720     1.0  0.59151  0.07582  0.40215  1.0000
  C   C2721     1.0  0.64393  0.06937  0.35006  1.0000
  H   H4803     1.0  0.62049  0.09855  0.36933  1.0000
  H   H4804     1.0  0.62054  0.08644  0.34507  1.0000
  H   H4805     1.0  0.61782  0.07104  0.35603  1.0000
  H   H4806     1.0  0.60847  0.06890  0.37818  1.0000
  H   H4807     1.0  0.61297  0.08038  0.38413  1.0000
  H   H4808     1.0  0.58527  0.07758  0.38426  1.0000
  H   H4809     1.0  0.58700  0.09275  0.38662  1.0000
  H   H4810     1.0  0.59315  0.07150  0.36406  1.0000
  H   H4811     1.0  0.63309  0.07266  0.36960  1.0000
  H   H4812     1.0  0.63689  0.08723  0.35727  1.0000
  H   H4813     1.0  0.59772  0.08004  0.40589  1.0000
  H   H4814     1.0  0.58121  0.07782  0.40811  1.0000
  H   H4815     1.0  0.59515  0.06487  0.40366  1.0000
  H   H4816     1.0  0.65342  0.06660  0.35336  1.0000
  C   C2722     1.0  0.62940  0.01880  0.47219  1.0000
  H   H4817     1.0  0.64553  0.07502  0.33951  1.0000
  H   H4818     1.0  0.49199  0.98764  0.25926  1.0000
  C   C2723     1.0  0.55279  0.16372  0.01819  1.0000
  C   C2724     1.0  0.68730  0.06808  0.47019  1.0000
  S   S610      1.0  0.53113  0.12196  0.02486  1.0000
  H   H4819     1.0  0.69656  0.08464  0.46871  1.0000
  H   H4820     1.0  0.64615  0.04992  0.44150  1.0000
  H   H4821     1.0  0.63732  0.21832  0.00960  1.0000
  H   H4822     1.0  0.68078  0.06041  0.43908  1.0000
  H   H4823     1.0  0.62848  0.06385  0.42999  1.0000
  H   H4824     1.0  0.71465  0.99441  0.46975  1.0000
  H   H4825     1.0  0.64066  0.99083  0.41820  1.0000
  H   H4826     1.0  0.68232  0.01614  0.40350  1.0000
  H   H4827     1.0  0.66446  0.06066  0.41516  1.0000
  H   H4828     1.0  0.65522  0.99172  0.46495  1.0000
  H   H4829     1.0  0.59112  0.98614  0.34177  1.0000
  C   C2725     1.0  0.52906  0.02880  0.17283  1.0000
  H   H4830     1.0  0.59814  0.13053  0.37610  1.0000
  Fe  Fe301     1.0  0.55664  0.99460  0.22136  1.0000
  H   H4831     1.0  0.64058  0.00139  0.34577  1.0000
  C   C2726     1.0  0.49689  0.11382  0.02783  1.0000
  H   H4832     1.0  0.52981  0.02609  0.26653  1.0000
  C   C2727     1.0  0.49467  0.06713  0.03276  1.0000
  Fe  Fe302     1.0  0.55251  0.21801  0.01882  1.0000
  C   C2728     1.0  0.52704  0.04285  0.17483  1.0000
  H   H4833     1.0  0.58446  0.03814  0.00265  1.0000
  C   C2729     1.0  0.67442  0.03426  0.42000  1.0000
  H   H4834     1.0  0.55478  0.15311  0.02236  1.0000
  H   H4835     1.0  0.57811  0.09265  0.34409  1.0000
  H   H4836     1.0  0.63062  0.99008  0.32787  1.0000
  H   H4837     1.0  0.67634  0.01399  0.35331  1.0000
  N   N152      1.0  0.50331  0.18982  0.03085  1.0000
  C   C2730     1.0  0.50719  0.17599  0.02817  1.0000
  C   C2731     1.0  0.50709  0.19996  0.01815  1.0000
  C   C2732     1.0  0.51125  0.18981  0.04048  1.0000
  H   H4838     1.0  0.50555  0.99353  0.28526  1.0000
  H   H4839     1.0  0.56737  0.01734  0.01671  1.0000
  C   C2733     1.0  0.50378  0.16458  0.04036  1.0000
  C   C2734     1.0  0.50903  0.20326  0.04447  1.0000
  C   C2735     1.0  0.50539  0.19803  0.00490  1.0000
  C   C2736     1.0  0.50839  0.20977  0.99335  1.0000
  S   S611      1.0  0.55891  0.23377  0.00112  1.0000
  C   C2737     1.0  0.50572  0.15162  0.03600  1.0000
  C   C2738     1.0  0.51902  0.20255  0.05248  1.0000
  H   H4840     1.0  0.51803  0.17347  0.02419  1.0000
  C   C2739     1.0  0.69224  0.08102  0.46249  1.0000
  H   H4841     1.0  0.48860  0.03459  0.35778  1.0000
  H   H4842     1.0  0.51769  0.20032  0.01631  1.0000
  H   H4843     1.0  0.52205  0.18656  0.03626  1.0000
  H   H4844     1.0  0.50897  0.18252  0.05004  1.0000
  C   C2740     1.0  0.48827  0.08798  0.06685  1.0000
  C   C2741     1.0  0.59293  0.99567  0.28678  1.0000
  H   H4845     1.0  0.55764  0.05034  0.18516  1.0000
  H   H4846     1.0  0.49362  0.04045  0.06878  1.0000
  H   H4847     1.0  0.51037  0.16257  0.04735  1.0000
  H   H4848     1.0  0.61227  0.18795  0.01056  1.0000
  H   H4849     1.0  0.63793  0.99098  0.40234  1.0000
  H   H4850     1.0  0.51008  0.21158  0.03563  1.0000
  H   H4851     1.0  0.51233  0.18890  0.00217  1.0000
  C   C2742     1.0  0.60351  0.99148  0.27462  1.0000
  C   C2743     1.0  0.73128  0.99870  0.34663  1.0000
  H   H4852     1.0  0.49865  0.98803  0.33292  1.0000
  H   H4853     1.0  0.52931  0.00420  0.26415  1.0000
  H   H4854     1.0  0.68972  0.01827  0.42864  1.0000
  H   H4855     1.0  0.49528  0.06022  0.07341  1.0000
  Fe  Fe303     1.0  0.72485  0.04507  0.39593  1.0000
  H   H4856     1.0  0.58414  0.21406  0.00166  1.0000
  C   C2744     1.0  0.48841  0.14812  0.00622  1.0000
  H   H4857     1.0  0.50783  0.02887  0.09888  1.0000
  H   H4858     1.0  0.51840  0.19433  0.06153  1.0000
  H   H4859     1.0  0.52924  0.20100  0.04623  1.0000
  H   H4860     1.0  0.51690  0.21205  0.05574  1.0000
  H   H4861     1.0  0.60556  0.17468  0.03375  1.0000
  H   H4862     1.0  0.60368  0.00072  0.26661  1.0000
  H   H4863     1.0  0.49244  0.03877  0.29102  1.0000
  H   H4864     1.0  0.52020  0.09368  0.15441  1.0000
  C   C2745     1.0  0.56634  0.01781  0.16546  1.0000
  H   H4865     1.0  0.57624  0.98587  0.10342  1.0000
  C   C2746     1.0  0.49689  0.06081  0.06252  1.0000
  H   H4866     1.0  0.58013  0.98785  0.27206  1.0000
  H   H4867     1.0  0.61017  0.02342  0.32815  1.0000
  C   C2747     1.0  0.66287  0.05571  0.42597  1.0000
  H   H4868     1.0  0.57377  0.08047  0.01662  1.0000
  C   C2748     1.0  0.48748  0.03862  0.09897  1.0000
  C   C2749     1.0  0.64140  0.99414  0.33975  1.0000
  H   H4869     1.0  0.68791  0.02695  0.47641  1.0000
  H   H4870     1.0  0.55757  0.03785  0.06412  1.0000
  H   H4871     1.0  0.50945  0.00531  0.19775  1.0000
  S   S612      1.0  0.53130  0.22458  0.01768  1.0000
  H   H4872     1.0  0.67697  0.07656  0.41664  1.0000
  C   C2750     1.0  0.56491  0.04476  0.01493  1.0000
  H   H4873     1.0  0.55677  0.15430  0.98247  1.0000
  H   H4874     1.0  0.67107  0.01877  0.46757  1.0000
  H   H4875     1.0  0.61537  0.00712  0.34875  1.0000
  H   H4876     1.0  0.69730  0.00653  0.45687  1.0000
  C   C2751     1.0  0.51988  0.99553  0.34690  1.0000
  H   H4877     1.0  0.61866  0.02183  0.30404  1.0000
  H   H4878     1.0  0.50195  0.06592  0.11889  1.0000
  H   H4879     1.0  0.51924  0.01256  0.32160  1.0000
  C   C2752     1.0  0.55691  0.00136  0.16182  1.0000
  C   C2753     1.0  0.59213  0.00693  0.34886  1.0000
  N   N153      1.0  0.59842  0.21422  0.01230  1.0000
  C   C2754     1.0  0.62932  0.99761  0.33366  1.0000
  H   H4880     1.0  0.56215  0.05051  0.00528  1.0000
  H   H4881     1.0  0.66557  0.02983  0.42358  1.0000
  H   H4882     1.0  0.66958  0.08931  0.47883  1.0000
  H   H4883     1.0  0.52907  0.99762  0.16454  1.0000
  C   C2755     1.0  0.56746  0.98789  0.31845  1.0000
  H   H4884     1.0  0.73257  0.99981  0.33572  1.0000
  H   H4885     1.0  0.56241  0.02497  0.13328  1.0000
  H   H4886     1.0  0.66807  0.04501  0.44908  1.0000
  H   H4887     1.0  0.63528  0.22307  0.99249  1.0000
  H   H4888     1.0  0.71394  0.01428  0.34774  1.0000
  H   H4889     1.0  0.67251  0.03936  0.35026  1.0000
  H   H4890     1.0  0.57530  0.99273  0.24351  1.0000
  H   H4891     1.0  0.48814  0.06037  0.03382  1.0000
  H   H4892     1.0  0.49694  0.03749  0.12671  1.0000
  H   H4893     1.0  0.53503  0.18732  0.99738  1.0000
  H   H4894     1.0  0.58738  0.09704  0.36465  1.0000
  H   H4895     1.0  0.57922  0.04327  0.03634  1.0000
  H   H4896     1.0  0.68957  0.03939  0.34160  1.0000
  C   C2756     1.0  0.49605  0.04911  0.31960  1.0000
  H   H4897     1.0  0.58491  0.20181  0.02498  1.0000
  H   H4898     1.0  0.58485  0.01775  0.37195  1.0000
  C   C2757     1.0  0.60007  0.17590  0.02595  1.0000
  H   H4899     1.0  0.61626  0.99394  0.41081  1.0000
  H   H4900     1.0  0.61856  0.20920  0.00113  1.0000
  H   H4901     1.0  0.49541  0.01388  0.29994  1.0000
  H   H4902     1.0  0.53412  0.07759  0.19450  1.0000
  C   C2758     1.0  0.56205  0.01977  0.14359  1.0000
  C   C2759     1.0  0.52974  0.07418  0.02834  1.0000
  C   C2760     1.0  0.68483  0.99249  0.34075  1.0000
  C   C2761     1.0  0.50355  0.05571  0.11735  1.0000
  H   H4903     1.0  0.50103  0.01803  0.26012  1.0000
  H   H4904     1.0  0.51863  0.21092  0.99201  1.0000
  H   H4905     1.0  0.68456  0.99809  0.45800  1.0000
  H   H4906     1.0  0.58302  0.00902  0.34494  1.0000
  H   H4907     1.0  0.59589  0.08199  0.01655  1.0000
  H   H4908     1.0  0.65614  0.01465  0.46721  1.0000
  H   H4909     1.0  0.55326  0.99230  0.16564  1.0000
  H   H4910     1.0  0.51661  0.00644  0.34329  1.0000
  H   H4911     1.0  0.49250  0.07859  0.98938  1.0000
  H   H4912     1.0  0.58054  0.99798  0.41250  1.0000
  H   H4913     1.0  0.49643  0.08214  0.04146  1.0000
  H   H4914     1.0  0.51593  0.14889  0.03009  1.0000
  H   H4915     1.0  0.50854  0.13689  0.00582  1.0000
  C   C2762     1.0  0.60383  0.02129  0.32277  1.0000
  H   H4916     1.0  0.58872  0.00876  0.30030  1.0000
  H   H4917     1.0  0.57389  0.02795  0.05872  1.0000
  H   H4918     1.0  0.69414  0.00412  0.41233  1.0000
  C   C2763     1.0  0.52689  0.00748  0.30249  1.0000
  H   H4919     1.0  0.59960  0.19903  0.03056  1.0000
  H   H4920     1.0  0.51474  0.01089  0.24865  1.0000
  C   C2764     1.0  0.51848  0.00505  0.31669  1.0000
  H   H4921     1.0  0.51416  0.05095  0.11683  1.0000
  H   H4922     1.0  0.55787  0.99638  0.28882  1.0000
  H   H4923     1.0  0.59514  0.00530  0.32302  1.0000
  H   H4924     1.0  0.67806  0.00227  0.33815  1.0000
  H   H4925     1.0  0.50454  0.06113  0.03421  1.0000
  H   H4926     1.0  0.55656  0.03985  0.02044  1.0000
  C   C2765     1.0  0.54407  0.16921  0.00956  1.0000
  C   C2766     1.0  0.68488  0.01192  0.41345  1.0000
  H   H4927     1.0  0.57970  0.06847  0.03049  1.0000
  H   H4928     1.0  0.60236  0.06467  0.01601  1.0000
  C   C2767     1.0  0.68657  0.98967  0.35533  1.0000
  N   N154      1.0  0.56647  0.05406  0.02242  1.0000
  H   H4929     1.0  0.68725  0.04338  0.46624  1.0000
  H   H4930     1.0  0.68892  0.05191  0.41215  1.0000
  H   H4931     1.0  0.58758  0.05179  0.01439  1.0000
  S   S613      1.0  0.54870  0.10008  0.00630  1.0000
  H   H4932     1.0  0.56021  0.06968  0.15730  1.0000
  Fe  Fe304     1.0  0.55128  0.10820  0.02240  1.0000
  C   C2768     1.0  0.57393  0.02247  0.00796  1.0000
  Fe  Fe305     1.0  0.52658  0.00808  0.10508  1.0000
  S   S614      1.0  0.57119  0.99406  0.07554  1.0000
  Fe  Fe306     1.0  0.53884  0.02173  0.21944  1.0000
  C   C2769     1.0  0.57711  0.06012  0.16592  1.0000
  S   S615      1.0  0.53772  0.13111  0.99216  1.0000
  C   C2770     1.0  0.49367  0.03750  0.19802  1.0000
  C   C2771     1.0  0.51972  0.01126  0.26644  1.0000
  H   H4933     1.0  0.57673  0.00479  0.38272  1.0000
  C   C2772     1.0  0.49501  0.06191  0.27019  1.0000
  C   C2773     1.0  0.49719  0.02511  0.19458  1.0000
  H   H4934     1.0  0.54092  0.05950  0.04162  1.0000
  H   H4935     1.0  0.59621  0.07640  0.00201  1.0000
  S   S616      1.0  0.72337  0.05679  0.41096  1.0000
  H   H4936     1.0  0.61256  0.00147  0.31910  1.0000
  C   C2774     1.0  0.62616  0.03263  0.47069  1.0000
  H   H4937     1.0  0.64054  0.06986  0.41576  1.0000
  C   C2775     1.0  0.56286  0.99596  0.30717  1.0000
  Fe  Fe307     1.0  0.55520  0.00496  0.08990  1.0000
  C   C2776     1.0  0.68706  0.02388  0.35981  1.0000
  H   H4938     1.0  0.51988  0.00934  0.21357  1.0000
  H   H4939     1.0  0.58256  0.02951  0.01985  1.0000
  H   H4940     1.0  0.66267  0.06328  0.43135  1.0000
  H   H4941     1.0  0.50551  0.11514  0.03011  1.0000
  C   C2777     1.0  0.70785  0.99542  0.35163  1.0000
  C   C2778     1.0  0.56339  0.06028  0.16439  1.0000
  H   H4942     1.0  0.61996  0.99257  0.43154  1.0000
  H   H4943     1.0  0.56133  0.00076  0.18046  1.0000
  C   C2779     1.0  0.60125  0.11080  0.37249  1.0000
  C   C2780     1.0  0.69608  0.98896  0.47317  1.0000
  H   H4944     1.0  0.50268  0.99488  0.16093  1.0000
  H   H4945     1.0  0.61729  0.20730  0.01833  1.0000
  H   H4946     1.0  0.50135  0.21918  0.99527  1.0000
  H   H4947     1.0  0.67652  0.99005  0.36193  1.0000
  H   H4948     1.0  0.49321  0.02908  0.27924  1.0000
  C   C2781     1.0  0.51447  0.03938  0.06454  1.0000
  H   H4949     1.0  0.71199  0.07199  0.45287  1.0000
  C   C2782     1.0  0.49331  0.00480  0.34261  1.0000
  H   H4950     1.0  0.69781  0.05727  0.43172  1.0000
  C   C2783     1.0  0.61983  0.99681  0.37823  1.0000
  H   H4951     1.0  0.54781  0.99858  0.35536  1.0000
  H   H4952     1.0  0.57916  0.22602  0.01932  1.0000
  Fe  Fe308     1.0  0.56405  0.01723  0.19831  1.0000
  H   H4953     1.0  0.58312  0.01505  0.00510  1.0000
  H   H4954     1.0  0.49113  0.00428  0.28060  1.0000
  H   H4955     1.0  0.55950  0.02109  0.06267  1.0000
  H   H4956     1.0  0.49580  0.08131  0.07240  1.0000
  H   H4957     1.0  0.56893  0.02635  0.99942  1.0000
  C   C2784     1.0  0.49498  0.04752  0.12882  1.0000
  N   N155      1.0  0.60375  0.99917  0.34036  1.0000
  H   H4958     1.0  0.57771  0.06388  0.00382  1.0000
  H   H4959     1.0  0.59387  0.01686  0.34833  1.0000
  S   S617      1.0  0.55147  0.00132  0.13844  1.0000
  C   C2785     1.0  0.49774  0.11095  0.01559  1.0000
  C   C2786     1.0  0.63199  0.22594  0.00232  1.0000
  C   C2787     1.0  0.66183  0.02254  0.46378  1.0000
  C   C2788     1.0  0.55875  0.17206  0.02165  1.0000
  C   C2789     1.0  0.59440  0.21565  0.99941  1.0000
  C   C2790     1.0  0.68263  0.03753  0.47587  1.0000
  C   C2791     1.0  0.72513  0.04096  0.47627  1.0000
  H   H4960     1.0  0.68951  0.99515  0.48022  1.0000
  S   S618      1.0  0.48830  0.02182  0.18485  1.0000
  C   C2792     1.0  0.49487  0.99741  0.25684  1.0000
  H   H4961     1.0  0.53205  0.99683  0.36636  1.0000
  H   H4962     1.0  0.55358  0.07073  0.01236  1.0000
  C   C2793     1.0  0.54150  0.18300  0.00430  1.0000
  C   C2794     1.0  0.51659  0.98494  0.26146  1.0000
  C   C2795     1.0  0.58086  0.07099  0.01947  1.0000
  H   H4963     1.0  0.60711  0.12888  0.35945  1.0000
  H   H4964     1.0  0.56637  0.02670  0.03881  1.0000
  H   H4965     1.0  0.52353  0.01984  0.15175  1.0000
  H   H4966     1.0  0.49843  0.04618  0.13802  1.0000
  H   H4967     1.0  0.71622  0.00331  0.36364  1.0000
  H   H4968     1.0  0.59169  0.11350  0.36941  1.0000
  H   H4969     1.0  0.71221  0.02982  0.47433  1.0000
  H   H4970     1.0  0.50116  0.04478  0.05139  1.0000
  H   H4971     1.0  0.51451  0.04010  0.07469  1.0000
  H   H4972     1.0  0.49815  0.05332  0.30897  1.0000
  S   S619      1.0  0.54648  0.00795  0.20533  1.0000
  C   C2796     1.0  0.57841  0.05978  0.01448  1.0000
  H   H4973     1.0  0.57133  0.08624  0.36159  1.0000
  H   H4974     1.0  0.56542  0.16779  0.02840  1.0000
  C   C2797     1.0  0.55454  0.06550  0.02276  1.0000
  C   C2798     1.0  0.53056  0.05909  0.19188  1.0000
  C   C2799     1.0  0.53384  0.06989  0.16763  1.0000
  C   C2800     1.0  0.53321  0.08426  0.16842  1.0000
  C   C2801     1.0  0.53301  0.06751  0.20031  1.0000
  H   H4975     1.0  0.53321  0.01125  0.35274  1.0000
  C   C2802     1.0  0.52982  0.09426  0.15584  1.0000
  H   H4976     1.0  0.55352  0.06790  0.18188  1.0000
  H   H4977     1.0  0.51999  0.06239  0.19114  1.0000
  H   H4978     1.0  0.52348  0.06956  0.16819  1.0000
  H   H4979     1.0  0.54271  0.08545  0.16948  1.0000
  H   H4980     1.0  0.52527  0.08698  0.17701  1.0000
  H   H4981     1.0  0.54223  0.06246  0.20398  1.0000
  S   S620      1.0  0.54524  0.99453  0.10970  1.0000
  H   H4982     1.0  0.49743  0.01277  0.33488  1.0000
  H   H4983     1.0  0.61424  0.23088  0.01682  1.0000
  H   H4984     1.0  0.57916  0.16239  0.99256  1.0000
  H   H4985     1.0  0.58329  0.00027  0.28394  1.0000
  H   H4986     1.0  0.53767  0.09230  0.14689  1.0000
  H   H4987     1.0  0.70907  0.99669  0.34071  1.0000
  C   C2803     1.0  0.50087  0.04600  0.06140  1.0000
  C   C2804     1.0  0.68680  0.04861  0.42323  1.0000
  Fe  Fe309     1.0  0.53876  0.03228  0.09384  1.0000
  H   H4988     1.0  0.61520  0.12172  0.37340  1.0000
  S   S621      1.0  0.56065  0.09379  0.03896  1.0000
  H   H4989     1.0  0.56454  0.05184  0.15982  1.0000
  H   H4990     1.0  0.59738  0.01512  0.28365  1.0000
  C   C2805     1.0  0.59635  0.09196  0.35840  1.0000
  Fe  Fe310     1.0  0.55716  0.11683  0.99201  1.0000
  H   H4991     1.0  0.59469  0.00538  0.40463  1.0000
  C   C2806     1.0  0.59065  0.22351  0.03379  1.0000
  C   C2807     1.0  0.64871  0.05316  0.43047  1.0000
  H   H4992     1.0  0.57700  0.07545  0.34997  1.0000
  C   C2808     1.0  0.52279  0.99066  0.32457  1.0000
  H   H4993     1.0  0.67382  0.03980  0.40966  1.0000
  Fe  Fe311     1.0  0.54140  0.13702  0.00907  1.0000
  C   C2809     1.0  0.51754  0.01286  0.15196  1.0000
  H   H4994     1.0  0.52702  0.98496  0.27678  1.0000
  H   H4995     1.0  0.68262  0.03280  0.44547  1.0000
  C   C2810     1.0  0.58902  0.98590  0.26396  1.0000
  H   H4996     1.0  0.69467  0.07322  0.41077  1.0000
  C   C2811     1.0  0.54724  0.19132  0.00793  1.0000
  C   C2812     1.0  0.50334  0.14712  0.00181  1.0000
  C   C2813     1.0  0.59574  0.20115  0.02137  1.0000
  C   C2814     1.0  0.56850  0.04720  0.03639  1.0000
  H   H4997     1.0  0.70545  0.08837  0.44403  1.0000
  C   C2815     1.0  0.59471  0.07361  0.01308  1.0000
  C   C2816     1.0  0.68693  0.02282  0.41885  1.0000
  H   H4998     1.0  0.69538  0.02679  0.41175  1.0000
  H   H4999     1.0  0.59360  0.02680  0.32604  1.0000
  H   H5000     1.0  0.66122  0.98967  0.40085  1.0000
  S   S622      1.0  0.50781  0.00093  0.11001  1.0000
  H   H5001     1.0  0.49078  0.04407  0.26078  1.0000
  H   H5002     1.0  0.48983  0.98768  0.23726  1.0000
  H   H5003     1.0  0.52101  0.05928  0.21934  1.0000
  C   C2817     1.0  0.59839  0.98681  0.41949  1.0000
  H   H5004     1.0  0.50813  0.00673  0.31583  1.0000
  H   H5005     1.0  0.49680  0.99007  0.08070  1.0000
  C   C2818     1.0  0.68788  0.05974  0.42941  1.0000
  H   H5006     1.0  0.67683  0.00721  0.42044  1.0000
  H   H5007     1.0  0.73411  0.99300  0.47358  1.0000
  H   H5008     1.0  0.57049  0.01507  0.36829  1.0000
  N   N156      1.0  0.67403  0.04375  0.42830  1.0000
  C   C2819     1.0  0.49846  0.99493  0.27896  1.0000
  C   C2820     1.0  0.60575  0.12375  0.37018  1.0000
  N   N157      1.0  0.50518  0.99650  0.26433  1.0000
  S   S623      1.0  0.56296  0.19628  0.02151  1.0000
  C   C2821     1.0  0.60161  0.18863  0.01528  1.0000
  C   C2822     1.0  0.55340  0.05931  0.17812  1.0000
  H   H5009     1.0  0.50711  0.01838  0.15246  1.0000
  H   H5010     1.0  0.52906  0.10452  0.15681  1.0000
  C   C2823     1.0  0.56333  0.03031  0.05817  1.0000
  C   C2824     1.0  0.54109  0.06213  0.03076  1.0000
  H   H5011     1.0  0.52836  0.07625  0.01798  1.0000
  H   H5012     1.0  0.60171  0.02554  0.30222  1.0000
  H   H5013     1.0  0.69685  0.02308  0.36168  1.0000
  C   C2825     1.0  0.59277  0.08014  0.35549  1.0000
  H   H5014     1.0  0.53140  0.04882  0.19831  1.0000
  H   H5015     1.0  0.50742  0.20805  0.98392  1.0000
  H   H5016     1.0  0.54492  0.03732  0.18231  1.0000
  C   C2826     1.0  0.58864  0.00018  0.36387  1.0000
  H   H5017     1.0  0.50107  0.06830  0.01139  1.0000
  S   S624      1.0  0.57517  0.00249  0.21318  1.0000
  H   H5018     1.0  0.64095  0.06008  0.35061  1.0000
  H   H5019     1.0  0.51689  0.02868  0.06422  1.0000
  C   C2827     1.0  0.57895  0.08393  0.35262  1.0000
  H   H5020     1.0  0.65534  0.02876  0.44546  1.0000
  H   H5021     1.0  0.55574  0.07303  0.02742  1.0000
  C   C2828     1.0  0.61184  0.10096  0.36469  1.0000
  H   H5022     1.0  0.58409  0.06077  0.15601  1.0000
  C   C2829     1.0  0.71062  0.98534  0.47463  1.0000
  N   N158      1.0  0.53951  0.05885  0.17814  1.0000
  H   H5023     1.0  0.53935  0.06837  0.15746  1.0000
  C   C2830     1.0  0.59659  0.00598  0.29166  1.0000
  C   C2831     1.0  0.48939  0.99855  0.23496  1.0000
  H   H5024     1.0  0.50128  0.05635  0.10764  1.0000
  H   H5025     1.0  0.59978  0.10641  0.38338  1.0000
  H   H5026     1.0  0.59988  0.07696  0.34659  1.0000
  C   C2832     1.0  0.71679  0.00377  0.35303  1.0000
  C   C2833     1.0  0.68273  0.03785  0.35156  1.0000
  H   H5027     1.0  0.49354  0.09286  0.05701  1.0000
  C   C2834     1.0  0.69486  0.99662  0.45900  1.0000
  C   C2835     1.0  0.56123  0.99014  0.29765  1.0000
  H   H5028     1.0  0.60534  0.23030  0.98553  1.0000
  H   H5029     1.0  0.63142  0.01241  0.48151  1.0000
  H   H5030     1.0  0.53697  0.00784  0.30276  1.0000
  H   H5031     1.0  0.73477  0.98805  0.35121  1.0000
  C   C2836     1.0  0.73398  0.04927  0.46948  1.0000
  H   H5032     1.0  0.72995  0.00347  0.37723  1.0000
  H   H5033     1.0  0.49210  0.00209  0.22397  1.0000
  H   H5034     1.0  0.62036  0.99080  0.45676  1.0000
  H   H5035     1.0  0.53098  0.08131  0.99285  1.0000
  H   H5036     1.0  0.49918  0.06805  0.28614  1.0000
  H   H5037     1.0  0.62949  0.98988  0.22670  1.0000
  H   H5038     1.0  0.59543  0.99194  0.42791  1.0000
  C   C2837     1.0  0.64701  0.98580  0.37285  1.0000
  C   C2838     1.0  0.53483  0.99300  0.34663  1.0000
  H   H5039     1.0  0.58885  0.14553  0.99383  1.0000
  H   H5040     1.0  0.69438  0.99245  0.33340  1.0000
  H   H5041     1.0  0.48813  0.06117  0.14995  1.0000
  H   H5042     1.0  0.54534  0.22313  0.98614  1.0000
  H   H5043     1.0  0.52364  0.98821  0.25198  1.0000
  H   H5044     1.0  0.53231  0.98672  0.22122  1.0000
  H   H5045     1.0  0.57120  0.14848  0.99997  1.0000
  C   C2839     1.0  0.48769  0.98816  0.08820  1.0000
  C   C2840     1.0  0.51268  0.99000  0.16286  1.0000
  H   H5046     1.0  0.73175  0.05189  0.43766  1.0000
  C   C2841     1.0  0.48714  0.03284  0.28817  1.0000
  H   H5047     1.0  0.65047  0.99440  0.33168  1.0000
  C   C2842     1.0  0.50128  0.99054  0.34117  1.0000
  C   C2843     1.0  0.57929  0.15214  0.99200  1.0000
  C   C2844     1.0  0.48839  0.05454  0.23619  1.0000
  H   H5048     1.0  0.59172  0.98711  0.29536  1.0000
  C   C2845     1.0  0.48882  0.19360  0.03721  1.0000
  H   H5049     1.0  0.70276  0.98515  0.39583  1.0000
  H   H5050     1.0  0.68517  0.98573  0.40057  1.0000
  C   C2846     1.0  0.73630  0.05322  0.45554  1.0000
  H   H5051     1.0  0.48721  0.10694  0.00327  1.0000
  Fe  Fe312     1.0  0.54627  0.03461  0.58995  1.0000
  S   S625      1.0  0.55157  0.01577  0.60479  1.0000
  S   S626      1.0  0.55880  0.03986  0.56905  1.0000
  Fe  Fe313     1.0  0.54572  0.02856  0.61982  1.0000
  C   C2847     1.0  0.60922  0.05967  0.54706  1.0000
  C   C2848     1.0  0.49286  0.20624  0.93838  1.0000
  S   S627      1.0  0.57025  0.11471  0.97193  1.0000
  Fe  Fe314     1.0  0.63385  0.02613  0.50119  1.0000
  H   H5052     1.0  0.49433  0.99682  0.71947  1.0000
  H   H5053     1.0  0.50322  0.09807  0.92259  1.0000
  H   H5054     1.0  0.60058  0.00425  0.51018  1.0000
  H   H5055     1.0  0.59861  0.00965  0.52519  1.0000
  C   C2849     1.0  0.50383  0.18802  0.92536  1.0000
  Fe  Fe315     1.0  0.54246  0.02086  0.72006  1.0000
  S   S628      1.0  0.55736  0.03340  0.70907  1.0000
  S   S629      1.0  0.54918  0.99858  0.72529  1.0000
  Fe  Fe316     1.0  0.54882  0.04424  0.72585  1.0000
  S   S630      1.0  0.56061  0.04820  0.73807  1.0000
  H   H5056     1.0  0.53328  0.09268  0.78308  1.0000
  C   C2850     1.0  0.51638  0.08940  0.98064  1.0000
  S   S631      1.0  0.53535  0.03053  0.73750  1.0000
  C   C2851     1.0  0.52674  0.17425  0.92603  1.0000
  C   C2852     1.0  0.49030  0.04834  0.67643  1.0000
  H   H5057     1.0  0.52342  0.02880  0.76786  1.0000
  H   H5058     1.0  0.57610  0.01566  0.51020  1.0000
  H   H5059     1.0  0.54293  0.18695  0.93211  1.0000
  H   H5060     1.0  0.60228  0.12466  0.87767  1.0000
  C   C2853     1.0  0.50757  0.16411  0.93473  1.0000
  H   H5061     1.0  0.50570  0.07592  0.62991  1.0000
  H   H5062     1.0  0.62328  0.06056  0.52778  1.0000
  H   H5063     1.0  0.62085  0.12992  0.86177  1.0000
  H   H5064     1.0  0.59190  0.03343  0.51311  1.0000
  H   H5065     1.0  0.50638  0.16708  0.91102  1.0000
  C   C2854     1.0  0.49436  0.08692  0.84653  1.0000
  C   C2855     1.0  0.70019  0.02174  0.53247  1.0000
  S   S632      1.0  0.49985  0.05105  0.73722  1.0000
  H   H5066     1.0  0.52153  0.05905  0.64286  1.0000
  S   S633      1.0  0.53352  0.05925  0.71575  1.0000
  C   C2856     1.0  0.49382  0.08446  0.88942  1.0000
  H   H5067     1.0  0.50695  0.19633  0.91726  1.0000
  C   C2857     1.0  0.70626  0.06747  0.50201  1.0000
  H   H5068     1.0  0.50743  0.16522  0.94482  1.0000
  H   H5069     1.0  0.58663  0.01010  0.65745  1.0000
  H   H5070     1.0  0.54480  0.99257  0.76441  1.0000
  Fe  Fe317     1.0  0.52275  0.04198  0.83902  1.0000
  S   S634      1.0  0.52228  0.06277  0.82738  1.0000
  S   S635      1.0  0.50509  0.03898  0.85557  1.0000
  Fe  Fe318     1.0  0.54976  0.03186  0.82357  1.0000
  S   S636      1.0  0.55194  0.05228  0.81093  1.0000
  S   S637      1.0  0.56500  0.01311  0.81986  1.0000
  Fe  Fe319     1.0  0.54284  0.05952  0.83014  1.0000
  S   S638      1.0  0.54293  0.07904  0.83459  1.0000
  Fe  Fe320     1.0  0.53122  0.05423  0.80932  1.0000
  S   S639      1.0  0.52287  0.06379  0.79096  1.0000
  S   S640      1.0  0.54277  0.03889  0.84298  1.0000
  S   S641      1.0  0.52952  0.03364  0.82059  1.0000
  Fe  Fe321     1.0  0.54423  0.11719  0.91196  1.0000
  S   S642      1.0  0.56535  0.11276  0.90109  1.0000
  S   S643      1.0  0.53649  0.11034  0.93403  1.0000
  Fe  Fe322     1.0  0.53522  0.13444  0.88703  1.0000
  S   S644      1.0  0.55559  0.13176  0.87393  1.0000
  S   S645      1.0  0.51679  0.14589  0.87988  1.0000
  Fe  Fe323     1.0  0.55750  0.11021  0.88472  1.0000
  S   S646      1.0  0.56801  0.09261  0.87502  1.0000
  Fe  Fe324     1.0  0.56159  0.13454  0.89135  1.0000
  S   S647      1.0  0.57563  0.14693  0.89070  1.0000
  S   S648      1.0  0.53659  0.11272  0.89655  1.0000
  S   S649      1.0  0.54101  0.13914  0.90345  1.0000
  Fe  Fe325     1.0  0.54625  0.22308  0.92477  1.0000
  S   S650      1.0  0.56272  0.22223  0.90652  1.0000
  S   S651      1.0  0.54843  0.21010  0.94490  1.0000
  Fe  Fe326     1.0  0.54734  0.22122  0.89661  1.0000
  S   S652      1.0  0.54839  0.20841  0.88257  1.0000
  S   S653      1.0  0.53153  0.22026  0.91540  1.0000
  C   C2858     1.0  0.56806  0.16400  0.88869  1.0000
  C   C2859     1.0  0.55743  0.16922  0.88236  1.0000
  C   C2860     1.0  0.55177  0.18292  0.88026  1.0000
  C   C2861     1.0  0.55630  0.19141  0.88498  1.0000
  C   C2862     1.0  0.56688  0.18620  0.89144  1.0000
  C   C2863     1.0  0.57285  0.17252  0.89314  1.0000
  H   H5071     1.0  0.55375  0.16274  0.87878  1.0000
  H   H5072     1.0  0.54374  0.18697  0.87508  1.0000
  H   H5073     1.0  0.57053  0.19273  0.89495  1.0000
  H   H5074     1.0  0.58113  0.16854  0.89799  1.0000
  C   C2864     1.0  0.49284  0.04954  0.89917  1.0000
  S   S654      1.0  0.65549  0.02242  0.50060  1.0000
  H   H5075     1.0  0.50995  0.17325  0.88565  1.0000
  C   C2865     1.0  0.50460  0.13874  0.89198  1.0000
  C   C2866     1.0  0.50584  0.13465  0.90528  1.0000
  C   C2867     1.0  0.58278  0.99022  0.50587  1.0000
  S   S655      1.0  0.61266  0.00176  0.54755  1.0000
  H   H5076     1.0  0.51696  0.98738  0.55324  1.0000
  H   H5077     1.0  0.51387  0.13656  0.90810  1.0000
  H   H5078     1.0  0.57859  0.14155  0.97790  1.0000
  C   C2868     1.0  0.54926  0.08177  0.84695  1.0000
  C   C2869     1.0  0.54379  0.09369  0.85144  1.0000
  C   C2870     1.0  0.54915  0.09685  0.86045  1.0000
  C   C2871     1.0  0.56023  0.08824  0.86481  1.0000
  C   C2872     1.0  0.56565  0.07627  0.86039  1.0000
  C   C2873     1.0  0.56013  0.07298  0.85156  1.0000
  H   H5079     1.0  0.53545  0.10060  0.84783  1.0000
  H   H5080     1.0  0.54492  0.10613  0.86374  1.0000
  H   H5081     1.0  0.57426  0.06959  0.86368  1.0000
  H   H5082     1.0  0.56454  0.06387  0.84800  1.0000
  H   H5083     1.0  0.56076  0.13053  0.77571  1.0000
  H   H5084     1.0  0.56931  0.99425  0.70163  1.0000
  H   H5085     1.0  0.58841  0.00898  0.61004  1.0000
  C   C2874     1.0  0.50525  0.00296  0.57208  1.0000
  H   H5086     1.0  0.54942  0.09649  0.80788  1.0000
  C   C2875     1.0  0.54112  0.21969  0.95697  1.0000
  H   H5087     1.0  0.53808  0.18624  0.96286  1.0000
  H   H5088     1.0  0.57200  0.10692  0.77483  1.0000
  H   H5089     1.0  0.54758  0.11388  0.78895  1.0000
  H   H5090     1.0  0.51301  0.12939  0.94396  1.0000
  C   C2876     1.0  0.50442  0.23161  0.90143  1.0000
  H   H5091     1.0  0.58362  0.17644  0.96025  1.0000
  C   C2877     1.0  0.56104  0.11315  0.96139  1.0000
  C   C2878     1.0  0.56686  0.11303  0.94792  1.0000
  C   C2879     1.0  0.55936  0.11244  0.93934  1.0000
  C   C2880     1.0  0.54608  0.11165  0.94428  1.0000
  C   C2881     1.0  0.54034  0.11159  0.95776  1.0000
  C   C2882     1.0  0.54779  0.11224  0.96631  1.0000
  H   H5092     1.0  0.57720  0.11333  0.94414  1.0000
  H   H5093     1.0  0.56393  0.11237  0.92897  1.0000
  H   H5094     1.0  0.53006  0.11117  0.96156  1.0000
  C   C2883     1.0  0.49844  0.22204  0.90030  1.0000
  H   H5095     1.0  0.58292  0.10922  0.82869  1.0000
  H   H5096     1.0  0.53367  0.16473  0.92424  1.0000
  C   C2884     1.0  0.56392  0.16041  0.97578  1.0000
  H   H5097     1.0  0.57492  0.02017  0.52529  1.0000
  C   C2885     1.0  0.70657  0.98987  0.49736  1.0000
  C   C2886     1.0  0.59237  0.00096  0.60433  1.0000
  H   H5098     1.0  0.61507  0.10865  0.85103  1.0000
  H   H5099     1.0  0.49168  0.02937  0.67145  1.0000
  C   C2887     1.0  0.50167  0.19229  0.93869  1.0000
  H   H5100     1.0  0.49819  0.09552  0.84655  1.0000
  C   C2888     1.0  0.55008  0.05225  0.75285  1.0000
  C   C2889     1.0  0.53726  0.05988  0.75273  1.0000
  C   C2890     1.0  0.52898  0.06342  0.76447  1.0000
  C   C2891     1.0  0.53333  0.05901  0.77646  1.0000
  C   C2892     1.0  0.54608  0.05120  0.77664  1.0000
  C   C2893     1.0  0.55450  0.04793  0.76481  1.0000
  H   H5101     1.0  0.53382  0.06326  0.74351  1.0000
  H   H5102     1.0  0.51918  0.06957  0.76424  1.0000
  H   H5103     1.0  0.54951  0.04773  0.78586  1.0000
  H   H5104     1.0  0.56439  0.04199  0.76494  1.0000
  H   H5105     1.0  0.49545  0.06244  0.79774  1.0000
  C   C2894     1.0  0.53018  0.99626  0.71397  1.0000
  H   H5106     1.0  0.51349  0.04167  0.78488  1.0000
  H   H5107     1.0  0.57761  0.08606  0.79283  1.0000
  H   H5108     1.0  0.55271  0.13138  0.76261  1.0000
  H   H5109     1.0  0.52677  0.00690  0.71262  1.0000
  H   H5110     1.0  0.50504  0.99400  0.64862  1.0000
  C   C2895     1.0  0.55999  0.08378  0.77953  1.0000
  H   H5111     1.0  0.54855  0.05087  0.63341  1.0000
  C   C2896     1.0  0.54641  0.05387  0.65316  1.0000
  C   C2897     1.0  0.51357  0.18395  0.89839  1.0000
  N   N159      1.0  0.67880  0.06831  0.48402  1.0000
  H   H5112     1.0  0.53734  0.18352  0.90671  1.0000
  C   C2898     1.0  0.57396  0.08695  0.81333  1.0000
  H   H5113     1.0  0.53589  0.00056  0.54547  1.0000
  H   H5114     1.0  0.56707  0.09279  0.82060  1.0000
  H   H5115     1.0  0.59832  0.06261  0.55035  1.0000
  N   N160      1.0  0.51330  0.17484  0.92397  1.0000
  C   C2899     1.0  0.49427  0.05756  0.88450  1.0000
  C   C2900     1.0  0.60268  0.10222  0.89510  1.0000
  C   C2901     1.0  0.54140  0.22536  0.97733  1.0000
  C   C2902     1.0  0.49461  0.05132  0.77892  1.0000
  H   H5116     1.0  0.57038  0.06713  0.76166  1.0000
  C   C2903     1.0  0.57352  0.02895  0.56309  1.0000
  C   C2904     1.0  0.57782  0.01637  0.57081  1.0000
  C   C2905     1.0  0.58989  0.00815  0.56597  1.0000
  C   C2906     1.0  0.59770  0.01242  0.55338  1.0000
  C   C2907     1.0  0.59336  0.02494  0.54559  1.0000
  C   C2908     1.0  0.58129  0.03316  0.55043  1.0000
  H   H5117     1.0  0.57184  0.01298  0.58049  1.0000
  H   H5118     1.0  0.59319  0.99845  0.57202  1.0000
  C   C2909     1.0  0.49630  0.03031  0.85082  1.0000
  H   H5119     1.0  0.57801  0.04288  0.54439  1.0000
  C   C2910     1.0  0.55362  0.03230  0.64722  1.0000
  C   C2911     1.0  0.55478  0.02627  0.66042  1.0000
  S   S656      1.0  0.62719  0.03223  0.52093  1.0000
  H   H5120     1.0  0.49891  0.06031  0.77516  1.0000
  C   C2912     1.0  0.50681  0.07491  0.68962  1.0000
  C   C2913     1.0  0.51353  0.03919  0.66559  1.0000
  H   H5121     1.0  0.50500  0.99306  0.78896  1.0000
  H   H5122     1.0  0.56428  0.10782  0.76181  1.0000
  H   H5123     1.0  0.60088  0.98688  0.68038  1.0000
  H   H5124     1.0  0.72145  0.00220  0.48980  1.0000
  C   C2914     1.0  0.69984  0.06253  0.49379  1.0000
  H   H5125     1.0  0.50364  0.09670  0.89509  1.0000
  H   H5126     1.0  0.58799  0.00720  0.68656  1.0000
  Fe  Fe327     1.0  0.52065  0.04459  0.72617  1.0000
  H   H5127     1.0  0.53644  0.00456  0.58767  1.0000
  H   H5128     1.0  0.49876  0.05703  0.64948  1.0000
  H   H5129     1.0  0.56266  0.98632  0.55310  1.0000
  H   H5130     1.0  0.51040  0.99767  0.58038  1.0000
  H   H5131     1.0  0.49688  0.01085  0.57562  1.0000
  C   C2915     1.0  0.55142  0.03395  0.67008  1.0000
  H   H5132     1.0  0.48815  0.06969  0.86001  1.0000
  H   H5133     1.0  0.53204  0.01576  0.66538  1.0000
  H   H5134     1.0  0.53912  0.00691  0.83155  1.0000
  H   H5135     1.0  0.57629  0.03690  0.60497  1.0000
  C   C2916     1.0  0.53767  0.17617  0.96932  1.0000
  H   H5136     1.0  0.54700  0.07880  0.77002  1.0000
  H   H5137     1.0  0.59950  0.11658  0.83496  1.0000
  C   C2917     1.0  0.55382  0.98508  0.76669  1.0000
  H   H5138     1.0  0.51119  0.19255  0.94057  1.0000
  H   H5139     1.0  0.51966  0.08196  0.62992  1.0000
  H   H5140     1.0  0.58044  0.22734  0.97914  1.0000
  N   N161      1.0  0.50359  0.05146  0.66895  1.0000
  H   H5141     1.0  0.48737  0.07333  0.71952  1.0000
  C   C2918     1.0  0.56652  0.00137  0.75167  1.0000
  C   C2919     1.0  0.56094  0.99952  0.77627  1.0000
  C   C2920     1.0  0.50865  0.05686  0.67770  1.0000
  H   H5142     1.0  0.52027  0.19050  0.89738  1.0000
  C   C2921     1.0  0.51242  0.09311  0.92622  1.0000
  C   C2922     1.0  0.54844  0.01100  0.77607  1.0000
  C   C2923     1.0  0.57556  0.01124  0.74934  1.0000
  C   C2924     1.0  0.57990  0.01716  0.73447  1.0000
  H   H5143     1.0  0.50234  0.08149  0.94389  1.0000
  H   H5144     1.0  0.54487  0.15552  0.96717  1.0000
  C   C2925     1.0  0.54554  0.01753  0.78792  1.0000
  H   H5145     1.0  0.56743  0.99427  0.67157  1.0000
  H   H5146     1.0  0.66494  0.05584  0.48675  1.0000
  C   C2926     1.0  0.53590  0.99425  0.58948  1.0000
  H   H5147     1.0  0.55681  0.00738  0.74952  1.0000
  H   H5148     1.0  0.56933  0.00361  0.77638  1.0000
  H   H5149     1.0  0.57996  0.11624  0.86250  1.0000
  C   C2927     1.0  0.51414  0.06691  0.64753  1.0000
  H   H5150     1.0  0.57411  0.08318  0.75272  1.0000
  C   C2928     1.0  0.54080  0.98970  0.72014  1.0000
  S   S657      1.0  0.52511  0.03304  0.59350  1.0000
  H   H5151     1.0  0.58998  0.99337  0.54019  1.0000
  H   H5152     1.0  0.49086  0.16978  0.88041  1.0000
  H   H5153     1.0  0.53963  0.00720  0.77689  1.0000
  H   H5154     1.0  0.54958  0.01885  0.76678  1.0000
  H   H5155     1.0  0.57021  0.01957  0.75440  1.0000
  H   H5156     1.0  0.58467  0.00653  0.75316  1.0000
  H   H5157     1.0  0.55319  0.17579  0.92125  1.0000
  H   H5158     1.0  0.58551  0.02488  0.73310  1.0000
  C   C2929     1.0  0.54585  0.18532  0.92177  1.0000
  C   C2930     1.0  0.51396  0.00624  0.80389  1.0000
  C   C2931     1.0  0.57908  0.99603  0.54113  1.0000
  H   H5159     1.0  0.49337  0.00609  0.63989  1.0000
  H   H5160     1.0  0.68115  0.03428  0.49686  1.0000
  C   C2932     1.0  0.51443  0.17196  0.91053  1.0000
  S   S658      1.0  0.52325  0.99627  0.61508  1.0000
  H   H5161     1.0  0.55407  0.02154  0.78770  1.0000
  H   H5162     1.0  0.53673  0.02588  0.78749  1.0000
  H   H5163     1.0  0.54349  0.01022  0.79752  1.0000
  N   N162      1.0  0.50605  0.06400  0.87881  1.0000
  C   C2933     1.0  0.52396  0.98901  0.70948  1.0000
  C   C2934     1.0  0.50632  0.07113  0.86434  1.0000
  C   C2935     1.0  0.51834  0.05298  0.87923  1.0000
  C   C2936     1.0  0.53172  0.05708  0.87187  1.0000
  H   H5164     1.0  0.50242  0.19227  0.85801  1.0000
  H   H5165     1.0  0.50350  0.03019  0.78668  1.0000
  C   C2937     1.0  0.54337  0.04549  0.87458  1.0000
  H   H5166     1.0  0.69413  0.01316  0.50593  1.0000
  H   H5167     1.0  0.51553  0.14734  0.92435  1.0000
  H   H5168     1.0  0.51242  0.07880  0.86124  1.0000
  Fe  Fe328     1.0  0.73347  0.02267  0.52250  1.0000
  H   H5169     1.0  0.51772  0.04492  0.87482  1.0000
  H   H5170     1.0  0.51914  0.04822  0.88974  1.0000
  H   H5171     1.0  0.53295  0.06552  0.87514  1.0000
  H   H5172     1.0  0.53248  0.06003  0.86091  1.0000
  H   H5173     1.0  0.57072  0.99560  0.74370  1.0000
  H   H5174     1.0  0.56529  0.23151  0.93583  1.0000
  H   H5175     1.0  0.54798  0.00107  0.63270  1.0000
  C   C2938     1.0  0.50772  0.13967  0.94489  1.0000
  H   H5176     1.0  0.53799  0.07943  0.79634  1.0000
  H   H5177     1.0  0.55277  0.04831  0.86856  1.0000
  H   H5178     1.0  0.54373  0.04299  0.88531  1.0000
  H   H5179     1.0  0.54254  0.03653  0.87183  1.0000
  N   N163      1.0  0.56202  0.16420  0.96154  1.0000
  C   C2939     1.0  0.56993  0.15339  0.95411  1.0000
  H   H5180     1.0  0.49115  0.06857  0.81962  1.0000
  C   C2940     1.0  0.54759  0.16534  0.96220  1.0000
  C   C2941     1.0  0.56531  0.17759  0.95455  1.0000
  C   C2942     1.0  0.58007  0.17820  0.95100  1.0000
  C   C2943     1.0  0.56871  0.15589  0.93941  1.0000
  N   N164      1.0  0.56472  0.99201  0.76524  1.0000
  C   C2944     1.0  0.56286  0.11138  0.77102  1.0000
  H   H5181     1.0  0.50049  0.08430  0.69237  1.0000
  C   C2945     1.0  0.58207  0.19198  0.94284  1.0000
  C   C2946     1.0  0.57921  0.14601  0.93199  1.0000
  H   H5182     1.0  0.49679  0.05095  0.82604  1.0000
  H   H5183     1.0  0.50107  0.04064  0.90012  1.0000
  H   H5184     1.0  0.58062  0.15148  0.95386  1.0000
  C   C2947     1.0  0.59014  0.01227  0.66529  1.0000
  H   H5185     1.0  0.52859  0.98990  0.64181  1.0000
  C   C2948     1.0  0.63668  0.11897  0.84913  1.0000
  H   H5186     1.0  0.54561  0.16785  0.95203  1.0000
  H   H5187     1.0  0.56142  0.18166  0.94527  1.0000
  H   H5188     1.0  0.56010  0.18502  0.96086  1.0000
  H   H5189     1.0  0.58627  0.17086  0.94498  1.0000
  C   C2949     1.0  0.56662  0.98873  0.81485  1.0000
  H   H5190     1.0  0.55892  0.15466  0.93911  1.0000
  H   H5191     1.0  0.57001  0.16598  0.93374  1.0000
  C   C2950     1.0  0.53749  0.09028  0.79209  1.0000
  H   H5192     1.0  0.57694  0.98875  0.81041  1.0000
  C   C2951     1.0  0.55599  0.09002  0.80103  1.0000
  C   C2952     1.0  0.54529  0.99912  0.82657  1.0000
  C   C2953     1.0  0.59033  0.98886  0.67982  1.0000
  H   H5193     1.0  0.49831  0.04509  0.80423  1.0000
  C   C2954     1.0  0.52706  0.09783  0.80232  1.0000
  H   H5194     1.0  0.59273  0.19217  0.94027  1.0000
  H   H5195     1.0  0.57856  0.19448  0.93341  1.0000
  H   H5196     1.0  0.57656  0.19970  0.94870  1.0000
  H   H5197     1.0  0.57873  0.13565  0.93743  1.0000
  H   H5198     1.0  0.57749  0.14746  0.92183  1.0000
  H   H5199     1.0  0.58924  0.14755  0.93092  1.0000
  H   H5200     1.0  0.50331  0.19004  0.89946  1.0000
  H   H5201     1.0  0.54220  0.11135  0.77585  1.0000
  S   S659      1.0  0.62576  0.03992  0.48370  1.0000
  S   S660      1.0  0.52640  0.03374  0.70954  1.0000
  H   H5202     1.0  0.70906  0.98576  0.50737  1.0000
  H   H5203     1.0  0.51142  0.01518  0.80821  1.0000
  Fe  Fe329     1.0  0.65349  0.00163  0.51124  1.0000
  H   H5204     1.0  0.51885  0.07040  0.65351  1.0000
  H   H5205     1.0  0.52972  0.98860  0.83095  1.0000
  C   C2955     1.0  0.69095  0.01380  0.53537  1.0000
  H   H5206     1.0  0.51664  0.18255  0.97701  1.0000
  C   C2956     1.0  0.52310  0.01459  0.67347  1.0000
  C   C2957     1.0  0.57764  0.15207  0.97827  1.0000
  H   H5207     1.0  0.50871  0.04985  0.68761  1.0000
  H   H5208     1.0  0.49396  0.18787  0.92410  1.0000
  H   H5209     1.0  0.60751  0.05750  0.52795  1.0000
  H   H5210     1.0  0.50419  0.21447  0.89480  1.0000
  C   C2958     1.0  0.49617  0.01465  0.83833  1.0000
  H   H5211     1.0  0.49689  0.01453  0.65713  1.0000
  Fe  Fe330     1.0  0.54076  0.04715  0.69993  1.0000
  H   H5212     1.0  0.63283  0.98740  0.49413  1.0000
  C   C2959     1.0  0.48797  0.05899  0.82432  1.0000
  H   H5213     1.0  0.53447  0.01253  0.52983  1.0000
  H   H5214     1.0  0.57255  0.10856  0.84520  1.0000
  C   C2960     1.0  0.54734  0.04780  0.66643  1.0000
  H   H5215     1.0  0.67119  0.01323  0.53528  1.0000
  H   H5216     1.0  0.53990  0.17588  0.97890  1.0000
  Fe  Fe331     1.0  0.62743  0.01059  0.52996  1.0000
  C   C2961     1.0  0.59651  0.11938  0.87460  1.0000
  C   C2962     1.0  0.57007  0.09178  0.79977  1.0000
  C   C2963     1.0  0.51632  0.02772  0.67776  1.0000
  C   C2964     1.0  0.61242  0.06305  0.53178  1.0000
  C   C2965     1.0  0.59027  0.11462  0.85648  1.0000
  H   H5217     1.0  0.49379  0.00871  0.80278  1.0000
  H   H5218     1.0  0.51744  0.08455  0.92138  1.0000
  N   N165      1.0  0.57581  0.99927  0.52757  1.0000
  C   C2966     1.0  0.56118  0.00101  0.52879  1.0000
  H   H5219     1.0  0.69376  0.00318  0.53924  1.0000
  H   H5220     1.0  0.59927  0.02830  0.53583  1.0000
  H   H5221     1.0  0.58607  0.12323  0.87942  1.0000
  H   H5222     1.0  0.51375  0.01741  0.84197  1.0000
  C   C2967     1.0  0.51054  0.07873  0.63629  1.0000
  H   H5223     1.0  0.49278  0.09174  0.87992  1.0000
  H   H5224     1.0  0.56156  0.16946  0.97995  1.0000
  S   S661      1.0  0.54313  0.05775  0.67823  1.0000
  C   C2968     1.0  0.71058  0.00346  0.49213  1.0000
  H   H5225     1.0  0.50759  0.06713  0.69894  1.0000
  C   C2969     1.0  0.50311  0.02050  0.84355  1.0000
  H   H5226     1.0  0.59364  0.05391  0.57155  1.0000
  H   H5227     1.0  0.51915  0.05742  0.67343  1.0000
  H   H5228     1.0  0.53773  0.08209  0.97529  1.0000
  H   H5229     1.0  0.54575  0.99296  0.67129  1.0000
  C   C2970     1.0  0.57147  0.23140  0.94265  1.0000
  H   H5230     1.0  0.68049  0.05190  0.52257  1.0000
  H   H5231     1.0  0.50379  0.08724  0.64044  1.0000
  H   H5232     1.0  0.51620  0.01112  0.66988  1.0000
  H   H5233     1.0  0.58640  0.02306  0.66522  1.0000
  Fe  Fe332     1.0  0.52115  0.04450  0.60935  1.0000
  H   H5234     1.0  0.51067  0.03540  0.65832  1.0000
  H   H5235     1.0  0.57570  0.00496  0.54562  1.0000
  H   H5236     1.0  0.58793  0.00388  0.59545  1.0000
  C   C2971     1.0  0.50453  0.98880  0.79984  1.0000
  H   H5237     1.0  0.49276  0.98924  0.57654  1.0000
  H   H5238     1.0  0.51520  0.07770  0.96755  1.0000
  H   H5239     1.0  0.49444  0.07819  0.96603  1.0000
  C   C2972     1.0  0.48920  0.05221  0.72711  1.0000
  C   C2973     1.0  0.53381  0.18532  0.91695  1.0000
  H   H5240     1.0  0.62404  0.11230  0.86782  1.0000
  C   C2974     1.0  0.60001  0.10434  0.88125  1.0000
  H   H5241     1.0  0.72728  0.99050  0.55722  1.0000
  N   N166      1.0  0.59814  0.12260  0.85962  1.0000
  C   C2975     1.0  0.58317  0.98786  0.52079  1.0000
  H   H5242     1.0  0.55118  0.09453  0.76196  1.0000
  H   H5243     1.0  0.57398  0.00700  0.68101  1.0000
  Fe  Fe333     1.0  0.53013  0.01535  0.60978  1.0000
  C   C2976     1.0  0.57977  0.01214  0.51964  1.0000
  H   H5244     1.0  0.51458  0.07859  0.88208  1.0000
  C   C2977     1.0  0.68577  0.07106  0.49310  1.0000
  H   H5245     1.0  0.51795  0.00911  0.79297  1.0000
  H   H5246     1.0  0.53103  0.01815  0.54511  1.0000
  H   H5247     1.0  0.50787  0.17443  0.85934  1.0000
  C   C2978     1.0  0.62313  0.12033  0.85874  1.0000
  H   H5248     1.0  0.63948  0.09013  0.48569  1.0000
  H   H5249     1.0  0.51028  0.10125  0.79323  1.0000
  H   H5250     1.0  0.60113  0.01009  0.66291  1.0000
  C   C2979     1.0  0.53510  0.99010  0.64810  1.0000
  H   H5251     1.0  0.51134  0.06401  0.85764  1.0000
  C   C2980     1.0  0.55852  0.99944  0.82051  1.0000
  H   H5252     1.0  0.52297  0.03008  0.68264  1.0000
  C   C2981     1.0  0.59210  0.13719  0.85511  1.0000
  C   C2982     1.0  0.61239  0.11914  0.85227  1.0000
  C   C2983     1.0  0.59848  0.14740  0.85743  1.0000
  C   C2984     1.0  0.59034  0.16158  0.85394  1.0000
  H   H5253     1.0  0.59259  0.13982  0.84420  1.0000
  H   H5254     1.0  0.58139  0.13931  0.86006  1.0000
  H   H5255     1.0  0.61371  0.12533  0.84190  1.0000
  H   H5256     1.0  0.59921  0.14551  0.86796  1.0000
  H   H5257     1.0  0.60847  0.14718  0.85082  1.0000
  H   H5258     1.0  0.59495  0.16870  0.85590  1.0000
  H   H5259     1.0  0.58986  0.16439  0.84323  1.0000
  H   H5260     1.0  0.58013  0.16246  0.86020  1.0000
  H   H5261     1.0  0.63652  0.12717  0.84006  1.0000
  C   C2985     1.0  0.51412  0.03631  0.76676  1.0000
  H   H5262     1.0  0.61387  0.06588  0.55032  1.0000
  C   C2986     1.0  0.50656  0.03936  0.78031  1.0000
  C   C2987     1.0  0.49079  0.00693  0.66028  1.0000
  H   H5263     1.0  0.55312  0.20743  0.97089  1.0000
  H   H5264     1.0  0.52174  0.99872  0.80854  1.0000
  H   H5265     1.0  0.70948  0.00680  0.51159  1.0000
  H   H5266     1.0  0.57043  0.99741  0.62325  1.0000
  C   C2988     1.0  0.58296  0.10738  0.83944  1.0000
  C   C2989     1.0  0.51697  0.17921  0.88537  1.0000
  H   H5267     1.0  0.57018  0.08550  0.77613  1.0000
  H   H5268     1.0  0.63962  0.10924  0.84615  1.0000
  H   H5269     1.0  0.49427  0.99422  0.62563  1.0000
  H   H5270     1.0  0.67986  0.06967  0.50355  1.0000
  H   H5271     1.0  0.52383  0.16470  0.90783  1.0000
  H   H5272     1.0  0.55287  0.02151  0.53170  1.0000
  H   H5273     1.0  0.70742  0.07785  0.49731  1.0000
  H   H5274     1.0  0.58551  0.98727  0.76546  1.0000
  C   C2990     1.0  0.54932  0.04612  0.64362  1.0000
  S   S662      1.0  0.52461  0.02664  0.62593  1.0000
  H   H5275     1.0  0.59441  0.10375  0.85947  1.0000
  H   H5276     1.0  0.49448  0.05073  0.87823  1.0000
  H   H5277     1.0  0.52901  0.09353  0.81250  1.0000
  C   C2991     1.0  0.49487  0.09212  0.89905  1.0000
  H   H5278     1.0  0.58099  0.22417  0.94049  1.0000
  C   C2992     1.0  0.54573  0.21645  0.96875  1.0000
  H   H5279     1.0  0.70761  0.02171  0.49881  1.0000
  H   H5280     1.0  0.52720  0.10858  0.79968  1.0000
  H   H5281     1.0  0.51586  0.99410  0.70456  1.0000
  C   C2993     1.0  0.58950  0.11733  0.84161  1.0000
  H   H5282     1.0  0.50592  0.10177  0.81070  1.0000
  H   H5283     1.0  0.58411  0.08820  0.81222  1.0000
  H   H5284     1.0  0.52328  0.04165  0.66025  1.0000
  H   H5285     1.0  0.57174  0.99097  0.56949  1.0000
  H   H5286     1.0  0.51223  0.00778  0.56355  1.0000
  H   H5287     1.0  0.55549  0.07960  0.80648  1.0000
  H   H5288     1.0  0.60874  0.07388  0.52808  1.0000
  H   H5289     1.0  0.55875  0.00445  0.51875  1.0000
  H   H5290     1.0  0.55411  0.00943  0.54705  1.0000
  C   C2994     1.0  0.53745  0.01053  0.53947  1.0000
  H   H5291     1.0  0.52714  0.17295  0.88374  1.0000
  H   H5292     1.0  0.49673  0.18541  0.94722  1.0000
  H   H5293     1.0  0.60881  0.09892  0.87507  1.0000
  H   H5294     1.0  0.59465  0.02765  0.49793  1.0000
  C   C2995     1.0  0.50069  0.18351  0.85564  1.0000
  H   H5295     1.0  0.52611  0.00692  0.68213  1.0000
  C   C2996     1.0  0.50167  0.00061  0.80664  1.0000
  S   S663      1.0  0.55813  0.02240  0.63532  1.0000
  H   H5296     1.0  0.55214  0.02920  0.68030  1.0000
  H   H5297     1.0  0.58595  0.15575  0.97076  1.0000
  H   H5298     1.0  0.69559  0.99169  0.49940  1.0000
  H   H5299     1.0  0.58834  0.09696  0.84264  1.0000
  H   H5300     1.0  0.57112  0.02190  0.73007  1.0000
  H   H5301     1.0  0.52726  0.19530  0.91663  1.0000
  H   H5302     1.0  0.54326  0.11191  0.97674  1.0000
  S   S664      1.0  0.71605  0.01423  0.53566  1.0000
  H   H5303     1.0  0.59158  0.09972  0.88247  1.0000
  H   H5304     1.0  0.60424  0.09145  0.89993  1.0000
  H   H5305     1.0  0.52512  0.14744  0.93562  1.0000
  H   H5306     1.0  0.49294  0.99541  0.60199  1.0000
  C   C2997     1.0  0.55035  0.10767  0.78137  1.0000
  C   C2998     1.0  0.51384  0.08844  0.96737  1.0000
  C   C2999     1.0  0.50311  0.10001  0.94860  1.0000
  C   C3000     1.0  0.50929  0.08820  0.94140  1.0000
  H   H5307     1.0  0.52615  0.17414  0.93662  1.0000
  C   C3001     1.0  0.50632  0.07335  0.88697  1.0000
  C   C3002     1.0  0.49447  0.99894  0.64948  1.0000
  H   H5308     1.0  0.50442  0.11480  0.96472  1.0000
  H   H5309     1.0  0.71626  0.06105  0.50242  1.0000
  H   H5310     1.0  0.52230  0.09179  0.95954  1.0000
  H   H5311     1.0  0.50963  0.10730  0.94446  1.0000
  H   H5312     1.0  0.49032  0.04346  0.68712  1.0000
  H   H5313     1.0  0.49267  0.05578  0.90596  1.0000
  H   H5314     1.0  0.59636  0.98900  0.70300  1.0000
  H   H5315     1.0  0.51870  0.08228  0.94420  1.0000
  C   C3003     1.0  0.49643  0.10910  0.96864  1.0000
  C   C3004     1.0  0.50179  0.06147  0.65611  1.0000
  H   H5316     1.0  0.58632  0.00931  0.72915  1.0000
  H   H5317     1.0  0.55059  0.19354  0.91522  1.0000
  H   H5318     1.0  0.72292  0.03826  0.48704  1.0000
  H   H5319     1.0  0.56209  0.07715  0.74855  1.0000
  H   H5320     1.0  0.51906  0.10022  0.92315  1.0000
  H   H5321     1.0  0.59415  0.10770  0.90154  1.0000
  N   N167      1.0  0.61266  0.04015  0.56758  1.0000
  C   C3005     1.0  0.61436  0.04461  0.55259  1.0000
  C   C3006     1.0  0.61787  0.02524  0.57152  1.0000
  C   C3007     1.0  0.59799  0.04304  0.57369  1.0000
  C   C3008     1.0  0.61915  0.04762  0.57306  1.0000
  C   C3009     1.0  0.63409  0.04702  0.56714  1.0000
  C   C3010     1.0  0.59396  0.03830  0.58913  1.0000
  C   C3011     1.0  0.63007  0.01875  0.56186  1.0000
  C   C3012     1.0  0.63535  0.00424  0.56828  1.0000
  C   C3013     1.0  0.63892  0.05662  0.57194  1.0000
  C   C3014     1.0  0.57899  0.03970  0.59388  1.0000
  H   H5322     1.0  0.60930  0.03898  0.54902  1.0000
  H   H5323     1.0  0.62489  0.04215  0.54739  1.0000
  H   H5324     1.0  0.62026  0.02253  0.58156  1.0000
  H   H5325     1.0  0.61008  0.01978  0.57252  1.0000
  H   H5326     1.0  0.59275  0.03849  0.56910  1.0000
  H   H5327     1.0  0.61386  0.05826  0.57198  1.0000
  H   H5328     1.0  0.61820  0.04374  0.58402  1.0000
  H   H5329     1.0  0.63643  0.04972  0.55607  1.0000
  H   H5330     1.0  0.63986  0.03688  0.57058  1.0000
  H   H5331     1.0  0.59690  0.04444  0.59417  1.0000
  H   H5332     1.0  0.59861  0.02773  0.59261  1.0000
  H   H5333     1.0  0.62718  0.01882  0.55265  1.0000
  H   H5334     1.0  0.63825  0.02403  0.55880  1.0000
  H   H5335     1.0  0.63850  0.00361  0.57752  1.0000
  H   H5336     1.0  0.62766  0.99835  0.57069  1.0000
  H   H5337     1.0  0.64407  0.99978  0.56124  1.0000
  H   H5338     1.0  0.63381  0.06708  0.56843  1.0000
  H   H5339     1.0  0.63713  0.05423  0.58303  1.0000
  H   H5340     1.0  0.64971  0.05574  0.56782  1.0000
  H   H5341     1.0  0.57562  0.03299  0.58990  1.0000
  H   H5342     1.0  0.57370  0.05012  0.59056  1.0000
  H   H5343     1.0  0.61168  0.10576  0.89429  1.0000
  H   H5344     1.0  0.55805  0.01563  0.66320  1.0000
  H   H5345     1.0  0.51241  0.08600  0.80584  1.0000
  C   C3015     1.0  0.58489  0.00409  0.67903  1.0000
  C   C3016     1.0  0.69649  0.03547  0.52754  1.0000
  H   H5346     1.0  0.50100  0.07846  0.67115  1.0000
  Fe  Fe334     1.0  0.64881  0.02680  0.52106  1.0000
  C   C3017     1.0  0.49700  0.12761  0.91488  1.0000
  H   H5347     1.0  0.58776  0.99836  0.49960  1.0000
  S   S665      1.0  0.54191  0.04769  0.60463  1.0000
  C   C3018     1.0  0.70505  0.01180  0.50275  1.0000
  H   H5348     1.0  0.64421  0.11952  0.85412  1.0000
  H   H5349     1.0  0.51636  0.18794  0.87683  1.0000
  H   H5350     1.0  0.55511  0.99092  0.64637  1.0000
  S   S666      1.0  0.50298  0.06070  0.61296  1.0000
  H   H5351     1.0  0.57037  0.10249  0.79638  1.0000
  C   C3019     1.0  0.48727  0.98742  0.62994  1.0000
  C   C3020     1.0  0.59745  0.02537  0.50771  1.0000
  C   C3021     1.0  0.55190  0.01122  0.53709  1.0000
  S   S667      1.0  0.65810  0.04058  0.52620  1.0000
  C   C3022     1.0  0.67816  0.01948  0.53310  1.0000
  S   S668      1.0  0.63232  0.00483  0.51022  1.0000
  C   C3023     1.0  0.53143  0.23124  0.95435  1.0000
  H   H5352     1.0  0.70352  0.04166  0.52549  1.0000
  N   N168      1.0  0.55118  0.09315  0.78827  1.0000
  H   H5353     1.0  0.57247  0.99286  0.50453  1.0000
  H   H5354     1.0  0.54341  0.06459  0.65027  1.0000
  H   H5355     1.0  0.60813  0.02519  0.50573  1.0000
  H   H5356     1.0  0.50721  0.02611  0.68538  1.0000
  C   C3024     1.0  0.68348  0.04124  0.52585  1.0000
  C   C3025     1.0  0.59478  0.01186  0.51604  1.0000
  H   H5357     1.0  0.55885  0.99267  0.78619  1.0000
  H   H5358     1.0  0.58337  0.12737  0.83851  1.0000
  C   C3026     1.0  0.51492  0.14952  0.93407  1.0000
  C   C3027     1.0  0.67433  0.03324  0.52848  1.0000
  H   H5359     1.0  0.70029  0.06699  0.51239  1.0000
  H   H5360     1.0  0.49351  0.13902  0.87798  1.0000
  C   C3028     1.0  0.50081  0.07066  0.68051  1.0000
  H   H5361     1.0  0.50847  0.06765  0.89686  1.0000
  S   S669      1.0  0.64859  0.00563  0.53174  1.0000
  C   C3029     1.0  0.56614  0.07751  0.75690  1.0000
  H   H5362     1.0  0.49101  0.20888  0.94818  1.0000
  H   H5363     1.0  0.55817  0.99125  0.53296  1.0000
  H   H5364     1.0  0.56702  0.14375  0.95955  1.0000
  H   H5365     1.0  0.49823  0.99749  0.81759  1.0000
  H   H5366     1.0  0.57378  0.07623  0.81742  1.0000
  C   C3030     1.0  0.51307  0.09663  0.80302  1.0000
  C   C3031     1.0  0.58924  0.98778  0.61315  1.0000
  C   C3032     1.0  0.55511  0.08421  0.76701  1.0000
  C   C3033     1.0  0.56156  0.12647  0.76694  1.0000
  H   H5367     1.0  0.51666  0.04544  0.75958  1.0000
  H   H5368     1.0  0.56112  0.07327  0.78541  1.0000
  H   H5369     1.0  0.52731  0.23339  0.94566  1.0000
  H   H5370     1.0  0.49825  0.12416  0.92507  1.0000
  N   N169      1.0  0.50082  0.09632  0.96369  1.0000
  H   H5371     1.0  0.51744  0.09961  0.97987  1.0000
  H   H5372     1.0  0.51684  0.07665  0.68442  1.0000
  H   H5373     1.0  0.52065  0.17496  0.96285  1.0000
  H   H5374     1.0  0.63655  0.09260  0.50236  1.0000
  H   H5375     1.0  0.49707  0.16513  0.93452  1.0000
  H   H5376     1.0  0.49578  0.03976  0.60554  1.0000
  H   H5377     1.0  0.49472  0.99913  0.55975  1.0000
  H   H5378     1.0  0.50248  0.18508  0.84461  1.0000
  H   H5379     1.0  0.57045  0.12885  0.75929  1.0000
  H   H5380     1.0  0.69943  0.05206  0.49879  1.0000
  H   H5381     1.0  0.50152  0.00710  0.83274  1.0000
  H   H5382     1.0  0.50808  0.03227  0.76261  1.0000
  H   H5383     1.0  0.49038  0.07034  0.68547  1.0000
  H   H5384     1.0  0.49280  0.00030  0.66988  1.0000
  H   H5385     1.0  0.50754  0.14080  0.95497  1.0000
  H   H5386     1.0  0.50123  0.08154  0.83894  1.0000
  C   C3034     1.0  0.48966  0.06046  0.60660  1.0000
  C   C3035     1.0  0.49045  0.08803  0.96883  1.0000
  C   C3036     1.0  0.49429  0.13609  0.88833  1.0000
  H   H5387     1.0  0.58230  0.99803  0.71265  1.0000
  H   H5388     1.0  0.69408  0.04217  0.48698  1.0000
  C   C3037     1.0  0.49998  0.99329  0.56785  1.0000
  H   H5389     1.0  0.70667  0.00904  0.48311  1.0000
  H   H5390     1.0  0.65985  0.08271  0.50324  1.0000
  C   C3038     1.0  0.59063  0.22902  0.97654  1.0000
  C   C3039     1.0  0.56218  0.98850  0.68086  1.0000
  H   H5391     1.0  0.67060  0.05430  0.50108  1.0000
  H   H5392     1.0  0.65699  0.99816  0.48503  1.0000
  C   C3040     1.0  0.54003  0.98860  0.82639  1.0000
  H   H5393     1.0  0.49024  0.05114  0.77068  1.0000
  H   H5394     1.0  0.64720  0.10164  0.48885  1.0000
  H   H5395     1.0  0.55691  0.99500  0.68805  1.0000
  C   C3041     1.0  0.52981  0.98785  0.60207  1.0000
  H   H5396     1.0  0.60324  0.99990  0.60083  1.0000
  H   H5397     1.0  0.49351  0.07007  0.65815  1.0000
  H   H5398     1.0  0.53072  0.99889  0.65268  1.0000
  C   C3042     1.0  0.52348  0.17446  0.97224  1.0000
  C   C3043     1.0  0.64409  0.09196  0.49291  1.0000
  C   C3044     1.0  0.58670  0.98816  0.70997  1.0000
  H   H5399     1.0  0.65212  0.07135  0.50009  1.0000
  C   C3045     1.0  0.48831  0.04883  0.60400  1.0000
  H   H5400     1.0  0.51469  0.23148  0.89659  1.0000
  C   C3046     1.0  0.49106  0.99729  0.73018  1.0000
  C   C3047     1.0  0.54115  0.98736  0.57913  1.0000
  H   H5401     1.0  0.54559  0.99248  0.56939  1.0000
  C   C3048     1.0  0.54888  0.99115  0.63962  1.0000
  C   C3049     1.0  0.49034  0.05398  0.80184  1.0000
  C   C3050     1.0  0.65592  0.08062  0.49566  1.0000
  H   H5402     1.0  0.56981  0.99233  0.60909  1.0000
  H   H5403     1.0  0.68644  0.08172  0.49031  1.0000
  C   C3051     1.0  0.49278  0.07763  0.86035  1.0000
  H   H5404     1.0  0.59742  0.22114  0.97144  1.0000
  H   H5405     1.0  0.49747  0.14119  0.94371  1.0000
  H   H5406     1.0  0.49777  0.21373  0.93057  1.0000
  H   H5407     1.0  0.49549  0.08545  0.90901  1.0000
  H   H5408     1.0  0.49470  0.00541  0.73162  1.0000
  H   H5409     1.0  0.48913  0.03128  0.73288  1.0000
  H   H5410     1.0  0.48841  0.16398  0.90204  1.0000
  C   C3052     1.0  0.66125  0.98817  0.48353  1.0000
  H   H5411     1.0  0.49367  0.10511  0.94533  1.0000
  C   C3053     1.0  0.57412  0.98899  0.61803  1.0000
  H   H5412     1.0  0.70645  0.06301  0.48374  1.0000
  H   H5413     1.0  0.52245  0.16476  0.97924  1.0000
  C   C3054     1.0  0.67399  0.05545  0.49007  1.0000
  H   H5414     1.0  0.49495  0.10703  0.97966  1.0000
  H   H5415     1.0  0.59077  0.98676  0.67004  1.0000
  C   C3055     1.0  0.68371  0.04211  0.48783  1.0000
  H   H5416     1.0  0.56639  0.22802  0.95315  1.0000
  H   H5417     1.0  0.48721  0.18700  0.88001  1.0000
  H   H5418     1.0  0.59397  0.98542  0.62174  1.0000
  C   C3056     1.0  0.48700  0.12447  0.91117  1.0000
  H   H5419     1.0  0.48703  0.12251  0.85336  1.0000
  H   H5420     1.0  0.59374  0.98497  0.52148  1.0000
  H   H5421     1.0  0.49189  0.98478  0.74955  1.0000
  C   C3057     1.0  0.57697  0.98501  0.70350  1.0000
  C   C3058     1.0  0.66674  0.07948  0.48263  1.0000
  Fe  Fe335     1.0  0.62579  0.42539  0.00689  1.0000
  S   S670      1.0  0.63815  0.40562  0.00346  1.0000
  H   H5422     1.0  0.53016  0.40434  0.99640  1.0000
  Fe  Fe336     1.0  0.63080  0.42093  0.03403  1.0000
  S   S671      1.0  0.64375  0.40047  0.03344  1.0000
  S   S672      1.0  0.62756  0.43314  0.04916  1.0000
  Fe  Fe337     1.0  0.65261  0.40989  0.01242  1.0000
  S   S673      1.0  0.67372  0.40956  0.00125  1.0000
  Fe  Fe338     1.0  0.62822  0.39759  0.02455  1.0000
  S   S674      1.0  0.62281  0.37755  0.02824  1.0000
  S   S675      1.0  0.64100  0.43038  0.01380  1.0000
  S   S676      1.0  0.61449  0.41723  0.02717  1.0000
  Fe  Fe339     1.0  0.56081  0.35455  0.02352  1.0000
  S   S677      1.0  0.55562  0.36176  0.00345  1.0000
  S   S678      1.0  0.56554  0.36904  0.03259  1.0000
  Fe  Fe340     1.0  0.55566  0.32717  0.02678  1.0000
  S   S679      1.0  0.55022  0.33217  0.00694  1.0000
  S   S680      1.0  0.55461  0.30724  0.04100  1.0000
  H   H5423     1.0  0.59431  0.40931  0.05914  1.0000
  H   H5424     1.0  0.58231  0.30903  0.03596  1.0000
  Fe  Fe341     1.0  0.53869  0.35150  0.01231  1.0000
  S   S681      1.0  0.51982  0.36131  0.00506  1.0000
  S   S682      1.0  0.57411  0.33540  0.01900  1.0000
  S   S683      1.0  0.54267  0.34588  0.03290  1.0000
  H   H5425     1.0  0.61854  0.32498  0.00243  1.0000
  C   C3059     1.0  0.58509  0.45889  0.05332  1.0000
  H   H5426     1.0  0.64980  0.48025  0.01292  1.0000
  Fe  Fe342     1.0  0.56752  0.34200  0.99957  1.0000
  C   C3060     1.0  0.58625  0.31748  0.05048  1.0000
  H   H5427     1.0  0.59008  0.46347  0.00423  1.0000
  H   H5428     1.0  0.55548  0.34793  0.05606  1.0000
  H   H5429     1.0  0.54013  0.45000  0.05633  1.0000
  H   H5430     1.0  0.59850  0.30244  0.03950  1.0000
  H   H5431     1.0  0.48877  0.31554  0.04056  1.0000
  C   C3061     1.0  0.50186  0.24289  0.02404  1.0000
  H   H5432     1.0  0.69591  0.47009  0.03616  1.0000
  H   H5433     1.0  0.54280  0.32669  0.07856  1.0000
  H   H5434     1.0  0.59898  0.42277  0.00011  1.0000
  H   H5435     1.0  0.68528  0.37549  0.99198  1.0000
  C   C3062     1.0  0.58843  0.35777  0.06614  1.0000
  H   H5436     1.0  0.54266  0.43359  0.05345  1.0000
  C   C3063     1.0  0.53418  0.29702  0.00412  1.0000
  H   H5437     1.0  0.54721  0.43544  0.06771  1.0000
  C   C3064     1.0  0.58040  0.30957  0.09881  1.0000
  H   H5438     1.0  0.64825  0.36827  0.98708  1.0000
  C   C3065     1.0  0.64038  0.47745  0.99902  1.0000
  N   N170      1.0  0.61125  0.36626  0.98480  1.0000
  H   H5439     1.0  0.53125  0.27079  0.03408  1.0000
  C   C3066     1.0  0.50563  0.35517  0.01395  1.0000
  C   C3067     1.0  0.50483  0.34756  0.02699  1.0000
  H   H5440     1.0  0.58943  0.24454  0.03240  1.0000
  C   C3068     1.0  0.49312  0.34331  0.03413  1.0000
  H   H5441     1.0  0.59839  0.40978  0.07424  1.0000
  C   C3069     1.0  0.49480  0.35829  0.00798  1.0000
  H   H5442     1.0  0.51311  0.34531  0.03166  1.0000
  C   C3070     1.0  0.70421  0.44747  0.98685  1.0000
  C   C3071     1.0  0.64082  0.37694  0.99030  1.0000
  Fe  Fe343     1.0  0.55539  0.24626  0.01606  1.0000
  C   C3072     1.0  0.62393  0.45020  0.04163  1.0000
  C   C3073     1.0  0.61876  0.45442  0.03013  1.0000
  C   C3074     1.0  0.61461  0.46803  0.02488  1.0000
  C   C3075     1.0  0.61590  0.47754  0.03085  1.0000
  C   C3076     1.0  0.62168  0.47340  0.04196  1.0000
  C   C3077     1.0  0.62552  0.45971  0.04746  1.0000
  H   H5443     1.0  0.61741  0.44722  0.02557  1.0000
  H   H5444     1.0  0.61028  0.47121  0.01620  1.0000
  H   H5445     1.0  0.66771  0.37625  0.99735  1.0000
  H   H5446     1.0  0.62953  0.45650  0.05635  1.0000
  C   C3078     1.0  0.60691  0.37569  0.02857  1.0000
  C   C3079     1.0  0.60540  0.36329  0.02789  1.0000
  C   C3080     1.0  0.59288  0.36132  0.02837  1.0000
  C   C3081     1.0  0.58166  0.37159  0.03015  1.0000
  C   C3082     1.0  0.58316  0.38394  0.03096  1.0000
  C   C3083     1.0  0.59575  0.38608  0.02991  1.0000
  H   H5447     1.0  0.61397  0.35517  0.02701  1.0000
  H   H5448     1.0  0.59186  0.35175  0.02779  1.0000
  H   H5449     1.0  0.57452  0.39192  0.03240  1.0000
  H   H5450     1.0  0.59677  0.39565  0.03051  1.0000
  C   C3084     1.0  0.68577  0.40649  0.01049  1.0000
  C   C3085     1.0  0.69758  0.41078  0.00417  1.0000
  C   C3086     1.0  0.70759  0.40814  0.01115  1.0000
  C   C3087     1.0  0.70598  0.40085  0.02437  1.0000
  C   C3088     1.0  0.69415  0.39657  0.03069  1.0000
  C   C3089     1.0  0.68397  0.39953  0.02381  1.0000
  H   H5451     1.0  0.69899  0.41612  0.99385  1.0000
  H   H5452     1.0  0.71669  0.41137  0.00618  1.0000
  H   H5453     1.0  0.69287  0.39091  0.04092  1.0000
  H   H5454     1.0  0.67489  0.39615  0.02873  1.0000
  H   H5455     1.0  0.51460  0.28792  0.02329  1.0000
  H   H5456     1.0  0.49533  0.36433  0.99795  1.0000
  H   H5457     1.0  0.60131  0.37592  0.00142  1.0000
  H   H5458     1.0  0.66252  0.39902  0.98310  1.0000
  H   H5459     1.0  0.58036  0.47739  0.06926  1.0000
  H   H5460     1.0  0.59268  0.31401  0.05774  1.0000
  H   H5461     1.0  0.54492  0.32850  0.06090  1.0000
  H   H5462     1.0  0.55342  0.27961  0.05102  1.0000
  N   N171      1.0  0.67161  0.45669  0.01322  1.0000
  C   C3090     1.0  0.68382  0.44868  0.00567  1.0000
  C   C3091     1.0  0.66434  0.44754  0.02474  1.0000
  C   C3092     1.0  0.66258  0.46375  0.00361  1.0000
  C   C3093     1.0  0.67481  0.46714  0.01806  1.0000
  C   C3094     1.0  0.68512  0.46216  0.02692  1.0000
  C   C3095     1.0  0.58367  0.45612  0.00800  1.0000
  C   C3096     1.0  0.64881  0.47174  0.00955  1.0000
  C   C3097     1.0  0.67279  0.43454  0.03170  1.0000
  C   C3098     1.0  0.66426  0.42693  0.04373  1.0000
  H   H5463     1.0  0.51216  0.33050  0.05314  1.0000
  Fe  Fe344     1.0  0.73405  0.40900  0.02544  1.0000
  C   C3099     1.0  0.62690  0.37441  0.99379  1.0000
  H   H5464     1.0  0.68095  0.44125  0.00209  1.0000
  H   H5465     1.0  0.69068  0.44266  0.01226  1.0000
  H   H5466     1.0  0.65803  0.45305  0.03256  1.0000
  H   H5467     1.0  0.65732  0.44403  0.02130  1.0000
  H   H5468     1.0  0.66094  0.45642  0.99891  1.0000
  H   H5469     1.0  0.58654  0.44940  0.00092  1.0000
  H   H5470     1.0  0.67814  0.47505  0.00946  1.0000
  H   H5471     1.0  0.66574  0.47245  0.02410  1.0000
  H   H5472     1.0  0.69442  0.45599  0.02223  1.0000
  H   H5473     1.0  0.68091  0.45633  0.03679  1.0000
  C   C3100     1.0  0.58544  0.44796  0.02186  1.0000
  H   H5474     1.0  0.57994  0.42842  0.06895  1.0000
  S   S684      1.0  0.73630  0.41959  0.03968  1.0000
  H   H5475     1.0  0.64335  0.46538  0.01816  1.0000
  H   H5476     1.0  0.67754  0.42778  0.02469  1.0000
  H   H5477     1.0  0.68068  0.43651  0.03514  1.0000
  H   H5478     1.0  0.67062  0.41784  0.04860  1.0000
  H   H5479     1.0  0.65900  0.43319  0.05116  1.0000
  H   H5480     1.0  0.65690  0.42378  0.04047  1.0000
  C   C3101     1.0  0.52847  0.39608  0.99316  1.0000
  H   H5481     1.0  0.54447  0.29826  0.99944  1.0000
  H   H5482     1.0  0.57290  0.30331  0.10253  1.0000
  H   H5483     1.0  0.59340  0.40859  0.98865  1.0000
  H   H5484     1.0  0.57754  0.39010  0.00483  1.0000
  H   H5485     1.0  0.56675  0.43058  0.04948  1.0000
  C   C3102     1.0  0.59006  0.42920  0.06312  1.0000
  H   H5486     1.0  0.57744  0.31766  0.10439  1.0000
  H   H5487     1.0  0.49576  0.29270  0.05674  1.0000
  H   H5488     1.0  0.57847  0.34632  0.05138  1.0000
  C   C3103     1.0  0.53084  0.29805  0.01872  1.0000
  H   H5489     1.0  0.50996  0.31743  0.03613  1.0000
  H   H5490     1.0  0.53106  0.28625  0.04682  1.0000
  H   H5491     1.0  0.72932  0.37665  0.99429  1.0000
  H   H5492     1.0  0.53804  0.29021  0.02377  1.0000
  H   H5493     1.0  0.53228  0.30788  0.01887  1.0000
  C   C3104     1.0  0.57671  0.35100  0.07032  1.0000
  H   H5494     1.0  0.57275  0.28615  0.00236  1.0000
  C   C3105     1.0  0.72287  0.43851  0.06417  1.0000
  C   C3106     1.0  0.56665  0.44998  0.05311  1.0000
  H   H5495     1.0  0.58288  0.45522  0.06437  1.0000
  C   C3107     1.0  0.56067  0.44087  0.04858  1.0000
  C   C3108     1.0  0.72831  0.48028  0.02880  1.0000
  H   H5496     1.0  0.57319  0.46142  0.00830  1.0000
  H   H5497     1.0  0.59436  0.47984  0.05549  1.0000
  H   H5498     1.0  0.49758  0.31396  0.05924  1.0000
  S   S685      1.0  0.71885  0.39636  0.03294  1.0000
  H   H5499     1.0  0.57917  0.44055  0.02507  1.0000
  H   H5500     1.0  0.55857  0.26085  0.03965  1.0000
  H   H5501     1.0  0.52741  0.30494  0.99846  1.0000
  C   C3109     1.0  0.52129  0.28414  0.04783  1.0000
  H   H5502     1.0  0.58895  0.33477  0.06130  1.0000
  C   C3110     1.0  0.54682  0.43997  0.05707  1.0000
  H   H5503     1.0  0.56189  0.31682  0.08331  1.0000
  C   C3111     1.0  0.52392  0.27071  0.04371  1.0000
  H   H5504     1.0  0.58433  0.29742  0.05154  1.0000
  S   S686      1.0  0.61690  0.44036  0.99090  1.0000
  H   H5505     1.0  0.55965  0.44509  0.03809  1.0000
  H   H5506     1.0  0.58383  0.36597  0.00277  1.0000
  H   H5507     1.0  0.51005  0.30553  0.02038  1.0000
  H   H5508     1.0  0.58960  0.32127  0.08069  1.0000
  H   H5509     1.0  0.60493  0.33201  0.01464  1.0000
  C   C3112     1.0  0.57874  0.47406  0.05057  1.0000
  C   C3113     1.0  0.61349  0.35265  0.99399  1.0000
  C   C3114     1.0  0.49885  0.24007  0.03799  1.0000
  H   H5510     1.0  0.59777  0.35034  0.06734  1.0000
  C   C3115     1.0  0.52954  0.25909  0.05413  1.0000
  C   C3116     1.0  0.68878  0.47387  0.02950  1.0000
  H   H5511     1.0  0.56017  0.46007  0.05118  1.0000
  C   C3117     1.0  0.53048  0.34411  0.06927  1.0000
  H   H5512     1.0  0.66715  0.47113  0.99533  1.0000
  H   H5513     1.0  0.49492  0.31008  0.00217  1.0000
  H   H5514     1.0  0.58678  0.36499  0.07245  1.0000
  H   H5515     1.0  0.53278  0.24984  0.05026  1.0000
  S   S687      1.0  0.57030  0.25887  0.01215  1.0000
  C   C3118     1.0  0.59839  0.41501  0.06368  1.0000
  H   H5516     1.0  0.52501  0.30859  0.04064  1.0000
  C   C3119     1.0  0.55529  0.34089  0.06602  1.0000
  H   H5517     1.0  0.59460  0.34735  0.99616  1.0000
  H   H5518     1.0  0.68651  0.46225  0.98572  1.0000
  Fe  Fe345     1.0  0.53735  0.24147  0.00143  1.0000
  H   H5519     1.0  0.56694  0.30506  0.01355  1.0000
  C   C3120     1.0  0.60790  0.32997  0.00445  1.0000
  H   H5520     1.0  0.55249  0.34724  0.07345  1.0000
  H   H5521     1.0  0.60206  0.32309  0.00405  1.0000
  C   C3121     1.0  0.55950  0.29372  0.03299  1.0000
  C   C3122     1.0  0.56850  0.32393  0.08060  1.0000
  C   C3123     1.0  0.50850  0.31049  0.05754  1.0000
  H   H5522     1.0  0.57573  0.34623  0.08108  1.0000
  H   H5523     1.0  0.49766  0.24074  0.00639  1.0000
  H   H5524     1.0  0.52853  0.38726  0.00166  1.0000
  H   H5525     1.0  0.53350  0.28709  0.00340  1.0000
  C   C3124     1.0  0.56837  0.28474  0.01296  1.0000
  C   C3125     1.0  0.69222  0.45674  0.99348  1.0000
  C   C3126     1.0  0.57153  0.32270  0.05695  1.0000
  H   H5526     1.0  0.51695  0.28237  0.05876  1.0000
  C   C3127     1.0  0.54365  0.33391  0.06881  1.0000
  C   C3128     1.0  0.57572  0.38687  0.99663  1.0000
  H   H5527     1.0  0.59591  0.44245  0.02080  1.0000
  H   H5528     1.0  0.53063  0.35175  0.05976  1.0000
  C   C3129     1.0  0.56508  0.29547  0.01929  1.0000
  C   C3130     1.0  0.57868  0.34068  0.06182  1.0000
  C   C3131     1.0  0.49458  0.23940  0.01714  1.0000
  H   H5529     1.0  0.52837  0.34917  0.07764  1.0000
  C   C3132     1.0  0.56032  0.27049  0.03395  1.0000
  H   H5530     1.0  0.63097  0.48395  0.00308  1.0000
  C   C3133     1.0  0.58234  0.45709  0.03188  1.0000
  H   H5531     1.0  0.64301  0.37837  0.99929  1.0000
  H   H5532     1.0  0.63800  0.46929  0.99622  1.0000
  H   H5533     1.0  0.56776  0.35897  0.06895  1.0000
  H   H5534     1.0  0.69588  0.46389  0.99656  1.0000
  H   H5535     1.0  0.71811  0.44230  0.05546  1.0000
  C   C3134     1.0  0.56576  0.27228  0.02021  1.0000
  H   H5536     1.0  0.56781  0.47590  0.05365  1.0000
  C   C3135     1.0  0.58998  0.43689  0.04848  1.0000
  H   H5537     1.0  0.62639  0.36584  0.00246  1.0000
  C   C3136     1.0  0.49895  0.33683  0.98510  1.0000
  H   H5538     1.0  0.56401  0.33059  0.08779  1.0000
  H   H5539     1.0  0.60943  0.46953  0.98779  1.0000
  C   C3137     1.0  0.51431  0.30843  0.04304  1.0000
  H   H5540     1.0  0.59001  0.30323  0.10083  1.0000
  C   C3138     1.0  0.58789  0.30590  0.04400  1.0000
  N   N172      1.0  0.58089  0.45052  0.04661  1.0000
  H   H5541     1.0  0.72463  0.42746  0.06674  1.0000
  H   H5542     1.0  0.50945  0.32236  0.07056  1.0000
  H   H5543     1.0  0.57340  0.46503  0.03018  1.0000
  H   H5544     1.0  0.60795  0.34012  0.98416  1.0000
  H   H5545     1.0  0.52500  0.31733  0.05943  1.0000
  H   H5546     1.0  0.57250  0.31744  0.99020  1.0000
  H   H5547     1.0  0.71599  0.44250  0.07274  1.0000
  H   H5548     1.0  0.67986  0.48039  0.03442  1.0000
  S   S688      1.0  0.53436  0.25539  0.01464  1.0000
  C   C3139     1.0  0.51643  0.29669  0.02560  1.0000
  N   N173      1.0  0.56879  0.33185  0.06643  1.0000
  S   S689      1.0  0.52793  0.24926  0.98385  1.0000
  H   H5549     1.0  0.53816  0.26098  0.05646  1.0000
  H   H5550     1.0  0.58777  0.43027  0.04346  1.0000
  C   C3140     1.0  0.58573  0.37409  0.99387  1.0000
  Fe  Fe346     1.0  0.52958  0.23805  0.03112  1.0000
  H   H5551     1.0  0.52233  0.33903  0.07083  1.0000
  H   H5552     1.0  0.51076  0.30118  0.06506  1.0000
  H   H5553     1.0  0.59066  0.46231  0.02842  1.0000
  H   H5554     1.0  0.56685  0.31400  0.06193  1.0000
  H   H5555     1.0  0.56675  0.32787  0.04834  1.0000
  C   C3141     1.0  0.60078  0.41440  0.98337  1.0000
  H   H5556     1.0  0.61162  0.35363  0.00447  1.0000
  C   C3142     1.0  0.60529  0.34289  0.99398  1.0000
  H   H5557     1.0  0.58517  0.30684  0.07885  1.0000
  H   H5558     1.0  0.58150  0.47881  0.03982  1.0000
  C   C3143     1.0  0.67667  0.37368  0.98953  1.0000
  H   H5559     1.0  0.58365  0.37186  0.98526  1.0000
  H   H5560     1.0  0.60034  0.43777  0.04352  1.0000
  H   H5561     1.0  0.65580  0.42036  0.98371  1.0000
  H   H5562     1.0  0.58948  0.36332  0.05559  1.0000
  H   H5563     1.0  0.51482  0.26873  0.04250  1.0000
  C   C3144     1.0  0.58184  0.31539  0.08380  1.0000
  H   H5564     1.0  0.71808  0.48434  0.02813  1.0000
  C   C3145     1.0  0.55747  0.28111  0.04036  1.0000
  C   C3146     1.0  0.51414  0.32082  0.06028  1.0000
  H   H5565     1.0  0.59005  0.32563  0.04255  1.0000
  H   H5566     1.0  0.59443  0.43421  0.06809  1.0000
  H   H5567     1.0  0.58531  0.23488  0.04918  1.0000
  H   H5568     1.0  0.56525  0.44703  0.06418  1.0000
  C   C3147     1.0  0.49853  0.29424  0.04565  1.0000
  H   H5569     1.0  0.60879  0.41515  0.05830  1.0000
  H   H5570     1.0  0.70093  0.44017  0.98361  1.0000
  N   N174      1.0  0.51263  0.29591  0.04046  1.0000
  H   H5571     1.0  0.50657  0.33616  0.99055  1.0000
  C   C3148     1.0  0.73404  0.46698  0.02821  1.0000
  H   H5572     1.0  0.59601  0.45791  0.05030  1.0000
  H   H5573     1.0  0.52183  0.25750  0.06346  1.0000
  C   C3149     1.0  0.73585  0.37229  0.01249  1.0000
  H   H5574     1.0  0.73346  0.45408  0.05815  1.0000
  H   H5575     1.0  0.61993  0.38339  0.99689  1.0000
  H   H5576     1.0  0.71085  0.44208  0.99385  1.0000
  H   H5577     1.0  0.49744  0.28505  0.04354  1.0000
  H   H5578     1.0  0.72560  0.37303  0.01864  1.0000
  H   H5579     1.0  0.49230  0.33781  0.04438  1.0000
  H   H5580     1.0  0.61220  0.23537  0.00005  1.0000
  C   C3150     1.0  0.58343  0.48122  0.05832  1.0000
  S   S690      1.0  0.72501  0.45724  0.02522  1.0000
  C   C3151     1.0  0.60380  0.42255  0.98980  1.0000
  H   H5581     1.0  0.63460  0.23562  0.00106  1.0000
  H   H5582     1.0  0.69351  0.47985  0.01998  1.0000
  H   H5583     1.0  0.56552  0.38519  0.99963  1.0000
  H   H5584     1.0  0.48874  0.30593  0.02922  1.0000
  C   C3152     1.0  0.60001  0.37594  0.99147  1.0000
  H   H5585     1.0  0.55686  0.26467  0.98874  1.0000
  H   H5586     1.0  0.62261  0.48072  0.04666  1.0000
  H   H5587     1.0  0.51020  0.24725  0.01848  1.0000
  S   S691      1.0  0.73313  0.42709  0.00880  1.0000
  C   C3153     1.0  0.61288  0.43055  0.98280  1.0000
  H   H5588     1.0  0.49240  0.29142  0.99473  1.0000
  H   H5589     1.0  0.54892  0.38997  0.98425  1.0000
  H   H5590     1.0  0.48910  0.33828  0.99206  1.0000
  H   H5591     1.0  0.60026  0.38621  0.98554  1.0000
  H   H5592     1.0  0.53850  0.37256  0.98493  1.0000
  H   H5593     1.0  0.62405  0.34736  0.99158  1.0000
  C   C3154     1.0  0.58442  0.23642  0.03872  1.0000
  C   C3155     1.0  0.73553  0.38054  0.99832  1.0000
  S   S692      1.0  0.51038  0.24106  0.04622  1.0000
  H   H5594     1.0  0.58857  0.23758  0.99315  1.0000
  H   H5595     1.0  0.73080  0.39094  0.99924  1.0000
  H   H5596     1.0  0.67845  0.36292  0.98969  1.0000
  H   H5597     1.0  0.51860  0.39917  0.99060  1.0000
  H   H5598     1.0  0.57642  0.39499  0.98749  1.0000
  H   H5599     1.0  0.64561  0.48361  0.98996  1.0000
  H   H5600     1.0  0.57377  0.23946  0.03849  1.0000
  H   H5601     1.0  0.48875  0.27256  0.99314  1.0000
  C   C3156     1.0  0.48788  0.30573  0.03986  1.0000
  C   C3157     1.0  0.48756  0.23506  0.04502  1.0000
  H   H5602     1.0  0.49714  0.25348  0.98250  1.0000
  H   H5603     1.0  0.64155  0.38604  0.98227  1.0000
  H   H5604     1.0  0.72674  0.42205  0.98222  1.0000
  H   H5605     1.0  0.73593  0.43809  0.08180  1.0000
  C   C3158     1.0  0.73590  0.44304  0.06064  1.0000
  H   H5606     1.0  0.59167  0.23509  0.01340  1.0000
  Fe  Fe347     1.0  0.52658  0.24244  0.90936  1.0000
  C   C3159     1.0  0.67082  0.47212  0.91177  1.0000
  H   H5607     1.0  0.60042  0.44479  0.95159  1.0000
  H   H5608     1.0  0.68906  0.44667  0.88550  1.0000
  H   H5609     1.0  0.66582  0.40009  0.93898  1.0000
  S   S693      1.0  0.56988  0.25780  0.89337  1.0000
  C   C3160     1.0  0.70562  0.45508  0.88272  1.0000
  Fe  Fe348     1.0  0.60797  0.41166  0.93968  1.0000
  S   S694      1.0  0.62176  0.39816  0.92682  1.0000
  S   S695      1.0  0.60278  0.40445  0.96186  1.0000
  Fe  Fe349     1.0  0.60187  0.43398  0.91637  1.0000
  S   S696      1.0  0.61507  0.42214  0.90121  1.0000
  S   S697      1.0  0.59029  0.45536  0.91374  1.0000
  Fe  Fe350     1.0  0.60621  0.40483  0.91465  1.0000
  S   S698      1.0  0.60258  0.38725  0.90910  1.0000
  Fe  Fe351     1.0  0.62949  0.41628  0.91469  1.0000
  S   S699      1.0  0.65165  0.41446  0.90689  1.0000
  S   S700      1.0  0.59181  0.41722  0.92855  1.0000
  S   S701      1.0  0.61689  0.42931  0.92871  1.0000
  Fe  Fe352     1.0  0.52411  0.33364  0.92942  1.0000
  S   S702      1.0  0.53313  0.34567  0.90985  1.0000
  S   S703      1.0  0.50355  0.32985  0.93766  1.0000
  Fe  Fe353     1.0  0.55031  0.32237  0.93779  1.0000
  S   S704      1.0  0.56171  0.33312  0.91897  1.0000
  S   S705      1.0  0.55968  0.30808  0.95403  1.0000
  Fe  Fe354     1.0  0.54489  0.35067  0.92156  1.0000
  S   S706      1.0  0.54739  0.37192  0.91774  1.0000
  Fe  Fe355     1.0  0.54930  0.32723  0.90885  1.0000
  S   S707      1.0  0.55926  0.31982  0.89000  1.0000
  S   S708      1.0  0.53422  0.34029  0.94135  1.0000
  S   S709      1.0  0.53942  0.31491  0.92746  1.0000
  C   C3161     1.0  0.53935  0.39283  0.98110  1.0000
  C   C3162     1.0  0.48854  0.35028  0.96534  1.0000
  C   C3163     1.0  0.66940  0.42039  0.96403  1.0000
  H   H5610     1.0  0.55425  0.25181  0.95161  1.0000
  C   C3164     1.0  0.53890  0.34207  0.97235  1.0000
  H   H5611     1.0  0.53168  0.36019  0.95921  1.0000
  C   C3165     1.0  0.49220  0.33459  0.92729  1.0000
  C   C3166     1.0  0.53738  0.38118  0.97636  1.0000
  C   C3167     1.0  0.49717  0.24125  0.90880  1.0000
  C   C3168     1.0  0.62049  0.35854  0.96239  1.0000
  H   H5612     1.0  0.57986  0.24461  0.94788  1.0000
  C   C3169     1.0  0.49332  0.34483  0.91583  1.0000
  H   H5613     1.0  0.58416  0.48328  0.91424  1.0000
  H   H5614     1.0  0.53792  0.40075  0.92716  1.0000
  C   C3170     1.0  0.65967  0.39684  0.94904  1.0000
  H   H5615     1.0  0.50161  0.34962  0.91290  1.0000
  C   C3171     1.0  0.56738  0.31648  0.96051  1.0000
  C   C3172     1.0  0.57225  0.32762  0.95247  1.0000
  C   C3173     1.0  0.57715  0.33512  0.95806  1.0000
  H   H5616     1.0  0.53938  0.40203  0.97317  1.0000
  C   C3174     1.0  0.61941  0.42998  0.96964  1.0000
  C   C3175     1.0  0.53590  0.35726  0.96824  1.0000
  H   H5617     1.0  0.57204  0.33059  0.94200  1.0000
  H   H5618     1.0  0.58075  0.34381  0.95185  1.0000
  Fe  Fe356     1.0  0.55518  0.24452  0.90140  1.0000
  C   C3176     1.0  0.57680  0.33173  0.97176  1.0000
  C   C3177     1.0  0.60027  0.46714  0.90901  1.0000
  H   H5619     1.0  0.67959  0.39866  0.97933  1.0000
  H   H5620     1.0  0.65019  0.40466  0.96702  1.0000
  H   H5621     1.0  0.58710  0.37582  0.95724  1.0000
  C   C3178     1.0  0.55770  0.26641  0.96783  1.0000
  C   C3179     1.0  0.61382  0.46343  0.90387  1.0000
  H   H5622     1.0  0.60022  0.36136  0.97335  1.0000
  H   H5623     1.0  0.60258  0.46072  0.97058  1.0000
  H   H5624     1.0  0.59078  0.23882  0.96946  1.0000
  H   H5625     1.0  0.61820  0.45330  0.90273  1.0000
  C   C3180     1.0  0.58690  0.38326  0.91276  1.0000
  C   C3181     1.0  0.58585  0.36986  0.91732  1.0000
  C   C3182     1.0  0.57374  0.36627  0.91919  1.0000
  C   C3183     1.0  0.56270  0.37599  0.91604  1.0000
  C   C3184     1.0  0.56376  0.38938  0.91148  1.0000
  C   C3185     1.0  0.57574  0.39303  0.91002  1.0000
  H   H5626     1.0  0.59445  0.36223  0.91945  1.0000
  H   H5627     1.0  0.57295  0.35599  0.92302  1.0000
  H   H5628     1.0  0.55536  0.39697  0.90882  1.0000
  H   H5629     1.0  0.57648  0.40334  0.90629  1.0000
  C   C3186     1.0  0.66073  0.42119  0.91379  1.0000
  C   C3187     1.0  0.67459  0.41877  0.90960  1.0000
  H   H5630     1.0  0.70829  0.46287  0.88585  1.0000
  H   H5631     1.0  0.67954  0.41260  0.90240  1.0000
  H   H5632     1.0  0.64377  0.43108  0.92640  1.0000
  C   C3188     1.0  0.60714  0.41400  0.97010  1.0000
  H   H5633     1.0  0.54614  0.38025  0.94289  1.0000
  C   C3189     1.0  0.61673  0.42148  0.96339  1.0000
  H   H5634     1.0  0.65443  0.41651  0.95219  1.0000
  H   H5635     1.0  0.62214  0.42069  0.95344  1.0000
  C   C3190     1.0  0.56559  0.27515  0.89228  1.0000
  C   C3191     1.0  0.57383  0.28291  0.88271  1.0000
  C   C3192     1.0  0.57148  0.29662  0.88190  1.0000
  C   C3193     1.0  0.56112  0.30268  0.89097  1.0000
  C   C3194     1.0  0.55271  0.29498  0.90056  1.0000
  C   C3195     1.0  0.55484  0.28123  0.90111  1.0000
  H   H5636     1.0  0.58215  0.27828  0.87588  1.0000
  H   H5637     1.0  0.57798  0.30245  0.87444  1.0000
  H   H5638     1.0  0.54460  0.29959  0.90751  1.0000
  H   H5639     1.0  0.54847  0.27526  0.90858  1.0000
  C   C3196     1.0  0.58022  0.44350  0.95673  1.0000
  H   H5640     1.0  0.60836  0.35013  0.95501  1.0000
  H   H5641     1.0  0.66706  0.46305  0.91735  1.0000
  H   H5642     1.0  0.65169  0.44246  0.87647  1.0000
  H   H5643     1.0  0.53036  0.38221  0.95372  1.0000
  C   C3197     1.0  0.59962  0.47129  0.96543  1.0000
  C   C3198     1.0  0.60062  0.32628  0.85733  1.0000
  H   H5644     1.0  0.62810  0.36463  0.95775  1.0000
  S   S710      1.0  0.53999  0.24544  0.92047  1.0000
  H   H5645     1.0  0.57053  0.44775  0.96272  1.0000
  N   N175      1.0  0.56214  0.26965  0.94200  1.0000
  C   C3199     1.0  0.56091  0.25585  0.94226  1.0000
  C   C3200     1.0  0.54907  0.27946  0.94120  1.0000
  C   C3201     1.0  0.57231  0.27378  0.92956  1.0000
  C   C3202     1.0  0.56689  0.26985  0.95395  1.0000
  C   C3203     1.0  0.58647  0.34496  0.86867  1.0000
  H   H5646     1.0  0.57171  0.37067  0.86689  1.0000
  C   C3204     1.0  0.57326  0.28866  0.92569  1.0000
  C   C3205     1.0  0.53623  0.27427  0.94853  1.0000
  C   C3206     1.0  0.52432  0.28578  0.95077  1.0000
  C   C3207     1.0  0.67480  0.38198  0.97571  1.0000
  H   H5647     1.0  0.68400  0.37895  0.96841  1.0000
  C   C3208     1.0  0.58445  0.29122  0.91349  1.0000
  H   H5648     1.0  0.55619  0.25636  0.93403  1.0000
  C   C3209     1.0  0.59958  0.33433  0.86750  1.0000
  H   H5649     1.0  0.54879  0.28839  0.94478  1.0000
  H   H5650     1.0  0.54809  0.28323  0.93061  1.0000
  H   H5651     1.0  0.57039  0.27156  0.92076  1.0000
  H   H5652     1.0  0.58239  0.26786  0.93057  1.0000
  H   H5653     1.0  0.57682  0.26323  0.95415  1.0000
  H   H5654     1.0  0.56831  0.27993  0.95317  1.0000
  H   H5655     1.0  0.64745  0.38972  0.94069  1.0000
  H   H5656     1.0  0.55884  0.39135  0.96135  1.0000
  C   C3210     1.0  0.53234  0.23733  0.97419  1.0000
  H   H5657     1.0  0.63236  0.36472  0.97727  1.0000
  H   H5658     1.0  0.57522  0.29175  0.93388  1.0000
  H   H5659     1.0  0.56402  0.29526  0.92308  1.0000
  H   H5660     1.0  0.53418  0.26852  0.94241  1.0000
  C   C3211     1.0  0.55916  0.35771  0.88034  1.0000
  H   H5661     1.0  0.52293  0.29275  0.94115  1.0000
  H   H5662     1.0  0.51525  0.28180  0.95563  1.0000
  H   H5663     1.0  0.55492  0.35948  0.95595  1.0000
  C   C3212     1.0  0.59291  0.37436  0.87870  1.0000
  C   C3213     1.0  0.59775  0.34212  0.89642  1.0000
  C   C3214     1.0  0.59508  0.36246  0.87214  1.0000
  H   H5664     1.0  0.59221  0.32121  0.86031  1.0000
  H   H5665     1.0  0.66776  0.45196  0.90270  1.0000
  H   H5666     1.0  0.58327  0.28788  0.90503  1.0000
  H   H5667     1.0  0.58426  0.30206  0.91031  1.0000
  H   H5668     1.0  0.59418  0.28585  0.91592  1.0000
  H   H5669     1.0  0.60996  0.31853  0.85686  1.0000
  H   H5670     1.0  0.50938  0.34616  0.96626  1.0000
  H   H5671     1.0  0.54481  0.37295  0.88999  1.0000
  H   H5672     1.0  0.64181  0.47125  0.92383  1.0000
  H   H5673     1.0  0.59987  0.32714  0.87724  1.0000
  H   H5674     1.0  0.72407  0.40013  0.98072  1.0000
  C   C3215     1.0  0.49950  0.34841  0.97297  1.0000
  H   H5675     1.0  0.61303  0.37144  0.88101  1.0000
  H   H5676     1.0  0.62515  0.34878  0.96801  1.0000
  H   H5677     1.0  0.49304  0.38679  0.93786  1.0000
  H   H5678     1.0  0.49877  0.35753  0.97634  1.0000
  H   H5679     1.0  0.54595  0.33775  0.96411  1.0000
  C   C3216     1.0  0.65651  0.42628  0.97337  1.0000
  C   C3217     1.0  0.63490  0.46492  0.93029  1.0000
  C   C3218     1.0  0.73033  0.40577  0.97225  1.0000
  H   H5680     1.0  0.62382  0.47940  0.94186  1.0000
  H   H5681     1.0  0.60581  0.37630  0.96591  1.0000
  H   H5682     1.0  0.67169  0.47606  0.93032  1.0000
  C   C3219     1.0  0.65440  0.42915  0.92309  1.0000
  C   C3220     1.0  0.72553  0.42042  0.97285  1.0000
  H   H5683     1.0  0.56661  0.38376  0.93986  1.0000
  C   C3221     1.0  0.57405  0.24521  0.94059  1.0000
  Fe  Fe357     1.0  0.72596  0.44905  0.93221  1.0000
  H   H5684     1.0  0.62464  0.35070  0.94462  1.0000
  S   S711      1.0  0.50504  0.25219  0.91164  1.0000
  H   H5685     1.0  0.71706  0.40052  0.94472  1.0000
  N   N176      1.0  0.67062  0.40654  0.96226  1.0000
  C   C3222     1.0  0.60563  0.37922  0.87602  1.0000
  H   H5686     1.0  0.65378  0.48214  0.90306  1.0000
  H   H5687     1.0  0.49464  0.37605  0.92685  1.0000
  H   H5688     1.0  0.70840  0.38961  0.94216  1.0000
  H   H5689     1.0  0.63201  0.47002  0.89559  1.0000
  C   C3223     1.0  0.60974  0.47842  0.96670  1.0000
  C   C3224     1.0  0.56785  0.31259  0.97404  1.0000
  H   H5690     1.0  0.58977  0.47508  0.97152  1.0000
  H   H5691     1.0  0.56907  0.37061  0.88414  1.0000
  H   H5692     1.0  0.54167  0.28456  0.86673  1.0000
  N   N177      1.0  0.66759  0.47108  0.88883  1.0000
  H   H5693     1.0  0.55563  0.25638  0.96983  1.0000
  S   S712      1.0  0.71799  0.43059  0.94118  1.0000
  C   C3225     1.0  0.57243  0.32030  0.97969  1.0000
  S   S713      1.0  0.54122  0.24345  0.88978  1.0000
  H   H5694     1.0  0.56418  0.30393  0.98026  1.0000
  C   C3226     1.0  0.65026  0.44954  0.88289  1.0000
  C   C3227     1.0  0.65831  0.40649  0.95807  1.0000
  N   N178      1.0  0.58455  0.35436  0.87763  1.0000
  H   H5695     1.0  0.49340  0.29133  0.89219  1.0000
  H   H5696     1.0  0.60833  0.33887  0.86426  1.0000
  C   C3228     1.0  0.58436  0.34675  0.89191  1.0000
  H   H5697     1.0  0.51986  0.24919  0.96072  1.0000
  C   C3229     1.0  0.59108  0.44966  0.95754  1.0000
  H   H5698     1.0  0.50101  0.32738  0.98177  1.0000
  H   H5699     1.0  0.55950  0.35283  0.87231  1.0000
  H   H5700     1.0  0.64685  0.44451  0.98039  1.0000
  H   H5701     1.0  0.68373  0.46862  0.87153  1.0000
  C   C3230     1.0  0.68204  0.42449  0.91449  1.0000
  H   H5702     1.0  0.55874  0.35020  0.88993  1.0000
  H   H5703     1.0  0.69803  0.39730  0.96351  1.0000
  H   H5704     1.0  0.52574  0.29134  0.95745  1.0000
  H   H5705     1.0  0.68410  0.39358  0.94949  1.0000
  H   H5706     1.0  0.64541  0.45954  0.87791  1.0000
  C   C3231     1.0  0.62355  0.37171  0.98169  1.0000
  H   H5707     1.0  0.70812  0.45678  0.87165  1.0000
  H   H5708     1.0  0.62669  0.43591  0.96436  1.0000
  C   C3232     1.0  0.56390  0.26665  0.97897  1.0000
  C   C3233     1.0  0.69097  0.45512  0.88822  1.0000
  C   C3234     1.0  0.62182  0.47376  0.93570  1.0000
  C   C3235     1.0  0.66364  0.44970  0.88499  1.0000
  C   C3236     1.0  0.68218  0.46851  0.88231  1.0000
  H   H5709     1.0  0.58915  0.37169  0.88965  1.0000
  H   H5710     1.0  0.63942  0.39383  0.95673  1.0000
  H   H5711     1.0  0.58546  0.38286  0.87456  1.0000
  H   H5712     1.0  0.68651  0.47678  0.88238  1.0000
  H   H5713     1.0  0.66187  0.47424  0.87005  1.0000
  C   C3237     1.0  0.52710  0.24009  0.96291  1.0000
  H   H5714     1.0  0.57273  0.36715  0.94871  1.0000
  N   N179      1.0  0.54652  0.37756  0.96363  1.0000
  C   C3238     1.0  0.53829  0.39971  0.94776  1.0000
  C   C3239     1.0  0.67564  0.43249  0.92375  1.0000
  H   H5715     1.0  0.60583  0.33730  0.88917  1.0000
  C   C3240     1.0  0.69609  0.40410  0.95398  1.0000
  C   C3241     1.0  0.62167  0.47291  0.89980  1.0000
  C   C3242     1.0  0.54864  0.36269  0.96518  1.0000
  H   H5716     1.0  0.48824  0.37906  0.96372  1.0000
  Fe  Fe358     1.0  0.70642  0.43781  0.92506  1.0000
  H   H5717     1.0  0.58016  0.24755  0.93032  1.0000
  S   S714      1.0  0.72218  0.42731  0.91038  1.0000
  H   H5718     1.0  0.67024  0.45259  0.87515  1.0000
  S   S715      1.0  0.71299  0.45717  0.91741  1.0000
  H   H5719     1.0  0.64900  0.48033  0.88274  1.0000
  H   H5720     1.0  0.73060  0.36073  0.96818  1.0000
  H   H5721     1.0  0.58576  0.46692  0.94217  1.0000
  H   H5722     1.0  0.52683  0.38323  0.97577  1.0000
  C   C3243     1.0  0.55983  0.38067  0.96172  1.0000
  H   H5723     1.0  0.67766  0.42072  0.96818  1.0000
  H   H5724     1.0  0.58936  0.33682  0.91781  1.0000
  C   C3244     1.0  0.66250  0.45845  0.89492  1.0000
  H   H5725     1.0  0.60347  0.38822  0.88015  1.0000
  H   H5726     1.0  0.54251  0.27383  0.88291  1.0000
  C   C3245     1.0  0.53192  0.40535  0.93566  1.0000
  H   H5727     1.0  0.61836  0.48106  0.92707  1.0000
  H   H5728     1.0  0.52181  0.40344  0.93819  1.0000
  H   H5729     1.0  0.58017  0.33781  0.89389  1.0000
  H   H5730     1.0  0.57949  0.44527  0.94617  1.0000
  H   H5731     1.0  0.70574  0.48201  0.92994  1.0000
  C   C3246     1.0  0.54633  0.36839  0.88137  1.0000
  H   H5732     1.0  0.49146  0.34192  0.96009  1.0000
  Fe  Fe359     1.0  0.72964  0.44622  0.90397  1.0000
  C   C3247     1.0  0.70765  0.39999  0.94276  1.0000
  H   H5733     1.0  0.73069  0.46024  0.97188  1.0000
  C   C3248     1.0  0.57023  0.37784  0.94895  1.0000
  C   C3249     1.0  0.58305  0.38163  0.94836  1.0000
  C   C3250     1.0  0.59677  0.33221  0.90991  1.0000
  H   H5734     1.0  0.63342  0.45873  0.92426  1.0000
  H   H5735     1.0  0.61206  0.36581  0.94469  1.0000
  S   S716      1.0  0.68433  0.43976  0.93048  1.0000
  H   H5736     1.0  0.66828  0.43926  0.88907  1.0000
  H   H5737     1.0  0.68916  0.45295  0.89924  1.0000
  C   C3251     1.0  0.54030  0.38438  0.95179  1.0000
  C   C3252     1.0  0.58796  0.46501  0.95224  1.0000
  C   C3253     1.0  0.59467  0.48036  0.91032  1.0000
  H   H5738     1.0  0.59050  0.37937  0.93929  1.0000
  C   C3254     1.0  0.61606  0.35616  0.95101  1.0000
  C   C3255     1.0  0.49929  0.36530  0.94638  1.0000
  S   S717      1.0  0.72836  0.46078  0.94548  1.0000
  H   H5739     1.0  0.53149  0.40425  0.95597  1.0000
  H   H5740     1.0  0.57317  0.25889  0.97929  1.0000
  C   C3256     1.0  0.49893  0.37757  0.93448  1.0000
  H   H5741     1.0  0.69611  0.41437  0.95425  1.0000
  H   H5742     1.0  0.59397  0.32318  0.90935  1.0000
  C   C3257     1.0  0.51287  0.37963  0.92749  1.0000
  H   H5743     1.0  0.57854  0.46879  0.95892  1.0000
  H   H5744     1.0  0.73327  0.38119  0.97258  1.0000
  H   H5745     1.0  0.50428  0.35629  0.94213  1.0000
  H   H5746     1.0  0.50605  0.36628  0.95207  1.0000
  H   H5747     1.0  0.72853  0.40469  0.96289  1.0000
  C   C3258     1.0  0.60872  0.36595  0.97171  1.0000
  H   H5748     1.0  0.54785  0.40283  0.94513  1.0000
  H   H5749     1.0  0.56426  0.37498  0.97049  1.0000
  H   H5750     1.0  0.58134  0.39243  0.94798  1.0000
  H   H5751     1.0  0.58263  0.43256  0.96072  1.0000
  H   H5752     1.0  0.53782  0.36383  0.88287  1.0000
  H   H5753     1.0  0.66434  0.38649  0.95320  1.0000
  H   H5754     1.0  0.53121  0.41628  0.93250  1.0000
  N   N180      1.0  0.59853  0.47219  0.95140  1.0000
  H   H5755     1.0  0.54828  0.27400  0.96857  1.0000
  C   C3259     1.0  0.57135  0.36398  0.87702  1.0000
  H   H5756     1.0  0.61619  0.45642  0.95017  1.0000
  H   H5757     1.0  0.51243  0.38840  0.91897  1.0000
  H   H5758     1.0  0.51781  0.38139  0.93448  1.0000
  H   H5759     1.0  0.51891  0.37074  0.92354  1.0000
  C   C3260     1.0  0.61136  0.46534  0.94351  1.0000
  H   H5760     1.0  0.68175  0.46962  0.90876  1.0000
  H   H5761     1.0  0.58549  0.35075  0.85841  1.0000
  H   H5762     1.0  0.70637  0.40682  0.93302  1.0000
  C   C3261     1.0  0.53569  0.27987  0.87627  1.0000
  H   H5763     1.0  0.60984  0.38186  0.86512  1.0000
  H   H5764     1.0  0.71162  0.44526  0.88672  1.0000
  H   H5765     1.0  0.64370  0.44607  0.89261  1.0000
  H   H5766     1.0  0.57863  0.33908  0.87234  1.0000
  H   H5767     1.0  0.60504  0.35615  0.87281  1.0000
  C   C3262     1.0  0.66469  0.47900  0.89942  1.0000
  H   H5768     1.0  0.65693  0.44066  0.93545  1.0000
  C   C3263     1.0  0.68279  0.40353  0.95148  1.0000
  H   H5769     1.0  0.59577  0.36667  0.86122  1.0000
  H   H5770     1.0  0.60079  0.35077  0.89752  1.0000
  H   H5771     1.0  0.53692  0.26756  0.95837  1.0000
  H   H5772     1.0  0.65211  0.46071  0.90065  1.0000
  H   H5773     1.0  0.63932  0.45838  0.93871  1.0000
  H   H5774     1.0  0.65670  0.44707  0.96355  1.0000
  H   H5775     1.0  0.60067  0.33284  0.84722  1.0000
  H   H5776     1.0  0.55412  0.35728  0.97326  1.0000
  H   H5777     1.0  0.67013  0.42750  0.95419  1.0000
  H   H5778     1.0  0.53068  0.27319  0.87409  1.0000
  H   H5779     1.0  0.60939  0.46151  0.93570  1.0000
  C   C3264     1.0  0.67178  0.39700  0.97546  1.0000
  C   C3265     1.0  0.66185  0.43468  0.92811  1.0000
  H   H5780     1.0  0.69269  0.42265  0.91115  1.0000
  H   H5781     1.0  0.57752  0.35279  0.89905  1.0000
  N   N181      1.0  0.50611  0.29384  0.90338  1.0000
  C   C3266     1.0  0.49581  0.29953  0.89500  1.0000
  C   C3267     1.0  0.51744  0.28445  0.89641  1.0000
  C   C3268     1.0  0.49978  0.28575  0.91646  1.0000
  C   C3269     1.0  0.51103  0.30440  0.90633  1.0000
  C   C3270     1.0  0.51153  0.31753  0.89550  1.0000
  H   H5782     1.0  0.54656  0.37629  0.87206  1.0000
  C   C3271     1.0  0.50915  0.27736  0.92592  1.0000
  C   C3272     1.0  0.52550  0.29066  0.88276  1.0000
  C   C3273     1.0  0.64619  0.39683  0.94702  1.0000
  C   C3274     1.0  0.52029  0.32532  0.89773  1.0000
  H   H5783     1.0  0.50837  0.26504  0.94587  1.0000
  C   C3275     1.0  0.50138  0.27155  0.93964  1.0000
  S   S718      1.0  0.58073  0.34240  0.97914  1.0000
  H   H5784     1.0  0.49964  0.30588  0.88533  1.0000
  H   H5785     1.0  0.52491  0.27951  0.90260  1.0000
  H   H5786     1.0  0.51375  0.27629  0.89500  1.0000
  H   H5787     1.0  0.49484  0.27881  0.91458  1.0000
  H   H5788     1.0  0.52970  0.33838  0.97472  1.0000
  H   H5789     1.0  0.50478  0.30754  0.91566  1.0000
  H   H5790     1.0  0.52106  0.30014  0.90853  1.0000
  H   H5791     1.0  0.50145  0.32398  0.89593  1.0000
  H   H5792     1.0  0.51537  0.31585  0.88523  1.0000
  H   H5793     1.0  0.59183  0.44709  0.96814  1.0000
  H   H5794     1.0  0.73112  0.42658  0.96418  1.0000
  H   H5795     1.0  0.51527  0.28346  0.92725  1.0000
  H   H5796     1.0  0.51582  0.26878  0.92187  1.0000
  H   H5797     1.0  0.51912  0.29637  0.87563  1.0000
  H   H5798     1.0  0.53108  0.29726  0.88419  1.0000
  H   H5799     1.0  0.60648  0.32912  0.91278  1.0000
  H   H5800     1.0  0.64757  0.42653  0.97009  1.0000
  H   H5801     1.0  0.64163  0.40688  0.94180  1.0000
  H   H5802     1.0  0.51750  0.32650  0.90822  1.0000
  H   H5803     1.0  0.53081  0.32004  0.89553  1.0000
  H   H5804     1.0  0.51923  0.33536  0.89097  1.0000
  H   H5805     1.0  0.68151  0.41062  0.94190  1.0000
  H   H5806     1.0  0.71493  0.42366  0.97244  1.0000
  H   H5807     1.0  0.72344  0.47677  0.86325  1.0000
  H   H5808     1.0  0.49521  0.27963  0.94475  1.0000
  H   H5809     1.0  0.54321  0.33857  0.98132  1.0000
  H   H5810     1.0  0.70611  0.48149  0.86256  1.0000
  H   H5811     1.0  0.52818  0.36103  0.97643  1.0000
  Fe  Fe360     1.0  0.73446  0.42184  0.92586  1.0000
  C   C3276     1.0  0.65621  0.44054  0.97372  1.0000
  H   H5812     1.0  0.62272  0.38124  0.97400  1.0000
  C   C3277     1.0  0.65978  0.47931  0.87841  1.0000
  H   H5813     1.0  0.56605  0.27658  0.97754  1.0000
  H   H5814     1.0  0.49503  0.26544  0.93867  1.0000
  H   H5815     1.0  0.66463  0.44073  0.97767  1.0000
  H   H5816     1.0  0.49179  0.29238  0.92229  1.0000
  H   H5817     1.0  0.69820  0.47503  0.96469  1.0000
  H   H5818     1.0  0.72139  0.48391  0.91882  1.0000
  H   H5819     1.0  0.66646  0.37943  0.97362  1.0000
  H   H5820     1.0  0.61991  0.47255  0.96375  1.0000
  C   C3278     1.0  0.66739  0.48136  0.92144  1.0000
  H   H5821     1.0  0.70984  0.45332  0.97787  1.0000
  C   C3279     1.0  0.60792  0.47956  0.98108  1.0000
  H   H5822     1.0  0.71104  0.48366  0.95481  1.0000
  H   H5823     1.0  0.48730  0.26224  0.97018  1.0000
  C   C3280     1.0  0.48730  0.25535  0.98011  1.0000
  H   H5824     1.0  0.65652  0.48448  0.92490  1.0000
  H   H5825     1.0  0.50538  0.63839  0.02748  1.0000
  H   H5826     1.0  0.54439  0.55578  0.06485  1.0000
  C   C3281     1.0  0.49237  0.59980  0.01035  1.0000
  Fe  Fe361     1.0  0.52623  0.61132  0.02589  1.0000
  Fe  Fe362     1.0  0.61946  0.53448  0.03244  1.0000
  S   S719      1.0  0.60966  0.54642  0.04828  1.0000
  S   S720      1.0  0.63635  0.54000  0.01584  1.0000
  Fe  Fe363     1.0  0.55479  0.61003  0.02585  1.0000
  S   S721      1.0  0.55871  0.62280  0.00508  1.0000
  S   S722      1.0  0.56897  0.60219  0.03971  1.0000
  Fe  Fe364     1.0  0.62592  0.53498  0.00310  1.0000
  H   H5827     1.0  0.56882  0.67616  0.99224  1.0000
  C   C3282     1.0  0.54739  0.56554  0.06121  1.0000
  H   H5828     1.0  0.57847  0.54338  0.01283  1.0000
  S   S723      1.0  0.50658  0.60729  0.03828  1.0000
  H   H5829     1.0  0.52601  0.57911  0.00190  1.0000
  H   H5830     1.0  0.54058  0.58107  0.08923  1.0000
  C   C3283     1.0  0.73588  0.48845  0.02998  1.0000
  H   H5831     1.0  0.56545  0.52914  0.00716  1.0000
  Fe  Fe365     1.0  0.72610  0.53710  0.02053  1.0000
  S   S724      1.0  0.70398  0.54462  0.02229  1.0000
  C   C3284     1.0  0.53130  0.60117  0.06746  1.0000
  H   H5832     1.0  0.53029  0.56614  0.01591  1.0000
  H   H5833     1.0  0.54761  0.68898  0.98869  1.0000
  H   H5834     1.0  0.52439  0.60581  0.06060  1.0000
  H   H5835     1.0  0.65051  0.55438  0.02541  1.0000
  H   H5836     1.0  0.54847  0.56425  0.08763  1.0000
  C   C3285     1.0  0.57527  0.56704  0.99627  1.0000
  Fe  Fe366     1.0  0.54332  0.72078  0.01512  1.0000
  N   N182      1.0  0.57058  0.55522  0.99563  1.0000
  S   S725      1.0  0.55249  0.69877  0.02016  1.0000
  S   S726      1.0  0.66741  0.50872  0.01930  1.0000
  C   C3286     1.0  0.53878  0.57119  0.08984  1.0000
  H   H5837     1.0  0.67811  0.51334  0.98286  1.0000
  H   H5838     1.0  0.58178  0.51901  0.02182  1.0000
  H   H5839     1.0  0.57961  0.71166  0.99537  1.0000
  C   C3287     1.0  0.54137  0.58898  0.06272  1.0000
  S   S727      1.0  0.54265  0.73409  0.02833  1.0000
  H   H5840     1.0  0.51963  0.68482  0.00624  1.0000
  H   H5841     1.0  0.62565  0.54035  0.07112  1.0000
  C   C3288     1.0  0.50964  0.57205  0.04926  1.0000
  C   C3289     1.0  0.53012  0.57219  0.08003  1.0000
  H   H5842     1.0  0.51485  0.56368  0.06829  1.0000
  C   C3290     1.0  0.58406  0.51778  0.01137  1.0000
  H   H5843     1.0  0.73005  0.49100  0.99825  1.0000
  C   C3291     1.0  0.52547  0.57976  0.05762  1.0000
  S   S728      1.0  0.60827  0.53125  0.01937  1.0000
  H   H5844     1.0  0.50727  0.63764  0.04392  1.0000
  H   H5845     1.0  0.64662  0.54337  0.07510  1.0000
  H   H5846     1.0  0.68652  0.55576  0.05070  1.0000
  C   C3292     1.0  0.53344  0.69105  0.01314  1.0000
  H   H5847     1.0  0.55025  0.58672  0.06701  1.0000
  C   C3293     1.0  0.54734  0.66440  0.01568  1.0000
  C   C3294     1.0  0.55213  0.67375  0.01893  1.0000
  C   C3295     1.0  0.54536  0.68714  0.01741  1.0000
  C   C3296     1.0  0.53198  0.56608  0.10429  1.0000
  Fe  Fe367     1.0  0.53843  0.63535  0.01120  1.0000
  H   H5848     1.0  0.55276  0.65415  0.01664  1.0000
  H   H5849     1.0  0.56127  0.67066  0.02238  1.0000
  S   S729      1.0  0.62956  0.51283  0.03774  1.0000
  H   H5850     1.0  0.52810  0.70131  0.01205  1.0000
  C   C3297     1.0  0.64085  0.56092  0.04437  1.0000
  H   H5851     1.0  0.50583  0.56333  0.04953  1.0000
  C   C3298     1.0  0.64151  0.55103  0.06773  1.0000
  C   C3299     1.0  0.59828  0.56176  0.04505  1.0000
  C   C3300     1.0  0.59337  0.56897  0.05513  1.0000
  C   C3301     1.0  0.58443  0.58126  0.05322  1.0000
  C   C3302     1.0  0.58003  0.58647  0.04129  1.0000
  C   C3303     1.0  0.58471  0.57922  0.03115  1.0000
  C   C3304     1.0  0.59396  0.56690  0.03298  1.0000
  H   H5852     1.0  0.59658  0.56508  0.06448  1.0000
  H   H5853     1.0  0.58092  0.58679  0.06106  1.0000
  H   H5854     1.0  0.58138  0.58322  0.02189  1.0000
  H   H5855     1.0  0.59772  0.56140  0.02511  1.0000
  H   H5856     1.0  0.66615  0.52314  0.05631  1.0000
  C   C3305     1.0  0.71930  0.49535  0.99916  1.0000
  C   C3306     1.0  0.51984  0.56780  0.05795  1.0000
  C   C3307     1.0  0.69434  0.53440  0.02091  1.0000
  C   C3308     1.0  0.68182  0.54035  0.01806  1.0000
  C   C3309     1.0  0.67355  0.53252  0.01756  1.0000
  S   S730      1.0  0.52786  0.62347  0.00511  1.0000
  H   H5857     1.0  0.67854  0.55108  0.01620  1.0000
  H   H5858     1.0  0.66406  0.53721  0.01508  1.0000
  C   C3310     1.0  0.53833  0.61172  0.06754  1.0000
  C   C3311     1.0  0.64822  0.53674  0.05096  1.0000
  H   H5859     1.0  0.50308  0.67661  0.98566  1.0000
  H   H5860     1.0  0.52034  0.57881  0.08302  1.0000
  C   C3312     1.0  0.55351  0.56726  0.04602  1.0000
  Fe  Fe368     1.0  0.61973  0.51006  0.02310  1.0000
  S   S731      1.0  0.55335  0.73345  0.99668  1.0000
  C   C3313     1.0  0.53577  0.66845  0.01083  1.0000
  H   H5861     1.0  0.51688  0.58736  0.06145  1.0000
  C   C3314     1.0  0.69863  0.52053  0.02306  1.0000
  H   H5862     1.0  0.62066  0.55822  0.06599  1.0000
  H   H5863     1.0  0.70825  0.51584  0.02533  1.0000
  H   H5864     1.0  0.52789  0.56219  0.08203  1.0000
  H   H5865     1.0  0.59790  0.48545  0.98463  1.0000
  H   H5866     1.0  0.73146  0.49877  0.03031  1.0000
  H   H5867     1.0  0.68975  0.54303  0.06527  1.0000
  H   H5868     1.0  0.50115  0.57974  0.05299  1.0000
  C   C3315     1.0  0.54692  0.56997  0.99929  1.0000
  C   C3316     1.0  0.66233  0.53679  0.98560  1.0000
  H   H5869     1.0  0.65308  0.53620  0.04045  1.0000
  C   C3317     1.0  0.63835  0.57383  0.02101  1.0000
  S   S732      1.0  0.52280  0.73026  0.01182  1.0000
  H   H5870     1.0  0.57084  0.65173  0.99614  1.0000
  H   H5871     1.0  0.55213  0.54839  0.00297  1.0000
  Fe  Fe369     1.0  0.64567  0.51811  0.01981  1.0000
  H   H5872     1.0  0.64199  0.56076  0.06926  1.0000
  H   H5873     1.0  0.49028  0.66656  0.02165  1.0000
  H   H5874     1.0  0.54862  0.57768  0.00335  1.0000
  S   S733      1.0  0.73688  0.52873  0.03742  1.0000
  C   C3318     1.0  0.67770  0.51867  0.01993  1.0000
  H   H5875     1.0  0.56973  0.57639  0.99084  1.0000
  H   H5876     1.0  0.69362  0.50197  0.02441  1.0000
  C   C3319     1.0  0.56453  0.55522  0.04310  1.0000
  S   S734      1.0  0.55483  0.60192  0.98230  1.0000
  H   H5877     1.0  0.63791  0.53596  0.05193  1.0000
  H   H5878     1.0  0.57228  0.55358  0.04874  1.0000
  C   C3320     1.0  0.50373  0.64436  0.03503  1.0000
  H   H5879     1.0  0.57907  0.49207  0.05591  1.0000
  H   H5880     1.0  0.62650  0.54269  0.09336  1.0000
  H   H5881     1.0  0.52390  0.70181  0.98465  1.0000
  H   H5882     1.0  0.54502  0.59250  0.05182  1.0000
  H   H5883     1.0  0.59008  0.58407  0.99761  1.0000
  C   C3321     1.0  0.53242  0.56916  0.00482  1.0000
  H   H5884     1.0  0.54606  0.56832  0.04024  1.0000
  H   H5885     1.0  0.63864  0.57053  0.04753  1.0000
  H   H5886     1.0  0.54458  0.60780  0.07507  1.0000
  H   H5887     1.0  0.58963  0.54198  0.99727  1.0000
  H   H5888     1.0  0.68923  0.53835  0.05055  1.0000
  H   H5889     1.0  0.52535  0.59848  0.07769  1.0000
  H   H5890     1.0  0.64341  0.57551  0.01027  1.0000
  H   H5891     1.0  0.68121  0.53294  0.99050  1.0000
  C   C3322     1.0  0.55643  0.55645  0.00346  1.0000
  H   H5892     1.0  0.62165  0.56065  0.08813  1.0000
  H   H5893     1.0  0.51157  0.59925  0.01324  1.0000
  S   S735      1.0  0.63655  0.51356  0.00557  1.0000
  H   H5894     1.0  0.65668  0.56741  0.02744  1.0000
  H   H5895     1.0  0.54472  0.61475  0.05759  1.0000
  H   H5896     1.0  0.66851  0.54733  0.04187  1.0000
  H   H5897     1.0  0.62929  0.57022  0.02214  1.0000
  H   H5898     1.0  0.52234  0.57294  0.10712  1.0000
  S   S736      1.0  0.53553  0.62394  0.03245  1.0000
  C   C3323     1.0  0.57537  0.65250  0.98531  1.0000
  C   C3324     1.0  0.64765  0.56354  0.02928  1.0000
  C   C3325     1.0  0.66995  0.54637  0.06206  1.0000
  H   H5899     1.0  0.63546  0.58346  0.02418  1.0000
  H   H5900     1.0  0.50962  0.65219  0.03083  1.0000
  H   H5901     1.0  0.52901  0.58457  0.04701  1.0000
  H   H5902     1.0  0.57316  0.56811  0.00680  1.0000
  H   H5903     1.0  0.66611  0.55308  0.06921  1.0000
  C   C3326     1.0  0.57903  0.54280  0.00241  1.0000
  H   H5904     1.0  0.61051  0.55033  0.08943  1.0000
  H   H5905     1.0  0.71613  0.50171  0.00658  1.0000
  C   C3327     1.0  0.59299  0.58073  0.98805  1.0000
  H   H5906     1.0  0.66884  0.53625  0.06773  1.0000
  S   S737      1.0  0.53058  0.65752  0.00480  1.0000
  H   H5907     1.0  0.56050  0.54610  0.04586  1.0000
  C   C3328     1.0  0.69031  0.51270  0.02258  1.0000
  N   N183      1.0  0.64839  0.54984  0.05357  1.0000
  H   H5908     1.0  0.49987  0.65423  0.99676  1.0000
  C   C3329     1.0  0.62678  0.55000  0.07207  1.0000
  H   H5909     1.0  0.59615  0.55994  0.99726  1.0000
  C   C3330     1.0  0.68474  0.54589  0.05679  1.0000
  H   H5910     1.0  0.55604  0.55509  0.01429  1.0000
  H   H5911     1.0  0.55788  0.57617  0.04225  1.0000
  H   H5912     1.0  0.63110  0.55889  0.04503  1.0000
  C   C3331     1.0  0.66241  0.55173  0.05052  1.0000
  C   C3332     1.0  0.65528  0.52399  0.05951  1.0000
  N   N184      1.0  0.53608  0.57663  0.06538  1.0000
  H   H5913     1.0  0.53091  0.62068  0.07010  1.0000
  H   H5914     1.0  0.51679  0.65300  0.98769  1.0000
  C   C3333     1.0  0.62107  0.55098  0.08666  1.0000
  H   H5915     1.0  0.56923  0.55699  0.03227  1.0000
  H   H5916     1.0  0.65856  0.54607  0.98946  1.0000
  H   H5917     1.0  0.69910  0.51733  0.99275  1.0000
  C   C3334     1.0  0.49593  0.60594  0.02910  1.0000
  H   H5918     1.0  0.59479  0.51709  0.00709  1.0000
  C   C3335     1.0  0.52867  0.68170  0.00985  1.0000
  H   H5919     1.0  0.65203  0.52391  0.07032  1.0000
  H   H5920     1.0  0.55568  0.56438  0.06604  1.0000
  C   C3336     1.0  0.65249  0.51151  0.05762  1.0000
  S   S738      1.0  0.54517  0.59642  0.02110  1.0000
  H   H5921     1.0  0.66258  0.56253  0.04735  1.0000
  H   H5922     1.0  0.64178  0.51149  0.06121  1.0000
  H   H5923     1.0  0.52772  0.55972  0.05418  1.0000
  H   H5924     1.0  0.69599  0.50221  0.99225  1.0000
  Fe  Fe370     1.0  0.54782  0.60999  0.00082  1.0000
  C   C3337     1.0  0.70176  0.50993  0.98639  1.0000
  H   H5925     1.0  0.60376  0.58019  0.98404  1.0000
  H   H5926     1.0  0.53834  0.56552  0.11109  1.0000
  H   H5927     1.0  0.61531  0.52269  0.99160  1.0000
  C   C3338     1.0  0.71671  0.50365  0.98562  1.0000
  H   H5928     1.0  0.56342  0.69995  0.99162  1.0000
  S   S739      1.0  0.60868  0.49432  0.02516  1.0000
  H   H5929     1.0  0.58176  0.50825  0.01151  1.0000
  H   H5930     1.0  0.65812  0.50249  0.06341  1.0000
  H   H5931     1.0  0.71398  0.48706  0.00279  1.0000
  C   C3339     1.0  0.59012  0.56699  0.99027  1.0000
  H   H5932     1.0  0.65560  0.51097  0.04693  1.0000
  H   H5933     1.0  0.51415  0.57617  0.03871  1.0000
  H   H5934     1.0  0.53033  0.55596  0.10563  1.0000
  C   C3340     1.0  0.48907  0.65059  0.03915  1.0000
  C   C3341     1.0  0.57601  0.52936  0.00286  1.0000
  C   C3342     1.0  0.61277  0.52777  0.98210  1.0000
  H   H5935     1.0  0.72231  0.51165  0.98263  1.0000
  H   H5936     1.0  0.49634  0.59609  0.00128  1.0000
  H   H5937     1.0  0.48891  0.63616  0.99694  1.0000
  H   H5938     1.0  0.58741  0.69078  0.98708  1.0000
  C   C3343     1.0  0.50100  0.60157  0.01712  1.0000
  C   C3344     1.0  0.50638  0.65570  0.98663  1.0000
  H   H5939     1.0  0.54859  0.57345  0.98827  1.0000
  S   S740      1.0  0.62266  0.54820  0.98347  1.0000
  H   H5940     1.0  0.52998  0.56194  0.00068  1.0000
  H   H5941     1.0  0.65903  0.52848  0.99362  1.0000
  C   C3345     1.0  0.58520  0.71167  0.98490  1.0000
  H   H5942     1.0  0.56157  0.53897  0.98431  1.0000
  H   H5943     1.0  0.59582  0.71063  0.98451  1.0000
  H   H5944     1.0  0.57887  0.52742  0.99263  1.0000
  H   H5945     1.0  0.50021  0.73241  0.99044  1.0000
  H   H5946     1.0  0.58623  0.65123  0.98372  1.0000
  H   H5947     1.0  0.48796  0.65641  0.04665  1.0000
  H   H5948     1.0  0.57343  0.64430  0.98219  1.0000
  H   H5949     1.0  0.54251  0.71285  0.98215  1.0000
  Fe  Fe371     1.0  0.62385  0.51307  0.90750  1.0000
  S   S741      1.0  0.63033  0.50690  0.92687  1.0000
  Fe  Fe372     1.0  0.61815  0.54244  0.90755  1.0000
  S   S742      1.0  0.62464  0.53866  0.92672  1.0000
  S   S743      1.0  0.61063  0.56335  0.89659  1.0000
  Fe  Fe373     1.0  0.64149  0.52333  0.91851  1.0000
  S   S744      1.0  0.66185  0.51724  0.92316  1.0000
  Fe  Fe374     1.0  0.61302  0.52266  0.93345  1.0000
  S   S745      1.0  0.60021  0.51889  0.95412  1.0000
  S   S746      1.0  0.63619  0.52851  0.89852  1.0000
  S   S747      1.0  0.60534  0.52738  0.91483  1.0000
  Fe  Fe375     1.0  0.54283  0.61078  0.91392  1.0000
  S   S748      1.0  0.55018  0.62741  0.91627  1.0000
  S   S749      1.0  0.55205  0.58936  0.92211  1.0000
  Fe  Fe376     1.0  0.51957  0.62968  0.90267  1.0000
  S   S750      1.0  0.52511  0.64797  0.90402  1.0000
  H   H5950     1.0  0.59179  0.58930  0.94748  1.0000
  Fe  Fe377     1.0  0.54587  0.63788  0.89618  1.0000
  S   S751      1.0  0.56045  0.64808  0.87998  1.0000
  Fe  Fe378     1.0  0.52881  0.63598  0.92393  1.0000
  S   S752      1.0  0.52325  0.64458  0.94208  1.0000
  S   S753      1.0  0.54022  0.62046  0.89300  1.0000
  S   S754      1.0  0.52162  0.61851  0.92335  1.0000
  Fe  Fe379     1.0  0.55744  0.72053  0.88733  1.0000
  S   S755      1.0  0.54978  0.71408  0.90933  1.0000
  S   S756      1.0  0.56764  0.70652  0.87344  1.0000
  H   H5951     1.0  0.50994  0.61915  0.95525  1.0000
  H   H5952     1.0  0.52226  0.58285  0.97098  1.0000
  C   C3346     1.0  0.60267  0.48978  0.90662  1.0000
  H   H5953     1.0  0.72216  0.58384  0.92312  1.0000
  C   C3347     1.0  0.58902  0.61356  0.91177  1.0000
  S   S757      1.0  0.70821  0.54782  0.89742  1.0000
  H   H5954     1.0  0.60219  0.49212  0.94204  1.0000
  H   H5955     1.0  0.60886  0.48865  0.96043  1.0000
  H   H5956     1.0  0.56934  0.58605  0.95934  1.0000
  H   H5957     1.0  0.65705  0.51041  0.85609  1.0000
  H   H5958     1.0  0.56851  0.64482  0.93128  1.0000
  H   H5959     1.0  0.67930  0.52329  0.96649  1.0000
  C   C3348     1.0  0.56488  0.69121  0.95042  1.0000
  H   H5960     1.0  0.53738  0.65691  0.86335  1.0000
  H   H5961     1.0  0.58142  0.60748  0.91507  1.0000
  H   H5962     1.0  0.59893  0.60694  0.91190  1.0000
  H   H5963     1.0  0.57643  0.54111  0.96127  1.0000
  C   C3349     1.0  0.56470  0.64805  0.95096  1.0000
  C   C3350     1.0  0.72787  0.51656  0.87475  1.0000
  C   C3351     1.0  0.56206  0.66425  0.87915  1.0000
  C   C3352     1.0  0.56969  0.67048  0.86744  1.0000
  C   C3353     1.0  0.57126  0.68337  0.86600  1.0000
  C   C3354     1.0  0.56535  0.69020  0.87630  1.0000
  C   C3355     1.0  0.55785  0.68396  0.88823  1.0000
  C   C3356     1.0  0.55608  0.67099  0.88962  1.0000
  H   H5964     1.0  0.57440  0.66533  0.85936  1.0000
  H   H5965     1.0  0.57714  0.68807  0.85681  1.0000
  H   H5966     1.0  0.55339  0.68916  0.89628  1.0000
  H   H5967     1.0  0.55026  0.66616  0.89875  1.0000
  C   C3357     1.0  0.53231  0.63286  0.95312  1.0000
  C   C3358     1.0  0.57776  0.60840  0.94223  1.0000
  C   C3359     1.0  0.53702  0.61973  0.95147  1.0000
  C   C3360     1.0  0.58271  0.62959  0.94201  1.0000
  H   H5968     1.0  0.53498  0.61677  0.94353  1.0000
  C   C3361     1.0  0.59504  0.57136  0.90460  1.0000
  C   C3362     1.0  0.58883  0.58393  0.89818  1.0000
  C   C3363     1.0  0.57578  0.58982  0.90372  1.0000
  C   C3364     1.0  0.56888  0.58312  0.91568  1.0000
  C   C3365     1.0  0.57529  0.57083  0.92238  1.0000
  C   C3366     1.0  0.58838  0.56500  0.91692  1.0000
  H   H5969     1.0  0.59401  0.58893  0.88870  1.0000
  H   H5970     1.0  0.57093  0.59937  0.89857  1.0000
  H   H5971     1.0  0.57002  0.56566  0.93167  1.0000
  H   H5972     1.0  0.59314  0.55538  0.92204  1.0000
  C   C3367     1.0  0.67341  0.52750  0.91748  1.0000
  C   C3368     1.0  0.67207  0.53887  0.90717  1.0000
  C   C3369     1.0  0.68262  0.54545  0.90139  1.0000
  C   C3370     1.0  0.69440  0.54078  0.90603  1.0000
  C   C3371     1.0  0.69529  0.53005  0.91700  1.0000
  C   C3372     1.0  0.68489  0.52334  0.92260  1.0000
  H   H5973     1.0  0.66317  0.54222  0.90330  1.0000
  H   H5974     1.0  0.68180  0.55388  0.89302  1.0000
  H   H5975     1.0  0.70420  0.52657  0.92085  1.0000
  H   H5976     1.0  0.68589  0.51464  0.93068  1.0000
  C   C3373     1.0  0.60461  0.52767  0.96319  1.0000
  C   C3374     1.0  0.60628  0.54071  0.95744  1.0000
  H   H5977     1.0  0.60467  0.60298  0.93079  1.0000
  H   H5978     1.0  0.60361  0.54581  0.94799  1.0000
  H   H5979     1.0  0.54169  0.71644  0.86697  1.0000
  H   H5980     1.0  0.72040  0.48854  0.88226  1.0000
  H   H5981     1.0  0.59115  0.61334  0.89099  1.0000
  H   H5982     1.0  0.51665  0.68348  0.89022  1.0000
  H   H5983     1.0  0.53314  0.67356  0.87640  1.0000
  H   H5984     1.0  0.55604  0.69925  0.94869  1.0000
  N   N185      1.0  0.70673  0.50718  0.88537  1.0000
  H   H5985     1.0  0.54054  0.72990  0.93545  1.0000
  C   C3375     1.0  0.52633  0.71544  0.85744  1.0000
  C   C3376     1.0  0.54411  0.61021  0.96034  1.0000
  C   C3377     1.0  0.61731  0.59711  0.94985  1.0000
  C   C3378     1.0  0.52928  0.67672  0.93798  1.0000
  C   C3379     1.0  0.54173  0.68066  0.92844  1.0000
  S   S758      1.0  0.56867  0.72721  0.92735  1.0000
  H   H5986     1.0  0.70397  0.57717  0.92653  1.0000
  H   H5987     1.0  0.53265  0.66761  0.94527  1.0000
  H   H5988     1.0  0.52366  0.67423  0.93212  1.0000
  H   H5989     1.0  0.54809  0.68241  0.93406  1.0000
  H   H5990     1.0  0.70947  0.51273  0.90222  1.0000
  C   C3380     1.0  0.56871  0.63853  0.94147  1.0000
  H   H5991     1.0  0.57411  0.60875  0.95301  1.0000
  C   C3381     1.0  0.65552  0.50008  0.86020  1.0000
  C   C3382     1.0  0.58168  0.49495  0.95133  1.0000
  C   C3383     1.0  0.58886  0.62075  0.89724  1.0000
  H   H5992     1.0  0.59637  0.62699  0.89323  1.0000
  C   C3384     1.0  0.58370  0.59343  0.94198  1.0000
  H   H5993     1.0  0.55219  0.55535  0.97926  1.0000
  H   H5994     1.0  0.71637  0.60243  0.90639  1.0000
  H   H5995     1.0  0.52008  0.70078  0.90707  1.0000
  C   C3385     1.0  0.60743  0.52137  0.97574  1.0000
  H   H5996     1.0  0.57802  0.57446  0.94869  1.0000
  H   H5997     1.0  0.56603  0.55733  0.95642  1.0000
  H   H5998     1.0  0.54743  0.67252  0.92318  1.0000
  C   C3386     1.0  0.69185  0.51167  0.88830  1.0000
  C   C3387     1.0  0.68515  0.51611  0.87627  1.0000
  C   C3388     1.0  0.67038  0.52190  0.88060  1.0000
  H   H5999     1.0  0.68686  0.49458  0.97520  1.0000
  H   H6000     1.0  0.56153  0.68174  0.95459  1.0000
  H   H6001     1.0  0.68712  0.50356  0.89517  1.0000
  H   H6002     1.0  0.68883  0.51998  0.89360  1.0000
  H   H6003     1.0  0.56120  0.63241  0.94424  1.0000
  H   H6004     1.0  0.54096  0.73307  0.83852  1.0000
  H   H6005     1.0  0.68941  0.52388  0.86829  1.0000
  H   H6006     1.0  0.68608  0.50737  0.87217  1.0000
  H   H6007     1.0  0.66560  0.51478  0.88905  1.0000
  H   H6008     1.0  0.66882  0.53134  0.88379  1.0000
  H   H6009     1.0  0.66549  0.52407  0.87212  1.0000
  H   H6010     1.0  0.58946  0.70022  0.96998  1.0000
  C   C3389     1.0  0.54281  0.70733  0.97463  1.0000
  C   C3390     1.0  0.66211  0.49361  0.87208  1.0000
  H   H6011     1.0  0.50128  0.67056  0.88609  1.0000
  C   C3391     1.0  0.73157  0.57660  0.87930  1.0000
  H   H6012     1.0  0.64470  0.50054  0.86343  1.0000
  H   H6013     1.0  0.53910  0.68984  0.92088  1.0000
  H   H6014     1.0  0.57532  0.62903  0.92022  1.0000
  C   C3392     1.0  0.49473  0.72140  0.96203  1.0000
  H   H6015     1.0  0.60750  0.61879  0.92909  1.0000
  H   H6016     1.0  0.50377  0.67284  0.94517  1.0000
  H   H6017     1.0  0.71846  0.54524  0.94706  1.0000
  H   H6018     1.0  0.56878  0.51454  0.94758  1.0000
  C   C3393     1.0  0.49900  0.68183  0.94946  1.0000
  H   H6019     1.0  0.65983  0.49439  0.85217  1.0000
  H   H6020     1.0  0.72423  0.62333  0.89571  1.0000
  C   C3394     1.0  0.58561  0.62366  0.92078  1.0000
  S   S759      1.0  0.50171  0.63323  0.89400  1.0000
  H   H6021     1.0  0.57894  0.62718  0.89643  1.0000
  N   N186      1.0  0.57016  0.55896  0.88321  1.0000
  C   C3395     1.0  0.58121  0.54791  0.87858  1.0000
  C   C3396     1.0  0.55768  0.55826  0.87994  1.0000
  C   C3397     1.0  0.57407  0.57209  0.87627  1.0000
  C   C3398     1.0  0.56768  0.55759  0.89810  1.0000
  C   C3399     1.0  0.56536  0.54386  0.90694  1.0000
  C   C3400     1.0  0.59454  0.54624  0.88238  1.0000
  C   C3401     1.0  0.56313  0.58480  0.87818  1.0000
  C   C3402     1.0  0.55776  0.56113  0.86485  1.0000
  C   C3403     1.0  0.54431  0.56101  0.86285  1.0000
  C   C3404     1.0  0.56368  0.54345  0.92173  1.0000
  C   C3405     1.0  0.70178  0.50662  0.96419  1.0000
  C   C3406     1.0  0.56818  0.59737  0.87026  1.0000
  H   H6022     1.0  0.58350  0.54958  0.86750  1.0000
  H   H6023     1.0  0.57813  0.53819  0.88223  1.0000
  H   H6024     1.0  0.55556  0.54815  0.88432  1.0000
  H   H6025     1.0  0.54897  0.56511  0.88475  1.0000
  H   H6026     1.0  0.57792  0.57263  0.86536  1.0000
  H   H6027     1.0  0.58250  0.57291  0.87986  1.0000
  H   H6028     1.0  0.57594  0.55986  0.90069  1.0000
  H   H6029     1.0  0.55886  0.56519  0.90152  1.0000
  H   H6030     1.0  0.57380  0.53564  0.90438  1.0000
  H   H6031     1.0  0.55624  0.54186  0.90577  1.0000
  H   H6032     1.0  0.59898  0.55501  0.87709  1.0000
  H   H6033     1.0  0.59328  0.54515  0.89324  1.0000
  H   H6034     1.0  0.55990  0.58539  0.88885  1.0000
  H   H6035     1.0  0.55432  0.58504  0.87466  1.0000
  H   H6036     1.0  0.55995  0.57101  0.85948  1.0000
  H   H6037     1.0  0.56525  0.55342  0.86006  1.0000
  H   H6038     1.0  0.53647  0.56889  0.86710  1.0000
  H   H6039     1.0  0.54463  0.56296  0.85200  1.0000
  H   H6040     1.0  0.54175  0.55116  0.86770  1.0000
  H   H6041     1.0  0.55582  0.55194  0.92482  1.0000
  H   H6042     1.0  0.56086  0.53402  0.92788  1.0000
  H   H6043     1.0  0.57313  0.54380  0.92371  1.0000
  H   H6044     1.0  0.56515  0.58826  0.94347  1.0000
  C   C3407     1.0  0.60111  0.61176  0.93543  1.0000
  H   H6045     1.0  0.52248  0.71144  0.88221  1.0000
  H   H6046     1.0  0.57097  0.59755  0.85939  1.0000
  H   H6047     1.0  0.56030  0.60633  0.87192  1.0000
  H   H6048     1.0  0.57690  0.59789  0.87353  1.0000
  H   H6049     1.0  0.53206  0.64670  0.96450  1.0000
  H   H6050     1.0  0.57405  0.66594  0.96652  1.0000
  H   H6051     1.0  0.53279  0.69324  0.84919  1.0000
  H   H6052     1.0  0.49441  0.73156  0.95556  1.0000
  C   C3408     1.0  0.70414  0.49363  0.91000  1.0000
  C   C3409     1.0  0.50692  0.60099  0.96962  1.0000
  C   C3410     1.0  0.54251  0.62709  0.97207  1.0000
  C   C3411     1.0  0.49520  0.66931  0.89644  1.0000
  H   H6053     1.0  0.69371  0.49836  0.91387  1.0000
  C   C3412     1.0  0.53254  0.69125  0.86005  1.0000
  N   N187      1.0  0.52307  0.70244  0.86609  1.0000
  H   H6054     1.0  0.70424  0.48480  0.90649  1.0000
  H   H6055     1.0  0.49846  0.67436  0.90230  1.0000
  H   H6056     1.0  0.62562  0.60097  0.94238  1.0000
  C   C3413     1.0  0.71326  0.57658  0.90543  1.0000
  C   C3414     1.0  0.70190  0.53548  0.95241  1.0000
  H   H6057     1.0  0.49423  0.62585  0.93529  1.0000
  H   H6058     1.0  0.65762  0.50003  0.87945  1.0000
  H   H6059     1.0  0.52599  0.71641  0.84690  1.0000
  C   C3415     1.0  0.71091  0.48907  0.92182  1.0000
  H   H6060     1.0  0.54725  0.59997  0.95934  1.0000
  H   H6061     1.0  0.52273  0.71796  0.97353  1.0000
  Fe  Fe380     1.0  0.53200  0.73035  0.90591  1.0000
  H   H6062     1.0  0.57436  0.50660  0.93353  1.0000
  H   H6063     1.0  0.50549  0.69406  0.87324  1.0000
  C   C3416     1.0  0.69758  0.49312  0.97056  1.0000
  H   H6064     1.0  0.54285  0.69076  0.86053  1.0000
  Fe  Fe381     1.0  0.72752  0.53634  0.90316  1.0000
  H   H6065     1.0  0.68122  0.57854  0.92548  1.0000
  H   H6066     1.0  0.49950  0.72054  0.97028  1.0000
  H   H6067     1.0  0.71056  0.49770  0.92583  1.0000
  H   H6068     1.0  0.70376  0.48863  0.88362  1.0000
  H   H6069     1.0  0.52726  0.69099  0.94968  1.0000
  H   H6070     1.0  0.49817  0.71317  0.94492  1.0000
  C   C3417     1.0  0.57209  0.55514  0.98112  1.0000
  C   C3418     1.0  0.52072  0.68816  0.94499  1.0000
  H   H6071     1.0  0.71842  0.48675  0.84815  1.0000
  H   H6072     1.0  0.69115  0.53860  0.95270  1.0000
  C   C3419     1.0  0.61622  0.48605  0.90124  1.0000
  H   H6073     1.0  0.68615  0.57918  0.90777  1.0000
  C   C3420     1.0  0.50549  0.70414  0.85290  1.0000
  C   C3421     1.0  0.50204  0.61332  0.95898  1.0000
  N   N188      1.0  0.69787  0.51639  0.97314  1.0000
  H   H6074     1.0  0.49589  0.64959  0.92727  1.0000
  H   H6075     1.0  0.71571  0.52394  0.96441  1.0000
  H   H6076     1.0  0.51535  0.66393  0.96145  1.0000
  C   C3422     1.0  0.61169  0.54708  0.96376  1.0000
  C   C3423     1.0  0.68954  0.57542  0.91732  1.0000
  C   C3424     1.0  0.52475  0.70139  0.87999  1.0000
  C   C3425     1.0  0.53516  0.63655  0.96338  1.0000
  C   C3426     1.0  0.50242  0.71099  0.95378  1.0000
  C   C3427     1.0  0.73572  0.57623  0.89222  1.0000
  H   H6077     1.0  0.73303  0.50658  0.87277  1.0000
  H   H6078     1.0  0.51977  0.67653  0.86811  1.0000
  H   H6079     1.0  0.49684  0.65856  0.90118  1.0000
  H   H6080     1.0  0.71628  0.56552  0.90821  1.0000
  H   H6081     1.0  0.51274  0.71243  0.95023  1.0000
  H   H6082     1.0  0.54803  0.68677  0.97297  1.0000
  C   C3428     1.0  0.61523  0.54049  0.97596  1.0000
  C   C3429     1.0  0.72666  0.62014  0.88610  1.0000
  H   H6083     1.0  0.49601  0.63952  0.95126  1.0000
  C   C3430     1.0  0.70482  0.52771  0.96627  1.0000
  H   H6084     1.0  0.59834  0.49993  0.90767  1.0000
  H   H6085     1.0  0.69745  0.51111  0.95518  1.0000
  H   H6086     1.0  0.61339  0.55699  0.95907  1.0000
  C   C3431     1.0  0.70768  0.54793  0.94736  1.0000
  C   C3432     1.0  0.55720  0.73234  0.94114  1.0000
  C   C3433     1.0  0.72987  0.57938  0.91528  1.0000
  H   H6087     1.0  0.72182  0.49924  0.89701  1.0000
  H   H6088     1.0  0.66837  0.48835  0.89517  1.0000
  C   C3434     1.0  0.51824  0.59096  0.96312  1.0000
  H   H6089     1.0  0.67156  0.49036  0.91659  1.0000
  H   H6090     1.0  0.59307  0.48659  0.93416  1.0000
  H   H6091     1.0  0.73451  0.60250  0.87828  1.0000
  H   H6092     1.0  0.60086  0.52470  0.88419  1.0000
  H   H6093     1.0  0.73025  0.51730  0.88393  1.0000
  C   C3435     1.0  0.71102  0.50360  0.89848  1.0000
  C   C3436     1.0  0.71268  0.51877  0.87665  1.0000
  C   C3437     1.0  0.71411  0.49752  0.86385  1.0000
  C   C3438     1.0  0.49288  0.69290  0.93876  1.0000
  H   H6094     1.0  0.53541  0.66957  0.84838  1.0000
  C   C3439     1.0  0.51291  0.67293  0.96565  1.0000
  C   C3440     1.0  0.57335  0.58507  0.94881  1.0000
  H   H6095     1.0  0.71037  0.52170  0.86663  1.0000
  H   H6096     1.0  0.61653  0.58780  0.94774  1.0000
  H   H6097     1.0  0.51063  0.60414  0.97671  1.0000
  C   C3441     1.0  0.60435  0.60753  0.94952  1.0000
  H   H6098     1.0  0.58293  0.62589  0.95280  1.0000
  H   H6099     1.0  0.72352  0.50094  0.85940  1.0000
  N   N189      1.0  0.58678  0.61802  0.93514  1.0000
  H   H6100     1.0  0.51467  0.58652  0.95693  1.0000
  H   H6101     1.0  0.55936  0.54262  0.96143  1.0000
  H   H6102     1.0  0.56864  0.61149  0.93816  1.0000
  H   H6103     1.0  0.73445  0.62516  0.87906  1.0000
  H   H6104     1.0  0.59639  0.60339  0.95729  1.0000
  H   H6105     1.0  0.58779  0.59179  0.93171  1.0000
  H   H6106     1.0  0.50193  0.60954  0.95032  1.0000
  H   H6107     1.0  0.58992  0.63622  0.93773  1.0000
  Fe  Fe382     1.0  0.55817  0.73033  0.91091  1.0000
  H   H6108     1.0  0.59184  0.63120  0.91593  1.0000
  C   C3442     1.0  0.59440  0.48644  0.94414  1.0000
  S   S760      1.0  0.73501  0.54174  0.91797  1.0000
  H   H6109     1.0  0.69823  0.59201  0.91478  1.0000
  H   H6110     1.0  0.60638  0.53449  0.86767  1.0000
  H   H6111     1.0  0.67283  0.49352  0.86859  1.0000
  N   N190      1.0  0.56581  0.69151  0.97461  1.0000
  H   H6112     1.0  0.70814  0.52780  0.88096  1.0000
  C   C3443     1.0  0.60451  0.53388  0.87856  1.0000
  H   H6113     1.0  0.49895  0.59569  0.97549  1.0000
  H   H6114     1.0  0.50047  0.69745  0.93089  1.0000
  H   H6115     1.0  0.57101  0.56546  0.97491  1.0000
  H   H6116     1.0  0.57324  0.48998  0.95473  1.0000
  H   H6117     1.0  0.60539  0.61636  0.95234  1.0000
  H   H6118     1.0  0.71284  0.60007  0.89212  1.0000
  H   H6119     1.0  0.70654  0.52913  0.94496  1.0000
  H   H6120     1.0  0.50225  0.71150  0.87072  1.0000
  H   H6121     1.0  0.51879  0.72400  0.86090  1.0000
  H   H6122     1.0  0.61402  0.53316  0.88110  1.0000
  H   H6123     1.0  0.51356  0.68586  0.91319  1.0000
  C   C3444     1.0  0.57169  0.69457  0.95975  1.0000
  S   S761      1.0  0.51194  0.72710  0.91752  1.0000
  C   C3445     1.0  0.57734  0.50825  0.94199  1.0000
  C   C3446     1.0  0.52035  0.69113  0.90490  1.0000
  C   C3447     1.0  0.53018  0.67703  0.86664  1.0000
  H   H6124     1.0  0.72878  0.53721  0.86518  1.0000
  C   C3448     1.0  0.68301  0.52127  0.97576  1.0000
  N   N191      1.0  0.50853  0.68517  0.95538  1.0000
  H   H6125     1.0  0.49840  0.61079  0.91709  1.0000
  H   H6126     1.0  0.58235  0.68953  0.95774  1.0000
  N   N192      1.0  0.72508  0.58274  0.90247  1.0000
  H   H6127     1.0  0.57169  0.70540  0.95597  1.0000
  H   H6128     1.0  0.58356  0.49709  0.96015  1.0000
  H   H6129     1.0  0.56478  0.71162  0.97601  1.0000
  H   H6130     1.0  0.51819  0.69693  0.93694  1.0000
  H   H6131     1.0  0.70620  0.55279  0.93710  1.0000
  C   C3449     1.0  0.51607  0.69336  0.89187  1.0000
  H   H6132     1.0  0.54920  0.66734  0.85588  1.0000
  H   H6133     1.0  0.50557  0.69889  0.89328  1.0000
  H   H6134     1.0  0.51159  0.69575  0.84821  1.0000
  H   H6135     1.0  0.56873  0.68940  0.92981  1.0000
  C   C3450     1.0  0.50201  0.69666  0.96231  1.0000
  H   H6136     1.0  0.54729  0.71264  0.96465  1.0000
  H   H6137     1.0  0.53526  0.69716  0.88060  1.0000
  H   H6138     1.0  0.53047  0.68483  0.90432  1.0000
  H   H6139     1.0  0.72596  0.56873  0.88128  1.0000
  H   H6140     1.0  0.57859  0.69906  0.93244  1.0000
  C   C3451     1.0  0.57421  0.69014  0.93685  1.0000
  H   H6141     1.0  0.57188  0.65455  0.94832  1.0000
  C   C3452     1.0  0.54676  0.61388  0.97069  1.0000
  H   H6142     1.0  0.58234  0.68116  0.93794  1.0000
  C   C3453     1.0  0.50369  0.73072  0.89420  1.0000
  H   H6143     1.0  0.61950  0.59464  0.95993  1.0000
  C   C3454     1.0  0.56632  0.54743  0.96336  1.0000
  H   H6144     1.0  0.70630  0.50520  0.85951  1.0000
  H   H6145     1.0  0.52636  0.59584  0.95665  1.0000
  H   H6146     1.0  0.71266  0.50450  0.96011  1.0000
  H   H6147     1.0  0.50706  0.71367  0.84589  1.0000
  H   H6148     1.0  0.73166  0.56842  0.91930  1.0000
  C   C3455     1.0  0.55102  0.69294  0.97788  1.0000
  S   S762      1.0  0.62665  0.49749  0.89583  1.0000
  C   C3456     1.0  0.53857  0.66716  0.85798  1.0000
  H   H6149     1.0  0.69218  0.56435  0.91941  1.0000
  C   C3457     1.0  0.70139  0.58099  0.91660  1.0000
  H   H6150     1.0  0.70922  0.57882  0.89633  1.0000
  C   C3458     1.0  0.71560  0.48482  0.85923  1.0000
  C   C3459     1.0  0.50884  0.70297  0.86644  1.0000
  H   H6151     1.0  0.58547  0.51371  0.93792  1.0000
  H   H6152     1.0  0.56417  0.64238  0.96148  1.0000
  C   C3460     1.0  0.73167  0.60503  0.88823  1.0000
  C   C3461     1.0  0.73351  0.52708  0.86329  1.0000
  H   H6153     1.0  0.54818  0.71031  0.85188  1.0000
  C   C3462     1.0  0.71116  0.49502  0.87935  1.0000
  C   C3463     1.0  0.52854  0.70752  0.97490  1.0000
  H   H6154     1.0  0.55479  0.65446  0.95016  1.0000
  H   H6155     1.0  0.70269  0.55509  0.95396  1.0000
  S   S763      1.0  0.73274  0.51430  0.91131  1.0000
  H   H6156     1.0  0.73194  0.52644  0.85367  1.0000
  H   H6157     1.0  0.71773  0.62335  0.88178  1.0000
  C   C3464     1.0  0.54017  0.71756  0.85685  1.0000
  H   H6158     1.0  0.72516  0.58634  0.87581  1.0000
  C   C3465     1.0  0.50094  0.72704  0.90819  1.0000
  C   C3466     1.0  0.49475  0.73008  0.88713  1.0000
  C   C3467     1.0  0.72086  0.59764  0.89767  1.0000
  C   C3468     1.0  0.56867  0.70114  0.98089  1.0000
  H   H6159     1.0  0.52823  0.70323  0.96670  1.0000
  H   H6160     1.0  0.49895  0.62584  0.97666  1.0000
  H   H6161     1.0  0.70278  0.53477  0.97288  1.0000
  H   H6162     1.0  0.50684  0.69575  0.97056  1.0000
  H   H6163     1.0  0.52217  0.67334  0.96811  1.0000
  C   C3469     1.0  0.56227  0.54891  0.97786  1.0000
  H   H6164     1.0  0.58167  0.72135  0.97832  1.0000
  H   H6165     1.0  0.69427  0.49012  0.95248  1.0000
  C   C3470     1.0  0.54184  0.73152  0.84898  1.0000
  H   H6166     1.0  0.68020  0.54283  0.97407  1.0000
  H   H6167     1.0  0.58233  0.54998  0.97702  1.0000
  H   H6168     1.0  0.65799  0.53809  0.97691  1.0000
  C   C3471     1.0  0.54376  0.73321  0.94243  1.0000
  C   C3472     1.0  0.56937  0.66592  0.97717  1.0000
  C   C3473     1.0  0.50286  0.67019  0.97919  1.0000
  H   H6169     1.0  0.55179  0.73271  0.84883  1.0000
  H   H6170     1.0  0.54498  0.63008  0.97977  1.0000
  H   H6171     1.0  0.51254  0.73425  0.88885  1.0000
  H   H6172     1.0  0.49229  0.67941  0.92698  1.0000
  C   C3474     1.0  0.49096  0.70387  0.85491  1.0000
  H   H6173     1.0  0.60609  0.51131  0.98025  1.0000
  C   C3475     1.0  0.58345  0.70009  0.98030  1.0000
  H   H6174     1.0  0.58301  0.67615  0.97882  1.0000
  H   H6175     1.0  0.49259  0.67223  0.97792  1.0000
  H   H6176     1.0  0.49047  0.67895  0.95738  1.0000
  H   H6177     1.0  0.49669  0.73328  0.87637  1.0000
  C   C3476     1.0  0.67742  0.53397  0.98157  1.0000
  H   H6178     1.0  0.72082  0.49708  0.97838  1.0000
  H   H6179     1.0  0.49147  0.69632  0.96707  1.0000
  H   H6180     1.0  0.50515  0.64891  0.98109  1.0000
  H   H6181     1.0  0.55864  0.66637  0.97899  1.0000
  H   H6182     1.0  0.70318  0.48714  0.97834  1.0000
  C   C3477     1.0  0.70044  0.48501  0.95998  1.0000
  C   C3478     1.0  0.57206  0.67760  0.98114  1.0000
  H   H6183     1.0  0.59339  0.56403  0.98052  1.0000
  C   C3479     1.0  0.49008  0.61335  0.91243  1.0000
  C   C3480     1.0  0.48942  0.62375  0.90110  1.0000
  H   H6184     1.0  0.48882  0.69432  0.86155  1.0000
  C   C3481     1.0  0.48922  0.72290  0.91503  1.0000
  H   H6185     1.0  0.48867  0.70487  0.84512  1.0000
  C   C3482     1.0  0.48744  0.63489  0.95301  1.0000
  C   C3483     1.0  0.48887  0.62495  0.97671  1.0000
  H   H6186     1.0  0.58754  0.58814  0.98075  1.0000
  N   N193      1.0  0.48879  0.62216  0.96361  1.0000
  H   H6187     1.0  0.61534  0.48472  0.98156  1.0000
  Fe  Fe383     1.0  0.52955  0.84679  0.00776  1.0000
  S   S764      1.0  0.54924  0.84827  0.00975  1.0000
  H   H6188     1.0  0.54915  0.74546  0.04965  1.0000
  Fe  Fe384     1.0  0.52092  0.83557  0.03747  1.0000
  S   S765      1.0  0.53989  0.83570  0.04211  1.0000
  S   S766      1.0  0.50363  0.82920  0.05298  1.0000
  Fe  Fe385     1.0  0.53798  0.85598  0.02839  1.0000
  S   S767      1.0  0.53901  0.87499  0.03329  1.0000
  Fe  Fe386     1.0  0.54941  0.82788  0.02330  1.0000
  S   S768      1.0  0.56722  0.81086  0.02135  1.0000
  S   S769      1.0  0.51822  0.85627  0.02504  1.0000
  S   S770      1.0  0.53063  0.82597  0.02000  1.0000
  Fe  Fe387     1.0  0.55906  0.92310  0.08782  1.0000
  S   S771      1.0  0.56772  0.90209  0.09721  1.0000
  S   S772      1.0  0.57291  0.93514  0.07259  1.0000
  Fe  Fe388     1.0  0.53142  0.92052  0.10277  1.0000
  S   S773      1.0  0.53784  0.89937  0.11346  1.0000
  S   S774      1.0  0.51044  0.93201  0.10554  1.0000
  Fe  Fe389     1.0  0.55412  0.90678  0.11628  1.0000
  S   S775      1.0  0.56083  0.90083  0.13575  1.0000
  Fe  Fe390     1.0  0.55058  0.89673  0.09333  1.0000
  S   S776      1.0  0.55348  0.87774  0.08623  1.0000
  S   S777      1.0  0.54673  0.92819  0.10712  1.0000
  S   S778      1.0  0.54294  0.91746  0.08249  1.0000
  Fe  Fe391     1.0  0.53109  0.92642  0.20063  1.0000
  S   S779      1.0  0.51108  0.92578  0.21406  1.0000
  S   S780      1.0  0.53050  0.93531  0.17895  1.0000
  Fe  Fe392     1.0  0.54478  0.91611  0.22423  1.0000
  S   S781      1.0  0.52588  0.91475  0.23945  1.0000
  S   S782      1.0  0.56430  0.90903  0.23045  1.0000
  Fe  Fe393     1.0  0.52113  0.90610  0.22494  1.0000
  S   S783      1.0  0.51404  0.88698  0.23132  1.0000
  Fe  Fe394     1.0  0.51779  0.93446  0.22708  1.0000
  S   S784      1.0  0.50616  0.95252  0.23505  1.0000
  S   S785      1.0  0.54068  0.90599  0.21046  1.0000
  S   S786      1.0  0.53718  0.93664  0.21287  1.0000
  H   H6189     1.0  0.71121  0.91093  0.41255  1.0000
  H   H6190     1.0  0.53987  0.88079  0.27929  1.0000
  Fe  Fe395     1.0  0.63652  0.92424  0.38755  1.0000
  S   S787      1.0  0.64976  0.92215  0.36749  1.0000
  S   S788      1.0  0.63669  0.90650  0.40487  1.0000
  Fe  Fe396     1.0  0.62494  0.95330  0.37742  1.0000
  S   S789      1.0  0.63666  0.95340  0.35658  1.0000
  S   S790      1.0  0.61307  0.97302  0.38148  1.0000
  Fe  Fe397     1.0  0.63157  0.93373  0.35953  1.0000
  S   S791      1.0  0.62626  0.92845  0.34284  1.0000
  Fe  Fe398     1.0  0.65344  0.94205  0.36655  1.0000
  S   S792      1.0  0.67110  0.95142  0.36004  1.0000
  S   S793      1.0  0.61817  0.93468  0.37965  1.0000
  S   S794      1.0  0.64185  0.94289  0.38740  1.0000
  Fe  Fe399     1.0  0.55995  0.91995  0.30085  1.0000
  S   S795      1.0  0.54593  0.93853  0.29338  1.0000
  S   S796      1.0  0.56793  0.90298  0.29012  1.0000
  Fe  Fe400     1.0  0.56083  0.92921  0.32498  1.0000
  S   S797      1.0  0.54652  0.94841  0.31954  1.0000
  S   S798      1.0  0.56774  0.92613  0.34405  1.0000
  Fe  Fe401     1.0  0.53508  0.93656  0.31476  1.0000
  S   S799      1.0  0.51313  0.94479  0.31739  1.0000
  Fe  Fe402     1.0  0.55839  0.94890  0.29877  1.0000
  S   S800      1.0  0.56227  0.96890  0.28762  1.0000
  S   S801      1.0  0.54820  0.91703  0.32216  1.0000
  S   S802      1.0  0.57365  0.93055  0.30429  1.0000
  C   C3484     1.0  0.56647  0.79562  0.01850  1.0000
  H   H6191     1.0  0.54402  0.80701  0.04488  1.0000
  H   H6192     1.0  0.62548  0.86307  0.41311  1.0000
  H   H6193     1.0  0.64304  0.90465  0.35497  1.0000
  H   H6194     1.0  0.59859  0.90195  0.40774  1.0000
  H   H6195     1.0  0.66510  0.92442  0.40071  1.0000
  H   H6196     1.0  0.70219  0.92922  0.46474  1.0000
  H   H6197     1.0  0.53952  0.87657  0.19883  1.0000
  H   H6198     1.0  0.58838  0.80929  0.99461  1.0000
  H   H6199     1.0  0.65087  0.88822  0.35222  1.0000
  H   H6200     1.0  0.56321  0.97713  0.12605  1.0000
  C   C3485     1.0  0.49615  0.82835  0.03085  1.0000
  H   H6201     1.0  0.50406  0.84883  0.28028  1.0000
  H   H6202     1.0  0.50003  0.92701  0.28842  1.0000
  H   H6203     1.0  0.59434  0.97433  0.24825  1.0000
  H   H6204     1.0  0.71991  0.91751  0.45216  1.0000
  H   H6205     1.0  0.50021  0.86262  0.05077  1.0000
  H   H6206     1.0  0.70731  0.91173  0.35969  1.0000
  N   N194      1.0  0.50575  0.90498  0.17696  1.0000
  H   H6207     1.0  0.51301  0.78803  0.00774  1.0000
  H   H6208     1.0  0.48870  0.94565  0.07315  1.0000
  H   H6209     1.0  0.71460  0.89951  0.47809  1.0000
  C   C3486     1.0  0.50178  0.93446  0.32194  1.0000
  C   C3487     1.0  0.50471  0.92110  0.32862  1.0000
  H   H6210     1.0  0.54443  0.81895  0.98847  1.0000
  H   H6211     1.0  0.51531  0.94799  0.35922  1.0000
  H   H6212     1.0  0.48706  0.74350  0.06303  1.0000
  C   C3488     1.0  0.52988  0.88510  0.27705  1.0000
  H   H6213     1.0  0.51424  0.91684  0.33120  1.0000
  H   H6214     1.0  0.49724  0.90309  0.33764  1.0000
  C   C3489     1.0  0.66890  0.94350  0.39916  1.0000
  H   H6215     1.0  0.71097  0.95104  0.47148  1.0000
  C   C3490     1.0  0.56403  0.97628  0.29953  1.0000
  C   C3491     1.0  0.56867  0.96825  0.31080  1.0000
  C   C3492     1.0  0.57040  0.97404  0.32023  1.0000
  C   C3493     1.0  0.52070  0.76999  0.05707  1.0000
  H   H6216     1.0  0.52629  0.95663  0.10547  1.0000
  H   H6217     1.0  0.53833  0.88839  0.25564  1.0000
  H   H6218     1.0  0.57119  0.95752  0.31215  1.0000
  H   H6219     1.0  0.57399  0.96776  0.32892  1.0000
  H   H6220     1.0  0.59896  0.90292  0.03074  1.0000
  H   H6221     1.0  0.52531  0.80121  0.06443  1.0000
  C   C3494     1.0  0.60973  0.92887  0.34296  1.0000
  C   C3495     1.0  0.59939  0.93139  0.35388  1.0000
  C   C3496     1.0  0.58649  0.93082  0.35397  1.0000
  C   C3497     1.0  0.58377  0.92801  0.34305  1.0000
  C   C3498     1.0  0.59404  0.92590  0.33197  1.0000
  C   C3499     1.0  0.60699  0.92620  0.33200  1.0000
  H   H6222     1.0  0.60135  0.93360  0.36231  1.0000
  H   H6223     1.0  0.57858  0.93250  0.36256  1.0000
  H   H6224     1.0  0.59210  0.92359  0.32358  1.0000
  H   H6225     1.0  0.61494  0.92419  0.32355  1.0000
  H   H6226     1.0  0.60505  0.94326  0.29695  1.0000
  H   H6227     1.0  0.69148  0.95736  0.36797  1.0000
  H   H6228     1.0  0.71911  0.93360  0.47321  1.0000
  Fe  Fe403     1.0  0.65184  0.91964  0.46885  1.0000
  C   C3500     1.0  0.59005  0.87524  0.08247  1.0000
  C   C3501     1.0  0.53363  0.96616  0.13228  1.0000
  H   H6229     1.0  0.49147  0.91844  0.25697  1.0000
  C   C3502     1.0  0.65008  0.90583  0.44228  1.0000
  C   C3503     1.0  0.64583  0.91815  0.43401  1.0000
  C   C3504     1.0  0.64200  0.91858  0.42223  1.0000
  C   C3505     1.0  0.64205  0.90673  0.41898  1.0000
  C   C3506     1.0  0.64630  0.89453  0.42729  1.0000
  C   C3507     1.0  0.65047  0.89408  0.43872  1.0000
  H   H6230     1.0  0.64564  0.92728  0.43660  1.0000
  H   H6231     1.0  0.63883  0.92802  0.41580  1.0000
  H   H6232     1.0  0.64641  0.88533  0.42488  1.0000
  H   H6233     1.0  0.65383  0.88453  0.44499  1.0000
  C   C3508     1.0  0.51908  0.95928  0.23528  1.0000
  H   H6234     1.0  0.67438  0.95151  0.48005  1.0000
  H   H6235     1.0  0.49004  0.78270  0.09055  1.0000
  C   C3509     1.0  0.54223  0.96809  0.23181  1.0000
  C   C3510     1.0  0.54118  0.95517  0.23888  1.0000
  C   C3511     1.0  0.52964  0.95079  0.24064  1.0000
  H   H6236     1.0  0.51421  0.77740  0.98986  1.0000
  C   C3512     1.0  0.62380  0.97981  0.45829  1.0000
  H   H6237     1.0  0.54937  0.94845  0.24288  1.0000
  H   H6238     1.0  0.52905  0.94066  0.24578  1.0000
  C   C3513     1.0  0.56398  0.90696  0.24748  1.0000
  C   C3514     1.0  0.55533  0.91593  0.25507  1.0000
  C   C3515     1.0  0.55662  0.91507  0.26809  1.0000
  C   C3516     1.0  0.56613  0.90487  0.27373  1.0000
  C   C3517     1.0  0.57439  0.89564  0.26628  1.0000
  C   C3518     1.0  0.57346  0.89681  0.25315  1.0000
  H   H6239     1.0  0.54811  0.92390  0.25067  1.0000
  H   H6240     1.0  0.55033  0.92232  0.27368  1.0000
  H   H6241     1.0  0.58172  0.88770  0.27057  1.0000
  H   H6242     1.0  0.58019  0.88986  0.24735  1.0000
  H   H6243     1.0  0.49676  0.97415  0.28167  1.0000
  H   H6244     1.0  0.71850  0.97840  0.41436  1.0000
  H   H6245     1.0  0.55517  0.97486  0.09235  1.0000
  H   H6246     1.0  0.51505  0.84751  0.07291  1.0000
  H   H6247     1.0  0.53908  0.97767  0.15952  1.0000
  H   H6248     1.0  0.49613  0.97650  0.30430  1.0000
  C   C3519     1.0  0.72349  0.95682  0.42138  1.0000
  S   S803      1.0  0.65585  0.90422  0.45669  1.0000
  C   C3520     1.0  0.69030  0.88851  0.44289  1.0000
  H   H6249     1.0  0.70186  0.96306  0.42633  1.0000
  C   C3521     1.0  0.57227  0.95131  0.07418  1.0000
  C   C3522     1.0  0.56310  0.95710  0.08429  1.0000
  C   C3523     1.0  0.56250  0.97029  0.08479  1.0000
  H   H6250     1.0  0.60935  0.96440  0.22844  1.0000
  C   C3524     1.0  0.58072  0.97159  0.06555  1.0000
  C   C3525     1.0  0.58112  0.95859  0.06489  1.0000
  H   H6251     1.0  0.55635  0.95149  0.09156  1.0000
  H   H6252     1.0  0.48822  0.89493  0.14251  1.0000
  Fe  Fe404     1.0  0.53285  0.74396  0.99431  1.0000
  H   H6253     1.0  0.58829  0.95418  0.05709  1.0000
  C   C3526     1.0  0.55222  0.91036  0.14779  1.0000
  C   C3527     1.0  0.55587  0.90701  0.16012  1.0000
  C   C3528     1.0  0.54923  0.91458  0.16983  1.0000
  C   C3529     1.0  0.53893  0.92552  0.16720  1.0000
  C   C3530     1.0  0.53519  0.92878  0.15494  1.0000
  C   C3531     1.0  0.54186  0.92127  0.14522  1.0000
  H   H6254     1.0  0.56389  0.89858  0.16215  1.0000
  H   H6255     1.0  0.55217  0.91201  0.17928  1.0000
  H   H6256     1.0  0.52705  0.93708  0.15298  1.0000
  H   H6257     1.0  0.53885  0.92382  0.13583  1.0000
  C   C3532     1.0  0.49997  0.92274  0.10428  1.0000
  C   C3533     1.0  0.50425  0.90910  0.10452  1.0000
  H   H6258     1.0  0.58969  0.97064  0.28766  1.0000
  H   H6259     1.0  0.70546  0.88957  0.42506  1.0000
  H   H6260     1.0  0.69166  0.90012  0.38096  1.0000
  C   C3534     1.0  0.52602  0.96568  0.09725  1.0000
  H   H6261     1.0  0.51425  0.90406  0.10525  1.0000
  H   H6262     1.0  0.51533  0.97633  0.08202  1.0000
  C   C3535     1.0  0.49660  0.89542  0.18265  1.0000
  H   H6263     1.0  0.50014  0.78187  0.02095  1.0000
  C   C3536     1.0  0.54250  0.87540  0.04841  1.0000
  C   C3537     1.0  0.54919  0.86408  0.05611  1.0000
  C   C3538     1.0  0.55238  0.86495  0.06772  1.0000
  C   C3539     1.0  0.54883  0.87709  0.07181  1.0000
  C   C3540     1.0  0.54194  0.88837  0.06423  1.0000
  C   C3541     1.0  0.53894  0.88755  0.05250  1.0000
  H   H6264     1.0  0.55206  0.85469  0.05304  1.0000
  H   H6265     1.0  0.55767  0.85616  0.07354  1.0000
  H   H6266     1.0  0.53888  0.89770  0.06742  1.0000
  H   H6267     1.0  0.53374  0.89636  0.04662  1.0000
  H   H6268     1.0  0.55052  0.88820  0.31494  1.0000
  C   C3542     1.0  0.68658  0.94173  0.36255  1.0000
  C   C3543     1.0  0.51180  0.94174  0.28063  1.0000
  H   H6269     1.0  0.49094  0.86500  0.14559  1.0000
  C   C3544     1.0  0.59939  0.96852  0.28067  1.0000
  H   H6270     1.0  0.68898  0.92417  0.38899  1.0000
  H   H6271     1.0  0.52140  0.82376  0.98736  1.0000
  C   C3545     1.0  0.58195  0.89275  0.06305  1.0000
  C   C3546     1.0  0.52761  0.81382  0.98613  1.0000
  H   H6272     1.0  0.51765  0.85570  0.26913  1.0000
  S   S804      1.0  0.50624  0.75180  0.03973  1.0000
  C   C3547     1.0  0.50116  0.96910  0.10048  1.0000
  H   H6273     1.0  0.63695  0.97934  0.24025  1.0000
  C   C3548     1.0  0.66021  0.98449  0.47229  1.0000
  C   C3549     1.0  0.51477  0.96754  0.09042  1.0000
  Fe  Fe405     1.0  0.52292  0.74472  0.02345  1.0000
  H   H6274     1.0  0.58328  0.82553  0.98433  1.0000
  H   H6275     1.0  0.50030  0.75542  0.99093  1.0000
  H   H6276     1.0  0.50992  0.87807  0.17489  1.0000
  H   H6277     1.0  0.62454  0.90878  0.04420  1.0000
  C   C3550     1.0  0.48708  0.92916  0.10307  1.0000
  S   S805      1.0  0.66933  0.92683  0.46946  1.0000
  H   H6278     1.0  0.50112  0.95935  0.10778  1.0000
  C   C3551     1.0  0.48869  0.91183  0.25237  1.0000
  C   C3552     1.0  0.53150  0.97678  0.22681  1.0000
  H   H6279     1.0  0.57182  0.97676  0.24588  1.0000
  H   H6280     1.0  0.61286  0.96739  0.25639  1.0000
  H   H6281     1.0  0.50085  0.79926  0.01711  1.0000
  H   H6282     1.0  0.60100  0.94454  0.43213  1.0000
  C   C3553     1.0  0.53902  0.74932  0.05516  1.0000
  H   H6283     1.0  0.51891  0.97150  0.28087  1.0000
  C   C3554     1.0  0.49951  0.88366  0.17579  1.0000
  H   H6284     1.0  0.49696  0.90907  0.28382  1.0000
  C   C3555     1.0  0.49550  0.90187  0.10388  1.0000
  C   C3556     1.0  0.61088  0.97618  0.33359  1.0000
  Fe  Fe406     1.0  0.55084  0.74772  0.00960  1.0000
  H   H6285     1.0  0.60744  0.96338  0.43687  1.0000
  N   N195      1.0  0.60894  0.89191  0.38249  1.0000
  C   C3557     1.0  0.60380  0.88593  0.37424  1.0000
  C   C3558     1.0  0.61179  0.88157  0.39485  1.0000
  C   C3559     1.0  0.59793  0.90309  0.38704  1.0000
  C   C3560     1.0  0.62103  0.89747  0.37475  1.0000
  C   C3561     1.0  0.63073  0.89007  0.36395  1.0000
  C   C3562     1.0  0.59817  0.89598  0.36248  1.0000
  C   C3563     1.0  0.59996  0.90899  0.39785  1.0000
  C   C3564     1.0  0.62250  0.86885  0.39269  1.0000
  H   H6286     1.0  0.73008  0.94976  0.42769  1.0000
  H   H6287     1.0  0.51794  0.90491  0.27189  1.0000
  C   C3565     1.0  0.59638  0.88894  0.35271  1.0000
  C   C3566     1.0  0.58985  0.92200  0.39941  1.0000
  H   H6288     1.0  0.59571  0.88089  0.38069  1.0000
  H   H6289     1.0  0.61147  0.87794  0.37010  1.0000
  H   H6290     1.0  0.50072  0.78025  0.04459  1.0000
  C   C3567     1.0  0.62802  0.98205  0.23599  1.0000
  H   H6291     1.0  0.58839  0.89975  0.39110  1.0000
  H   H6292     1.0  0.59627  0.91153  0.37838  1.0000
  H   H6293     1.0  0.61816  0.90801  0.36936  1.0000
  H   H6294     1.0  0.62671  0.89801  0.38178  1.0000
  H   H6295     1.0  0.62662  0.89270  0.35489  1.0000
  H   H6296     1.0  0.50769  0.96847  0.20370  1.0000
  H   H6297     1.0  0.58831  0.90197  0.36634  1.0000
  H   H6298     1.0  0.60476  0.90293  0.35686  1.0000
  H   H6299     1.0  0.61004  0.91089  0.39537  1.0000
  H   H6300     1.0  0.71172  0.92779  0.42495  1.0000
  H   H6301     1.0  0.62052  0.86389  0.38587  1.0000
  H   H6302     1.0  0.63237  0.87139  0.38868  1.0000
  H   H6303     1.0  0.60249  0.87848  0.40103  1.0000
  H   H6304     1.0  0.61914  0.91054  0.02917  1.0000
  C   C3568     1.0  0.49127  0.73885  0.99540  1.0000
  H   H6305     1.0  0.51709  0.91971  0.30074  1.0000
  H   H6306     1.0  0.49857  0.86237  0.25856  1.0000
  N   N196      1.0  0.52127  0.90276  0.29167  1.0000
  H   H6307     1.0  0.60608  0.88343  0.34789  1.0000
  H   H6308     1.0  0.58970  0.88194  0.35793  1.0000
  H   H6309     1.0  0.59187  0.89647  0.34476  1.0000
  H   H6310     1.0  0.59061  0.92952  0.38982  1.0000
  H   H6311     1.0  0.57965  0.92021  0.40273  1.0000
  H   H6312     1.0  0.59173  0.92609  0.40701  1.0000
  C   C3569     1.0  0.67112  0.96185  0.48067  1.0000
  H   H6313     1.0  0.49371  0.74862  0.02059  1.0000
  C   C3570     1.0  0.52010  0.94886  0.34845  1.0000
  H   H6314     1.0  0.53903  0.74698  0.06597  1.0000
  C   C3571     1.0  0.48729  0.97775  0.20948  1.0000
  H   H6315     1.0  0.64214  0.96489  0.42379  1.0000
  H   H6316     1.0  0.56884  0.80385  0.99115  1.0000
  H   H6317     1.0  0.55696  0.90894  0.05849  1.0000
  C   C3572     1.0  0.49269  0.96060  0.16135  1.0000
  C   C3573     1.0  0.60633  0.96322  0.33623  1.0000
  C   C3574     1.0  0.49823  0.89962  0.29133  1.0000
  H   H6318     1.0  0.53008  0.91984  0.28630  1.0000
  H   H6319     1.0  0.61202  0.93611  0.41942  1.0000
  C   C3575     1.0  0.70294  0.93970  0.46287  1.0000
  H   H6320     1.0  0.63728  0.96761  0.40854  1.0000
  H   H6321     1.0  0.49485  0.77280  0.07070  1.0000
  C   C3576     1.0  0.56082  0.91422  0.04826  1.0000
  H   H6322     1.0  0.63185  0.96471  0.44691  1.0000
  C   C3577     1.0  0.52565  0.90003  0.27777  1.0000
  H   H6323     1.0  0.52203  0.85745  0.05711  1.0000
  H   H6324     1.0  0.67816  0.88295  0.38817  1.0000
  H   H6325     1.0  0.59883  0.96023  0.27663  1.0000
  H   H6326     1.0  0.50342  0.87322  0.14560  1.0000
  C   C3578     1.0  0.66485  0.97123  0.47103  1.0000
  H   H6327     1.0  0.53380  0.87255  0.26294  1.0000
  C   C3579     1.0  0.50685  0.78892  0.01780  1.0000
  C   C3580     1.0  0.71425  0.90893  0.40241  1.0000
  H   H6328     1.0  0.49302  0.86912  0.19362  1.0000
  H   H6329     1.0  0.61981  0.95882  0.28269  1.0000
  H   H6330     1.0  0.60613  0.95774  0.34676  1.0000
  H   H6331     1.0  0.59632  0.96524  0.33421  1.0000
  H   H6332     1.0  0.61330  0.95678  0.32957  1.0000
  H   H6333     1.0  0.53921  0.98233  0.35008  1.0000
  H   H6334     1.0  0.50192  0.80056  0.06198  1.0000
  S   S806      1.0  0.73201  0.93767  0.39084  1.0000
  C   C3581     1.0  0.68624  0.92187  0.40009  1.0000
  C   C3582     1.0  0.56679  0.77128  0.01284  1.0000
  C   C3583     1.0  0.49083  0.87370  0.18357  1.0000
  C   C3584     1.0  0.58023  0.98342  0.11254  1.0000
  H   H6335     1.0  0.48774  0.96117  0.06068  1.0000
  C   C3585     1.0  0.61150  0.94180  0.42688  1.0000
  N   N197      1.0  0.70675  0.94255  0.43696  1.0000
  C   C3586     1.0  0.69211  0.94293  0.44035  1.0000
  C   C3587     1.0  0.71070  0.94484  0.44855  1.0000
  C   C3588     1.0  0.70944  0.95374  0.42499  1.0000
  C   C3589     1.0  0.71477  0.92957  0.43327  1.0000
  C   C3590     1.0  0.71470  0.91696  0.44477  1.0000
  C   C3591     1.0  0.68576  0.94353  0.42877  1.0000
  H   H6336     1.0  0.52081  0.76741  0.06790  1.0000
  C   C3592     1.0  0.63601  0.97229  0.41703  1.0000
  H   H6337     1.0  0.50259  0.87643  0.26133  1.0000
  H   H6338     1.0  0.54319  0.93009  0.04893  1.0000
  C   C3593     1.0  0.67151  0.94168  0.43415  1.0000
  H   H6339     1.0  0.68657  0.95189  0.44448  1.0000
  H   H6340     1.0  0.68979  0.93426  0.44833  1.0000
  H   H6341     1.0  0.72139  0.94046  0.44826  1.0000
  H   H6342     1.0  0.70942  0.95568  0.44777  1.0000
  H   H6343     1.0  0.50394  0.83338  0.02502  1.0000
  C   C3594     1.0  0.61958  0.98186  0.43543  1.0000
  C   C3595     1.0  0.49238  0.78380  0.06934  1.0000
  C   C3596     1.0  0.69458  0.89063  0.42770  1.0000
  H   H6344     1.0  0.70452  0.91578  0.44993  1.0000
  H   H6345     1.0  0.65926  0.97472  0.39778  1.0000
  H   H6346     1.0  0.68543  0.95342  0.42176  1.0000
  H   H6347     1.0  0.69130  0.93573  0.42310  1.0000
  H   H6348     1.0  0.54180  0.89715  0.29321  1.0000
  S   S807      1.0  0.55727  0.97282  0.22889  1.0000
  H   H6349     1.0  0.49649  0.89125  0.19339  1.0000
  H   H6350     1.0  0.62088  0.97343  0.33574  1.0000
  H   H6351     1.0  0.61358  0.96377  0.21092  1.0000
  H   H6352     1.0  0.50796  0.86315  0.28299  1.0000
  H   H6353     1.0  0.51028  0.88820  0.30522  1.0000
  H   H6354     1.0  0.66634  0.94425  0.42586  1.0000
  H   H6355     1.0  0.67136  0.93118  0.43946  1.0000
  H   H6356     1.0  0.66584  0.94834  0.44107  1.0000
  H   H6357     1.0  0.60635  0.89810  0.05791  1.0000
  H   H6358     1.0  0.73327  0.97216  0.42095  1.0000
  S   S808      1.0  0.53112  0.75937  0.00562  1.0000
  H   H6359     1.0  0.48852  0.94147  0.26456  1.0000
  C   C3597     1.0  0.50832  0.96754  0.17067  1.0000
  C   C3598     1.0  0.52497  0.97279  0.17881  1.0000
  C   C3599     1.0  0.53713  0.96891  0.16763  1.0000
  C   C3600     1.0  0.70770  0.94029  0.36746  1.0000
  H   H6360     1.0  0.68734  0.97620  0.38089  1.0000
  H   H6361     1.0  0.59114  0.97993  0.10990  1.0000
  H   H6362     1.0  0.53622  0.76622  0.03902  1.0000
  C   C3601     1.0  0.54959  0.96273  0.17323  1.0000
  H   H6363     1.0  0.61367  0.85548  0.41039  1.0000
  H   H6364     1.0  0.51315  0.97692  0.25948  1.0000
  H   H6365     1.0  0.60172  0.97980  0.35314  1.0000
  C   C3602     1.0  0.48883  0.82438  0.02433  1.0000
  H   H6366     1.0  0.52689  0.97038  0.12524  1.0000
  H   H6367     1.0  0.51164  0.92565  0.27264  1.0000
  C   C3603     1.0  0.49105  0.96534  0.08429  1.0000
  H   H6368     1.0  0.51518  0.96532  0.16127  1.0000
  H   H6369     1.0  0.55056  0.79474  0.99053  1.0000
  H   H6370     1.0  0.52447  0.96358  0.18684  1.0000
  H   H6371     1.0  0.59731  0.95499  0.30768  1.0000
  H   H6372     1.0  0.53566  0.96147  0.16309  1.0000
  H   H6373     1.0  0.70826  0.95148  0.41588  1.0000
  C   C3604     1.0  0.64416  0.89390  0.35969  1.0000
  H   H6374     1.0  0.71639  0.90243  0.43331  1.0000
  C   C3605     1.0  0.70943  0.94080  0.47340  1.0000
  H   H6375     1.0  0.57347  0.78239  0.98594  1.0000
  C   C3606     1.0  0.53008  0.89717  0.31330  1.0000
  H   H6376     1.0  0.53352  0.78394  0.06594  1.0000
  H   H6377     1.0  0.69250  0.97972  0.47497  1.0000
  H   H6378     1.0  0.58446  0.89959  0.06766  1.0000
  N   N198      1.0  0.62166  0.97504  0.42417  1.0000
  H   H6379     1.0  0.62701  0.95116  0.41382  1.0000
  C   C3607     1.0  0.48771  0.74587  0.03046  1.0000
  H   H6380     1.0  0.49391  0.94002  0.19142  1.0000
  H   H6381     1.0  0.69277  0.94587  0.46445  1.0000
  C   C3608     1.0  0.72306  0.97095  0.42230  1.0000
  C   C3609     1.0  0.49179  0.74637  0.04161  1.0000
  H   H6382     1.0  0.69686  0.96997  0.40056  1.0000
  H   H6383     1.0  0.49875  0.89127  0.10431  1.0000
  N   N199      1.0  0.57101  0.94852  0.12812  1.0000
  C   C3610     1.0  0.57195  0.93801  0.12079  1.0000
  C   C3611     1.0  0.57901  0.94318  0.13878  1.0000
  C   C3612     1.0  0.57590  0.93043  0.14916  1.0000
  C   C3613     1.0  0.58615  0.93098  0.11478  1.0000
  C   C3614     1.0  0.54701  0.95904  0.12519  1.0000
  C   C3615     1.0  0.58516  0.92550  0.15887  1.0000
  C   C3616     1.0  0.58583  0.92083  0.10735  1.0000
  H   H6384     1.0  0.56689  0.94248  0.11230  1.0000
  H   H6385     1.0  0.56651  0.93025  0.12733  1.0000
  H   H6386     1.0  0.58731  0.95685  0.11471  1.0000
  H   H6387     1.0  0.58979  0.94122  0.13418  1.0000
  H   H6388     1.0  0.57745  0.95080  0.14464  1.0000
  H   H6389     1.0  0.57698  0.92218  0.14430  1.0000
  H   H6390     1.0  0.56570  0.93251  0.15524  1.0000
  H   H6391     1.0  0.59166  0.93828  0.10749  1.0000
  H   H6392     1.0  0.59174  0.92556  0.12268  1.0000
  H   H6393     1.0  0.55089  0.96627  0.11636  1.0000
  H   H6394     1.0  0.54529  0.95101  0.12161  1.0000
  H   H6395     1.0  0.58256  0.91648  0.16626  1.0000
  H   H6396     1.0  0.59559  0.92283  0.15344  1.0000
  H   H6397     1.0  0.58413  0.93326  0.16438  1.0000
  H   H6398     1.0  0.59608  0.91612  0.10287  1.0000
  H   H6399     1.0  0.58094  0.91289  0.11431  1.0000
  H   H6400     1.0  0.58045  0.92576  0.09918  1.0000
  C   C3617     1.0  0.50752  0.85822  0.27530  1.0000
  S   S809      1.0  0.52106  0.85117  0.98952  1.0000
  H   H6401     1.0  0.62239  0.97379  0.26308  1.0000
  C   C3618     1.0  0.52098  0.97308  0.34491  1.0000
  S   S810      1.0  0.63826  0.93989  0.46594  1.0000
  S   S811      1.0  0.73067  0.97585  0.37968  1.0000
  H   H6402     1.0  0.48834  0.85666  0.04020  1.0000
  H   H6403     1.0  0.55825  0.96058  0.16499  1.0000
  H   H6404     1.0  0.52255  0.86073  0.07258  1.0000
  H   H6405     1.0  0.69045  0.91219  0.42388  1.0000
  C   C3619     1.0  0.48839  0.78332  0.98790  1.0000
  H   H6406     1.0  0.66917  0.98147  0.34616  1.0000
  H   H6407     1.0  0.61611  0.98011  0.40512  1.0000
  C   C3620     1.0  0.49015  0.81963  0.98724  1.0000
  H   H6408     1.0  0.49911  0.81952  0.99045  1.0000
  C   C3621     1.0  0.48819  0.92434  0.18629  1.0000
  H   H6409     1.0  0.67343  0.89594  0.37435  1.0000
  H   H6410     1.0  0.51834  0.97104  0.35605  1.0000
  H   H6411     1.0  0.53196  0.97013  0.34201  1.0000
  H   H6412     1.0  0.49782  0.90711  0.24600  1.0000
  H   H6413     1.0  0.61736  0.93526  0.43425  1.0000
  H   H6414     1.0  0.52108  0.88740  0.26021  1.0000
  H   H6415     1.0  0.63159  0.97656  0.46418  1.0000
  C   C3622     1.0  0.52462  0.97790  0.27249  1.0000
  C   C3623     1.0  0.61021  0.96277  0.28901  1.0000
  H   H6416     1.0  0.50491  0.96524  0.34234  1.0000
  H   H6417     1.0  0.65746  0.98132  0.37108  1.0000
  H   H6418     1.0  0.51670  0.95865  0.08617  1.0000
  C   C3624     1.0  0.63792  0.97805  0.37458  1.0000
  C   C3625     1.0  0.68160  0.90235  0.38727  1.0000
  C   C3626     1.0  0.68761  0.90453  0.42069  1.0000
  H   H6419     1.0  0.65852  0.94807  0.40337  1.0000
  C   C3627     1.0  0.61694  0.95431  0.41977  1.0000
  H   H6420     1.0  0.59470  0.97747  0.42291  1.0000
  C   C3628     1.0  0.57846  0.77411  0.01351  1.0000
  C   C3629     1.0  0.50151  0.98293  0.18618  1.0000
  H   H6421     1.0  0.52714  0.97991  0.18334  1.0000
  C   C3630     1.0  0.72827  0.90030  0.40089  1.0000
  H   H6422     1.0  0.63113  0.84981  0.40418  1.0000
  H   H6423     1.0  0.66217  0.97460  0.41377  1.0000
  C   C3631     1.0  0.49834  0.86751  0.26633  1.0000
  H   H6424     1.0  0.51693  0.88256  0.19546  1.0000
  C   C3632     1.0  0.50411  0.91284  0.16313  1.0000
  C   C3633     1.0  0.51265  0.90681  0.15103  1.0000
  H   H6425     1.0  0.50953  0.92113  0.18279  1.0000
  H   H6426     1.0  0.52640  0.90531  0.17256  1.0000
  H   H6427     1.0  0.50665  0.92275  0.16110  1.0000
  H   H6428     1.0  0.50119  0.97625  0.10628  1.0000
  H   H6429     1.0  0.52315  0.90713  0.14958  1.0000
  H   H6430     1.0  0.54443  0.88911  0.18445  1.0000
  H   H6431     1.0  0.49718  0.88746  0.16582  1.0000
  C   C3634     1.0  0.57173  0.88583  0.02318  1.0000
  H   H6432     1.0  0.59012  0.89067  0.02189  1.0000
  H   H6433     1.0  0.57584  0.90404  0.02384  1.0000
  H   H6434     1.0  0.57473  0.87488  0.02686  1.0000
  H   H6435     1.0  0.56101  0.88916  0.02728  1.0000
  H   H6436     1.0  0.57338  0.88802  0.01212  1.0000
  H   H6437     1.0  0.53209  0.74418  0.05366  1.0000
  C   C3635     1.0  0.53186  0.79365  0.05875  1.0000
  S   S812      1.0  0.66147  0.96602  0.45837  1.0000
  H   H6438     1.0  0.60097  0.97723  0.21675  1.0000
  C   C3636     1.0  0.50508  0.78950  0.06438  1.0000
  C   C3637     1.0  0.69482  0.98157  0.38081  1.0000
  H   H6439     1.0  0.58774  0.76700  0.01166  1.0000
  H   H6440     1.0  0.71457  0.91868  0.39525  1.0000
  N   N200      1.0  0.60131  0.98061  0.26958  1.0000
  H   H6441     1.0  0.52015  0.89602  0.31944  1.0000
  H   H6442     1.0  0.50464  0.86680  0.22628  1.0000
  H   H6443     1.0  0.64241  0.98393  0.34620  1.0000
  H   H6444     1.0  0.50535  0.87752  0.06219  1.0000
  H   H6445     1.0  0.57138  0.89283  0.06780  1.0000
  H   H6446     1.0  0.50971  0.95802  0.17822  1.0000
  S   S813      1.0  0.56809  0.75657  0.00776  1.0000
  H   H6447     1.0  0.66329  0.89574  0.39093  1.0000
  H   H6448     1.0  0.73207  0.90498  0.43392  1.0000
  H   H6449     1.0  0.51200  0.97874  0.22381  1.0000
  H   H6450     1.0  0.67723  0.98430  0.32870  1.0000
  H   H6451     1.0  0.57990  0.87604  0.08880  1.0000
  C   C3638     1.0  0.53078  0.88331  0.26310  1.0000
  H   H6452     1.0  0.49584  0.95021  0.16681  1.0000
  H   H6453     1.0  0.70754  0.89130  0.40253  1.0000
  C   C3639     1.0  0.68198  0.89959  0.40224  1.0000
  H   H6454     1.0  0.55786  0.91037  0.04116  1.0000
  C   C3640     1.0  0.49451  0.87444  0.14175  1.0000
  C   C3641     1.0  0.48930  0.94002  0.31898  1.0000
  H   H6455     1.0  0.59568  0.86489  0.08541  1.0000
  C   C3642     1.0  0.70451  0.90234  0.39954  1.0000
  C   C3643     1.0  0.49141  0.90003  0.22229  1.0000
  C   C3644     1.0  0.53205  0.89494  0.29909  1.0000
  H   H6456     1.0  0.61158  0.97039  0.29340  1.0000
  H   H6457     1.0  0.72838  0.95579  0.41096  1.0000
  C   C3645     1.0  0.49405  0.97049  0.16853  1.0000
  H   H6458     1.0  0.68561  0.97194  0.34069  1.0000
  H   H6459     1.0  0.50341  0.90471  0.30721  1.0000
  C   C3646     1.0  0.62319  0.85871  0.40593  1.0000
  N   N201      1.0  0.51189  0.97832  0.17466  1.0000
  C   C3647     1.0  0.51651  0.85767  0.06755  1.0000
  H   H6460     1.0  0.58479  0.87104  0.06639  1.0000
  C   C3648     1.0  0.51026  0.92748  0.28270  1.0000
  N   N202      1.0  0.48903  0.97349  0.09452  1.0000
  H   H6461     1.0  0.49739  0.96952  0.07470  1.0000
  H   H6462     1.0  0.52187  0.94283  0.27480  1.0000
  H   H6463     1.0  0.53483  0.97446  0.13585  1.0000
  H   H6464     1.0  0.58450  0.87872  0.04456  1.0000
  C   C3649     1.0  0.57965  0.89322  0.02728  1.0000
  C   C3650     1.0  0.55672  0.95304  0.13472  1.0000
  H   H6465     1.0  0.52611  0.80674  0.99597  1.0000
  C   C3651     1.0  0.57641  0.95993  0.11819  1.0000
  C   C3652     1.0  0.50806  0.91480  0.13825  1.0000
  H   H6466     1.0  0.60006  0.87653  0.06204  1.0000
  H   H6467     1.0  0.58461  0.92375  0.21863  1.0000
  H   H6468     1.0  0.50972  0.92508  0.13575  1.0000
  H   H6469     1.0  0.71743  0.97296  0.43221  1.0000
  H   H6470     1.0  0.54338  0.96461  0.27496  1.0000
  C   C3653     1.0  0.58948  0.81534  0.98421  1.0000
  H   H6471     1.0  0.49658  0.95501  0.08772  1.0000
  C   C3654     1.0  0.69493  0.94743  0.36615  1.0000
  H   H6472     1.0  0.58429  0.96724  0.26367  1.0000
  H   H6473     1.0  0.55290  0.94454  0.14188  1.0000
  H   H6474     1.0  0.55572  0.96017  0.14096  1.0000
  H   H6475     1.0  0.57254  0.96267  0.10893  1.0000
  H   H6476     1.0  0.71413  0.94480  0.37012  1.0000
  H   H6477     1.0  0.52906  0.95908  0.14089  1.0000
  H   H6478     1.0  0.62523  0.89411  0.03868  1.0000
  C   C3655     1.0  0.53759  0.88220  0.18886  1.0000
  H   H6479     1.0  0.54560  0.80020  0.01914  1.0000
  C   C3656     1.0  0.54036  0.88723  0.32062  1.0000
  H   H6480     1.0  0.52290  0.87928  0.28440  1.0000
  H   H6481     1.0  0.49742  0.91529  0.13925  1.0000
  N   N203      1.0  0.51495  0.78471  0.05261  1.0000
  C   C3657     1.0  0.71220  0.92745  0.36504  1.0000
  H   H6482     1.0  0.70627  0.90444  0.38847  1.0000
  C   C3658     1.0  0.49507  0.91337  0.33233  1.0000
  H   H6483     1.0  0.61456  0.94718  0.30622  1.0000
  C   C3659     1.0  0.50207  0.91482  0.18586  1.0000
  C   C3660     1.0  0.52002  0.89794  0.17676  1.0000
  C   C3661     1.0  0.60537  0.96639  0.21937  1.0000
  H   H6484     1.0  0.55150  0.96964  0.17818  1.0000
  H   H6485     1.0  0.52364  0.89100  0.16988  1.0000
  H   H6486     1.0  0.57195  0.93191  0.24256  1.0000
  H   H6487     1.0  0.57051  0.93261  0.20138  1.0000
  C   C3662     1.0  0.57392  0.97282  0.12330  1.0000
  H   H6488     1.0  0.60707  0.91354  0.21665  1.0000
  C   C3663     1.0  0.57606  0.91218  0.04549  1.0000
  C   C3664     1.0  0.49440  0.86341  0.06102  1.0000
  H   H6489     1.0  0.54371  0.97484  0.25846  1.0000
  C   C3665     1.0  0.52020  0.91737  0.29066  1.0000
  H   H6490     1.0  0.64875  0.89161  0.36840  1.0000
  H   H6491     1.0  0.59041  0.91383  0.23939  1.0000
  H   H6492     1.0  0.71608  0.97790  0.46837  1.0000
  H   H6493     1.0  0.51243  0.89631  0.15220  1.0000
  C   C3666     1.0  0.53764  0.96900  0.26705  1.0000
  H   H6494     1.0  0.58740  0.78814  0.01690  1.0000
  H   H6495     1.0  0.55246  0.78972  0.04801  1.0000
  H   H6496     1.0  0.61054  0.96046  0.41278  1.0000
  H   H6497     1.0  0.57813  0.91788  0.05168  1.0000
  H   H6498     1.0  0.61793  0.89877  0.24185  1.0000
  H   H6499     1.0  0.69206  0.97915  0.35766  1.0000
  H   H6500     1.0  0.72532  0.93011  0.42916  1.0000
  H   H6501     1.0  0.51373  0.90995  0.12986  1.0000
  H   H6502     1.0  0.67688  0.91289  0.38363  1.0000
  C   C3667     1.0  0.52322  0.88993  0.19047  1.0000
  C   C3668     1.0  0.57149  0.94281  0.20090  1.0000
  H   H6503     1.0  0.51987  0.96326  0.32980  1.0000
  H   H6504     1.0  0.49283  0.86564  0.17815  1.0000
  C   C3669     1.0  0.55471  0.79287  0.01780  1.0000
  C   C3670     1.0  0.70380  0.92165  0.36162  1.0000
  C   C3671     1.0  0.50754  0.78717  0.04174  1.0000
  H   H6505     1.0  0.52137  0.77531  0.02785  1.0000
  H   H6506     1.0  0.66836  0.92650  0.41551  1.0000
  C   C3672     1.0  0.67363  0.89368  0.38511  1.0000
  H   H6507     1.0  0.60017  0.91432  0.04839  1.0000
  C   C3673     1.0  0.51993  0.97233  0.22844  1.0000
  S   S814      1.0  0.72820  0.91843  0.36647  1.0000
  C   C3674     1.0  0.67146  0.92840  0.40449  1.0000
  H   H6508     1.0  0.53125  0.90729  0.31269  1.0000
  H   H6509     1.0  0.58762  0.97710  0.05829  1.0000
  H   H6510     1.0  0.63882  0.97913  0.44022  1.0000
  C   C3675     1.0  0.49891  0.97209  0.19914  1.0000
  H   H6511     1.0  0.72855  0.89083  0.40857  1.0000
  H   H6512     1.0  0.56221  0.94994  0.19890  1.0000
  H   H6513     1.0  0.52180  0.89667  0.19722  1.0000
  H   H6514     1.0  0.50231  0.90957  0.19635  1.0000
  C   C3676     1.0  0.55484  0.78062  0.01515  1.0000
  C   C3677     1.0  0.61485  0.89923  0.23261  1.0000
  H   H6515     1.0  0.57979  0.94545  0.19254  1.0000
  H   H6516     1.0  0.60708  0.89339  0.23520  1.0000
  C   C3678     1.0  0.60545  0.90396  0.04771  1.0000
  C   C3679     1.0  0.57875  0.88917  0.04259  1.0000
  C   C3680     1.0  0.58650  0.93376  0.21750  1.0000
  C   C3681     1.0  0.59763  0.92044  0.23554  1.0000
  C   C3682     1.0  0.60967  0.91367  0.22594  1.0000
  H   H6517     1.0  0.59459  0.93498  0.20841  1.0000
  H   H6518     1.0  0.49849  0.86804  0.07821  1.0000
  H   H6519     1.0  0.54225  0.76886  0.05181  1.0000
  H   H6520     1.0  0.56841  0.88849  0.04792  1.0000
  C   C3683     1.0  0.58608  0.97672  0.25670  1.0000
  H   H6521     1.0  0.69199  0.92726  0.40309  1.0000
  H   H6522     1.0  0.62406  0.95498  0.43638  1.0000
  H   H6523     1.0  0.68458  0.92440  0.35752  1.0000
  C   C3684     1.0  0.57368  0.94363  0.21414  1.0000
  H   H6524     1.0  0.58448  0.92842  0.25948  1.0000
  H   H6525     1.0  0.56493  0.94117  0.22199  1.0000
  H   H6526     1.0  0.57142  0.94541  0.27205  1.0000
  H   H6527     1.0  0.54904  0.79930  0.06049  1.0000
  H   H6528     1.0  0.51422  0.76392  0.05626  1.0000
  H   H6529     1.0  0.51005  0.94442  0.29040  1.0000
  H   H6530     1.0  0.72260  0.89564  0.44832  1.0000
  H   H6531     1.0  0.64160  0.96794  0.37348  1.0000
  C   C3685     1.0  0.57378  0.98344  0.25098  1.0000
  C   C3686     1.0  0.57827  0.78612  0.01643  1.0000
  N   N204      1.0  0.59079  0.93435  0.22967  1.0000
  C   C3687     1.0  0.57891  0.93857  0.24024  1.0000
  H   H6532     1.0  0.60134  0.92032  0.24430  1.0000
  H   H6533     1.0  0.62354  0.89460  0.22566  1.0000
  C   C3688     1.0  0.69095  0.92877  0.36044  1.0000
  H   H6534     1.0  0.55736  0.93460  0.03647  1.0000
  C   C3689     1.0  0.49788  0.87625  0.22384  1.0000
  N   N205      1.0  0.69009  0.90710  0.40562  1.0000
  H   H6535     1.0  0.57937  0.91743  0.03498  1.0000
  N   N206      1.0  0.58371  0.89790  0.04812  1.0000
  H   H6536     1.0  0.57323  0.94857  0.23647  1.0000
  H   H6537     1.0  0.61786  0.91898  0.22317  1.0000
  H   H6538     1.0  0.61536  0.88583  0.40123  1.0000
  H   H6539     1.0  0.60843  0.94079  0.21712  1.0000
  C   C3690     1.0  0.54515  0.79766  0.05264  1.0000
  H   H6540     1.0  0.50450  0.94881  0.27500  1.0000
  H   H6541     1.0  0.54584  0.77858  0.01442  1.0000
  C   C3691     1.0  0.58167  0.93875  0.25368  1.0000
  C   C3692     1.0  0.56937  0.94581  0.26231  1.0000
  C   C3693     1.0  0.61944  0.90434  0.03938  1.0000
  C   C3694     1.0  0.50842  0.89871  0.29946  1.0000
  C   C3695     1.0  0.60652  0.95135  0.30063  1.0000
  H   H6542     1.0  0.52075  0.98407  0.31933  1.0000
  Fe  Fe407     1.0  0.65525  0.94664  0.46826  1.0000
  H   H6543     1.0  0.53100  0.94600  0.34737  1.0000
  H   H6544     1.0  0.57394  0.95404  0.21339  1.0000
  H   H6545     1.0  0.56643  0.95641  0.25732  1.0000
  H   H6546     1.0  0.52269  0.79258  0.02363  1.0000
  H   H6547     1.0  0.49141  0.73661  0.00613  1.0000
  H   H6548     1.0  0.50158  0.89134  0.28599  1.0000
  C   C3696     1.0  0.52525  0.79302  0.04784  1.0000
  H   H6549     1.0  0.60570  0.94149  0.23400  1.0000
  H   H6550     1.0  0.53314  0.78946  0.03964  1.0000
  H   H6551     1.0  0.52082  0.80349  0.04335  1.0000
  H   H6552     1.0  0.67559  0.94799  0.40193  1.0000
  C   C3697     1.0  0.58968  0.87831  0.06770  1.0000
  H   H6553     1.0  0.53424  0.90457  0.27202  1.0000
  H   H6554     1.0  0.67683  0.90560  0.42521  1.0000
  H   H6555     1.0  0.58966  0.94403  0.25210  1.0000
  H   H6556     1.0  0.56098  0.94100  0.26416  1.0000
  H   H6557     1.0  0.55639  0.93330  0.05397  1.0000
  H   H6558     1.0  0.68567  0.88867  0.40549  1.0000
  H   H6559     1.0  0.50974  0.78711  0.07309  1.0000
  C   C3698     1.0  0.60047  0.94330  0.22582  1.0000
  C   C3699     1.0  0.72190  0.90427  0.43969  1.0000
  H   H6560     1.0  0.60368  0.88724  0.04104  1.0000
  C   C3700     1.0  0.59476  0.95848  0.22201  1.0000
  C   C3701     1.0  0.51584  0.96307  0.34058  1.0000
  H   H6561     1.0  0.69136  0.89693  0.44638  1.0000
  H   H6562     1.0  0.57815  0.97086  0.13218  1.0000
  H   H6563     1.0  0.53309  0.88406  0.30037  1.0000
  H   H6564     1.0  0.59106  0.96103  0.21273  1.0000
  C   C3702     1.0  0.51581  0.78569  0.02765  1.0000
  C   C3703     1.0  0.55408  0.92898  0.04679  1.0000
  H   H6565     1.0  0.53576  0.96078  0.26394  1.0000
  H   H6566     1.0  0.67153  0.90162  0.40795  1.0000
  H   H6567     1.0  0.69228  0.88254  0.42474  1.0000
  H   H6568     1.0  0.48758  0.89094  0.05554  1.0000
  H   H6569     1.0  0.59493  0.88217  0.08437  1.0000
  H   H6570     1.0  0.53889  0.88926  0.33063  1.0000
  H   H6571     1.0  0.67985  0.88751  0.44623  1.0000
  C   C3704     1.0  0.61736  0.96195  0.42999  1.0000
  H   H6572     1.0  0.53937  0.87686  0.32197  1.0000
  C   C3705     1.0  0.53504  0.76435  0.04994  1.0000
  C   C3706     1.0  0.59805  0.89761  0.04143  1.0000
  H   H6573     1.0  0.63256  0.87913  0.36735  1.0000
  H   H6574     1.0  0.58669  0.96200  0.23012  1.0000
  H   H6575     1.0  0.53964  0.87502  0.18240  1.0000
  H   H6576     1.0  0.49118  0.98061  0.16244  1.0000
  H   H6577     1.0  0.54852  0.95323  0.18060  1.0000
  H   H6578     1.0  0.67043  0.94591  0.38814  1.0000
  H   H6579     1.0  0.69648  0.87918  0.44761  1.0000
  C   C3707     1.0  0.67884  0.98190  0.33901  1.0000
  C   C3708     1.0  0.62942  0.97571  0.44486  1.0000
  C   C3709     1.0  0.50323  0.86762  0.06765  1.0000
  H   H6580     1.0  0.49884  0.96195  0.15101  1.0000
  H   H6581     1.0  0.51707  0.94175  0.34469  1.0000
  C   C3710     1.0  0.57135  0.97756  0.07540  1.0000
  C   C3711     1.0  0.50035  0.88791  0.22512  1.0000
  C   C3712     1.0  0.65716  0.98057  0.40553  1.0000
  H   H6582     1.0  0.50124  0.79745  0.04056  1.0000
  H   H6583     1.0  0.49739  0.87641  0.13065  1.0000
  H   H6584     1.0  0.73185  0.89801  0.39080  1.0000
  H   H6585     1.0  0.49658  0.96342  0.19726  1.0000
  H   H6586     1.0  0.48978  0.89573  0.26945  1.0000
  H   H6587     1.0  0.52493  0.97454  0.10125  1.0000
  H   H6588     1.0  0.70465  0.97630  0.37610  1.0000
  C   C3713     1.0  0.62433  0.98334  0.37777  1.0000
  H   H6589     1.0  0.53548  0.96454  0.08976  1.0000
  H   H6590     1.0  0.49295  0.90898  0.22379  1.0000
  H   H6591     1.0  0.61140  0.98084  0.32286  1.0000
  H   H6592     1.0  0.49343  0.85303  0.06619  1.0000
  H   H6593     1.0  0.61540  0.97505  0.46410  1.0000
  H   H6594     1.0  0.49354  0.91504  0.16255  1.0000
  C   C3714     1.0  0.49322  0.82603  0.04480  1.0000
  H   H6595     1.0  0.49002  0.88409  0.04160  1.0000
  H   H6596     1.0  0.73507  0.90570  0.40221  1.0000
  H   H6597     1.0  0.60941  0.98201  0.44173  1.0000
  C   C3715     1.0  0.69487  0.98060  0.39535  1.0000
  C   C3716     1.0  0.64227  0.98465  0.41088  1.0000
  H   H6598     1.0  0.62686  0.97318  0.23336  1.0000
  C   C3717     1.0  0.61330  0.97657  0.25905  1.0000
  H   H6599     1.0  0.49152  0.77868  0.99758  1.0000
  H   H6600     1.0  0.49128  0.82606  0.01355  1.0000
  C   C3718     1.0  0.49085  0.98348  0.28482  1.0000
  C   C3719     1.0  0.48713  0.98064  0.30008  1.0000
  C   C3720     1.0  0.61362  0.98404  0.41430  1.0000
  C   C3721     1.0  0.49155  0.75346  0.98893  1.0000
  H   H6601     1.0  0.48741  0.88820  0.24948  1.0000
  H   H6602     1.0  0.49699  0.98395  0.35056  1.0000
  Fe  Fe408     1.0  0.52783  0.83703  0.91427  1.0000
  S   S815      1.0  0.53108  0.85651  0.91502  1.0000
  H   H6603     1.0  0.50947  0.93023  0.67293  1.0000
  Fe  Fe409     1.0  0.55501  0.82930  0.89684  1.0000
  S   S816      1.0  0.56069  0.84819  0.89612  1.0000
  S   S817      1.0  0.56921  0.81327  0.88683  1.0000
  Fe  Fe410     1.0  0.55113  0.84474  0.91808  1.0000
  S   S818      1.0  0.56046  0.84635  0.93381  1.0000
  Fe  Fe411     1.0  0.54016  0.85823  0.89314  1.0000
  S   S819      1.0  0.53314  0.87661  0.87820  1.0000
  S   S820      1.0  0.54720  0.82505  0.91900  1.0000
  S   S821      1.0  0.53527  0.83956  0.89216  1.0000
  Fe  Fe412     1.0  0.56814  0.93561  0.78662  1.0000
  S   S822      1.0  0.57217  0.93840  0.80515  1.0000
  S   S823      1.0  0.58247  0.94061  0.76709  1.0000
  Fe  Fe413     1.0  0.54268  0.92735  0.80116  1.0000
  S   S824      1.0  0.54413  0.92974  0.82072  1.0000
  C   C3722     1.0  0.58766  0.82404  0.82034  1.0000
  Fe  Fe414     1.0  0.55079  0.94855  0.80944  1.0000
  H   H6604     1.0  0.56024  0.86951  0.84199  1.0000
  Fe  Fe415     1.0  0.56524  0.91937  0.81530  1.0000
  S   S825      1.0  0.57434  0.90419  0.83157  1.0000
  S   S826      1.0  0.54723  0.94726  0.79018  1.0000
  S   S827      1.0  0.56342  0.91550  0.79634  1.0000
  Fe  Fe416     1.0  0.54142  0.91770  0.58688  1.0000
  S   S828      1.0  0.54487  0.93177  0.59686  1.0000
  N   N207      1.0  0.56960  0.97674  0.62697  1.0000
  Fe  Fe417     1.0  0.56788  0.91767  0.56683  1.0000
  S   S829      1.0  0.57337  0.93172  0.57534  1.0000
  S   S830      1.0  0.58247  0.90790  0.55082  1.0000
  Fe  Fe418     1.0  0.56551  0.91946  0.59529  1.0000
  S   S831      1.0  0.57696  0.91174  0.61165  1.0000
  Fe  Fe419     1.0  0.55229  0.94281  0.57609  1.0000
  C   C3723     1.0  0.53078  0.84720  0.85895  1.0000
  S   S832      1.0  0.56160  0.90445  0.58677  1.0000
  S   S833      1.0  0.54727  0.92962  0.56604  1.0000
  Fe  Fe420     1.0  0.63243  0.93533  0.48847  1.0000
  S   S834      1.0  0.64827  0.94386  0.49023  1.0000
  S   S835      1.0  0.61264  0.94413  0.50057  1.0000
  H   H6605     1.0  0.51173  0.93832  0.76175  1.0000
  H   H6606     1.0  0.53418  0.92012  0.65667  1.0000
  H   H6607     1.0  0.56490  0.91028  0.87017  1.0000
  S   S836      1.0  0.67342  0.91856  0.50695  1.0000
  H   H6608     1.0  0.51328  0.87282  0.93502  1.0000
  H   H6609     1.0  0.57008  0.86001  0.81555  1.0000
  S   S837      1.0  0.64481  0.91447  0.49137  1.0000
  C   C3724     1.0  0.53165  0.93875  0.75110  1.0000
  H   H6610     1.0  0.59367  0.83106  0.81329  1.0000
  H   H6611     1.0  0.50672  0.97233  0.66186  1.0000
  C   C3725     1.0  0.57289  0.95739  0.59955  1.0000
  C   C3726     1.0  0.55494  0.76871  0.92517  1.0000
  H   H6612     1.0  0.60819  0.94056  0.69681  1.0000
  Fe  Fe421     1.0  0.56328  0.93240  0.70413  1.0000
  C   C3727     1.0  0.55253  0.90558  0.88964  1.0000
  S   S838      1.0  0.58103  0.93379  0.71041  1.0000
  Fe  Fe422     1.0  0.55466  0.93734  0.67771  1.0000
  H   H6613     1.0  0.64839  0.87761  0.57873  1.0000
  S   S839      1.0  0.55833  0.94565  0.65562  1.0000
  H   H6614     1.0  0.52243  0.85335  0.86488  1.0000
  C   C3728     1.0  0.57719  0.76399  0.96927  1.0000
  H   H6615     1.0  0.59210  0.95316  0.68286  1.0000
  C   C3729     1.0  0.70678  0.96790  0.49476  1.0000
  S   S840      1.0  0.55550  0.95068  0.68995  1.0000
  S   S841      1.0  0.56456  0.91912  0.69059  1.0000
  C   C3730     1.0  0.53852  0.74215  0.96227  1.0000
  H   H6616     1.0  0.53274  0.84553  0.94358  1.0000
  S   S842      1.0  0.54416  0.77152  0.87562  1.0000
  H   H6617     1.0  0.69014  0.90659  0.48491  1.0000
  C   C3731     1.0  0.60332  0.95829  0.54761  1.0000
  C   C3732     1.0  0.57537  0.83156  0.82861  1.0000
  H   H6618     1.0  0.54674  0.79627  0.97497  1.0000
  H   H6619     1.0  0.61556  0.94203  0.67931  1.0000
  H   H6620     1.0  0.53859  0.86417  0.68834  1.0000
  H   H6621     1.0  0.70297  0.93849  0.48348  1.0000
  C   C3733     1.0  0.54319  0.85276  0.85576  1.0000
  C   C3734     1.0  0.55284  0.95763  0.86664  1.0000
  H   H6622     1.0  0.60077  0.96840  0.69808  1.0000
  C   C3735     1.0  0.57526  0.97235  0.63942  1.0000
  C   C3736     1.0  0.49880  0.86651  0.88694  1.0000
  H   H6623     1.0  0.57452  0.94715  0.60582  1.0000
  Fe  Fe423     1.0  0.54377  0.91797  0.70205  1.0000
  H   H6624     1.0  0.69461  0.92128  0.51654  1.0000
  H   H6625     1.0  0.49914  0.97189  0.72523  1.0000
  S   S843      1.0  0.53404  0.93533  0.68805  1.0000
  H   H6626     1.0  0.52128  0.92477  0.57038  1.0000
  C   C3737     1.0  0.56684  0.86225  0.83600  1.0000
  H   H6627     1.0  0.54469  0.85359  0.86530  1.0000
  C   C3738     1.0  0.55541  0.84359  0.84873  1.0000
  H   H6628     1.0  0.54854  0.97759  0.85413  1.0000
  H   H6629     1.0  0.51626  0.93333  0.74605  1.0000
  C   C3739     1.0  0.59141  0.91805  0.53744  1.0000
  C   C3740     1.0  0.60181  0.91213  0.52821  1.0000
  C   C3741     1.0  0.60873  0.92003  0.51711  1.0000
  C   C3742     1.0  0.60509  0.93391  0.51506  1.0000
  C   C3743     1.0  0.59487  0.93983  0.52445  1.0000
  C   C3744     1.0  0.58811  0.93193  0.53569  1.0000
  H   H6630     1.0  0.60433  0.90142  0.52944  1.0000
  H   H6631     1.0  0.61652  0.91540  0.50986  1.0000
  H   H6632     1.0  0.59203  0.95056  0.52292  1.0000
  H   H6633     1.0  0.58007  0.93656  0.54274  1.0000
  C   C3745     1.0  0.57094  0.92014  0.62482  1.0000
  C   C3746     1.0  0.57770  0.91680  0.63518  1.0000
  C   C3747     1.0  0.57341  0.92410  0.64527  1.0000
  C   C3748     1.0  0.56233  0.93465  0.64500  1.0000
  C   C3749     1.0  0.55549  0.93779  0.63481  1.0000
  C   C3750     1.0  0.55971  0.93048  0.62484  1.0000
  H   H6634     1.0  0.58645  0.90884  0.63519  1.0000
  H   H6635     1.0  0.57897  0.92196  0.65290  1.0000
  H   H6636     1.0  0.54724  0.94626  0.63427  1.0000
  H   H6637     1.0  0.55461  0.93333  0.61684  1.0000
  H   H6638     1.0  0.56940  0.83863  0.82165  1.0000
  H   H6639     1.0  0.50227  0.95749  0.66166  1.0000
  H   H6640     1.0  0.48911  0.88715  0.88394  1.0000
  H   H6641     1.0  0.49970  0.97054  0.84474  1.0000
  C   C3751     1.0  0.69073  0.91447  0.50115  1.0000
  H   H6642     1.0  0.57012  0.89187  0.68471  1.0000
  C   C3752     1.0  0.71278  0.91309  0.50392  1.0000
  C   C3753     1.0  0.58096  0.93892  0.75165  1.0000
  C   C3754     1.0  0.59158  0.94068  0.74077  1.0000
  C   C3755     1.0  0.59131  0.93911  0.72830  1.0000
  C   C3756     1.0  0.58031  0.93601  0.72640  1.0000
  C   C3757     1.0  0.56943  0.93454  0.73718  1.0000
  C   C3758     1.0  0.56977  0.93593  0.74987  1.0000
  H   H6643     1.0  0.60024  0.94295  0.74207  1.0000
  H   H6644     1.0  0.59980  0.94014  0.72014  1.0000
  H   H6645     1.0  0.56098  0.93197  0.73581  1.0000
  H   H6646     1.0  0.56151  0.93455  0.75825  1.0000
  H   H6647     1.0  0.54219  0.85244  0.67789  1.0000
  H   H6648     1.0  0.55314  0.86062  0.82474  1.0000
  H   H6649     1.0  0.56951  0.82414  0.83510  1.0000
  H   H6650     1.0  0.52879  0.76776  0.94380  1.0000
  C   C3759     1.0  0.54966  0.84709  0.94949  1.0000
  C   C3760     1.0  0.55438  0.84813  0.96005  1.0000
  H   H6651     1.0  0.56466  0.84839  0.95853  1.0000
  C   C3761     1.0  0.54501  0.88360  0.86526  1.0000
  C   C3762     1.0  0.55803  0.88165  0.86644  1.0000
  C   C3763     1.0  0.56709  0.88785  0.85598  1.0000
  C   C3764     1.0  0.56313  0.89598  0.84435  1.0000
  C   C3765     1.0  0.55020  0.89760  0.84311  1.0000
  C   C3766     1.0  0.54115  0.89154  0.85357  1.0000
  H   H6652     1.0  0.56102  0.87563  0.87551  1.0000
  H   H6653     1.0  0.57711  0.88652  0.85699  1.0000
  H   H6654     1.0  0.54716  0.90340  0.83403  1.0000
  H   H6655     1.0  0.53112  0.89296  0.85260  1.0000
  C   C3767     1.0  0.56219  0.80174  0.88368  1.0000
  C   C3768     1.0  0.56907  0.78843  0.88458  1.0000
  C   C3769     1.0  0.56355  0.77901  0.88233  1.0000
  C   C3770     1.0  0.55144  0.78304  0.87847  1.0000
  C   C3771     1.0  0.54481  0.79648  0.87704  1.0000
  C   C3772     1.0  0.54999  0.80573  0.87999  1.0000
  H   H6656     1.0  0.57861  0.78534  0.88724  1.0000
  H   H6657     1.0  0.56879  0.76870  0.88333  1.0000
  H   H6658     1.0  0.53545  0.79966  0.87401  1.0000
  H   H6659     1.0  0.54469  0.81599  0.87911  1.0000
  H   H6660     1.0  0.66097  0.95400  0.52391  1.0000
  C   C3773     1.0  0.51526  0.91417  0.66214  1.0000
  C   C3774     1.0  0.59185  0.96278  0.77930  1.0000
  C   C3775     1.0  0.49764  0.86504  0.95044  1.0000
  C   C3776     1.0  0.57917  0.83862  0.83741  1.0000
  C   C3777     1.0  0.57202  0.84836  0.85711  1.0000
  C   C3778     1.0  0.58576  0.85152  0.85516  1.0000
  C   C3779     1.0  0.58892  0.85038  0.86856  1.0000
  H   H6661     1.0  0.58729  0.84367  0.83111  1.0000
  H   H6662     1.0  0.58377  0.83028  0.84483  1.0000
  H   H6663     1.0  0.57187  0.83852  0.86428  1.0000
  H   H6664     1.0  0.56470  0.85582  0.86240  1.0000
  H   H6665     1.0  0.58600  0.86184  0.84933  1.0000
  H   H6666     1.0  0.59384  0.84455  0.84991  1.0000
  H   H6667     1.0  0.59380  0.81650  0.82696  1.0000
  H   H6668     1.0  0.58856  0.84030  0.87503  1.0000
  H   H6669     1.0  0.59902  0.85207  0.86688  1.0000
  H   H6670     1.0  0.58182  0.85802  0.87375  1.0000
  C   C3780     1.0  0.49835  0.95079  0.59768  1.0000
  H   H6671     1.0  0.73115  0.96451  0.48852  1.0000
  H   H6672     1.0  0.55253  0.84226  0.84010  1.0000
  C   C3781     1.0  0.53668  0.86257  0.67926  1.0000
  H   H6673     1.0  0.51837  0.97865  0.56952  1.0000
  C   C3782     1.0  0.49996  0.96321  0.57345  1.0000
  H   H6674     1.0  0.55088  0.97964  0.77722  1.0000
  C   C3783     1.0  0.52001  0.96095  0.55582  1.0000
  H   H6675     1.0  0.51763  0.84729  0.96560  1.0000
  H   H6676     1.0  0.58564  0.76605  0.96084  1.0000
  C   C3784     1.0  0.50729  0.95722  0.58511  1.0000
  H   H6677     1.0  0.62888  0.92030  0.53312  1.0000
  C   C3785     1.0  0.50959  0.88421  0.70227  1.0000
  H   H6678     1.0  0.57094  0.81400  0.93112  1.0000
  C   C3786     1.0  0.62769  0.96937  0.50817  1.0000
  H   H6679     1.0  0.57751  0.97496  0.54792  1.0000
  C   C3787     1.0  0.54070  0.95539  0.53792  1.0000
  C   C3788     1.0  0.57302  0.78648  0.97524  1.0000
  H   H6680     1.0  0.48782  0.97874  0.82665  1.0000
  C   C3789     1.0  0.53446  0.73811  0.95297  1.0000
  H   H6681     1.0  0.58122  0.97713  0.75754  1.0000
  H   H6682     1.0  0.51767  0.95142  0.55587  1.0000
  H   H6683     1.0  0.52679  0.95826  0.56276  1.0000
  H   H6684     1.0  0.61284  0.95595  0.52777  1.0000
  C   C3790     1.0  0.64367  0.92940  0.53542  1.0000
  H   H6685     1.0  0.50493  0.77724  0.92984  1.0000
  H   H6686     1.0  0.51170  0.93556  0.65489  1.0000
  H   H6687     1.0  0.51612  0.94933  0.58251  1.0000
  H   H6688     1.0  0.51040  0.96502  0.58772  1.0000
  C   C3791     1.0  0.49752  0.97034  0.79628  1.0000
  C   C3792     1.0  0.49918  0.93022  0.80387  1.0000
  H   H6689     1.0  0.57408  0.90101  0.66768  1.0000
  H   H6690     1.0  0.49974  0.79461  0.90674  1.0000
  H   H6691     1.0  0.63273  0.89721  0.56844  1.0000
  C   C3793     1.0  0.71025  0.90447  0.48633  1.0000
  H   H6692     1.0  0.51586  0.81043  0.95720  1.0000
  H   H6693     1.0  0.50133  0.88516  0.94324  1.0000
  H   H6694     1.0  0.58409  0.94871  0.82216  1.0000
  C   C3794     1.0  0.54069  0.97394  0.58146  1.0000
  H   H6695     1.0  0.52248  0.96815  0.53387  1.0000
  Fe  Fe424     1.0  0.53559  0.94738  0.70138  1.0000
  H   H6696     1.0  0.53431  0.73923  0.85378  1.0000
  H   H6697     1.0  0.54591  0.95883  0.52746  1.0000
  H   H6698     1.0  0.54756  0.95381  0.54453  1.0000
  H   H6699     1.0  0.53814  0.94580  0.53871  1.0000
  H   H6700     1.0  0.55572  0.89469  0.89005  1.0000
  N   N208      1.0  0.53860  0.89871  0.65881  1.0000
  C   C3795     1.0  0.55247  0.89798  0.65985  1.0000
  C   C3796     1.0  0.53818  0.89973  0.64448  1.0000
  C   C3797     1.0  0.53299  0.88715  0.66808  1.0000
  C   C3798     1.0  0.54130  0.87300  0.66700  1.0000
  H   H6701     1.0  0.53782  0.79968  0.92659  1.0000
  C   C3799     1.0  0.55031  0.89192  0.63587  1.0000
  C   C3800     1.0  0.54762  0.89250  0.62238  1.0000
  H   H6702     1.0  0.55588  0.90703  0.65336  1.0000
  H   H6703     1.0  0.55962  0.88958  0.65590  1.0000
  H   H6704     1.0  0.52929  0.89659  0.64416  1.0000
  H   H6705     1.0  0.53715  0.91032  0.63881  1.0000
  H   H6706     1.0  0.50403  0.94603  0.60563  1.0000
  H   H6707     1.0  0.52314  0.88752  0.66649  1.0000
  H   H6708     1.0  0.60219  0.89334  0.59875  1.0000
  H   H6709     1.0  0.54012  0.87045  0.65808  1.0000
  C   C3801     1.0  0.64588  0.87808  0.56918  1.0000
  H   H6710     1.0  0.51007  0.90709  0.67020  1.0000
  H   H6711     1.0  0.51421  0.91324  0.65244  1.0000
  H   H6712     1.0  0.55898  0.89644  0.63378  1.0000
  H   H6713     1.0  0.55304  0.88133  0.64088  1.0000
  H   H6714     1.0  0.53926  0.88776  0.62374  1.0000
  H   H6715     1.0  0.54524  0.90300  0.61682  1.0000
  H   H6716     1.0  0.55655  0.88713  0.61628  1.0000
  H   H6717     1.0  0.58117  0.88113  0.61761  1.0000
  H   H6718     1.0  0.54197  0.90773  0.89488  1.0000
  H   H6719     1.0  0.55863  0.77475  0.92964  1.0000
  H   H6720     1.0  0.57647  0.86535  0.83277  1.0000
  H   H6721     1.0  0.62078  0.98122  0.49027  1.0000
  C   C3802     1.0  0.49817  0.93362  0.82918  1.0000
  C   C3803     1.0  0.49942  0.97509  0.54996  1.0000
  H   H6722     1.0  0.71103  0.96046  0.48837  1.0000
  H   H6723     1.0  0.50593  0.85658  0.90507  1.0000
  C   C3804     1.0  0.51448  0.90896  0.70081  1.0000
  H   H6724     1.0  0.49598  0.91449  0.64298  1.0000
  H   H6725     1.0  0.50879  0.75322  0.94115  1.0000
  H   H6726     1.0  0.54706  0.96277  0.75228  1.0000
  C   C3805     1.0  0.57781  0.97110  0.77912  1.0000
  C   C3806     1.0  0.49970  0.88399  0.85884  1.0000
  N   N209      1.0  0.60712  0.88829  0.57938  1.0000
  C   C3807     1.0  0.60523  0.90267  0.57197  1.0000
  C   C3808     1.0  0.60190  0.88067  0.57277  1.0000
  C   C3809     1.0  0.59866  0.88797  0.59335  1.0000
  C   C3810     1.0  0.62135  0.88196  0.58024  1.0000
  H   H6727     1.0  0.58756  0.95992  0.70369  1.0000
  S   S844      1.0  0.54327  0.92987  0.71665  1.0000
  C   C3811     1.0  0.59800  0.87398  0.60253  1.0000
  C   C3812     1.0  0.60924  0.87947  0.55831  1.0000
  C   C3813     1.0  0.60212  0.87274  0.55241  1.0000
  H   H6728     1.0  0.58258  0.95945  0.59345  1.0000
  H   H6729     1.0  0.72035  0.97651  0.55878  1.0000
  C   C3814     1.0  0.59140  0.87499  0.61699  1.0000
  H   H6730     1.0  0.59481  0.90656  0.57088  1.0000
  H   H6731     1.0  0.61113  0.90376  0.56155  1.0000
  H   H6732     1.0  0.60236  0.87021  0.57847  1.0000
  H   H6733     1.0  0.59123  0.88517  0.57278  1.0000
  H   H6734     1.0  0.58830  0.89341  0.59292  1.0000
  C   C3815     1.0  0.51314  0.89233  0.83577  1.0000
  H   H6735     1.0  0.67241  0.96527  0.53328  1.0000
  H   H6736     1.0  0.62311  0.87095  0.58160  1.0000
  C   C3816     1.0  0.53240  0.84921  0.97439  1.0000
  H   H6737     1.0  0.63041  0.88754  0.55851  1.0000
  S   S845      1.0  0.56748  0.73565  0.88905  1.0000
  H   H6738     1.0  0.55194  0.87205  0.66630  1.0000
  H   H6739     1.0  0.60803  0.86749  0.60239  1.0000
  H   H6740     1.0  0.59197  0.86910  0.59931  1.0000
  H   H6741     1.0  0.60992  0.88932  0.55158  1.0000
  H   H6742     1.0  0.61932  0.87315  0.55827  1.0000
  H   H6743     1.0  0.59194  0.87867  0.55201  1.0000
  H   H6744     1.0  0.60758  0.87203  0.54205  1.0000
  H   H6745     1.0  0.60160  0.86254  0.55846  1.0000
  S   S846      1.0  0.52285  0.91010  0.59740  1.0000
  H   H6746     1.0  0.49891  0.93391  0.71349  1.0000
  H   H6747     1.0  0.65347  0.88216  0.56078  1.0000
  H   H6748     1.0  0.50184  0.89216  0.86191  1.0000
  H   H6749     1.0  0.49704  0.95491  0.57141  1.0000
  H   H6750     1.0  0.63785  0.97281  0.48718  1.0000
  H   H6751     1.0  0.59711  0.87957  0.62099  1.0000
  C   C3817     1.0  0.50587  0.96267  0.83930  1.0000
  H   H6752     1.0  0.59091  0.86489  0.62333  1.0000
  H   H6753     1.0  0.49134  0.89280  0.63222  1.0000
  H   H6754     1.0  0.55862  0.90827  0.89490  1.0000
  C   C3818     1.0  0.56701  0.76185  0.91612  1.0000
  H   H6755     1.0  0.55673  0.83351  0.85554  1.0000
  H   H6756     1.0  0.50375  0.85479  0.95109  1.0000
  H   H6757     1.0  0.61908  0.97489  0.51448  1.0000
  H   H6758     1.0  0.56673  0.88440  0.81542  1.0000
  H   H6759     1.0  0.53237  0.83680  0.86493  1.0000
  C   C3819     1.0  0.52827  0.96590  0.54164  1.0000
  H   H6760     1.0  0.49889  0.78991  0.96742  1.0000
  H   H6761     1.0  0.52713  0.80040  0.90973  1.0000
  C   C3820     1.0  0.55432  0.91320  0.87507  1.0000
  H   H6762     1.0  0.49873  0.85694  0.88493  1.0000
  C   C3821     1.0  0.52261  0.79181  0.91585  1.0000
  N   N210      1.0  0.56824  0.84828  0.84452  1.0000
  C   C3822     1.0  0.53641  0.84663  0.95155  1.0000
  S   S847      1.0  0.54060  0.96567  0.81974  1.0000
  C   C3823     1.0  0.50958  0.77393  0.93855  1.0000
  H   H6763     1.0  0.71905  0.91477  0.50933  1.0000
  H   H6764     1.0  0.55618  0.88101  0.80690  1.0000
  N   N211      1.0  0.53100  0.78295  0.92548  1.0000
  C   C3824     1.0  0.51148  0.92372  0.57597  1.0000
  H   H6765     1.0  0.58408  0.96320  0.61544  1.0000
  C   C3825     1.0  0.54434  0.77758  0.91724  1.0000
  C   C3826     1.0  0.52500  0.77142  0.93444  1.0000
  H   H6766     1.0  0.55649  0.97699  0.67022  1.0000
  C   C3827     1.0  0.52047  0.78481  0.90592  1.0000
  Fe  Fe425     1.0  0.54817  0.75023  0.88740  1.0000
  H   H6767     1.0  0.54117  0.86291  0.84938  1.0000
  C   C3828     1.0  0.50915  0.79299  0.89919  1.0000
  H   H6768     1.0  0.53265  0.80075  0.95570  1.0000
  H   H6769     1.0  0.52823  0.81484  0.94259  1.0000
  H   H6770     1.0  0.54950  0.88449  0.82328  1.0000
  H   H6771     1.0  0.51145  0.80268  0.89325  1.0000
  H   H6772     1.0  0.54864  0.78591  0.91010  1.0000
  H   H6773     1.0  0.54329  0.77144  0.91093  1.0000
  H   H6774     1.0  0.52831  0.76275  0.92959  1.0000
  H   H6775     1.0  0.57178  0.73527  0.94967  1.0000
  H   H6776     1.0  0.57124  0.96440  0.78009  1.0000
  H   H6777     1.0  0.60228  0.95083  0.65181  1.0000
  H   H6778     1.0  0.52945  0.78354  0.89797  1.0000
  H   H6779     1.0  0.51860  0.77470  0.91068  1.0000
  H   H6780     1.0  0.52807  0.84740  0.84959  1.0000
  H   H6781     1.0  0.61885  0.95222  0.68836  1.0000
  H   H6782     1.0  0.58464  0.81879  0.81445  1.0000
  C   C3829     1.0  0.56202  0.86466  0.82301  1.0000
  H   H6783     1.0  0.56765  0.96976  0.81067  1.0000
  H   H6784     1.0  0.50791  0.78762  0.89229  1.0000
  C   C3830     1.0  0.55842  0.87955  0.81682  1.0000
  H   H6785     1.0  0.56656  0.95788  0.59274  1.0000
  H   H6786     1.0  0.58820  0.80199  0.95191  1.0000
  H   H6787     1.0  0.56414  0.75581  0.91090  1.0000
  H   H6788     1.0  0.49081  0.96323  0.80037  1.0000
  H   H6789     1.0  0.49233  0.93720  0.62927  1.0000
  C   C3831     1.0  0.57684  0.98221  0.56497  1.0000
  C   C3832     1.0  0.59260  0.96657  0.69488  1.0000
  H   H6790     1.0  0.60006  0.97415  0.50201  1.0000
  H   H6791     1.0  0.49430  0.96476  0.76332  1.0000
  H   H6792     1.0  0.52176  0.78252  0.97273  1.0000
  C   C3833     1.0  0.59919  0.95842  0.68387  1.0000
  H   H6793     1.0  0.50398  0.85977  0.67446  1.0000
  H   H6794     1.0  0.59616  0.95865  0.77019  1.0000
  C   C3834     1.0  0.55200  0.74091  0.96122  1.0000
  H   H6795     1.0  0.49541  0.86015  0.86411  1.0000
  C   C3835     1.0  0.61119  0.94769  0.68735  1.0000
  H   H6796     1.0  0.49200  0.89655  0.84109  1.0000
  H   H6797     1.0  0.49163  0.87004  0.65647  1.0000
  C   C3836     1.0  0.56137  0.97807  0.81484  1.0000
  H   H6798     1.0  0.56356  0.78164  0.96179  1.0000
  H   H6799     1.0  0.54052  0.78541  0.93976  1.0000
  N   N212      1.0  0.56557  0.80085  0.97327  1.0000
  C   C3837     1.0  0.69895  0.91674  0.50800  1.0000
  Fe  Fe426     1.0  0.66121  0.92354  0.49149  1.0000
  H   H6800     1.0  0.50538  0.78162  0.94450  1.0000
  C   C3838     1.0  0.57999  0.81240  0.93486  1.0000
  H   H6801     1.0  0.64618  0.86786  0.56842  1.0000
  C   C3839     1.0  0.60811  0.91235  0.57869  1.0000
  C   C3840     1.0  0.63223  0.88704  0.56834  1.0000
  H   H6802     1.0  0.54837  0.90979  0.87029  1.0000
  H   H6803     1.0  0.49072  0.96339  0.82204  1.0000
  H   H6804     1.0  0.51278  0.79650  0.92123  1.0000
  C   C3841     1.0  0.53335  0.79135  0.93347  1.0000
  H   H6805     1.0  0.53161  0.97496  0.54109  1.0000
  H   H6806     1.0  0.59201  0.79879  0.97559  1.0000
  H   H6807     1.0  0.64912  0.97655  0.53093  1.0000
  H   H6808     1.0  0.62344  0.88341  0.58932  1.0000
  C   C3842     1.0  0.49470  0.97250  0.81970  1.0000
  H   H6809     1.0  0.54326  0.82173  0.97130  1.0000
  C   C3843     1.0  0.50312  0.82928  0.90356  1.0000
  C   C3844     1.0  0.58547  0.80883  0.97534  1.0000
  C   C3845     1.0  0.56711  0.77691  0.97118  1.0000
  H   H6810     1.0  0.59377  0.98003  0.60719  1.0000
  S   S848      1.0  0.52653  0.74904  0.97484  1.0000
  H   H6811     1.0  0.63391  0.94166  0.51934  1.0000
  C   C3846     1.0  0.53000  0.91134  0.66288  1.0000
  C   C3847     1.0  0.49911  0.94619  0.72646  1.0000
  S   S849      1.0  0.66888  0.98339  0.50705  1.0000
  H   H6812     1.0  0.49397  0.76319  0.94912  1.0000
  H   H6813     1.0  0.49526  0.86759  0.97058  1.0000
  H   H6814     1.0  0.52595  0.86310  0.68086  1.0000
  H   H6815     1.0  0.49953  0.92888  0.79409  1.0000
  H   H6816     1.0  0.58436  0.96958  0.50540  1.0000
  C   C3848     1.0  0.65189  0.95488  0.53210  1.0000
  C   C3849     1.0  0.51390  0.95551  0.78152  1.0000
  H   H6817     1.0  0.51499  0.96050  0.81910  1.0000
  S   S850      1.0  0.53857  0.89786  0.70780  1.0000
  C   C3850     1.0  0.57352  0.98438  0.55143  1.0000
  C   C3851     1.0  0.56137  0.73593  0.95068  1.0000
  H   H6818     1.0  0.56496  0.95507  0.83957  1.0000
  H   H6819     1.0  0.59935  0.91526  0.58658  1.0000
  C   C3852     1.0  0.48798  0.92749  0.57683  1.0000
  S   S851      1.0  0.50910  0.83076  0.92648  1.0000
  H   H6820     1.0  0.53090  0.88807  0.67861  1.0000
  C   C3853     1.0  0.49497  0.93466  0.72410  1.0000
  H   H6821     1.0  0.58566  0.95586  0.66102  1.0000
  C   C3854     1.0  0.50701  0.87467  0.94479  1.0000
  H   H6822     1.0  0.59169  0.95436  0.78816  1.0000
  C   C3855     1.0  0.69641  0.90852  0.49016  1.0000
  C   C3856     1.0  0.63996  0.96576  0.51433  1.0000
  C   C3857     1.0  0.52111  0.88492  0.70546  1.0000
  H   H6823     1.0  0.58128  0.82214  0.93544  1.0000
  H   H6824     1.0  0.58864  0.80817  0.92761  1.0000
  H   H6825     1.0  0.51291  0.80294  0.93872  1.0000
  C   C3858     1.0  0.49747  0.86439  0.90197  1.0000
  C   C3859     1.0  0.50806  0.92823  0.66381  1.0000
  H   H6826     1.0  0.51818  0.78897  0.95148  1.0000
  C   C3860     1.0  0.56756  0.94456  0.83860  1.0000
  H   H6827     1.0  0.49529  0.97606  0.78640  1.0000
  H   H6828     1.0  0.49758  0.87370  0.90458  1.0000
  H   H6829     1.0  0.50627  0.77243  0.86265  1.0000
  H   H6830     1.0  0.65382  0.94597  0.54020  1.0000
  C   C3861     1.0  0.52129  0.79723  0.94346  1.0000
  C   C3862     1.0  0.48908  0.82112  0.92460  1.0000
  H   H6831     1.0  0.49589  0.84520  0.98117  1.0000
  C   C3863     1.0  0.54505  0.97584  0.72197  1.0000
  H   H6832     1.0  0.52987  0.91116  0.67339  1.0000
  C   C3864     1.0  0.66395  0.96570  0.54205  1.0000
  H   H6833     1.0  0.49532  0.91004  0.60675  1.0000
  H   H6834     1.0  0.70180  0.96699  0.51640  1.0000
  S   S852      1.0  0.52582  0.92078  0.79839  1.0000
  H   H6835     1.0  0.51904  0.92500  0.82529  1.0000
  S   S853      1.0  0.54798  0.96516  0.56864  1.0000
  H   H6836     1.0  0.51403  0.90108  0.83884  1.0000
  H   H6837     1.0  0.51263  0.97677  0.82224  1.0000
  C   C3865     1.0  0.57911  0.80291  0.94857  1.0000
  C   C3866     1.0  0.50493  0.76128  0.94681  1.0000
  H   H6838     1.0  0.51137  0.83370  0.89804  1.0000
  C   C3867     1.0  0.50799  0.96822  0.82421  1.0000
  C   C3868     1.0  0.58804  0.96117  0.63941  1.0000
  C   C3869     1.0  0.63958  0.91776  0.53317  1.0000
  H   H6839     1.0  0.53479  0.95256  0.86727  1.0000
  C   C3870     1.0  0.71847  0.90672  0.49323  1.0000
  C   C3871     1.0  0.49680  0.91531  0.59643  1.0000
  N   N213      1.0  0.63998  0.95514  0.52713  1.0000
  C   C3872     1.0  0.58224  0.94152  0.83189  1.0000
  H   H6840     1.0  0.50398  0.77243  0.97374  1.0000
  H   H6841     1.0  0.51621  0.91852  0.70037  1.0000
  H   H6842     1.0  0.51437  0.96194  0.74825  1.0000
  C   C3873     1.0  0.55686  0.97505  0.75761  1.0000
  C   C3874     1.0  0.50955  0.91684  0.58933  1.0000
  H   H6843     1.0  0.66325  0.97454  0.54591  1.0000
  C   C3875     1.0  0.51148  0.95508  0.74400  1.0000
  C   C3876     1.0  0.48724  0.93602  0.81146  1.0000
  H   H6844     1.0  0.51450  0.75821  0.87330  1.0000
  H   H6845     1.0  0.72980  0.97641  0.49757  1.0000
  C   C3877     1.0  0.54577  0.84915  0.97251  1.0000
  H   H6846     1.0  0.50095  0.96691  0.54475  1.0000
  H   H6847     1.0  0.52179  0.88403  0.83743  1.0000
  H   H6848     1.0  0.57148  0.93521  0.85835  1.0000
  C   C3878     1.0  0.55442  0.89659  0.67407  1.0000
  H   H6849     1.0  0.55301  0.97694  0.86936  1.0000
  H   H6850     1.0  0.55855  0.77421  0.97920  1.0000
  H   H6851     1.0  0.50230  0.93409  0.55931  1.0000
  H   H6852     1.0  0.57404  0.88345  0.67126  1.0000
  H   H6853     1.0  0.66588  0.95660  0.54997  1.0000
  C   C3879     1.0  0.49071  0.87579  0.66397  1.0000
  H   H6854     1.0  0.55687  0.93094  0.87880  1.0000
  H   H6855     1.0  0.52422  0.96964  0.61405  1.0000
  H   H6856     1.0  0.51443  0.96338  0.77219  1.0000
  H   H6857     1.0  0.54015  0.93087  0.88055  1.0000
  C   C3880     1.0  0.50040  0.89588  0.69853  1.0000
  C   C3881     1.0  0.48936  0.97926  0.61931  1.0000
  H   H6858     1.0  0.62529  0.96038  0.50720  1.0000
  C   C3882     1.0  0.50801  0.96512  0.65567  1.0000
  S   S854      1.0  0.53965  0.74613  0.90942  1.0000
  C   C3883     1.0  0.70379  0.94751  0.51350  1.0000
  H   H6859     1.0  0.56496  0.81871  0.95742  1.0000
  C   C3884     1.0  0.55015  0.92850  0.87404  1.0000
  H   H6860     1.0  0.56571  0.97767  0.60149  1.0000
  H   H6861     1.0  0.57128  0.97804  0.71118  1.0000
  C   C3885     1.0  0.57328  0.96560  0.61960  1.0000
  H   H6862     1.0  0.58093  0.75894  0.97853  1.0000
  C   C3886     1.0  0.64201  0.94183  0.52378  1.0000
  H   H6863     1.0  0.58598  0.95157  0.63940  1.0000
  C   C3887     1.0  0.52478  0.80633  0.95013  1.0000
  H   H6864     1.0  0.49734  0.92945  0.66466  1.0000
  H   H6865     1.0  0.54997  0.88860  0.68147  1.0000
  C   C3888     1.0  0.58909  0.97797  0.72283  1.0000
  H   H6866     1.0  0.58836  0.94247  0.83824  1.0000
  H   H6867     1.0  0.55205  0.95324  0.87749  1.0000
  H   H6868     1.0  0.61208  0.93213  0.57382  1.0000
  C   C3889     1.0  0.56909  0.89303  0.67436  1.0000
  H   H6869     1.0  0.65425  0.92607  0.53603  1.0000
  H   H6870     1.0  0.59481  0.95440  0.54757  1.0000
  H   H6871     1.0  0.53680  0.97489  0.86998  1.0000
  H   H6872     1.0  0.62447  0.96910  0.53703  1.0000
  H   H6873     1.0  0.52812  0.87587  0.70850  1.0000
  C   C3890     1.0  0.50074  0.92895  0.56971  1.0000
  H   H6874     1.0  0.56794  0.96857  0.64835  1.0000
  H   H6875     1.0  0.70978  0.94084  0.50666  1.0000
  H   H6876     1.0  0.53566  0.92819  0.75557  1.0000
  H   H6877     1.0  0.49592  0.91733  0.69475  1.0000
  H   H6878     1.0  0.57103  0.95635  0.62676  1.0000
  C   C3891     1.0  0.62996  0.97826  0.49413  1.0000
  H   H6879     1.0  0.61664  0.90771  0.58354  1.0000
  H   H6880     1.0  0.53766  0.97953  0.75251  1.0000
  H   H6881     1.0  0.64879  0.96275  0.50657  1.0000
  H   H6882     1.0  0.53743  0.94129  0.74073  1.0000
  H   H6883     1.0  0.53338  0.95761  0.59576  1.0000
  H   H6884     1.0  0.60262  0.92987  0.56340  1.0000
  H   H6885     1.0  0.53290  0.94515  0.75703  1.0000
  H   H6886     1.0  0.52468  0.95075  0.64699  1.0000
  H   H6887     1.0  0.63789  0.93156  0.54520  1.0000
  C   C3892     1.0  0.48729  0.91792  0.63833  1.0000
  C   C3893     1.0  0.61091  0.92505  0.56860  1.0000
  C   C3894     1.0  0.61546  0.95298  0.53761  1.0000
  C   C3895     1.0  0.51075  0.92661  0.80868  1.0000
  H   H6888     1.0  0.52788  0.92471  0.87034  1.0000
  H   H6889     1.0  0.52567  0.95326  0.66265  1.0000
  N   N214      1.0  0.50746  0.97059  0.56062  1.0000
  C   C3896     1.0  0.52365  0.89730  0.70458  1.0000
  C   C3897     1.0  0.72885  0.98131  0.55357  1.0000
  C   C3898     1.0  0.53437  0.96768  0.59401  1.0000
  H   H6890     1.0  0.54994  0.90611  0.67741  1.0000
  C   C3899     1.0  0.57767  0.98211  0.76616  1.0000
  H   H6891     1.0  0.59832  0.96895  0.77987  1.0000
  C   C3900     1.0  0.51023  0.92824  0.82137  1.0000
  H   H6892     1.0  0.67748  0.95833  0.49896  1.0000
  H   H6893     1.0  0.54256  0.95798  0.71841  1.0000
  C   C3901     1.0  0.50352  0.97203  0.64232  1.0000
  C   C3902     1.0  0.50287  0.90826  0.69781  1.0000
  C   C3903     1.0  0.54494  0.95134  0.86087  1.0000
  H   H6894     1.0  0.50585  0.95050  0.78252  1.0000
  C   C3904     1.0  0.52267  0.95828  0.65303  1.0000
  H   H6895     1.0  0.51091  0.77441  0.87689  1.0000
  C   C3905     1.0  0.49995  0.82673  0.91754  1.0000
  H   H6896     1.0  0.50094  0.95416  0.84232  1.0000
  H   H6897     1.0  0.60084  0.96933  0.54479  1.0000
  H   H6898     1.0  0.55109  0.97098  0.63718  1.0000
  H   H6899     1.0  0.60517  0.95514  0.55787  1.0000
  C   C3906     1.0  0.52782  0.84771  0.96397  1.0000
  C   C3907     1.0  0.52085  0.92800  0.85267  1.0000
  H   H6900     1.0  0.57244  0.75715  0.96703  1.0000
  C   C3908     1.0  0.51254  0.78447  0.98041  1.0000
  H   H6901     1.0  0.49472  0.94301  0.59560  1.0000
  H   H6902     1.0  0.60253  0.96490  0.67408  1.0000
  H   H6903     1.0  0.51023  0.97880  0.63630  1.0000
  C   C3909     1.0  0.52894  0.97460  0.60432  1.0000
  H   H6904     1.0  0.54367  0.95764  0.85085  1.0000
  S   S855      1.0  0.52114  0.96630  0.70472  1.0000
  H   H6905     1.0  0.51210  0.87165  0.66156  1.0000
  H   H6906     1.0  0.55314  0.97064  0.72690  1.0000
  C   C3910     1.0  0.56633  0.80774  0.95869  1.0000
  C   C3911     1.0  0.54240  0.93306  0.85299  1.0000
  H   H6907     1.0  0.56180  0.94368  0.83191  1.0000
  H   H6908     1.0  0.50832  0.87557  0.86024  1.0000
  C   C3912     1.0  0.51705  0.94068  0.75118  1.0000
  C   C3913     1.0  0.54797  0.97820  0.82029  1.0000
  H   H6909     1.0  0.59599  0.96354  0.63057  1.0000
  H   H6910     1.0  0.59532  0.98122  0.72748  1.0000
  H   H6911     1.0  0.65119  0.94020  0.51591  1.0000
  H   H6912     1.0  0.62015  0.92267  0.56108  1.0000
  N   N215      1.0  0.55056  0.93694  0.86008  1.0000
  C   C3914     1.0  0.51164  0.96152  0.79360  1.0000
  H   H6913     1.0  0.52226  0.94196  0.86288  1.0000
  C   C3915     1.0  0.65105  0.96689  0.53805  1.0000
  C   C3916     1.0  0.49349  0.97217  0.73560  1.0000
  H   H6914     1.0  0.56346  0.95608  0.86163  1.0000
  C   C3917     1.0  0.56473  0.93482  0.85233  1.0000
  H   H6915     1.0  0.56810  0.92461  0.85029  1.0000
  C   C3918     1.0  0.52804  0.93218  0.86074  1.0000
  H   H6916     1.0  0.64095  0.97528  0.51564  1.0000
  H   H6917     1.0  0.54158  0.94040  0.84339  1.0000
  H   H6918     1.0  0.49141  0.86695  0.94313  1.0000
  H   H6919     1.0  0.49844  0.89243  0.65065  1.0000
  H   H6920     1.0  0.55800  0.80671  0.95510  1.0000
  H   H6921     1.0  0.54940  0.85021  0.98054  1.0000
  H   H6922     1.0  0.54743  0.92337  0.85007  1.0000
  H   H6923     1.0  0.69599  0.97069  0.49526  1.0000
  C   C3919     1.0  0.67277  0.96570  0.49149  1.0000
  H   H6924     1.0  0.56400  0.96591  0.76108  1.0000
  H   H6925     1.0  0.52055  0.93518  0.84295  1.0000
  H   H6926     1.0  0.64538  0.91524  0.52347  1.0000
  H   H6927     1.0  0.49085  0.75839  0.87798  1.0000
  H   H6928     1.0  0.51700  0.95653  0.73343  1.0000
  H   H6929     1.0  0.57641  0.97061  0.67890  1.0000
  H   H6930     1.0  0.52591  0.91796  0.85077  1.0000
  H   H6931     1.0  0.49306  0.81636  0.97763  1.0000
  H   H6932     1.0  0.49748  0.82893  0.88582  1.0000
  H   H6933     1.0  0.51055  0.92769  0.85829  1.0000
  H   H6934     1.0  0.62961  0.95368  0.54782  1.0000
  C   C3920     1.0  0.56609  0.96766  0.60819  1.0000
  H   H6935     1.0  0.59567  0.96814  0.65248  1.0000
  C   C3921     1.0  0.62757  0.95814  0.53765  1.0000
  H   H6936     1.0  0.53899  0.96746  0.76801  1.0000
  H   H6937     1.0  0.73430  0.97474  0.52107  1.0000
  H   H6938     1.0  0.50569  0.96414  0.63663  1.0000
  C   C3922     1.0  0.57221  0.97642  0.68680  1.0000
  C   C3923     1.0  0.66760  0.97882  0.49305  1.0000
  H   H6939     1.0  0.49494  0.83991  0.96736  1.0000
  N   N216      1.0  0.49477  0.97983  0.80534  1.0000
  H   H6940     1.0  0.58532  0.93128  0.83002  1.0000
  H   H6941     1.0  0.51361  0.87321  0.95165  1.0000
  H   H6942     1.0  0.49767  0.93447  0.83915  1.0000
  H   H6943     1.0  0.49048  0.96962  0.57745  1.0000
  C   C3924     1.0  0.70816  0.96076  0.50927  1.0000
  H   H6944     1.0  0.51958  0.96698  0.79134  1.0000
  H   H6945     1.0  0.52883  0.96566  0.64752  1.0000
  H   H6946     1.0  0.71848  0.95871  0.51031  1.0000
  H   H6947     1.0  0.57331  0.97337  0.57177  1.0000
  H   H6948     1.0  0.50770  0.87463  0.70293  1.0000
  H   H6949     1.0  0.51003  0.94365  0.72486  1.0000
  H   H6950     1.0  0.57920  0.79298  0.94721  1.0000
  H   H6951     1.0  0.49617  0.95515  0.71875  1.0000
  H   H6952     1.0  0.55577  0.96636  0.61255  1.0000
  H   H6953     1.0  0.57213  0.76932  0.90861  1.0000
  H   H6954     1.0  0.69317  0.94916  0.51346  1.0000
  H   H6955     1.0  0.51292  0.95326  0.80240  1.0000
  C   C3925     1.0  0.50714  0.76782  0.87315  1.0000
  H   H6956     1.0  0.61736  0.94197  0.54047  1.0000
  H   H6957     1.0  0.64151  0.90885  0.54128  1.0000
  C   C3926     1.0  0.59321  0.95892  0.65196  1.0000
  H   H6958     1.0  0.57408  0.75510  0.92221  1.0000
  H   H6959     1.0  0.64300  0.96731  0.54715  1.0000
  H   H6960     1.0  0.70521  0.94248  0.52376  1.0000
  N   N217      1.0  0.49677  0.95878  0.74483  1.0000
  H   H6961     1.0  0.52338  0.94800  0.78067  1.0000
  H   H6962     1.0  0.50859  0.86888  0.88189  1.0000
  H   H6963     1.0  0.50824  0.75800  0.95637  1.0000
  H   H6964     1.0  0.50266  0.87592  0.67732  1.0000
  H   H6965     1.0  0.55085  0.76091  0.93325  1.0000
  C   C3927     1.0  0.53903  0.96864  0.71722  1.0000
  N   N218      1.0  0.48925  0.97937  0.64355  1.0000
  C   C3928     1.0  0.49524  0.82659  0.89663  1.0000
  C   C3929     1.0  0.54742  0.97267  0.86492  1.0000
  H   H6966     1.0  0.57958  0.97714  0.73007  1.0000
  H   H6967     1.0  0.49980  0.97381  0.61699  1.0000
  C   C3930     1.0  0.52846  0.97522  0.71098  1.0000
  C   C3931     1.0  0.48891  0.89093  0.65768  1.0000
  H   H6968     1.0  0.51472  0.98312  0.80046  1.0000
  C   C3932     1.0  0.55470  0.98017  0.63134  1.0000
  H   H6969     1.0  0.59420  0.96798  0.72084  1.0000
  C   C3933     1.0  0.54434  0.97097  0.75767  1.0000
  H   H6970     1.0  0.49894  0.92510  0.73056  1.0000
  H   H6971     1.0  0.51559  0.95931  0.84218  1.0000
  H   H6972     1.0  0.49537  0.76040  0.89217  1.0000
  H   H6973     1.0  0.58353  0.78552  0.96994  1.0000
  C   C3934     1.0  0.58980  0.97769  0.50042  1.0000
  H   H6974     1.0  0.58724  0.81505  0.96505  1.0000
  H   H6975     1.0  0.54512  0.97957  0.68582  1.0000
  H   H6976     1.0  0.50728  0.98296  0.73735  1.0000
  H   H6977     1.0  0.56660  0.97002  0.69539  1.0000
  H   H6978     1.0  0.57712  0.98104  0.64183  1.0000
  C   C3935     1.0  0.50315  0.87051  0.66965  1.0000
  C   C3936     1.0  0.49230  0.94871  0.74066  1.0000
  H   H6979     1.0  0.59029  0.97986  0.48952  1.0000
  H   H6980     1.0  0.53565  0.98096  0.65622  1.0000
  H   H6981     1.0  0.57917  0.97880  0.52609  1.0000
  N   N219      1.0  0.58304  0.97956  0.69105  1.0000
  H   H6982     1.0  0.48793  0.89616  0.66570  1.0000
  H   H6983     1.0  0.51326  0.89524  0.82491  1.0000
  H   H6984     1.0  0.57459  0.97545  0.78802  1.0000
  H   H6985     1.0  0.55519  0.74416  0.96828  1.0000
  C   C3937     1.0  0.72766  0.97536  0.48835  1.0000
  C   C3938     1.0  0.48977  0.95916  0.75913  1.0000
  H   H6986     1.0  0.49962  0.87959  0.83991  1.0000
  H   H6987     1.0  0.49105  0.94891  0.76554  1.0000
  C   C3939     1.0  0.55126  0.80092  0.98018  1.0000
  C   C3940     1.0  0.50090  0.78222  0.97646  1.0000
  H   H6988     1.0  0.52414  0.73840  0.95409  1.0000
  N   N220      1.0  0.71295  0.97988  0.48865  1.0000
  C   C3941     1.0  0.49381  0.76536  0.88196  1.0000
  H   H6989     1.0  0.48970  0.95835  0.60136  1.0000
  H   H6990     1.0  0.49023  0.91506  0.62855  1.0000
  S   S856      1.0  0.53892  0.73559  0.88370  1.0000
  H   H6991     1.0  0.49341  0.93898  0.74801  1.0000
  H   H6992     1.0  0.58767  0.98047  0.56396  1.0000
  H   H6993     1.0  0.49283  0.75450  0.97807  1.0000
  H   H6994     1.0  0.56109  0.97932  0.74712  1.0000
  C   C3942     1.0  0.48881  0.86732  0.96415  1.0000
  H   H6995     1.0  0.72905  0.98412  0.54269  1.0000
  C   C3943     1.0  0.50022  0.88807  0.84358  1.0000
  H   H6996     1.0  0.52438  0.81060  0.97878  1.0000
  H   H6997     1.0  0.56529  0.81883  0.97905  1.0000
  H   H6998     1.0  0.59999  0.81608  0.98033  1.0000
  C   C3944     1.0  0.54211  0.81476  0.98119  1.0000
  C   C3945     1.0  0.57070  0.80822  0.98021  1.0000
  C   C3946     1.0  0.55179  0.98416  0.67684  1.0000
  C   C3947     1.0  0.49644  0.98406  0.73903  1.0000
  H   H6999     1.0  0.48727  0.98232  0.59908  1.0000
  H   H7000     1.0  0.50289  0.98349  0.54211  1.0000
  S   S857      1.0  0.73575  0.90099  0.48875  1.0000
  H   H7001     1.0  0.48820  0.86104  0.90762  1.0000
  H   H7002     1.0  0.54998  0.98386  0.62258  1.0000
  H   H7003     1.0  0.51059  0.79480  0.98171  1.0000
  C   C3948     1.0  0.51136  0.98221  0.56273  1.0000
  C   C3949     1.0  0.48868  0.84414  0.97600  1.0000
  H   H7004     1.0  0.48743  0.77533  0.90661  1.0000
  C   C3950     1.0  0.48762  0.87803  0.88206  1.0000
  N   N221      1.0  0.48710  0.88016  0.86763  1.0000
  C   C3951     1.0  0.79461  0.07634  0.35623  1.0000
  H   H7005     1.0  0.88368  0.22094  0.44304  1.0000
  H   H7006     1.0  0.94013  0.01107  0.37445  1.0000
  C   C3952     1.0  0.75581  0.01233  0.46776  1.0000
  H   H7007     1.0  0.98272  0.15182  0.41523  1.0000
  C   C3953     1.0  0.95286  0.14518  0.47040  1.0000
  H   H7008     1.0  0.90172  0.05909  0.38149  1.0000
  S   S858      1.0  0.75783  0.06556  0.40587  1.0000
  H   H7009     1.0  0.90598  0.23409  0.46421  1.0000
  Fe  Fe427     1.0  0.85826  0.02253  0.40431  1.0000
  S   S859      1.0  0.85549  0.04013  0.38724  1.0000
  S   S860      1.0  0.87141  0.00250  0.40183  1.0000
  Fe  Fe428     1.0  0.83963  0.03781  0.42469  1.0000
  S   S861      1.0  0.83511  0.05656  0.40929  1.0000
  S   S862      1.0  0.82937  0.03678  0.44625  1.0000
  Fe  Fe429     1.0  0.83398  0.04278  0.39742  1.0000
  S   S863      1.0  0.81871  0.04409  0.38616  1.0000
  Fe  Fe430     1.0  0.85714  0.05217  0.40078  1.0000
  S   S864      1.0  0.86877  0.06866  0.39327  1.0000
  S   S865      1.0  0.83671  0.02441  0.41361  1.0000
  S   S866      1.0  0.86170  0.03426  0.41699  1.0000
  Fe  Fe431     1.0  0.92588  0.09027  0.41488  1.0000
  S   S867      1.0  0.94569  0.08212  0.42074  1.0000
  S   S868      1.0  0.91529  0.07392  0.41629  1.0000
  Fe  Fe432     1.0  0.92630  0.11888  0.41495  1.0000
  S   S869      1.0  0.94552  0.11262  0.42131  1.0000
  S   S870      1.0  0.91734  0.14106  0.41062  1.0000
  Fe  Fe433     1.0  0.95215  0.10000  0.40626  1.0000
  S   S871      1.0  0.97269  0.10103  0.39354  1.0000
  Fe  Fe434     1.0  0.93759  0.09547  0.43521  1.0000
  S   S872      1.0  0.94197  0.08894  0.45560  1.0000
  S   S873      1.0  0.93322  0.10713  0.39877  1.0000
  S   S874      1.0  0.91750  0.10270  0.43044  1.0000
  H   H7010     1.0  0.92761  0.98872  0.47486  1.0000
  H   H7011     1.0  0.82964  0.01238  0.47829  1.0000
  C   C3954     1.0  0.95803  0.21789  0.46585  1.0000
  H   H7012     1.0  0.97568  0.13474  0.43383  1.0000
  H   H7013     1.0  0.74965  0.09386  0.36137  1.0000
  H   H7014     1.0  0.81106  0.99690  0.38334  1.0000
  C   C3955     1.0  0.98262  0.09931  0.47822  1.0000
  C   C3956     1.0  0.96254  0.17228  0.39893  1.0000
  Fe  Fe435     1.0  0.74693  0.02313  0.40567  1.0000
  H   H7015     1.0  0.97373  0.09476  0.42154  1.0000
  C   C3957     1.0  0.92124  0.15049  0.41963  1.0000
  C   C3958     1.0  0.91992  0.16434  0.41505  1.0000
  C   C3959     1.0  0.92829  0.15176  0.43885  1.0000
  C   C3960     1.0  0.92555  0.14426  0.43147  1.0000
  H   H7016     1.0  0.91656  0.16925  0.40589  1.0000
  H   H7017     1.0  0.92657  0.13366  0.43504  1.0000
  H   H7018     1.0  0.77872  0.06810  0.44732  1.0000
  C   C3961     1.0  0.93659  0.10261  0.46314  1.0000
  C   C3962     1.0  0.92720  0.11361  0.45845  1.0000
  H   H7019     1.0  0.89748  0.11880  0.47375  1.0000
  H   H7020     1.0  0.92366  0.11384  0.44988  1.0000
  C   C3963     1.0  0.88125  0.07029  0.40023  1.0000
  C   C3964     1.0  0.88659  0.06009  0.40997  1.0000
  C   C3965     1.0  0.89702  0.06141  0.41465  1.0000
  C   C3966     1.0  0.90211  0.07303  0.40989  1.0000
  C   C3967     1.0  0.89664  0.08334  0.40032  1.0000
  C   C3968     1.0  0.88633  0.08192  0.39546  1.0000
  H   H7021     1.0  0.88272  0.05116  0.41389  1.0000
  H   H7022     1.0  0.90116  0.05338  0.42207  1.0000
  H   H7023     1.0  0.90047  0.09233  0.39654  1.0000
  H   H7024     1.0  0.88231  0.08986  0.38789  1.0000
  C   C3969     1.0  0.84139  0.03512  0.45502  1.0000
  C   C3970     1.0  0.85403  0.02737  0.45142  1.0000
  C   C3971     1.0  0.86402  0.02675  0.45770  1.0000
  C   C3972     1.0  0.86122  0.03353  0.46792  1.0000
  C   C3973     1.0  0.84854  0.04122  0.47164  1.0000
  C   C3974     1.0  0.83864  0.04208  0.46510  1.0000
  H   H7025     1.0  0.85601  0.02169  0.44392  1.0000
  H   H7026     1.0  0.87381  0.02083  0.45485  1.0000
  H   H7027     1.0  0.90752  0.21633  0.45074  1.0000
  H   H7028     1.0  0.82898  0.04843  0.46762  1.0000
  C   C3975     1.0  0.77486  0.05855  0.40265  1.0000
  C   C3976     1.0  0.78389  0.06578  0.40257  1.0000
  C   C3977     1.0  0.79755  0.06083  0.39857  1.0000
  C   C3978     1.0  0.80215  0.04882  0.39430  1.0000
  C   C3979     1.0  0.79313  0.04137  0.39487  1.0000
  C   C3980     1.0  0.77952  0.04613  0.39925  1.0000
  H   H7029     1.0  0.78030  0.07540  0.40523  1.0000
  H   H7030     1.0  0.80447  0.06669  0.39804  1.0000
  H   H7031     1.0  0.79667  0.03209  0.39156  1.0000
  H   H7032     1.0  0.77257  0.04051  0.39937  1.0000
  H   H7033     1.0  0.94489  0.18017  0.48201  1.0000
  C   C3981     1.0  0.98227  0.14595  0.40830  1.0000
  H   H7034     1.0  0.78786  0.07268  0.43038  1.0000
  H   H7035     1.0  0.87828  0.00668  0.43910  1.0000
  C   C3982     1.0  0.92292  0.17186  0.42233  1.0000
  H   H7036     1.0  0.93812  0.99771  0.36855  1.0000
  C   C3983     1.0  0.74813  0.08470  0.36913  1.0000
  C   C3984     1.0  0.78285  0.02192  0.37332  1.0000
  C   C3985     1.0  0.92705  0.16554  0.43431  1.0000
  C   C3986     1.0  0.89232  0.10824  0.46214  1.0000
  H   H7037     1.0  0.85797  0.00552  0.48087  1.0000
  H   H7038     1.0  0.95882  0.16307  0.46943  1.0000
  C   C3987     1.0  0.88943  0.12048  0.45100  1.0000
  C   C3988     1.0  0.86385  0.99298  0.39633  1.0000
  C   C3989     1.0  0.85142  0.99828  0.39316  1.0000
  H   H7039     1.0  0.94148  0.16382  0.47478  1.0000
  H   H7040     1.0  0.91980  0.16974  0.47403  1.0000
  H   H7041     1.0  0.87015  0.98613  0.45195  1.0000
  H   H7042     1.0  0.84651  0.00847  0.39362  1.0000
  H   H7043     1.0  0.83576  0.99466  0.38671  1.0000
  H   H7044     1.0  0.77055  0.06230  0.33340  1.0000
  H   H7045     1.0  0.93134  0.14686  0.44817  1.0000
  C   C3990     1.0  0.90240  0.22916  0.47472  1.0000
  H   H7046     1.0  0.79597  0.08094  0.37435  1.0000
  H   H7047     1.0  0.89162  0.23326  0.47751  1.0000
  C   C3991     1.0  0.90292  0.19425  0.47031  1.0000
  C   C3992     1.0  0.76131  0.07482  0.37004  1.0000
  C   C3993     1.0  0.94106  0.10224  0.47434  1.0000
  H   H7048     1.0  0.76751  0.07964  0.37312  1.0000
  C   C3994     1.0  0.83587  0.08424  0.47448  1.0000
  S   S875      1.0  0.96835  0.21232  0.39407  1.0000
  H   H7049     1.0  0.78580  0.06292  0.37369  1.0000
  C   C3995     1.0  0.79014  0.06299  0.36294  1.0000
  C   C3996     1.0  0.90557  0.21384  0.47619  1.0000
  S   S876      1.0  0.74706  0.04177  0.38970  1.0000
  H   H7050     1.0  0.90081  0.06950  0.35185  1.0000
  H   H7051     1.0  0.74495  0.01630  0.46956  1.0000
  Fe  Fe436     1.0  0.93666  0.22167  0.43558  1.0000
  C   C3997     1.0  0.98156  0.09988  0.41576  1.0000
  H   H7052     1.0  0.77183  0.98702  0.43182  1.0000
  H   H7053     1.0  0.81104  0.07103  0.36627  1.0000
  H   H7054     1.0  0.94799  0.18651  0.40973  1.0000
  H   H7055     1.0  0.78609  0.08486  0.35504  1.0000
  H   H7056     1.0  0.90645  0.02892  0.41769  1.0000
  S   S877      1.0  0.87352  0.03205  0.47625  1.0000
  H   H7057     1.0  0.85198  0.00103  0.46886  1.0000
  C   C3998     1.0  0.75272  0.99603  0.39619  1.0000
  H   H7058     1.0  0.82593  0.09103  0.47552  1.0000
  H   H7059     1.0  0.88567  0.10163  0.46315  1.0000
  Fe  Fe437     1.0  0.93932  0.19224  0.43623  1.0000
  C   C3999     1.0  0.98550  0.22256  0.40121  1.0000
  H   H7060     1.0  0.77686  0.03355  0.42964  1.0000
  H   H7061     1.0  0.74350  0.08754  0.37892  1.0000
  H   H7062     1.0  0.87285  0.01475  0.37258  1.0000
  H   H7063     1.0  0.75919  0.06608  0.37805  1.0000
  H   H7064     1.0  0.89800  0.01242  0.40338  1.0000
  H   H7065     1.0  0.78192  0.04974  0.31582  1.0000
  C   C4000     1.0  0.91054  0.17025  0.48184  1.0000
  C   C4001     1.0  0.78750  0.05880  0.34252  1.0000
  S   S878      1.0  0.76091  0.00383  0.40273  1.0000
  C   C4002     1.0  0.79997  0.04282  0.47913  1.0000
  H   H7066     1.0  0.79936  0.05508  0.36285  1.0000
  H   H7067     1.0  0.83473  0.07438  0.47403  1.0000
  C   C4003     1.0  0.74367  0.00370  0.38834  1.0000
  H   H7068     1.0  0.91531  0.04590  0.48076  1.0000
  Fe  Fe438     1.0  0.95763  0.20827  0.41546  1.0000
  C   C4004     1.0  0.95378  0.22739  0.47373  1.0000
  H   H7069     1.0  0.90271  0.10305  0.45886  1.0000
  H   H7070     1.0  0.88890  0.00373  0.36910  1.0000
  H   H7071     1.0  0.79739  0.05188  0.34218  1.0000
  H   H7072     1.0  0.77452  0.98605  0.36971  1.0000
  C   C4005     1.0  0.77960  0.05452  0.33491  1.0000
  H   H7073     1.0  0.79138  0.03232  0.35399  1.0000
  C   C4006     1.0  0.77696  0.04698  0.36491  1.0000
  C   C4007     1.0  0.88275  0.01369  0.36569  1.0000
  H   H7074     1.0  0.80480  0.04067  0.46910  1.0000
  H   H7075     1.0  0.91536  0.00909  0.36689  1.0000
  H   H7076     1.0  0.80739  0.01706  0.48158  1.0000
  H   H7077     1.0  0.75830  0.00442  0.46207  1.0000
  H   H7078     1.0  0.92841  0.00889  0.48026  1.0000
  C   C4008     1.0  0.87743  0.99939  0.43395  1.0000
  C   C4009     1.0  0.98317  0.10408  0.40188  1.0000
  C   C4010     1.0  0.92587  0.12331  0.47686  1.0000
  H   H7079     1.0  0.91440  0.01555  0.40025  1.0000
  H   H7080     1.0  0.92174  0.18254  0.41884  1.0000
  H   H7081     1.0  0.77083  0.04512  0.44615  1.0000
  H   H7082     1.0  0.80117  0.07581  0.34624  1.0000
  H   H7083     1.0  0.76015  0.02718  0.44985  1.0000
  C   C4011     1.0  0.96699  0.14348  0.39586  1.0000
  C   C4012     1.0  0.96302  0.13628  0.42007  1.0000
  H   H7084     1.0  0.96743  0.17524  0.48002  1.0000
  C   C4013     1.0  0.95279  0.14463  0.39435  1.0000
  H   H7085     1.0  0.75922  0.03182  0.46504  1.0000
  H   H7086     1.0  0.88543  0.99930  0.42478  1.0000
  C   C4014     1.0  0.95309  0.14008  0.38192  1.0000
  C   C4015     1.0  0.96000  0.12474  0.44459  1.0000
  H   H7087     1.0  0.97270  0.13318  0.39526  1.0000
  H   H7088     1.0  0.97157  0.14994  0.38667  1.0000
  H   H7089     1.0  0.96777  0.12616  0.41808  1.0000
  H   H7090     1.0  0.95224  0.13735  0.42141  1.0000
  H   H7091     1.0  0.94891  0.15998  0.41191  1.0000
  H   H7092     1.0  0.87904  0.12606  0.45347  1.0000
  H   H7093     1.0  0.94729  0.13837  0.40297  1.0000
  H   H7094     1.0  0.94711  0.15511  0.39338  1.0000
  H   H7095     1.0  0.94227  0.18221  0.39745  1.0000
  H   H7096     1.0  0.95833  0.12947  0.38258  1.0000
  H   H7097     1.0  0.94279  0.14098  0.38117  1.0000
  H   H7098     1.0  0.95806  0.14633  0.37276  1.0000
  S   S879      1.0  0.96141  0.18853  0.42974  1.0000
  H   H7099     1.0  0.96516  0.11499  0.44192  1.0000
  H   H7100     1.0  0.96174  0.12455  0.45440  1.0000
  N   N222      1.0  0.86774  0.08317  0.44602  1.0000
  C   C4016     1.0  0.85927  0.08093  0.46001  1.0000
  C   C4017     1.0  0.88178  0.07565  0.44641  1.0000
  C   C4018     1.0  0.86793  0.09783  0.44144  1.0000
  C   C4019     1.0  0.86257  0.07933  0.43614  1.0000
  C   C4020     1.0  0.85490  0.06793  0.44155  1.0000
  C   C4021     1.0  0.84518  0.09003  0.46182  1.0000
  C   C4022     1.0  0.87755  0.10186  0.42788  1.0000
  C   C4023     1.0  0.88398  0.06038  0.45162  1.0000
  C   C4024     1.0  0.89824  0.05432  0.45315  1.0000
  C   C4025     1.0  0.85077  0.06509  0.43026  1.0000
  C   C4026     1.0  0.98301  0.23034  0.37831  1.0000
  C   C4027     1.0  0.87419  0.11685  0.42207  1.0000
  H   H7101     1.0  0.86423  0.08245  0.46715  1.0000
  H   H7102     1.0  0.85821  0.07043  0.46366  1.0000
  H   H7103     1.0  0.88831  0.07714  0.43625  1.0000
  H   H7104     1.0  0.88587  0.07968  0.45258  1.0000
  H   H7105     1.0  0.87055  0.10130  0.44908  1.0000
  H   H7106     1.0  0.85789  0.10385  0.44043  1.0000
  H   H7107     1.0  0.85573  0.08803  0.43129  1.0000
  H   H7108     1.0  0.87082  0.07656  0.42775  1.0000
  H   H7109     1.0  0.84568  0.07066  0.44896  1.0000
  H   H7110     1.0  0.86087  0.05860  0.44640  1.0000
  H   H7111     1.0  0.84571  0.09998  0.46266  1.0000
  H   H7112     1.0  0.84074  0.09153  0.45317  1.0000
  H   H7113     1.0  0.87721  0.09672  0.42034  1.0000
  H   H7114     1.0  0.88787  0.09921  0.42928  1.0000
  H   H7115     1.0  0.87754  0.05768  0.46155  1.0000
  H   H7116     1.0  0.88216  0.05571  0.44446  1.0000
  H   H7117     1.0  0.89962  0.04333  0.45655  1.0000
  H   H7118     1.0  0.90531  0.05661  0.44346  1.0000
  H   H7119     1.0  0.90047  0.05822  0.46069  1.0000
  H   H7120     1.0  0.84493  0.07426  0.42487  1.0000
  H   H7121     1.0  0.85957  0.06108  0.42309  1.0000
  H   H7122     1.0  0.84454  0.05761  0.43439  1.0000
  H   H7123     1.0  0.77354  0.04743  0.37560  1.0000
  H   H7124     1.0  0.98254  0.19705  0.48066  1.0000
  H   H7125     1.0  0.96629  0.11654  0.48014  1.0000
  H   H7126     1.0  0.88185  0.11948  0.41295  1.0000
  H   H7127     1.0  0.86446  0.11977  0.41924  1.0000
  H   H7128     1.0  0.87390  0.12259  0.42938  1.0000
  N   N223      1.0  0.89692  0.20870  0.47077  1.0000
  H   H7129     1.0  0.80610  0.08857  0.35924  1.0000
  H   H7130     1.0  0.82781  0.01092  0.44180  1.0000
  H   H7131     1.0  0.76085  0.06747  0.35343  1.0000
  N   N224      1.0  0.96803  0.14675  0.40837  1.0000
  H   H7132     1.0  0.88244  0.20588  0.45507  1.0000
  H   H7133     1.0  0.90388  0.07798  0.36272  1.0000
  H   H7134     1.0  0.77406  0.02089  0.37053  1.0000
  C   C4028     1.0  0.89989  0.00069  0.46154  1.0000
  H   H7135     1.0  0.97783  0.15282  0.47644  1.0000
  H   H7136     1.0  0.75866  0.00802  0.47756  1.0000
  C   C4029     1.0  0.80241  0.07936  0.36455  1.0000
  H   H7137     1.0  0.77657  0.04503  0.34038  1.0000
  H   H7138     1.0  0.90153  0.00529  0.45068  1.0000
  C   C4030     1.0  0.88276  0.21045  0.47875  1.0000
  C   C4031     1.0  0.95950  0.16015  0.41026  1.0000
  C   C4032     1.0  0.78113  0.04146  0.44774  1.0000
  H   H7139     1.0  0.79068  0.01278  0.37232  1.0000
  C   C4033     1.0  0.78796  0.03410  0.36426  1.0000
  C   C4034     1.0  0.89035  0.11242  0.47545  1.0000
  C   C4035     1.0  0.90493  0.00818  0.46868  1.0000
  H   H7140     1.0  0.96025  0.16235  0.41956  1.0000
  H   H7141     1.0  0.97127  0.17517  0.39997  1.0000
  H   H7142     1.0  0.91311  0.09842  0.48039  1.0000
  H   H7143     1.0  0.76829  0.04550  0.36222  1.0000
  H   H7144     1.0  0.95367  0.19312  0.39216  1.0000
  C   C4036     1.0  0.95089  0.18425  0.39966  1.0000
  H   H7145     1.0  0.95321  0.21911  0.45787  1.0000
  H   H7146     1.0  0.91428  0.05391  0.36771  1.0000
  S   S880      1.0  0.95853  0.22006  0.42931  1.0000
  C   C4037     1.0  0.76830  0.07068  0.35654  1.0000
  H   H7147     1.0  0.91282  0.19334  0.46333  1.0000
  H   H7148     1.0  0.89250  0.22707  0.45619  1.0000
  H   H7149     1.0  0.92020  0.22937  0.48043  1.0000
  Fe  Fe439     1.0  0.74560  0.05146  0.40632  1.0000
  H   H7150     1.0  0.91610  0.21100  0.47110  1.0000
  H   H7151     1.0  0.89015  0.02562  0.42098  1.0000
  H   H7152     1.0  0.89623  0.12720  0.44937  1.0000
  N   N225      1.0  0.78624  0.02704  0.44669  1.0000
  C   C4038     1.0  0.77813  0.01887  0.45828  1.0000
  C   C4039     1.0  0.80047  0.02309  0.44803  1.0000
  H   H7153     1.0  0.93923  0.20365  0.48057  1.0000
  C   C4040     1.0  0.78524  0.02585  0.43322  1.0000
  C   C4041     1.0  0.78318  0.01234  0.43234  1.0000
  H   H7154     1.0  0.88258  0.03440  0.36191  1.0000
  C   C4042     1.0  0.78932  0.05141  0.43781  1.0000
  C   C4043     1.0  0.80750  0.00829  0.44848  1.0000
  C   C4044     1.0  0.82153  0.00556  0.45060  1.0000
  C   C4045     1.0  0.78572  0.01130  0.41783  1.0000
  H   H7155     1.0  0.89872  0.02407  0.35750  1.0000
  H   H7156     1.0  0.78021  0.01902  0.46789  1.0000
  H   H7157     1.0  0.78096  0.00820  0.45787  1.0000
  H   H7158     1.0  0.80670  0.02890  0.43952  1.0000
  H   H7159     1.0  0.80118  0.02564  0.45720  1.0000
  H   H7160     1.0  0.96321  0.13935  0.46944  1.0000
  H   H7161     1.0  0.90400  0.01213  0.42412  1.0000
  H   H7162     1.0  0.79417  0.02814  0.42549  1.0000
  H   H7163     1.0  0.77284  0.01139  0.43715  1.0000
  H   H7164     1.0  0.78972  0.00366  0.43737  1.0000
  C   C4046     1.0  0.78160  0.06581  0.43723  1.0000
  H   H7165     1.0  0.79203  0.04961  0.42756  1.0000
  H   H7166     1.0  0.79856  0.05040  0.44103  1.0000
  H   H7167     1.0  0.80216  0.00154  0.45678  1.0000
  H   H7168     1.0  0.80850  0.00576  0.43882  1.0000
  H   H7169     1.0  0.89685  0.19019  0.46621  1.0000
  H   H7170     1.0  0.74125  0.08011  0.36677  1.0000
  H   H7171     1.0  0.82601  0.99474  0.45189  1.0000
  H   H7172     1.0  0.77828  0.01886  0.41276  1.0000
  H   H7173     1.0  0.81928  0.99345  0.48024  1.0000
  H   H7174     1.0  0.78488  0.00136  0.41744  1.0000
  H   H7175     1.0  0.74307  0.05973  0.45022  1.0000
  H   H7176     1.0  0.96455  0.17029  0.38886  1.0000
  H   H7177     1.0  0.91749  0.00644  0.38347  1.0000
  H   H7178     1.0  0.94922  0.12603  0.44563  1.0000
  H   H7179     1.0  0.79662  0.03466  0.36756  1.0000
  H   H7180     1.0  0.77256  0.06754  0.43338  1.0000
  S   S881      1.0  0.93828  0.20309  0.45179  1.0000
  H   H7181     1.0  0.97796  0.15197  0.44817  1.0000
  H   H7182     1.0  0.79582  0.01266  0.41235  1.0000
  H   H7183     1.0  0.89101  0.11732  0.44154  1.0000
  H   H7184     1.0  0.92190  0.03092  0.37617  1.0000
  C   C4047     1.0  0.96836  0.20692  0.46834  1.0000
  C   C4048     1.0  0.89712  0.21634  0.45649  1.0000
  H   H7185     1.0  0.78010  0.02271  0.38395  1.0000
  Fe  Fe440     1.0  0.96008  0.20069  0.44420  1.0000
  H   H7186     1.0  0.91035  0.02589  0.47784  1.0000
  H   H7187     1.0  0.91568  0.00743  0.46462  1.0000
  H   H7188     1.0  0.78957  0.06858  0.33644  1.0000
  H   H7189     1.0  0.88790  0.07422  0.36581  1.0000
  H   H7190     1.0  0.79480  0.99831  0.39441  1.0000
  H   H7191     1.0  0.80947  0.99085  0.40110  1.0000
  N   N226      1.0  0.78075  0.05987  0.35669  1.0000
  C   C4049     1.0  0.88963  0.21189  0.44852  1.0000
  H   H7192     1.0  0.82149  0.00889  0.45956  1.0000
  H   H7193     1.0  0.95960  0.14561  0.43707  1.0000
  H   H7194     1.0  0.88911  0.00120  0.46554  1.0000
  C   C4050     1.0  0.84536  0.99047  0.38916  1.0000
  H   H7195     1.0  0.78048  0.04251  0.45803  1.0000
  S   S882      1.0  0.97331  0.19487  0.45868  1.0000
  S   S883      1.0  0.93548  0.21111  0.42066  1.0000
  C   C4051     1.0  0.96508  0.13618  0.43393  1.0000
  H   H7196     1.0  0.79684  0.04454  0.32210  1.0000
  S   S884      1.0  0.74729  0.03243  0.42178  1.0000
  H   H7197     1.0  0.79085  0.06198  0.31504  1.0000
  H   H7198     1.0  0.77023  0.07980  0.34888  1.0000
  H   H7199     1.0  0.89313  0.20151  0.43262  1.0000
  C   C4052     1.0  0.76292  0.02351  0.45971  1.0000
  H   H7200     1.0  0.91439  0.13237  0.46182  1.0000
  H   H7201     1.0  0.84640  0.04673  0.47934  1.0000
  S   S885      1.0  0.92994  0.17445  0.44443  1.0000
  H   H7202     1.0  0.91689  0.03222  0.36137  1.0000
  C   C4053     1.0  0.97969  0.22241  0.39107  1.0000
  C   C4054     1.0  0.78785  0.05260  0.32113  1.0000
  C   C4055     1.0  0.92192  0.12403  0.46525  1.0000
  N   N227      1.0  0.90091  0.03252  0.37903  1.0000
  C   C4056     1.0  0.89177  0.02410  0.37903  1.0000
  C   C4057     1.0  0.89983  0.03310  0.39327  1.0000
  C   C4058     1.0  0.89599  0.04658  0.37169  1.0000
  C   C4059     1.0  0.91510  0.02759  0.37227  1.0000
  C   C4060     1.0  0.91998  0.01233  0.37317  1.0000
  C   C4061     1.0  0.88934  0.02479  0.36518  1.0000
  C   C4062     1.0  0.90347  0.05717  0.37141  1.0000
  C   C4063     1.0  0.90365  0.01973  0.40309  1.0000
  C   C4064     1.0  0.90088  0.02177  0.41732  1.0000
  C   C4065     1.0  0.93495  0.00859  0.36812  1.0000
  H   H7203     1.0  0.88140  0.01430  0.35559  1.0000
  C   C4066     1.0  0.89870  0.07051  0.36236  1.0000
  H   H7204     1.0  0.88195  0.02704  0.38558  1.0000
  H   H7205     1.0  0.89523  0.01348  0.38364  1.0000
  H   H7206     1.0  0.90629  0.03938  0.39367  1.0000
  H   H7207     1.0  0.88951  0.03796  0.39754  1.0000
  H   H7208     1.0  0.88530  0.05019  0.37600  1.0000
  H   H7209     1.0  0.89667  0.04685  0.36104  1.0000
  C   C4067     1.0  0.89898  0.20432  0.43806  1.0000
  H   H7210     1.0  0.94603  0.13878  0.47706  1.0000
  C   C4068     1.0  0.80492  0.99195  0.39261  1.0000
  S   S886      1.0  0.74237  0.05459  0.47825  1.0000
  H   H7211     1.0  0.93790  0.01395  0.35759  1.0000
  H   H7212     1.0  0.74201  0.01446  0.38599  1.0000
  H   H7213     1.0  0.97998  0.09880  0.46905  1.0000
  H   H7214     1.0  0.98317  0.21629  0.41099  1.0000
  H   H7215     1.0  0.87808  0.20280  0.47784  1.0000
  H   H7216     1.0  0.90521  0.99008  0.46292  1.0000
  C   C4069     1.0  0.85397  0.99784  0.47907  1.0000
  H   H7217     1.0  0.90524  0.19507  0.44274  1.0000
  H   H7218     1.0  0.86154  0.98836  0.47961  1.0000
  H   H7219     1.0  0.90600  0.08726  0.47637  1.0000
  C   C4070     1.0  0.97456  0.20552  0.47870  1.0000
  H   H7220     1.0  0.95041  0.14843  0.46039  1.0000
  H   H7221     1.0  0.86770  0.00267  0.43107  1.0000
  H   H7222     1.0  0.90002  0.01885  0.46613  1.0000
  H   H7223     1.0  0.88048  0.11917  0.47698  1.0000
  C   C4071     1.0  0.93568  0.11259  0.48121  1.0000
  H   H7224     1.0  0.94840  0.09378  0.47793  1.0000
  C   C4072     1.0  0.87858  0.98561  0.44324  1.0000
  H   H7225     1.0  0.97861  0.23021  0.37042  1.0000
  H   H7226     1.0  0.80005  0.05328  0.47871  1.0000
  H   H7227     1.0  0.78953  0.04185  0.48175  1.0000
  C   C4073     1.0  0.95130  0.15739  0.47585  1.0000
  H   H7228     1.0  0.87669  0.22018  0.47450  1.0000
  H   H7229     1.0  0.90346  0.16648  0.47881  1.0000
  H   H7230     1.0  0.90546  0.21068  0.43067  1.0000
  H   H7231     1.0  0.94928  0.98969  0.47832  1.0000
  H   H7232     1.0  0.80134  0.98669  0.37120  1.0000
  H   H7233     1.0  0.98596  0.17066  0.43224  1.0000
  H   H7234     1.0  0.98606  0.21443  0.43392  1.0000
  H   H7235     1.0  0.73752  0.00454  0.34823  1.0000
  Fe  Fe441     1.0  0.85417  0.02524  0.52468  1.0000
  S   S887      1.0  0.84645  0.04499  0.53090  1.0000
  S   S888      1.0  0.85467  0.00400  0.53609  1.0000
  C   C4074     1.0  0.95394  0.17965  0.54173  1.0000
  H   H7236     1.0  0.74678  0.99262  0.51423  1.0000
  H   H7237     1.0  0.85986  0.08258  0.50652  1.0000
  Fe  Fe442     1.0  0.86517  0.05070  0.51715  1.0000
  S   S889      1.0  0.88256  0.05758  0.51895  1.0000
  Fe  Fe443     1.0  0.83849  0.05163  0.51204  1.0000
  S   S890      1.0  0.81868  0.06370  0.50810  1.0000
  S   S891      1.0  0.87333  0.03032  0.51280  1.0000
  H   H7238     1.0  0.81166  0.00665  0.53883  1.0000
  Fe  Fe444     1.0  0.90812  0.10931  0.53364  1.0000
  S   S892      1.0  0.92172  0.10345  0.51512  1.0000
  S   S893      1.0  0.88883  0.10257  0.54344  1.0000
  Fe  Fe445     1.0  0.92340  0.12959  0.53315  1.0000
  S   S894      1.0  0.93814  0.12568  0.51448  1.0000
  S   S895      1.0  0.92454  0.14454  0.54377  1.0000
  Fe  Fe446     1.0  0.92073  0.12532  0.50731  1.0000
  C   C4075     1.0  0.86622  0.20911  0.50116  1.0000
  Fe  Fe447     1.0  0.93811  0.10418  0.52386  1.0000
  S   S896      1.0  0.95809  0.09032  0.52085  1.0000
  S   S897      1.0  0.90592  0.13131  0.52504  1.0000
  S   S898      1.0  0.92465  0.10798  0.54333  1.0000
  Fe  Fe448     1.0  0.91720  0.21878  0.52236  1.0000
  S   S899      1.0  0.93897  0.21280  0.52179  1.0000
  S   S900      1.0  0.90686  0.20555  0.51764  1.0000
  C   C4076     1.0  0.88336  0.14978  0.54742  1.0000
  H   H7239     1.0  0.79745  0.99143  0.53540  1.0000
  H   H7240     1.0  0.88296  0.14054  0.54486  1.0000
  C   C4077     1.0  0.89721  0.98481  0.52725  1.0000
  S   S901      1.0  0.85666  0.05859  0.49876  1.0000
  H   H7241     1.0  0.84152  0.14432  0.58411  1.0000
  H   H7242     1.0  0.90056  0.14051  0.56324  1.0000
  H   H7243     1.0  0.86388  0.16017  0.54283  1.0000
  C   C4078     1.0  0.96044  0.14430  0.53141  1.0000
  C   C4079     1.0  0.84135  0.99575  0.48955  1.0000
  C   C4080     1.0  0.96177  0.21774  0.56557  1.0000
  C   C4081     1.0  0.97027  0.10687  0.48637  1.0000
  H   H7244     1.0  0.97258  0.16874  0.53268  1.0000
  C   C4082     1.0  0.86644  0.99819  0.51145  1.0000
  H   H7245     1.0  0.93898  0.11214  0.49001  1.0000
  H   H7246     1.0  0.95634  0.21448  0.57563  1.0000
  C   C4083     1.0  0.82223  0.00621  0.53381  1.0000
  C   C4084     1.0  0.98288  0.09389  0.51881  1.0000
  C   C4085     1.0  0.96808  0.16737  0.48923  1.0000
  C   C4086     1.0  0.97568  0.22644  0.53955  1.0000
  C   C4087     1.0  0.96939  0.09680  0.52486  1.0000
  C   C4088     1.0  0.96490  0.10518  0.53387  1.0000
  C   C4089     1.0  0.97384  0.11060  0.53686  1.0000
  H   H7247     1.0  0.86422  0.19965  0.50068  1.0000
  C   C4090     1.0  0.90468  0.18450  0.48373  1.0000
  H   H7248     1.0  0.87184  0.17021  0.51922  1.0000
  H   H7249     1.0  0.95455  0.10730  0.53875  1.0000
  H   H7250     1.0  0.97035  0.11661  0.54428  1.0000
  S   S902      1.0  0.77091  0.03437  0.53370  1.0000
  H   H7251     1.0  0.88877  0.16355  0.52065  1.0000
  C   C4091     1.0  0.92028  0.16139  0.53589  1.0000
  C   C4092     1.0  0.92269  0.17110  0.54083  1.0000
  C   C4093     1.0  0.91887  0.18468  0.53507  1.0000
  C   C4094     1.0  0.91224  0.18860  0.52461  1.0000
  C   C4095     1.0  0.90980  0.17888  0.51969  1.0000
  C   C4096     1.0  0.91409  0.16529  0.52511  1.0000
  H   H7252     1.0  0.92741  0.16811  0.54923  1.0000
  H   H7253     1.0  0.92071  0.19212  0.53898  1.0000
  H   H7254     1.0  0.90457  0.18188  0.51172  1.0000
  H   H7255     1.0  0.91235  0.15784  0.52115  1.0000
  Fe  Fe449     1.0  0.76039  0.01143  0.50630  1.0000
  C   C4097     1.0  0.90164  0.00282  0.48406  1.0000
  H   H7256     1.0  0.83821  0.98772  0.48740  1.0000
  C   C4098     1.0  0.96002  0.22607  0.48400  1.0000
  H   H7257     1.0  0.93565  0.21000  0.49542  1.0000
  C   C4099     1.0  0.88352  0.06953  0.52700  1.0000
  C   C4100     1.0  0.87243  0.07872  0.53195  1.0000
  C   C4101     1.0  0.87406  0.08867  0.53732  1.0000
  C   C4102     1.0  0.88675  0.08962  0.53747  1.0000
  C   C4103     1.0  0.89774  0.08034  0.53265  1.0000
  C   C4104     1.0  0.89610  0.07025  0.52763  1.0000
  H   H7258     1.0  0.86268  0.07822  0.53158  1.0000
  H   H7259     1.0  0.86549  0.09577  0.54113  1.0000
  H   H7260     1.0  0.90754  0.08084  0.53289  1.0000
  H   H7261     1.0  0.90471  0.06309  0.52398  1.0000
  H   H7262     1.0  0.86660  0.00860  0.50782  1.0000
  C   C4105     1.0  0.80567  0.05514  0.51478  1.0000
  C   C4106     1.0  0.80648  0.04409  0.52547  1.0000
  C   C4107     1.0  0.86684  0.14411  0.56784  1.0000
  H   H7263     1.0  0.88884  0.09989  0.50888  1.0000
  H   H7264     1.0  0.88834  0.12163  0.51757  1.0000
  H   H7265     1.0  0.86999  0.13109  0.58733  1.0000
  H   H7266     1.0  0.81517  0.04074  0.52969  1.0000
  H   H7267     1.0  0.90152  0.10826  0.49898  1.0000
  C   C4108     1.0  0.92401  0.07339  0.49160  1.0000
  H   H7268     1.0  0.87609  0.99344  0.49228  1.0000
  C   C4109     1.0  0.96809  0.17920  0.53355  1.0000
  H   H7269     1.0  0.82414  0.99191  0.52263  1.0000
  C   C4110     1.0  0.81351  0.99513  0.50135  1.0000
  N   N228      1.0  0.90872  0.00709  0.49195  1.0000
  C   C4111     1.0  0.90545  0.09235  0.48433  1.0000
  C   C4112     1.0  0.90289  0.00271  0.50667  1.0000
  H   H7270     1.0  0.98145  0.19537  0.55753  1.0000
  H   H7271     1.0  0.82833  0.99872  0.54047  1.0000
  H   H7272     1.0  0.91147  0.18723  0.48810  1.0000
  H   H7273     1.0  0.85907  0.21767  0.49665  1.0000
  C   C4113     1.0  0.94408  0.17660  0.49299  1.0000
  H   H7274     1.0  0.90739  0.00627  0.51282  1.0000
  N   N229      1.0  0.89197  0.10132  0.48762  1.0000
  H   H7275     1.0  0.78023  0.98650  0.55633  1.0000
  H   H7276     1.0  0.85872  0.08742  0.48914  1.0000
  H   H7277     1.0  0.80595  0.01336  0.51709  1.0000
  H   H7278     1.0  0.78749  0.00623  0.54104  1.0000
  C   C4114     1.0  0.87193  0.98959  0.50262  1.0000
  H   H7279     1.0  0.98061  0.14683  0.49296  1.0000
  H   H7280     1.0  0.89213  0.00725  0.50885  1.0000
  H   H7281     1.0  0.76768  0.99703  0.54777  1.0000
  H   H7282     1.0  0.97531  0.22485  0.57190  1.0000
  H   H7283     1.0  0.89077  0.00635  0.48740  1.0000
  C   C4115     1.0  0.97043  0.21515  0.48651  1.0000
  C   C4116     1.0  0.83058  0.00891  0.48892  1.0000
  H   H7284     1.0  0.88656  0.98966  0.52838  1.0000
  C   C4117     1.0  0.85772  0.09115  0.49814  1.0000
  H   H7285     1.0  0.98668  0.20081  0.51904  1.0000
  C   C4118     1.0  0.97933  0.22807  0.55046  1.0000
  N   N230      1.0  0.81713  0.00846  0.49822  1.0000
  H   H7286     1.0  0.92106  0.02465  0.49720  1.0000
  H   H7287     1.0  0.78447  0.00216  0.52709  1.0000
  H   H7288     1.0  0.83586  0.00261  0.51572  1.0000
  C   C4119     1.0  0.97614  0.18446  0.54016  1.0000
  S   S903      1.0  0.91768  0.13504  0.48667  1.0000
  H   H7289     1.0  0.82099  0.98707  0.50590  1.0000
  H   H7290     1.0  0.97423  0.17963  0.55094  1.0000
  H   H7291     1.0  0.89496  0.02626  0.48950  1.0000
  H   H7292     1.0  0.97131  0.17177  0.49576  1.0000
  C   C4120     1.0  0.80676  0.01873  0.49158  1.0000
  H   H7293     1.0  0.98496  0.08903  0.48414  1.0000
  H   H7294     1.0  0.79356  0.06813  0.50126  1.0000
  H   H7295     1.0  0.94812  0.17693  0.53624  1.0000
  H   H7296     1.0  0.95383  0.17254  0.55157  1.0000
  C   C4121     1.0  0.87882  0.16108  0.56621  1.0000
  H   H7297     1.0  0.89376  0.15093  0.54321  1.0000
  N   N231      1.0  0.95466  0.16418  0.49589  1.0000
  H   H7298     1.0  0.82454  0.01606  0.53239  1.0000
  H   H7299     1.0  0.84987  0.12726  0.58331  1.0000
  H   H7300     1.0  0.94246  0.15096  0.49658  1.0000
  C   C4122     1.0  0.93560  0.20142  0.49156  1.0000
  H   H7301     1.0  0.91276  0.16360  0.49136  1.0000
  C   C4123     1.0  0.92352  0.00188  0.48881  1.0000
  S   S904      1.0  0.73765  0.04311  0.51798  1.0000
  H   H7302     1.0  0.89291  0.17004  0.54890  1.0000
  C   C4124     1.0  0.95299  0.15984  0.51087  1.0000
  H   H7303     1.0  0.94028  0.18731  0.50903  1.0000
  C   C4125     1.0  0.88836  0.18093  0.56416  1.0000
  C   C4126     1.0  0.79425  0.05957  0.50951  1.0000
  C   C4127     1.0  0.77737  0.98996  0.54651  1.0000
  C   C4128     1.0  0.89086  0.16777  0.55995  1.0000
  C   C4129     1.0  0.88237  0.12102  0.50006  1.0000
  C   C4130     1.0  0.96382  0.14828  0.51615  1.0000
  H   H7304     1.0  0.81780  0.03470  0.48650  1.0000
  C   C4131     1.0  0.96455  0.22118  0.54164  1.0000
  H   H7305     1.0  0.95291  0.16814  0.51520  1.0000
  H   H7306     1.0  0.87380  0.13401  0.51407  1.0000
  H   H7307     1.0  0.95441  0.19052  0.49583  1.0000
  H   H7308     1.0  0.97242  0.10862  0.49523  1.0000
  H   H7309     1.0  0.89501  0.18430  0.49082  1.0000
  H   H7310     1.0  0.86180  0.14807  0.58806  1.0000
  H   H7311     1.0  0.97334  0.15153  0.51328  1.0000
  C   C4132     1.0  0.88041  0.21010  0.49391  1.0000
  H   H7312     1.0  0.86477  0.20928  0.51183  1.0000
  H   H7313     1.0  0.91189  0.04862  0.49744  1.0000
  Fe  Fe450     1.0  0.86338  0.03783  0.49571  1.0000
  C   C4133     1.0  0.84935  0.13582  0.58753  1.0000
  H   H7314     1.0  0.89987  0.16125  0.56322  1.0000
  H   H7315     1.0  0.84386  0.99203  0.49949  1.0000
  H   H7316     1.0  0.97153  0.19519  0.53980  1.0000
  C   C4134     1.0  0.95209  0.15354  0.49081  1.0000
  C   C4135     1.0  0.89256  0.12345  0.56631  1.0000
  H   H7317     1.0  0.95953  0.14407  0.49261  1.0000
  C   C4136     1.0  0.78371  0.05294  0.51490  1.0000
  H   H7318     1.0  0.80296  0.03666  0.49916  1.0000
  H   H7319     1.0  0.88323  0.11985  0.57018  1.0000
  H   H7320     1.0  0.90348  0.07375  0.49934  1.0000
  S   S905      1.0  0.77431  0.99268  0.50171  1.0000
  S   S906      1.0  0.75306  0.01244  0.52767  1.0000
  H   H7321     1.0  0.87275  0.11684  0.52113  1.0000
  H   H7322     1.0  0.80409  0.99500  0.50905  1.0000
  H   H7323     1.0  0.86551  0.10384  0.50458  1.0000
  H   H7324     1.0  0.88660  0.17928  0.57519  1.0000
  C   C4137     1.0  0.79578  0.03776  0.53112  1.0000
  H   H7325     1.0  0.75198  0.98670  0.55420  1.0000
  H   H7326     1.0  0.77490  0.05646  0.51085  1.0000
  H   H7327     1.0  0.83484  0.01654  0.49052  1.0000
  C   C4138     1.0  0.78438  0.04213  0.52585  1.0000
  H   H7328     1.0  0.87447  0.17118  0.54103  1.0000
  H   H7329     1.0  0.96958  0.13888  0.53506  1.0000
  C   C4139     1.0  0.90279  0.11362  0.57375  1.0000
  H   H7330     1.0  0.90424  0.10355  0.57191  1.0000
  H   H7331     1.0  0.91245  0.11667  0.57019  1.0000
  H   H7332     1.0  0.89938  0.11305  0.58468  1.0000
  Fe  Fe451     1.0  0.75819  0.03249  0.52107  1.0000
  C   C4140     1.0  0.90579  0.02217  0.48850  1.0000
  H   H7333     1.0  0.88710  0.20168  0.49908  1.0000
  H   H7334     1.0  0.90568  0.22877  0.49400  1.0000
  H   H7335     1.0  0.79626  0.02955  0.53973  1.0000
  H   H7336     1.0  0.79662  0.01772  0.49749  1.0000
  C   C4141     1.0  0.90989  0.08107  0.49596  1.0000
  H   H7337     1.0  0.94909  0.18982  0.54339  1.0000
  H   H7338     1.0  0.94323  0.15705  0.51553  1.0000
  C   C4142     1.0  0.91052  0.02898  0.49684  1.0000
  S   S907      1.0  0.94300  0.21147  0.55738  1.0000
  S   S908      1.0  0.76672  0.03080  0.49981  1.0000
  H   H7339     1.0  0.89716  0.18542  0.55962  1.0000
  H   H7340     1.0  0.83963  0.08307  0.48350  1.0000
  H   H7341     1.0  0.85874  0.15246  0.56468  1.0000
  H   H7342     1.0  0.92532  0.20015  0.49387  1.0000
  Fe  Fe452     1.0  0.93357  0.22143  0.53989  1.0000
  H   H7343     1.0  0.92661  0.06492  0.49989  1.0000
  C   C4143     1.0  0.87855  0.16188  0.52458  1.0000
  H   H7344     1.0  0.86983  0.16850  0.56374  1.0000
  H   H7345     1.0  0.90445  0.02788  0.50721  1.0000
  S   S909      1.0  0.91167  0.22564  0.54160  1.0000
  C   C4144     1.0  0.95753  0.21695  0.55466  1.0000
  H   H7346     1.0  0.90329  0.99182  0.48605  1.0000
  C   C4145     1.0  0.90895  0.04395  0.49096  1.0000
  C   C4146     1.0  0.87425  0.16140  0.53958  1.0000
  S   S910      1.0  0.74047  0.01984  0.50146  1.0000
  H   H7347     1.0  0.88333  0.08487  0.50012  1.0000
  C   C4147     1.0  0.86096  0.99328  0.52486  1.0000
  C   C4148     1.0  0.81636  0.01204  0.51119  1.0000
  H   H7348     1.0  0.96739  0.18551  0.52346  1.0000
  H   H7349     1.0  0.93404  0.17435  0.49723  1.0000
  H   H7350     1.0  0.96129  0.22058  0.53316  1.0000
  C   C4149     1.0  0.82537  0.00227  0.52039  1.0000
  H   H7351     1.0  0.89846  0.04868  0.49054  1.0000
  C   C4150     1.0  0.81162  0.99098  0.48932  1.0000
  H   H7352     1.0  0.90967  0.08510  0.50452  1.0000
  H   H7353     1.0  0.87817  0.15243  0.52247  1.0000
  N   N232      1.0  0.87997  0.14820  0.56238  1.0000
  H   H7354     1.0  0.92766  0.00158  0.49738  1.0000
  C   C4151     1.0  0.88169  0.09307  0.49131  1.0000
  H   H7355     1.0  0.89607  0.12306  0.55560  1.0000
  H   H7356     1.0  0.87741  0.15944  0.57722  1.0000
  C   C4152     1.0  0.86272  0.13981  0.58328  1.0000
  H   H7357     1.0  0.96513  0.13930  0.51227  1.0000
  C   C4153     1.0  0.87912  0.12353  0.51409  1.0000
  H   H7358     1.0  0.81902  0.02184  0.50925  1.0000
  H   H7359     1.0  0.95330  0.13767  0.53480  1.0000
  H   H7360     1.0  0.84660  0.13280  0.59860  1.0000
  S   S911      1.0  0.84464  0.03152  0.50720  1.0000
  H   H7361     1.0  0.88955  0.13747  0.57884  1.0000
  H   H7362     1.0  0.95613  0.15309  0.53600  1.0000
  H   H7363     1.0  0.87973  0.18808  0.56063  1.0000
  H   H7364     1.0  0.93109  0.07994  0.48917  1.0000
  H   H7365     1.0  0.86660  0.13589  0.56348  1.0000
  H   H7366     1.0  0.97531  0.21419  0.49440  1.0000
  C   C4154     1.0  0.86713  0.10043  0.49524  1.0000
  C   C4155     1.0  0.89083  0.13780  0.56806  1.0000
  C   C4156     1.0  0.94429  0.18877  0.49808  1.0000
  C   C4157     1.0  0.97253  0.22351  0.56347  1.0000
  C   C4158     1.0  0.78735  0.99786  0.53688  1.0000
  Fe  Fe453     1.0  0.74590  0.03959  0.49708  1.0000
  C   C4159     1.0  0.89151  0.10702  0.49925  1.0000
  H   H7367     1.0  0.80183  0.99633  0.48703  1.0000
  C   C4160     1.0  0.97953  0.15582  0.48483  1.0000
  H   H7368     1.0  0.87284  0.12245  0.49734  1.0000
  H   H7369     1.0  0.88206  0.21933  0.49533  1.0000
  H   H7370     1.0  0.88750  0.12882  0.49309  1.0000
  H   H7371     1.0  0.98085  0.23008  0.52950  1.0000
  H   H7372     1.0  0.96254  0.10090  0.48999  1.0000
  H   H7373     1.0  0.84734  0.09660  0.50105  1.0000
  C   C4161     1.0  0.80746  0.03345  0.48958  1.0000
  Fe  Fe454     1.0  0.93918  0.23381  0.51066  1.0000
  H   H7374     1.0  0.86430  0.10901  0.48718  1.0000
  H   H7375     1.0  0.90536  0.20908  0.48687  1.0000
  C   C4162     1.0  0.90931  0.23303  0.48326  1.0000
  H   H7376     1.0  0.88269  0.08799  0.48320  1.0000
  H   H7377     1.0  0.90154  0.98861  0.53336  1.0000
  C   C4163     1.0  0.92865  0.98800  0.48509  1.0000
  H   H7378     1.0  0.98632  0.08724  0.51201  1.0000
  H   H7379     1.0  0.92502  0.06942  0.48272  1.0000
  H   H7380     1.0  0.98565  0.15929  0.55349  1.0000
  C   C4164     1.0  0.90445  0.98755  0.51257  1.0000
  C   C4165     1.0  0.93618  0.39131  0.38506  1.0000
  Fe  Fe455     1.0  0.75815  0.41336  0.03203  1.0000
  S   S912      1.0  0.75943  0.43178  0.01578  1.0000
  S   S913      1.0  0.76916  0.40570  0.04868  1.0000
  Fe  Fe456     1.0  0.75518  0.42026  0.00350  1.0000
  C   C4166     1.0  0.92762  0.48313  0.26852  1.0000
  S   S914      1.0  0.75592  0.40112  0.01911  1.0000
  Fe  Fe457     1.0  0.84206  0.43642  0.01070  1.0000
  S   S915      1.0  0.85499  0.41629  0.01653  1.0000
  C   C4167     1.0  0.98013  0.34277  0.47699  1.0000
  Fe  Fe458     1.0  0.83716  0.44229  0.03805  1.0000
  S   S916      1.0  0.84915  0.42258  0.04632  1.0000
  S   S917      1.0  0.82760  0.45778  0.05008  1.0000
  Fe  Fe459     1.0  0.86371  0.42647  0.02683  1.0000
  S   S918      1.0  0.88575  0.42304  0.02538  1.0000
  Fe  Fe460     1.0  0.83921  0.41457  0.03533  1.0000
  S   S919      1.0  0.83061  0.39643  0.04444  1.0000
  S   S920      1.0  0.85218  0.44679  0.01904  1.0000
  S   S921      1.0  0.82583  0.43405  0.02897  1.0000
  Fe  Fe461     1.0  0.94447  0.42622  0.08976  1.0000
  S   S922      1.0  0.92945  0.41354  0.10041  1.0000
  S   S923      1.0  0.96656  0.41729  0.08716  1.0000
  Fe  Fe462     1.0  0.92329  0.45127  0.08642  1.0000
  S   S924      1.0  0.90671  0.44093  0.09695  1.0000
  S   S925      1.0  0.91837  0.47337  0.07909  1.0000
  Fe  Fe463     1.0  0.91948  0.42986  0.11157  1.0000
  S   S926      1.0  0.90975  0.42594  0.13353  1.0000
  Fe  Fe464     1.0  0.91781  0.42568  0.08480  1.0000
  S   S927      1.0  0.90440  0.41715  0.07788  1.0000
  S   S928      1.0  0.93523  0.44161  0.10208  1.0000
  S   S929      1.0  0.93373  0.43694  0.07304  1.0000
  Fe  Fe465     1.0  0.95332  0.45109  0.19530  1.0000
  S   S930      1.0  0.95621  0.42905  0.19976  1.0000
  S   S931      1.0  0.97130  0.45967  0.19030  1.0000
  Fe  Fe466     1.0  0.92381  0.45530  0.19909  1.0000
  S   S932      1.0  0.92397  0.43341  0.20423  1.0000
  Fe  Fe467     1.0  0.93845  0.43171  0.21654  1.0000
  S   S933      1.0  0.94073  0.41656  0.23571  1.0000
  Fe  Fe468     1.0  0.94169  0.43242  0.18718  1.0000
  S   S934      1.0  0.94689  0.41961  0.17223  1.0000
  S   S935      1.0  0.93661  0.45375  0.21298  1.0000
  S   S936      1.0  0.94044  0.45437  0.18101  1.0000
  H   H7381     1.0  0.90497  0.42611  0.19418  1.0000
  H   H7382     1.0  0.88860  0.47186  0.18199  1.0000
  H   H7383     1.0  0.90239  0.47938  0.30801  1.0000
  H   H7384     1.0  0.96721  0.27440  0.44487  1.0000
  H   H7385     1.0  0.75441  0.38519  0.99394  1.0000
  C   C4168     1.0  0.88558  0.47079  0.17325  1.0000
  H   H7386     1.0  0.89826  0.37580  0.05756  1.0000
  H   H7387     1.0  0.93362  0.38038  0.45740  1.0000
  C   C4169     1.0  0.75468  0.46979  0.03073  1.0000
  H   H7388     1.0  0.87521  0.38738  0.05709  1.0000
  H   H7389     1.0  0.88969  0.46126  0.00545  1.0000
  H   H7390     1.0  0.88471  0.44275  0.16085  1.0000
  Fe  Fe469     1.0  0.95121  0.40662  0.32019  1.0000
  S   S937      1.0  0.94023  0.40758  0.34131  1.0000
  S   S938      1.0  0.97327  0.39865  0.31534  1.0000
  Fe  Fe470     1.0  0.92763  0.42331  0.30815  1.0000
  S   S939      1.0  0.91505  0.42556  0.32835  1.0000
  S   S940      1.0  0.92031  0.43648  0.28992  1.0000
  Fe  Fe471     1.0  0.92366  0.40376  0.33508  1.0000
  S   S941      1.0  0.90870  0.39173  0.34811  1.0000
  S   S942      1.0  0.92328  0.24126  0.43930  1.0000
  S   S943      1.0  0.93516  0.40117  0.31444  1.0000
  C   C4170     1.0  0.77814  0.44505  0.05694  1.0000
  Fe  Fe472     1.0  0.93136  0.33207  0.40387  1.0000
  S   S944      1.0  0.95172  0.32135  0.39564  1.0000
  S   S945      1.0  0.91551  0.33801  0.39219  1.0000
  Fe  Fe473     1.0  0.94941  0.30723  0.41569  1.0000
  S   S946      1.0  0.95728  0.28544  0.41649  1.0000
  Fe  Fe474     1.0  0.95835  0.33346  0.40550  1.0000
  S   S947      1.0  0.97519  0.34375  0.39516  1.0000
  S   S948      1.0  0.92853  0.31699  0.42330  1.0000
  S   S949      1.0  0.93807  0.34542  0.41221  1.0000
  H   H7391     1.0  0.97224  0.28924  0.37089  1.0000
  H   H7392     1.0  0.78493  0.47947  0.03592  1.0000
  H   H7393     1.0  0.82982  0.40255  0.00886  1.0000
  C   C4171     1.0  0.83569  0.48095  0.04568  1.0000
  H   H7394     1.0  0.96386  0.34247  0.42317  1.0000
  C   C4172     1.0  0.86498  0.39300  0.09642  1.0000
  C   C4173     1.0  0.91144  0.37680  0.36020  1.0000
  C   C4174     1.0  0.90039  0.37179  0.36804  1.0000
  C   C4175     1.0  0.90185  0.35997  0.37781  1.0000
  C   C4176     1.0  0.91436  0.35310  0.38007  1.0000
  C   C4177     1.0  0.92553  0.35803  0.37225  1.0000
  C   C4178     1.0  0.92407  0.36981  0.36217  1.0000
  H   H7395     1.0  0.89062  0.37707  0.36649  1.0000
  H   H7396     1.0  0.89320  0.35618  0.38368  1.0000
  H   H7397     1.0  0.93524  0.35254  0.37371  1.0000
  H   H7398     1.0  0.93261  0.37339  0.35569  1.0000
  C   C4179     1.0  0.98044  0.40795  0.32141  1.0000
  C   C4180     1.0  0.97227  0.41775  0.32814  1.0000
  C   C4181     1.0  0.76535  0.44003  0.05935  1.0000
  H   H7399     1.0  0.93395  0.36353  0.46611  1.0000
  H   H7400     1.0  0.90947  0.46544  0.22408  1.0000
  H   H7401     1.0  0.96173  0.41988  0.32933  1.0000
  H   H7402     1.0  0.98294  0.37213  0.23296  1.0000
  C   C4182     1.0  0.95101  0.32320  0.46031  1.0000
  C   C4183     1.0  0.93189  0.25426  0.43242  1.0000
  C   C4184     1.0  0.94287  0.25303  0.42181  1.0000
  C   C4185     1.0  0.95042  0.26278  0.41694  1.0000
  C   C4186     1.0  0.94685  0.27407  0.42238  1.0000
  C   C4187     1.0  0.93552  0.27569  0.43263  1.0000
  C   C4188     1.0  0.92804  0.26576  0.43765  1.0000
  H   H7403     1.0  0.94556  0.24456  0.41728  1.0000
  H   H7404     1.0  0.95912  0.26149  0.40896  1.0000
  H   H7405     1.0  0.93274  0.28438  0.43691  1.0000
  H   H7406     1.0  0.91949  0.26681  0.44582  1.0000
  H   H7407     1.0  0.87931  0.40324  0.05372  1.0000
  H   H7408     1.0  0.93422  0.37050  0.38890  1.0000
  C   C4189     1.0  0.95866  0.38081  0.45596  1.0000
  Fe  Fe475     1.0  0.93744  0.32922  0.43090  1.0000
  N   N233      1.0  0.81814  0.39697  0.99021  1.0000
  C   C4190     1.0  0.95303  0.38910  0.39738  1.0000
  H   H7409     1.0  0.87122  0.41603  0.07937  1.0000
  C   C4191     1.0  0.86349  0.41254  0.07716  1.0000
  H   H7410     1.0  0.91299  0.38553  0.38399  1.0000
  H   H7411     1.0  0.90028  0.45031  0.04538  1.0000
  H   H7412     1.0  0.97050  0.41926  0.26004  1.0000
  C   C4192     1.0  0.89587  0.38668  0.05329  1.0000
  H   H7413     1.0  0.83645  0.38047  0.07690  1.0000
  C   C4193     1.0  0.93540  0.42242  0.25058  1.0000
  C   C4194     1.0  0.92684  0.43483  0.25113  1.0000
  C   C4195     1.0  0.92220  0.43900  0.26329  1.0000
  C   C4196     1.0  0.92636  0.43095  0.27485  1.0000
  C   C4197     1.0  0.93515  0.41866  0.27423  1.0000
  C   C4198     1.0  0.93954  0.41434  0.26213  1.0000
  H   H7414     1.0  0.92346  0.44104  0.24231  1.0000
  H   H7415     1.0  0.96472  0.26400  0.47016  1.0000
  H   H7416     1.0  0.93835  0.41237  0.28311  1.0000
  H   H7417     1.0  0.94606  0.40468  0.26176  1.0000
  C   C4199     1.0  0.91958  0.42502  0.14450  1.0000
  C   C4200     1.0  0.92983  0.43187  0.14044  1.0000
  C   C4201     1.0  0.93769  0.43081  0.14931  1.0000
  C   C4202     1.0  0.93551  0.42276  0.16217  1.0000
  C   C4203     1.0  0.92515  0.41606  0.16631  1.0000
  C   C4204     1.0  0.91708  0.41734  0.15755  1.0000
  H   H7418     1.0  0.93163  0.43805  0.13051  1.0000
  H   H7419     1.0  0.94553  0.43617  0.14619  1.0000
  H   H7420     1.0  0.92355  0.40964  0.17618  1.0000
  H   H7421     1.0  0.90917  0.41202  0.16073  1.0000
  H   H7422     1.0  0.90998  0.31224  0.35294  1.0000
  H   H7423     1.0  0.95172  0.39049  0.45320  1.0000
  C   C4205     1.0  0.95845  0.31956  0.47013  1.0000
  H   H7424     1.0  0.84397  0.38281  0.09630  1.0000
  C   C4206     1.0  0.89169  0.42419  0.03884  1.0000
  C   C4207     1.0  0.90485  0.41816  0.03966  1.0000
  C   C4208     1.0  0.90931  0.41718  0.05117  1.0000
  C   C4209     1.0  0.90076  0.42257  0.06181  1.0000
  C   C4210     1.0  0.88792  0.42954  0.06050  1.0000
  C   C4211     1.0  0.88336  0.43024  0.04913  1.0000
  H   H7425     1.0  0.91139  0.41347  0.03175  1.0000
  H   H7426     1.0  0.91914  0.41153  0.05214  1.0000
  H   H7427     1.0  0.88129  0.43388  0.06859  1.0000
  H   H7428     1.0  0.87328  0.43501  0.04856  1.0000
  C   C4212     1.0  0.92654  0.27682  0.39194  1.0000
  C   C4213     1.0  0.74912  0.48321  0.03074  1.0000
  H   H7429     1.0  0.87922  0.46113  0.08473  1.0000
  C   C4214     1.0  0.83950  0.46729  0.04624  1.0000
  C   C4215     1.0  0.85285  0.46138  0.04235  1.0000
  C   C4216     1.0  0.97280  0.26931  0.46445  1.0000
  H   H7430     1.0  0.88087  0.39439  0.12032  1.0000
  H   H7431     1.0  0.90705  0.44139  0.16820  1.0000
  H   H7432     1.0  0.85578  0.45080  0.04293  1.0000
  C   C4217     1.0  0.77012  0.41693  0.09997  1.0000
  H   H7433     1.0  0.98392  0.39642  0.45368  1.0000
  H   H7434     1.0  0.91510  0.30979  0.39343  1.0000
  H   H7435     1.0  0.85118  0.37681  0.00762  1.0000
  C   C4218     1.0  0.97781  0.45529  0.20463  1.0000
  C   C4219     1.0  0.97024  0.45064  0.21719  1.0000
  H   H7436     1.0  0.95094  0.29497  0.44788  1.0000
  H   H7437     1.0  0.74513  0.44441  0.98646  1.0000
  H   H7438     1.0  0.88813  0.42410  0.19964  1.0000
  H   H7439     1.0  0.96028  0.44992  0.21826  1.0000
  H   H7440     1.0  0.74153  0.37611  0.01727  1.0000
  H   H7441     1.0  0.80101  0.38899  0.99243  1.0000
  C   C4220     1.0  0.91267  0.47344  0.30648  1.0000
  C   C4221     1.0  0.97229  0.43874  0.09227  1.0000
  H   H7442     1.0  0.85365  0.39369  0.00103  1.0000
  H   H7443     1.0  0.91860  0.32559  0.34835  1.0000
  H   H7444     1.0  0.90841  0.46014  0.32589  1.0000
  H   H7445     1.0  0.77428  0.41933  0.07876  1.0000
  H   H7446     1.0  0.96199  0.44344  0.09280  1.0000
  C   C4222     1.0  0.75661  0.46563  0.07542  1.0000
  H   H7447     1.0  0.83788  0.40041  0.09208  1.0000
  C   C4223     1.0  0.78640  0.40302  0.04636  1.0000
  C   C4224     1.0  0.79233  0.39392  0.05637  1.0000
  C   C4225     1.0  0.80591  0.39182  0.05547  1.0000
  C   C4226     1.0  0.81366  0.39914  0.04477  1.0000
  C   C4227     1.0  0.80779  0.40833  0.03466  1.0000
  C   C4228     1.0  0.79415  0.41015  0.03537  1.0000
  H   H7448     1.0  0.78638  0.38841  0.06488  1.0000
  H   H7449     1.0  0.81037  0.38469  0.06326  1.0000
  H   H7450     1.0  0.81374  0.41392  0.02628  1.0000
  H   H7451     1.0  0.78959  0.41729  0.02767  1.0000
  H   H7452     1.0  0.94127  0.27002  0.37452  1.0000
  H   H7453     1.0  0.92373  0.29586  0.41320  1.0000
  H   H7454     1.0  0.85551  0.42161  0.98920  1.0000
  H   H7455     1.0  0.87413  0.46485  0.13860  1.0000
  H   H7456     1.0  0.85509  0.39697  0.10224  1.0000
  H   H7457     1.0  0.75525  0.36948  0.99120  1.0000
  C   C4229     1.0  0.91856  0.47275  0.29155  1.0000
  C   C4230     1.0  0.93997  0.45907  0.33254  1.0000
  C   C4231     1.0  0.96725  0.38947  0.39765  1.0000
  H   H7458     1.0  0.83908  0.39616  0.98596  1.0000
  H   H7459     1.0  0.94076  0.29125  0.39720  1.0000
  H   H7460     1.0  0.93217  0.27273  0.40003  1.0000
  H   H7461     1.0  0.92640  0.25021  0.39606  1.0000
  C   C4232     1.0  0.90826  0.46920  0.16039  1.0000
  H   H7462     1.0  0.92096  0.45809  0.14511  1.0000
  H   H7463     1.0  0.97152  0.34736  0.44052  1.0000
  H   H7464     1.0  0.78166  0.44314  0.06622  1.0000
  C   C4233     1.0  0.75954  0.43705  0.08421  1.0000
  C   C4234     1.0  0.92307  0.29627  0.37303  1.0000
  C   C4235     1.0  0.87537  0.47783  0.09422  1.0000
  H   H7465     1.0  0.74670  0.42632  0.07245  1.0000
  H   H7466     1.0  0.75126  0.43906  0.09289  1.0000
  C   C4236     1.0  0.97765  0.42485  0.33361  1.0000
  N   N234      1.0  0.75476  0.44318  0.07135  1.0000
  H   H7467     1.0  0.88775  0.44788  0.19395  1.0000
  C   C4237     1.0  0.91229  0.30123  0.46700  1.0000
  H   H7468     1.0  0.95426  0.29345  0.46393  1.0000
  C   C4238     1.0  0.90476  0.30976  0.45626  1.0000
  H   H7469     1.0  0.91357  0.29382  0.37338  1.0000
  H   H7470     1.0  0.97716  0.45540  0.09593  1.0000
  H   H7471     1.0  0.97496  0.39593  0.20173  1.0000
  H   H7472     1.0  0.90967  0.47156  0.12674  1.0000
  C   C4239     1.0  0.75170  0.48071  0.07139  1.0000
  H   H7473     1.0  0.96892  0.25559  0.43398  1.0000
  H   H7474     1.0  0.92764  0.30923  0.34594  1.0000
  H   H7475     1.0  0.92465  0.26919  0.37570  1.0000
  H   H7476     1.0  0.92298  0.29923  0.46210  1.0000
  C   C4240     1.0  0.95418  0.28778  0.45671  1.0000
  H   H7477     1.0  0.95301  0.42534  0.35545  1.0000
  H   H7478     1.0  0.90761  0.31957  0.45223  1.0000
  H   H7479     1.0  0.90722  0.30461  0.44792  1.0000
  H   H7480     1.0  0.89392  0.31138  0.46038  1.0000
  H   H7481     1.0  0.94606  0.39751  0.40161  1.0000
  C   C4241     1.0  0.97647  0.34999  0.43021  1.0000
  C   C4242     1.0  0.93520  0.25305  0.38856  1.0000
  C   C4243     1.0  0.80817  0.47209  0.01052  1.0000
  C   C4244     1.0  0.79583  0.46587  0.01573  1.0000
  H   H7482     1.0  0.77632  0.45594  0.05253  1.0000
  C   C4245     1.0  0.95149  0.28854  0.37779  1.0000
  H   H7483     1.0  0.81630  0.46453  0.01467  1.0000
  H   H7484     1.0  0.74034  0.36163  0.01238  1.0000
  H   H7485     1.0  0.79449  0.46189  0.02666  1.0000
  C   C4246     1.0  0.87520  0.39675  0.10171  1.0000
  C   C4247     1.0  0.90568  0.48230  0.20797  1.0000
  H   H7486     1.0  0.96466  0.43892  0.12928  1.0000
  N   N235      1.0  0.86564  0.39759  0.08157  1.0000
  H   H7487     1.0  0.93134  0.31437  0.36573  1.0000
  C   C4248     1.0  0.97568  0.24535  0.45235  1.0000
  C   C4249     1.0  0.93880  0.29478  0.38699  1.0000
  C   C4250     1.0  0.87943  0.39176  0.07446  1.0000
  H   H7488     1.0  0.93866  0.38618  0.47585  1.0000
  H   H7489     1.0  0.90279  0.39145  0.05534  1.0000
  H   H7490     1.0  0.92536  0.45220  0.16118  1.0000
  H   H7491     1.0  0.86016  0.38207  0.07624  1.0000
  H   H7492     1.0  0.75819  0.41607  0.08742  1.0000
  H   H7493     1.0  0.95236  0.48224  0.15073  1.0000
  H   H7494     1.0  0.93880  0.41734  0.37713  1.0000
  H   H7495     1.0  0.98123  0.39008  0.24462  1.0000
  H   H7496     1.0  0.97004  0.39885  0.39135  1.0000
  H   H7497     1.0  0.85207  0.43898  0.06762  1.0000
  H   H7498     1.0  0.91651  0.45273  0.04397  1.0000
  C   C4251     1.0  0.91485  0.29428  0.41114  1.0000
  H   H7499     1.0  0.88336  0.47527  0.04914  1.0000
  H   H7500     1.0  0.75433  0.46283  0.08652  1.0000
  H   H7501     1.0  0.93793  0.47920  0.26984  1.0000
  H   H7502     1.0  0.76724  0.44172  0.08483  1.0000
  H   H7503     1.0  0.89734  0.38831  0.04228  1.0000
  H   H7504     1.0  0.87269  0.46452  0.03419  1.0000
  H   H7505     1.0  0.96617  0.24962  0.45850  1.0000
  H   H7506     1.0  0.88244  0.38101  0.07916  1.0000
  C   C4252     1.0  0.91502  0.38263  0.39417  1.0000
  C   C4253     1.0  0.87342  0.39161  0.11683  1.0000
  N   N236      1.0  0.92611  0.29160  0.38679  1.0000
  H   H7507     1.0  0.93056  0.29088  0.36578  1.0000
  H   H7508     1.0  0.95728  0.35304  0.37389  1.0000
  H   H7509     1.0  0.85703  0.43801  0.08278  1.0000
  H   H7510     1.0  0.87402  0.40771  0.09966  1.0000
  H   H7511     1.0  0.76490  0.46572  0.03141  1.0000
  S   S950      1.0  0.92804  0.33431  0.45108  1.0000
  C   C4254     1.0  0.93217  0.33341  0.47542  1.0000
  H   H7512     1.0  0.84732  0.41809  0.09394  1.0000
  H   H7513     1.0  0.93141  0.37658  0.40378  1.0000
  H   H7514     1.0  0.74996  0.46306  0.05913  1.0000
  H   H7515     1.0  0.87195  0.46501  0.01002  1.0000
  H   H7516     1.0  0.86549  0.47920  0.98448  1.0000
  H   H7517     1.0  0.96899  0.46342  0.15902  1.0000
  H   H7518     1.0  0.90496  0.46561  0.03544  1.0000
  C   C4255     1.0  0.78943  0.43815  0.04725  1.0000
  C   C4256     1.0  0.84987  0.42078  0.08287  1.0000
  H   H7519     1.0  0.98469  0.41205  0.19557  1.0000
  H   H7520     1.0  0.95167  0.41551  0.38562  1.0000
  C   C4257     1.0  0.97038  0.39151  0.21205  1.0000
  H   H7521     1.0  0.91519  0.44838  0.26377  1.0000
  H   H7522     1.0  0.97762  0.45530  0.27599  1.0000
  H   H7523     1.0  0.98320  0.43505  0.30234  1.0000
  H   H7524     1.0  0.92799  0.28508  0.48130  1.0000
  H   H7525     1.0  0.83478  0.38046  0.99353  1.0000
  H   H7526     1.0  0.98283  0.41965  0.21593  1.0000
  H   H7527     1.0  0.74082  0.48360  0.07495  1.0000
  H   H7528     1.0  0.78649  0.43923  0.03778  1.0000
  H   H7529     1.0  0.79815  0.44260  0.04503  1.0000
  H   H7530     1.0  0.79234  0.42740  0.05187  1.0000
  C   C4258     1.0  0.92171  0.46117  0.15388  1.0000
  N   N237      1.0  0.95105  0.37077  0.46558  1.0000
  H   H7531     1.0  0.96863  0.40382  0.44822  1.0000
  C   C4259     1.0  0.94030  0.37033  0.45924  1.0000
  H   H7532     1.0  0.92197  0.33875  0.47751  1.0000
  H   H7533     1.0  0.98322  0.46034  0.29151  1.0000
  C   C4260     1.0  0.94485  0.36514  0.44614  1.0000
  H   H7534     1.0  0.97026  0.40195  0.26287  1.0000
  H   H7535     1.0  0.90993  0.39089  0.39942  1.0000
  H   H7536     1.0  0.96868  0.31431  0.46801  1.0000
  C   C4261     1.0  0.93322  0.36757  0.43961  1.0000
  H   H7537     1.0  0.95320  0.47381  0.05498  1.0000
  Fe  Fe476     1.0  0.93282  0.42922  0.33248  1.0000
  H   H7538     1.0  0.79875  0.37101  0.02215  1.0000
  H   H7539     1.0  0.87489  0.38058  0.11950  1.0000
  H   H7540     1.0  0.96749  0.35575  0.45857  1.0000
  C   C4262     1.0  0.96797  0.27942  0.45231  1.0000
  H   H7541     1.0  0.94898  0.35424  0.44840  1.0000
  H   H7542     1.0  0.95236  0.37002  0.43858  1.0000
  C   C4263     1.0  0.79098  0.48173  0.05247  1.0000
  C   C4264     1.0  0.83155  0.39123  0.99371  1.0000
  C   C4265     1.0  0.91298  0.48060  0.09303  1.0000
  H   H7543     1.0  0.92920  0.47848  0.14128  1.0000
  H   H7544     1.0  0.98077  0.37169  0.34310  1.0000
  C   C4266     1.0  0.76552  0.42182  0.08678  1.0000
  C   C4267     1.0  0.95448  0.44874  0.27910  1.0000
  H   H7545     1.0  0.92943  0.37841  0.43611  1.0000
  H   H7546     1.0  0.93651  0.36285  0.43087  1.0000
  C   C4268     1.0  0.88155  0.39276  0.05921  1.0000
  H   H7547     1.0  0.95844  0.48140  0.26990  1.0000
  C   C4269     1.0  0.93218  0.46953  0.14896  1.0000
  H   H7548     1.0  0.97999  0.45059  0.31643  1.0000
  H   H7549     1.0  0.94176  0.46349  0.14457  1.0000
  C   C4270     1.0  0.86239  0.46915  0.03738  1.0000
  C   C4271     1.0  0.93428  0.47116  0.24947  1.0000
  H   H7550     1.0  0.94350  0.25096  0.39363  1.0000
  C   C4272     1.0  0.87791  0.45430  0.14325  1.0000
  H   H7551     1.0  0.90301  0.45605  0.06580  1.0000
  H   H7552     1.0  0.98432  0.32369  0.35644  1.0000
  H   H7553     1.0  0.74207  0.43951  0.05156  1.0000
  C   C4273     1.0  0.97735  0.45022  0.13086  1.0000
  H   H7554     1.0  0.88058  0.47747  0.99863  1.0000
  H   H7555     1.0  0.96874  0.45819  0.13375  1.0000
  H   H7556     1.0  0.95030  0.29030  0.36743  1.0000
  H   H7557     1.0  0.96625  0.42349  0.36368  1.0000
  N   N238      1.0  0.89690  0.46214  0.16541  1.0000
  H   H7558     1.0  0.77792  0.42196  0.09974  1.0000
  C   C4274     1.0  0.94829  0.45842  0.31997  1.0000
  H   H7559     1.0  0.97998  0.44344  0.26631  1.0000
  H   H7560     1.0  0.90194  0.45391  0.14781  1.0000
  H   H7561     1.0  0.96654  0.42987  0.28603  1.0000
  H   H7562     1.0  0.94984  0.44991  0.31588  1.0000
  C   C4275     1.0  0.88059  0.46666  0.00169  1.0000
  C   C4276     1.0  0.96464  0.48275  0.25960  1.0000
  C   C4277     1.0  0.88576  0.46998  0.05899  1.0000
  C   C4278     1.0  0.88174  0.45349  0.15622  1.0000
  H   H7563     1.0  0.75148  0.45138  0.02947  1.0000
  H   H7564     1.0  0.90522  0.29846  0.39470  1.0000
  H   H7565     1.0  0.91282  0.46694  0.28905  1.0000
  C   C4279     1.0  0.97920  0.44452  0.27661  1.0000
  C   C4280     1.0  0.91941  0.31474  0.35261  1.0000
  H   H7566     1.0  0.83570  0.47329  0.00501  1.0000
  C   C4281     1.0  0.75694  0.46824  0.99641  1.0000
  H   H7567     1.0  0.92507  0.36316  0.44675  1.0000
  C   C4282     1.0  0.95494  0.46867  0.31280  1.0000
  S   S951      1.0  0.93176  0.44609  0.34199  1.0000
  C   C4283     1.0  0.89343  0.46027  0.15341  1.0000
  C   C4284     1.0  0.92203  0.31136  0.36665  1.0000
  H   H7568     1.0  0.89732  0.42222  0.18311  1.0000
  N   N239      1.0  0.95084  0.38937  0.38395  1.0000
  C   C4285     1.0  0.95571  0.40064  0.37334  1.0000
  C   C4286     1.0  0.95842  0.37638  0.38009  1.0000
  S   S952      1.0  0.95832  0.31812  0.42475  1.0000
  C   C4287     1.0  0.81342  0.41114  0.99197  1.0000
  C   C4288     1.0  0.80109  0.41927  0.98631  1.0000
  C   C4289     1.0  0.95657  0.37436  0.36698  1.0000
  C   C4290     1.0  0.96237  0.35997  0.36551  1.0000
  C   C4291     1.0  0.84973  0.43570  0.07869  1.0000
  C   C4292     1.0  0.92990  0.37933  0.39343  1.0000
  H   H7569     1.0  0.95346  0.40103  0.36368  1.0000
  H   H7570     1.0  0.96669  0.39892  0.37121  1.0000
  H   H7571     1.0  0.96922  0.37529  0.37872  1.0000
  H   H7572     1.0  0.95593  0.36783  0.38833  1.0000
  H   H7573     1.0  0.93383  0.39407  0.37498  1.0000
  C   C4293     1.0  0.96977  0.38365  0.46060  1.0000
  C   C4294     1.0  0.90139  0.44883  0.17437  1.0000
  H   H7574     1.0  0.78846  0.45005  0.01322  1.0000
  H   H7575     1.0  0.94603  0.37666  0.36668  1.0000
  H   H7576     1.0  0.96156  0.38100  0.35821  1.0000
  H   H7577     1.0  0.96104  0.35882  0.35598  1.0000
  H   H7578     1.0  0.97307  0.35717  0.36550  1.0000
  H   H7579     1.0  0.96136  0.46800  0.30313  1.0000
  H   H7580     1.0  0.88549  0.39232  0.09713  1.0000
  H   H7581     1.0  0.85378  0.39848  0.06788  1.0000
  C   C4295     1.0  0.96624  0.44049  0.28526  1.0000
  S   S953      1.0  0.90657  0.47259  0.19682  1.0000
  C   C4296     1.0  0.83244  0.38945  0.08127  1.0000
  H   H7582     1.0  0.82317  0.38814  0.08881  1.0000
  H   H7583     1.0  0.82999  0.39828  0.07321  1.0000
  H   H7584     1.0  0.97330  0.27530  0.47121  1.0000
  C   C4297     1.0  0.97288  0.24529  0.43912  1.0000
  H   H7585     1.0  0.88679  0.39675  0.07546  1.0000
  H   H7586     1.0  0.93188  0.47083  0.34752  1.0000
  C   C4298     1.0  0.96920  0.41306  0.12874  1.0000
  C   C4299     1.0  0.97953  0.34895  0.40716  1.0000
  H   H7587     1.0  0.98422  0.48414  0.26972  1.0000
  H   H7588     1.0  0.82147  0.41669  0.98707  1.0000
  C   C4300     1.0  0.96600  0.39970  0.12898  1.0000
  H   H7589     1.0  0.98344  0.28037  0.42213  1.0000
  H   H7590     1.0  0.91440  0.47618  0.26080  1.0000
  C   C4301     1.0  0.80499  0.48357  0.02884  1.0000
  H   H7591     1.0  0.97010  0.41312  0.15322  1.0000
  C   C4302     1.0  0.95251  0.40214  0.12566  1.0000
  H   H7592     1.0  0.96375  0.37748  0.44650  1.0000
  H   H7593     1.0  0.91638  0.27507  0.39672  1.0000
  H   H7594     1.0  0.91089  0.37371  0.39973  1.0000
  H   H7595     1.0  0.92550  0.46297  0.26959  1.0000
  H   H7596     1.0  0.79852  0.45799  0.99822  1.0000
  H   H7597     1.0  0.96041  0.41838  0.13502  1.0000
  H   H7598     1.0  0.90717  0.24404  0.48171  1.0000
  H   H7599     1.0  0.76795  0.42913  0.05973  1.0000
  H   H7600     1.0  0.93789  0.30575  0.38477  1.0000
  H   H7601     1.0  0.90663  0.47156  0.05541  1.0000
  C   C4303     1.0  0.74965  0.38002  0.98952  1.0000
  H   H7602     1.0  0.97711  0.45341  0.06419  1.0000
  H   H7603     1.0  0.96571  0.39283  0.13891  1.0000
  C   C4304     1.0  0.98552  0.39835  0.23740  1.0000
  H   H7604     1.0  0.80616  0.44643  0.01129  1.0000
  H   H7605     1.0  0.93746  0.47569  0.11653  1.0000
  H   H7606     1.0  0.90290  0.31290  0.41650  1.0000
  H   H7607     1.0  0.97775  0.37458  0.46184  1.0000
  C   C4305     1.0  0.96315  0.29435  0.37704  1.0000
  H   H7608     1.0  0.96107  0.45000  0.06614  1.0000
  C   C4306     1.0  0.92453  0.47291  0.26269  1.0000
  H   H7609     1.0  0.86478  0.41562  0.06617  1.0000
  C   C4307     1.0  0.94966  0.41476  0.37626  1.0000
  H   H7610     1.0  0.95067  0.37993  0.40471  1.0000
  C   C4308     1.0  0.89561  0.42789  0.19092  1.0000
  H   H7611     1.0  0.95210  0.40925  0.11589  1.0000
  H   H7612     1.0  0.95073  0.39263  0.12506  1.0000
  H   H7613     1.0  0.94449  0.40621  0.13354  1.0000
  C   C4309     1.0  0.90086  0.46397  0.05693  1.0000
  H   H7614     1.0  0.81121  0.41154  0.00266  1.0000
  H   H7615     1.0  0.97465  0.28642  0.44745  1.0000
  H   H7616     1.0  0.97826  0.33441  0.47406  1.0000
  C   C4310     1.0  0.80838  0.38833  0.99824  1.0000
  C   C4311     1.0  0.80006  0.39145  0.01188  1.0000
  H   H7617     1.0  0.76155  0.44446  0.05006  1.0000
  H   H7618     1.0  0.96442  0.44234  0.29539  1.0000
  C   C4312     1.0  0.83295  0.39218  0.00745  1.0000
  C   C4313     1.0  0.84737  0.38730  0.00872  1.0000
  C   C4314     1.0  0.79206  0.38089  0.01969  1.0000
  C   C4315     1.0  0.97239  0.34681  0.42039  1.0000
  C   C4316     1.0  0.79739  0.45437  0.00920  1.0000
  H   H7619     1.0  0.97671  0.39682  0.15086  1.0000
  N   N240      1.0  0.98159  0.41209  0.13328  1.0000
  H   H7620     1.0  0.97464  0.38100  0.39404  1.0000
  H   H7621     1.0  0.96538  0.23930  0.44104  1.0000
  H   H7622     1.0  0.89349  0.30084  0.41768  1.0000
  H   H7623     1.0  0.96977  0.44274  0.23815  1.0000
  H   H7624     1.0  0.87637  0.48454  0.15706  1.0000
  H   H7625     1.0  0.81356  0.37764  0.00009  1.0000
  H   H7626     1.0  0.79289  0.40115  0.01040  1.0000
  H   H7627     1.0  0.80630  0.39194  0.01824  1.0000
  H   H7628     1.0  0.95423  0.27766  0.38194  1.0000
  C   C4317     1.0  0.94429  0.37569  0.47828  1.0000
  C   C4318     1.0  0.93212  0.26778  0.38162  1.0000
  H   H7629     1.0  0.73905  0.46046  0.07502  1.0000
  H   H7630     1.0  0.96627  0.37902  0.41843  1.0000
  H   H7631     1.0  0.82724  0.38573  0.01567  1.0000
  H   H7632     1.0  0.84811  0.38778  0.01873  1.0000
  C   C4319     1.0  0.90592  0.45778  0.04468  1.0000
  H   H7633     1.0  0.81153  0.47290  0.99952  1.0000
  H   H7634     1.0  0.78598  0.38364  0.02920  1.0000
  H   H7635     1.0  0.78532  0.38022  0.01384  1.0000
  H   H7636     1.0  0.95442  0.34921  0.47001  1.0000
  H   H7637     1.0  0.97122  0.43258  0.33860  1.0000
  C   C4320     1.0  0.97566  0.44657  0.22852  1.0000
  C   C4321     1.0  0.74712  0.46168  0.02951  1.0000
  H   H7638     1.0  0.88153  0.44376  0.18210  1.0000
  H   H7639     1.0  0.90279  0.29840  0.43009  1.0000
  H   H7640     1.0  0.85838  0.46733  0.08337  1.0000
  C   C4322     1.0  0.97184  0.47306  0.15366  1.0000
  H   H7641     1.0  0.92261  0.45323  0.31434  1.0000
  C   C4323     1.0  0.91244  0.45952  0.31525  1.0000
  H   H7642     1.0  0.86453  0.48096  0.09510  1.0000
  H   H7643     1.0  0.78616  0.43752  0.98748  1.0000
  C   C4324     1.0  0.96163  0.47112  0.06000  1.0000
  H   H7644     1.0  0.96892  0.47722  0.05395  1.0000
  H   H7645     1.0  0.88045  0.45052  0.99369  1.0000
  H   H7646     1.0  0.98550  0.41832  0.29098  1.0000
  H   H7647     1.0  0.96484  0.29283  0.38718  1.0000
  C   C4325     1.0  0.85583  0.39244  0.07772  1.0000
  C   C4326     1.0  0.91199  0.47248  0.10588  1.0000
  H   H7648     1.0  0.94753  0.46921  0.07886  1.0000
  H   H7649     1.0  0.93191  0.46380  0.24546  1.0000
  N   N241      1.0  0.88019  0.47891  0.06885  1.0000
  H   H7650     1.0  0.94532  0.44543  0.28513  1.0000
  H   H7651     1.0  0.79338  0.41339  0.98893  1.0000
  H   H7652     1.0  0.95131  0.47675  0.17550  1.0000
  C   C4327     1.0  0.95394  0.48151  0.10077  1.0000
  H   H7653     1.0  0.90845  0.44964  0.17986  1.0000
  H   H7654     1.0  0.87284  0.45822  0.16282  1.0000
  H   H7655     1.0  0.86341  0.39611  0.12207  1.0000
  C   C4328     1.0  0.97611  0.39440  0.45010  1.0000
  C   C4329     1.0  0.97760  0.41133  0.24211  1.0000
  H   H7656     1.0  0.78668  0.47313  0.01369  1.0000
  H   H7657     1.0  0.87003  0.44872  0.14538  1.0000
  C   C4330     1.0  0.98435  0.42588  0.12947  1.0000
  C   C4331     1.0  0.84242  0.39148  0.08783  1.0000
  H   H7658     1.0  0.95085  0.43536  0.36717  1.0000
  H   H7659     1.0  0.84213  0.41928  0.07880  1.0000
  H   H7660     1.0  0.95550  0.32067  0.45074  1.0000
  H   H7661     1.0  0.93057  0.39993  0.38968  1.0000
  C   C4332     1.0  0.89059  0.44273  0.18552  1.0000
  H   H7662     1.0  0.88656  0.44987  0.13609  1.0000
  H   H7663     1.0  0.88841  0.46535  0.10739  1.0000
  H   H7664     1.0  0.96142  0.39701  0.41592  1.0000
  H   H7665     1.0  0.76747  0.46336  0.07180  1.0000
  H   H7666     1.0  0.95310  0.45942  0.27894  1.0000
  H   H7667     1.0  0.88090  0.46136  0.06217  1.0000
  H   H7668     1.0  0.92878  0.46649  0.29104  1.0000
  H   H7669     1.0  0.83975  0.44147  0.08253  1.0000
  H   H7670     1.0  0.86632  0.38195  0.09934  1.0000
  H   H7671     1.0  0.87353  0.45963  0.10953  1.0000
  H   H7672     1.0  0.96379  0.46731  0.08032  1.0000
  C   C4333     1.0  0.97188  0.39839  0.22242  1.0000
  C   C4334     1.0  0.90274  0.30212  0.41931  1.0000
  H   H7673     1.0  0.91311  0.46189  0.10736  1.0000
  H   H7674     1.0  0.96970  0.41909  0.11832  1.0000
  H   H7675     1.0  0.98385  0.47590  0.33304  1.0000
  C   C4335     1.0  0.93782  0.33004  0.46296  1.0000
  C   C4336     1.0  0.95582  0.39251  0.21263  1.0000
  C   C4337     1.0  0.74968  0.45812  0.06984  1.0000
  H   H7676     1.0  0.98580  0.40691  0.25974  1.0000
  C   C4338     1.0  0.95535  0.42533  0.36495  1.0000
  C   C4339     1.0  0.85668  0.47434  0.07389  1.0000
  H   H7677     1.0  0.96126  0.30517  0.37239  1.0000
  H   H7678     1.0  0.95827  0.47095  0.10040  1.0000
  H   H7679     1.0  0.96596  0.38720  0.47004  1.0000
  N   N242      1.0  0.98574  0.39818  0.22322  1.0000
  H   H7680     1.0  0.96628  0.39367  0.23227  1.0000
  H   H7681     1.0  0.96616  0.40882  0.22047  1.0000
  C   C4340     1.0  0.88021  0.46136  0.98996  1.0000
  H   H7682     1.0  0.95595  0.44742  0.26879  1.0000
  H   H7683     1.0  0.75567  0.47780  0.99929  1.0000
  C   C4341     1.0  0.97907  0.40680  0.14822  1.0000
  H   H7684     1.0  0.96763  0.41448  0.23983  1.0000
  H   H7685     1.0  0.90589  0.47840  0.15274  1.0000
  C   C4342     1.0  0.91495  0.29901  0.39599  1.0000
  H   H7686     1.0  0.91377  0.31758  0.37260  1.0000
  H   H7687     1.0  0.91457  0.28358  0.41489  1.0000
  S   S954      1.0  0.94472  0.42833  0.31191  1.0000
  H   H7688     1.0  0.74791  0.46424  0.00143  1.0000
  H   H7689     1.0  0.95501  0.38765  0.20506  1.0000
  H   H7690     1.0  0.95094  0.38750  0.22267  1.0000
  H   H7691     1.0  0.95043  0.40306  0.21050  1.0000
  H   H7692     1.0  0.91868  0.47784  0.31027  1.0000
  H   H7693     1.0  0.90613  0.45470  0.31231  1.0000
  H   H7694     1.0  0.97345  0.39461  0.12144  1.0000
  C   C4343     1.0  0.98090  0.44559  0.09388  1.0000
  H   H7695     1.0  0.94694  0.28128  0.46135  1.0000
  H   H7696     1.0  0.97858  0.24298  0.47631  1.0000
  C   C4344     1.0  0.97710  0.42597  0.08967  1.0000
  H   H7697     1.0  0.97026  0.36191  0.48099  1.0000
  H   H7698     1.0  0.97950  0.47428  0.15806  1.0000
  H   H7699     1.0  0.90996  0.47243  0.16872  1.0000
  H   H7700     1.0  0.79202  0.42969  0.00259  1.0000
  C   C4345     1.0  0.98580  0.40180  0.17035  1.0000
  C   C4346     1.0  0.97290  0.43709  0.13433  1.0000
  H   H7701     1.0  0.98514  0.30462  0.37576  1.0000
  H   H7702     1.0  0.97862  0.38886  0.41175  1.0000
  H   H7703     1.0  0.89154  0.46997  0.14619  1.0000
  H   H7704     1.0  0.81037  0.47348  0.03313  1.0000
  C   C4347     1.0  0.95649  0.47355  0.07439  1.0000
  H   H7705     1.0  0.85917  0.46475  0.99205  1.0000
  C   C4348     1.0  0.79507  0.43205  0.99151  1.0000
  C   C4349     1.0  0.87769  0.46857  0.10749  1.0000
  H   H7706     1.0  0.90915  0.29158  0.47078  1.0000
  H   H7707     1.0  0.79545  0.47096  0.05544  1.0000
  C   C4350     1.0  0.84208  0.48139  0.07637  1.0000
  C   C4351     1.0  0.96808  0.45646  0.06006  1.0000
  H   H7708     1.0  0.91111  0.47888  0.23870  1.0000
  H   H7709     1.0  0.89297  0.46787  0.08243  1.0000
  C   C4352     1.0  0.96002  0.35712  0.46791  1.0000
  H   H7710     1.0  0.98076  0.39101  0.44058  1.0000
  H   H7711     1.0  0.96919  0.43455  0.14532  1.0000
  C   C4353     1.0  0.96839  0.38856  0.41183  1.0000
  C   C4354     1.0  0.94498  0.48051  0.33063  1.0000
  C   C4355     1.0  0.88225  0.47079  0.08242  1.0000
  H   H7712     1.0  0.76168  0.41885  0.10848  1.0000
  H   H7713     1.0  0.97732  0.32920  0.37190  1.0000
  H   H7714     1.0  0.83064  0.47638  0.02150  1.0000
  H   H7715     1.0  0.85848  0.46843  0.06626  1.0000
  C   C4356     1.0  0.91003  0.30842  0.47847  1.0000
  C   C4357     1.0  0.96743  0.35340  0.47948  1.0000
  C   C4358     1.0  0.94502  0.48162  0.11465  1.0000
  H   H7716     1.0  0.87696  0.46609  0.17765  1.0000
  H   H7717     1.0  0.97096  0.45489  0.04970  1.0000
  H   H7718     1.0  0.76550  0.46094  0.99995  1.0000
  H   H7719     1.0  0.97223  0.47348  0.25855  1.0000
  H   H7720     1.0  0.98076  0.30001  0.40730  1.0000
  H   H7721     1.0  0.80236  0.43850  0.98828  1.0000
  H   H7722     1.0  0.97501  0.38074  0.21404  1.0000
  H   H7723     1.0  0.94457  0.46741  0.25095  1.0000
  H   H7724     1.0  0.93361  0.48076  0.24195  1.0000
  H   H7725     1.0  0.77432  0.40602  0.10157  1.0000
  H   H7726     1.0  0.97622  0.47275  0.14301  1.0000
  C   C4359     1.0  0.97598  0.40969  0.25713  1.0000
  S   S955      1.0  0.83501  0.44557  0.99154  1.0000
  C   C4360     1.0  0.90919  0.48374  0.22892  1.0000
  H   H7727     1.0  0.98501  0.44933  0.13636  1.0000
  H   H7728     1.0  0.93825  0.24677  0.38106  1.0000
  H   H7729     1.0  0.93347  0.47276  0.15738  1.0000
  C   C4361     1.0  0.90985  0.47799  0.11693  1.0000
  H   H7730     1.0  0.98183  0.39260  0.17369  1.0000
  H   H7731     1.0  0.85199  0.48239  0.01001  1.0000
  C   C4362     1.0  0.86754  0.46848  0.98446  1.0000
  C   C4363     1.0  0.93828  0.47022  0.33780  1.0000
  H   H7732     1.0  0.98094  0.26860  0.40611  1.0000
  H   H7733     1.0  0.97748  0.47804  0.08445  1.0000
  H   H7734     1.0  0.98198  0.24097  0.43245  1.0000
  H   H7735     1.0  0.91609  0.31612  0.47459  1.0000
  C   C4364     1.0  0.85854  0.48291  0.03628  1.0000
  H   H7736     1.0  0.98429  0.29099  0.39502  1.0000
  C   C4365     1.0  0.90825  0.47612  0.22063  1.0000
  C   C4366     1.0  0.95347  0.47965  0.31816  1.0000
  H   H7737     1.0  0.97798  0.41014  0.17380  1.0000
  H   H7738     1.0  0.98265  0.47768  0.06719  1.0000
  H   H7739     1.0  0.98302  0.41940  0.23703  1.0000
  H   H7740     1.0  0.98143  0.45311  0.11995  1.0000
  H   H7741     1.0  0.87277  0.47397  0.11567  1.0000
  C   C4367     1.0  0.83202  0.48127  0.01077  1.0000
  C   C4368     1.0  0.74333  0.43717  0.07225  1.0000
  H   H7742     1.0  0.89968  0.31419  0.48003  1.0000
  H   H7743     1.0  0.83582  0.47409  0.07836  1.0000
  H   H7744     1.0  0.95108  0.47712  0.12230  1.0000
  S   S956      1.0  0.76591  0.42120  0.98213  1.0000
  C   C4369     1.0  0.98656  0.25312  0.45024  1.0000
  Fe  Fe477     1.0  0.73729  0.43708  0.02251  1.0000
  H   H7745     1.0  0.94582  0.23589  0.47170  1.0000
  H   H7746     1.0  0.97898  0.23485  0.45754  1.0000
  N   N243      1.0  0.98573  0.25938  0.46156  1.0000
  C   C4370     1.0  0.86572  0.48455  0.06890  1.0000
  C   C4371     1.0  0.98663  0.24835  0.47389  1.0000
  H   H7747     1.0  0.98645  0.26068  0.44075  1.0000
  H   H7748     1.0  0.75427  0.48416  0.06036  1.0000
  H   H7749     1.0  0.78072  0.48376  0.05847  1.0000
  C   C4372     1.0  0.98664  0.32460  0.36560  1.0000
  H   H7750     1.0  0.98678  0.38609  0.34195  1.0000
  C   C4373     1.0  0.95970  0.48456  0.15468  1.0000
  H   H7751     1.0  0.95834  0.48456  0.25236  1.0000
  H   H7752     1.0  0.93705  0.48466  0.09232  1.0000
  C   C4374     1.0  0.97861  0.48442  0.07429  1.0000
  H   H7753     1.0  0.88930  0.46252  0.98210  1.0000
  C   C4375     1.0  0.91154  0.37373  0.87781  1.0000
  S   S957      1.0  0.81804  0.42115  0.93978  1.0000
  Fe  Fe478     1.0  0.84141  0.42449  0.90433  1.0000
  S   S958      1.0  0.81930  0.43010  0.90743  1.0000
  S   S959      1.0  0.85210  0.43111  0.88308  1.0000
  Fe  Fe479     1.0  0.82010  0.43946  0.92339  1.0000
  S   S960      1.0  0.80995  0.46098  0.92309  1.0000
  Fe  Fe480     1.0  0.81940  0.41131  0.92335  1.0000
  S   S961      1.0  0.80853  0.39522  0.92613  1.0000
  S   S962      1.0  0.84217  0.43488  0.91940  1.0000
  S   S963      1.0  0.84162  0.40476  0.91889  1.0000
  Fe  Fe481     1.0  0.92233  0.44675  0.82022  1.0000
  C   C4376     1.0  0.98174  0.36308  0.57724  1.0000
  C   C4377     1.0  0.90874  0.38932  0.83004  1.0000
  C   C4378     1.0  0.94453  0.40197  0.77326  1.0000
  Fe  Fe482     1.0  0.92186  0.42105  0.84100  1.0000
  S   S964      1.0  0.91369  0.41192  0.86262  1.0000
  S   S965      1.0  0.90846  0.43296  0.82719  1.0000
  H   H7754     1.0  0.74224  0.36394  0.95233  1.0000
  S   S966      1.0  0.74323  0.43980  0.91801  1.0000
  S   S967      1.0  0.74723  0.40150  0.93130  1.0000
  H   H7755     1.0  0.82626  0.40450  0.96928  1.0000
  H   H7756     1.0  0.90400  0.28699  0.50911  1.0000
  H   H7757     1.0  0.91850  0.38033  0.87596  1.0000
  C   C4379     1.0  0.98076  0.45694  0.67081  1.0000
  C   C4380     1.0  0.92728  0.29157  0.48809  1.0000
  C   C4381     1.0  0.73834  0.45238  0.96809  1.0000
  H   H7758     1.0  0.95513  0.39993  0.77190  1.0000
  H   H7759     1.0  0.98072  0.36475  0.60533  1.0000
  H   H7760     1.0  0.93467  0.23894  0.57229  1.0000
  H   H7761     1.0  0.90770  0.42626  0.62052  1.0000
  H   H7762     1.0  0.97983  0.46543  0.66207  1.0000
  S   S968      1.0  0.89912  0.26437  0.53228  1.0000
  C   C4382     1.0  0.92758  0.47426  0.78334  1.0000
  Fe  Fe483     1.0  0.93013  0.31947  0.53875  1.0000
  S   S969      1.0  0.94874  0.30536  0.53165  1.0000
  S   S970      1.0  0.91074  0.31296  0.54675  1.0000
  Fe  Fe484     1.0  0.94401  0.34240  0.53343  1.0000
  S   S971      1.0  0.96362  0.32998  0.52545  1.0000
  S   S972      1.0  0.94407  0.36365  0.53337  1.0000
  Fe  Fe485     1.0  0.95268  0.32274  0.51490  1.0000
  H   H7763     1.0  0.98644  0.44577  0.62583  1.0000
  Fe  Fe486     1.0  0.95770  0.31388  0.54289  1.0000
  H   H7764     1.0  0.96095  0.34938  0.48902  1.0000
  S   S973      1.0  0.93339  0.33657  0.52117  1.0000
  S   S974      1.0  0.93877  0.32664  0.55163  1.0000
  Fe  Fe487     1.0  0.94677  0.39594  0.59210  1.0000
  S   S975      1.0  0.96386  0.40575  0.58144  1.0000
  S   S976      1.0  0.94037  0.37934  0.58783  1.0000
  Fe  Fe488     1.0  0.94230  0.40693  0.61712  1.0000
  S   S977      1.0  0.95942  0.41699  0.60881  1.0000
  S   S978      1.0  0.92839  0.40872  0.63698  1.0000
  Fe  Fe489     1.0  0.95180  0.42352  0.59000  1.0000
  S   S979      1.0  0.94934  0.44504  0.57886  1.0000
  Fe  Fe490     1.0  0.96996  0.39850  0.60109  1.0000
  S   S980      1.0  0.93489  0.43576  0.83511  1.0000
  S   S981      1.0  0.93391  0.41449  0.59873  1.0000
  S   S982      1.0  0.95367  0.38773  0.61136  1.0000
  C   C4383     1.0  0.74408  0.37949  0.96842  1.0000
  H   H7765     1.0  0.89666  0.45406  0.88647  1.0000
  Fe  Fe491     1.0  0.93017  0.42704  0.71381  1.0000
  S   S983      1.0  0.93170  0.40484  0.71876  1.0000
  S   S984      1.0  0.91106  0.44242  0.71468  1.0000
  H   H7766     1.0  0.92837  0.30249  0.56770  1.0000
  S   S985      1.0  0.93510  0.43681  0.80370  1.0000
  H   H7767     1.0  0.90372  0.46942  0.79154  1.0000
  H   H7768     1.0  0.92867  0.29999  0.58499  1.0000
  Fe  Fe492     1.0  0.84019  0.41587  0.93440  1.0000
  H   H7769     1.0  0.97850  0.45623  0.60025  1.0000
  S   S986      1.0  0.91792  0.23926  0.50953  1.0000
  H   H7770     1.0  0.97413  0.47088  0.86006  1.0000
  H   H7771     1.0  0.90619  0.37253  0.88845  1.0000
  H   H7772     1.0  0.92840  0.37695  0.83204  1.0000
  C   C4384     1.0  0.91261  0.45581  0.72012  1.0000
  C   C4385     1.0  0.92514  0.45794  0.71883  1.0000
  C   C4386     1.0  0.98250  0.44185  0.55610  1.0000
  H   H7773     1.0  0.75963  0.36180  0.96440  1.0000
  C   C4387     1.0  0.87632  0.47142  0.90072  1.0000
  C   C4388     1.0  0.90143  0.46380  0.72663  1.0000
  H   H7774     1.0  0.93377  0.45200  0.71359  1.0000
  H   H7775     1.0  0.91571  0.30189  0.51003  1.0000
  C   C4389     1.0  0.77368  0.39173  0.97074  1.0000
  H   H7776     1.0  0.89171  0.46219  0.72764  1.0000
  C   C4390     1.0  0.95492  0.45582  0.58485  1.0000
  C   C4391     1.0  0.94917  0.46950  0.58246  1.0000
  S   S987      1.0  0.93579  0.24206  0.52866  1.0000
  H   H7777     1.0  0.92316  0.36576  0.50896  1.0000
  C   C4392     1.0  0.97023  0.45993  0.59540  1.0000
  C   C4393     1.0  0.96540  0.45105  0.59144  1.0000
  N   N244      1.0  0.90453  0.38766  0.62065  1.0000
  C   C4394     1.0  0.75623  0.43302  0.97162  1.0000
  H   H7778     1.0  0.98661  0.39016  0.67403  1.0000
  H   H7779     1.0  0.96999  0.44057  0.59316  1.0000
  C   C4395     1.0  0.93615  0.40402  0.65052  1.0000
  C   C4396     1.0  0.94936  0.39713  0.64919  1.0000
  H   H7780     1.0  0.91080  0.24846  0.57184  1.0000
  C   C4397     1.0  0.93219  0.26067  0.56430  1.0000
  C   C4398     1.0  0.93528  0.40422  0.67349  1.0000
  C   C4399     1.0  0.92909  0.40745  0.66271  1.0000
  H   H7781     1.0  0.95486  0.39448  0.63980  1.0000
  C   C4400     1.0  0.92168  0.37509  0.63571  1.0000
  H   H7782     1.0  0.86500  0.44641  0.98046  1.0000
  H   H7783     1.0  0.91887  0.41274  0.66374  1.0000
  N   N245      1.0  0.92615  0.46923  0.66651  1.0000
  H   H7784     1.0  0.87981  0.42695  0.83910  1.0000
  H   H7785     1.0  0.91523  0.38918  0.85198  1.0000
  H   H7786     1.0  0.88659  0.40902  0.82638  1.0000
  H   H7787     1.0  0.91398  0.37666  0.64479  1.0000
  H   H7788     1.0  0.97649  0.34419  0.59995  1.0000
  H   H7789     1.0  0.89605  0.38947  0.87149  1.0000
  H   H7790     1.0  0.90542  0.46464  0.86284  1.0000
  H   H7791     1.0  0.96525  0.23680  0.59404  1.0000
  H   H7792     1.0  0.97309  0.34695  0.55578  1.0000
  C   C4401     1.0  0.94392  0.36770  0.54844  1.0000
  C   C4402     1.0  0.94590  0.38023  0.54815  1.0000
  C   C4403     1.0  0.94528  0.38386  0.56007  1.0000
  C   C4404     1.0  0.94254  0.37501  0.57239  1.0000
  C   C4405     1.0  0.94066  0.36248  0.57265  1.0000
  C   C4406     1.0  0.94145  0.35880  0.56076  1.0000
  H   H7793     1.0  0.94778  0.38720  0.53868  1.0000
  H   H7794     1.0  0.94663  0.39359  0.55975  1.0000
  H   H7795     1.0  0.93847  0.35559  0.58213  1.0000
  H   H7796     1.0  0.93987  0.34916  0.56117  1.0000
  N   N246      1.0  0.87658  0.45823  0.89801  1.0000
  H   H7797     1.0  0.86741  0.41861  0.85092  1.0000
  C   C4407     1.0  0.88090  0.28569  0.50631  1.0000
  C   C4408     1.0  0.98605  0.25281  0.48674  1.0000
  H   H7798     1.0  0.79087  0.38619  0.95522  1.0000
  H   H7799     1.0  0.80290  0.47878  0.95447  1.0000
  H   H7800     1.0  0.94079  0.27694  0.58563  1.0000
  H   H7801     1.0  0.96240  0.32854  0.55831  1.0000
  C   C4409     1.0  0.90304  0.27748  0.53633  1.0000
  C   C4410     1.0  0.89265  0.28705  0.54161  1.0000
  C   C4411     1.0  0.89522  0.29779  0.54476  1.0000
  C   C4412     1.0  0.90820  0.29931  0.54235  1.0000
  C   C4413     1.0  0.91865  0.28993  0.53674  1.0000
  C   C4414     1.0  0.91607  0.27891  0.53390  1.0000
  H   H7802     1.0  0.88254  0.28607  0.54343  1.0000
  H   H7803     1.0  0.88709  0.30500  0.54905  1.0000
  H   H7804     1.0  0.92866  0.29109  0.53470  1.0000
  H   H7805     1.0  0.92409  0.27159  0.52973  1.0000
  H   H7806     1.0  0.86341  0.45009  0.89193  1.0000
  N   N247      1.0  0.89998  0.38675  0.84383  1.0000
  Fe  Fe493     1.0  0.94623  0.40411  0.73066  1.0000
  C   C4415     1.0  0.92713  0.47576  0.81737  1.0000
  C   C4416     1.0  0.77136  0.47590  0.97371  1.0000
  H   H7807     1.0  0.75152  0.44017  0.94003  1.0000
  N   N248      1.0  0.86779  0.46649  0.97092  1.0000
  S   S988      1.0  0.94328  0.42615  0.72710  1.0000
  C   C4417     1.0  0.97910  0.33719  0.55474  1.0000
  C   C4418     1.0  0.74439  0.46902  0.88275  1.0000
  H   H7808     1.0  0.98102  0.37934  0.48678  1.0000
  C   C4419     1.0  0.73980  0.45090  0.95513  1.0000
  C   C4420     1.0  0.98200  0.35457  0.61166  1.0000
  H   H7809     1.0  0.82493  0.44640  0.96912  1.0000
  H   H7810     1.0  0.98204  0.39630  0.79548  1.0000
  H   H7811     1.0  0.94317  0.43275  0.75416  1.0000
  C   C4421     1.0  0.87143  0.45166  0.97158  1.0000
  C   C4422     1.0  0.94200  0.47621  0.62803  1.0000
  H   H7812     1.0  0.87696  0.42622  0.96805  1.0000
  C   C4423     1.0  0.75161  0.47528  0.87076  1.0000
  H   H7813     1.0  0.96523  0.26177  0.55227  1.0000
  H   H7814     1.0  0.91292  0.39814  0.82856  1.0000
  H   H7815     1.0  0.80396  0.42219  0.97526  1.0000
  Fe  Fe494     1.0  0.94906  0.40515  0.70112  1.0000
  C   C4424     1.0  0.94380  0.27735  0.56418  1.0000
  H   H7816     1.0  0.89699  0.37076  0.82635  1.0000
  S   S989      1.0  0.85202  0.40815  0.95039  1.0000
  H   H7817     1.0  0.91278  0.43401  0.67161  1.0000
  H   H7818     1.0  0.94394  0.29963  0.57254  1.0000
  H   H7819     1.0  0.96208  0.26949  0.51757  1.0000
  H   H7820     1.0  0.96888  0.45732  0.76275  1.0000
  C   C4425     1.0  0.94843  0.39714  0.67223  1.0000
  H   H7821     1.0  0.87590  0.36526  0.82820  1.0000
  H   H7822     1.0  0.88895  0.29546  0.48641  1.0000
  H   H7823     1.0  0.97133  0.45153  0.65317  1.0000
  S   S990      1.0  0.96241  0.31819  0.49463  1.0000
  C   C4426     1.0  0.91317  0.30814  0.50050  1.0000
  H   H7824     1.0  0.92788  0.38153  0.50171  1.0000
  C   C4427     1.0  0.95274  0.32272  0.48267  1.0000
  C   C4428     1.0  0.85012  0.42375  0.98147  1.0000
  H   H7825     1.0  0.77128  0.40219  0.96519  1.0000
  H   H7826     1.0  0.91883  0.47512  0.76728  1.0000
  H   H7827     1.0  0.87460  0.47530  0.95005  1.0000
  C   C4429     1.0  0.86941  0.42643  0.87850  1.0000
  C   C4430     1.0  0.87677  0.41592  0.88642  1.0000
  C   C4431     1.0  0.89050  0.41184  0.88175  1.0000
  C   C4432     1.0  0.89685  0.41820  0.86917  1.0000
  C   C4433     1.0  0.88954  0.42914  0.86169  1.0000
  C   C4434     1.0  0.87587  0.43319  0.86629  1.0000
  H   H7828     1.0  0.87184  0.41072  0.89593  1.0000
  H   H7829     1.0  0.89614  0.40349  0.88772  1.0000
  H   H7830     1.0  0.89435  0.43447  0.85231  1.0000
  H   H7831     1.0  0.87026  0.44146  0.86022  1.0000
  C   C4435     1.0  0.76415  0.40049  0.92988  1.0000
  C   C4436     1.0  0.77299  0.38837  0.92859  1.0000
  C   C4437     1.0  0.78650  0.38700  0.92753  1.0000
  C   C4438     1.0  0.79136  0.39771  0.92783  1.0000
  C   C4439     1.0  0.78254  0.40983  0.92943  1.0000
  C   C4440     1.0  0.76892  0.41122  0.93041  1.0000
  H   H7832     1.0  0.76939  0.37999  0.92831  1.0000
  H   H7833     1.0  0.79325  0.37759  0.92640  1.0000
  H   H7834     1.0  0.78619  0.41803  0.93003  1.0000
  H   H7835     1.0  0.76212  0.42047  0.93184  1.0000
  H   H7836     1.0  0.88978  0.43357  0.95581  1.0000
  C   C4441     1.0  0.88637  0.45555  0.88535  1.0000
  C   C4442     1.0  0.90599  0.38385  0.58469  1.0000
  C   C4443     1.0  0.82069  0.46838  0.92677  1.0000
  C   C4444     1.0  0.82960  0.46043  0.93456  1.0000
  C   C4445     1.0  0.83939  0.46551  0.93641  1.0000
  C   C4446     1.0  0.90214  0.32786  0.51134  1.0000
  H   H7837     1.0  0.91982  0.48132  0.78874  1.0000
  H   H7838     1.0  0.82904  0.45024  0.93900  1.0000
  H   H7839     1.0  0.84643  0.45909  0.94223  1.0000
  C   C4447     1.0  0.96270  0.25544  0.57913  1.0000
  H   H7840     1.0  0.98407  0.33873  0.48621  1.0000
  C   C4448     1.0  0.89224  0.37628  0.84581  1.0000
  H   H7841     1.0  0.86903  0.37044  0.84385  1.0000
  N   N249      1.0  0.75080  0.38596  0.97475  1.0000
  S   S991      1.0  0.96366  0.40241  0.71352  1.0000
  H   H7842     1.0  0.98301  0.39777  0.72901  1.0000
  H   H7843     1.0  0.75029  0.40577  0.96207  1.0000
  H   H7844     1.0  0.98279  0.35710  0.50056  1.0000
  H   H7845     1.0  0.75337  0.47078  0.93570  1.0000
  C   C4449     1.0  0.91961  0.45846  0.66642  1.0000
  H   H7846     1.0  0.96979  0.34363  0.62880  1.0000
  H   H7847     1.0  0.88499  0.27534  0.50485  1.0000
  H   H7848     1.0  0.95143  0.24326  0.57648  1.0000
  H   H7849     1.0  0.85813  0.47601  0.88239  1.0000
  H   H7850     1.0  0.98499  0.27301  0.56856  1.0000
  C   C4450     1.0  0.91459  0.44954  0.68010  1.0000
  C   C4451     1.0  0.90667  0.44041  0.67867  1.0000
  S   S992      1.0  0.95533  0.23855  0.49309  1.0000
  H   H7851     1.0  0.92965  0.45956  0.77254  1.0000
  H   H7852     1.0  0.88517  0.46755  0.76855  1.0000
  N   N250      1.0  0.91328  0.29956  0.49138  1.0000
  H   H7853     1.0  0.95143  0.47310  0.66938  1.0000
  H   H7854     1.0  0.91119  0.46285  0.66130  1.0000
  H   H7855     1.0  0.92664  0.45134  0.66050  1.0000
  C   C4452     1.0  0.84021  0.47872  0.93056  1.0000
  H   H7856     1.0  0.79172  0.37632  0.97188  1.0000
  C   C4453     1.0  0.96489  0.24752  0.59294  1.0000
  H   H7857     1.0  0.88172  0.44746  0.97305  1.0000
  C   C4454     1.0  0.76535  0.38344  0.96807  1.0000
  H   H7858     1.0  0.88033  0.28578  0.51684  1.0000
  H   H7859     1.0  0.96612  0.44670  0.73934  1.0000
  C   C4455     1.0  0.96908  0.35367  0.62204  1.0000
  C   C4456     1.0  0.75432  0.48131  0.93288  1.0000
  H   H7860     1.0  0.93288  0.46660  0.79059  1.0000
  H   H7861     1.0  0.92309  0.44303  0.68432  1.0000
  H   H7862     1.0  0.90828  0.45545  0.68745  1.0000
  C   C4457     1.0  0.97306  0.32676  0.55616  1.0000
  H   H7863     1.0  0.90363  0.43387  0.68857  1.0000
  H   H7864     1.0  0.89763  0.44637  0.67506  1.0000
  H   H7865     1.0  0.92615  0.27539  0.50615  1.0000
  S   S993      1.0  0.97303  0.30191  0.55444  1.0000
  C   C4458     1.0  0.94628  0.27332  0.49534  1.0000
  H   H7866     1.0  0.83521  0.47945  0.85041  1.0000
  H   H7867     1.0  0.97262  0.40238  0.75170  1.0000
  H   H7868     1.0  0.89322  0.46653  0.91036  1.0000
  H   H7869     1.0  0.93899  0.24366  0.55437  1.0000
  H   H7870     1.0  0.93513  0.33219  0.49492  1.0000
  C   C4459     1.0  0.89140  0.38407  0.62782  1.0000
  N   N251      1.0  0.78367  0.43519  0.88666  1.0000
  C   C4460     1.0  0.79530  0.42435  0.88255  1.0000
  C   C4461     1.0  0.78292  0.44708  0.87506  1.0000
  C   C4462     1.0  0.78641  0.43951  0.89776  1.0000
  C   C4463     1.0  0.77075  0.43059  0.89169  1.0000
  C   C4464     1.0  0.76901  0.42005  0.88521  1.0000
  C   C4465     1.0  0.79880  0.41232  0.89403  1.0000
  C   C4466     1.0  0.77658  0.45190  0.90232  1.0000
  C   C4467     1.0  0.78004  0.44513  0.86241  1.0000
  C   C4468     1.0  0.78262  0.45672  0.85056  1.0000
  C   C4469     1.0  0.75504  0.41749  0.89026  1.0000
  C   C4470     1.0  0.80813  0.40044  0.88867  1.0000
  C   C4471     1.0  0.77802  0.45298  0.91578  1.0000
  H   H7871     1.0  0.80436  0.42848  0.87792  1.0000
  H   H7872     1.0  0.79380  0.42041  0.87468  1.0000
  H   H7873     1.0  0.77486  0.45550  0.87800  1.0000
  H   H7874     1.0  0.79226  0.45075  0.87212  1.0000
  H   H7875     1.0  0.79645  0.44173  0.89480  1.0000
  H   H7876     1.0  0.78647  0.43127  0.90681  1.0000
  H   H7877     1.0  0.76919  0.42611  0.90262  1.0000
  H   H7878     1.0  0.76230  0.43930  0.89061  1.0000
  H   H7879     1.0  0.77589  0.41037  0.88780  1.0000
  H   H7880     1.0  0.77087  0.42314  0.87420  1.0000
  H   H7881     1.0  0.80387  0.41511  0.90022  1.0000
  H   H7882     1.0  0.78982  0.40907  0.90066  1.0000
  H   H7883     1.0  0.76619  0.45154  0.90329  1.0000
  H   H7884     1.0  0.77860  0.46115  0.89496  1.0000
  H   H7885     1.0  0.78627  0.43592  0.85929  1.0000
  H   H7886     1.0  0.76944  0.44482  0.86432  1.0000
  H   H7887     1.0  0.77691  0.46639  0.85309  1.0000
  H   H7888     1.0  0.79331  0.45685  0.84759  1.0000
  H   H7889     1.0  0.77957  0.45558  0.84190  1.0000
  H   H7890     1.0  0.75280  0.41409  0.90132  1.0000
  H   H7891     1.0  0.74767  0.42668  0.88730  1.0000
  H   H7892     1.0  0.75417  0.40961  0.88587  1.0000
  H   H7893     1.0  0.81060  0.39218  0.89719  1.0000
  H   H7894     1.0  0.80337  0.39683  0.88280  1.0000
  H   H7895     1.0  0.81747  0.40321  0.88232  1.0000
  H   H7896     1.0  0.78838  0.45315  0.91535  1.0000
  H   H7897     1.0  0.77152  0.46236  0.91829  1.0000
  H   H7898     1.0  0.77505  0.44451  0.92382  1.0000
  C   C4472     1.0  0.87833  0.36616  0.83731  1.0000
  H   H7899     1.0  0.88312  0.37780  0.85380  1.0000
  H   H7900     1.0  0.98359  0.38381  0.57057  1.0000
  H   H7901     1.0  0.95504  0.47567  0.68937  1.0000
  H   H7902     1.0  0.96546  0.44084  0.66829  1.0000
  C   C4473     1.0  0.92169  0.46770  0.77612  1.0000
  C   C4474     1.0  0.97870  0.42523  0.81840  1.0000
  H   H7903     1.0  0.91556  0.37233  0.85256  1.0000
  H   H7904     1.0  0.87403  0.40079  0.83827  1.0000
  H   H7905     1.0  0.96358  0.38139  0.51467  1.0000
  H   H7906     1.0  0.75933  0.46077  0.97914  1.0000
  H   H7907     1.0  0.77961  0.46981  0.97863  1.0000
  C   C4475     1.0  0.96516  0.38119  0.50397  1.0000
  H   H7908     1.0  0.94066  0.40959  0.79099  1.0000
  H   H7909     1.0  0.94429  0.44442  0.63675  1.0000
  H   H7910     1.0  0.92456  0.37642  0.61495  1.0000
  Fe  Fe495     1.0  0.92236  0.42182  0.81214  1.0000
  H   H7911     1.0  0.98119  0.39937  0.68713  1.0000
  H   H7912     1.0  0.88261  0.35604  0.84263  1.0000
  H   H7913     1.0  0.94865  0.42691  0.63662  1.0000
  H   H7914     1.0  0.97339  0.26429  0.52853  1.0000
  Fe  Fe496     1.0  0.94672  0.42456  0.81912  1.0000
  H   H7915     1.0  0.96997  0.41833  0.67176  1.0000
  H   H7916     1.0  0.95035  0.27745  0.53740  1.0000
  H   H7917     1.0  0.76609  0.42450  0.95440  1.0000
  H   H7918     1.0  0.76664  0.38549  0.95701  1.0000
  C   C4476     1.0  0.95579  0.25938  0.55239  1.0000
  H   H7919     1.0  0.94379  0.26373  0.53747  1.0000
  C   C4477     1.0  0.87912  0.43338  0.95837  1.0000
  N   N252      1.0  0.94538  0.26282  0.56442  1.0000
  C   C4478     1.0  0.98549  0.34394  0.60326  1.0000
  H   H7920     1.0  0.89735  0.47219  0.89241  1.0000
  H   H7921     1.0  0.92985  0.40699  0.68285  1.0000
  S   S994      1.0  0.91217  0.41521  0.80023  1.0000
  H   H7922     1.0  0.92571  0.27990  0.58013  1.0000
  C   C4479     1.0  0.96404  0.26293  0.52720  1.0000
  C   C4480     1.0  0.94685  0.47073  0.69065  1.0000
  H   H7923     1.0  0.98008  0.39434  0.62590  1.0000
  S   S995      1.0  0.97487  0.43705  0.70388  1.0000
  C   C4481     1.0  0.92261  0.40930  0.78628  1.0000
  H   H7924     1.0  0.93466  0.47988  0.77595  1.0000
  H   H7925     1.0  0.97441  0.24842  0.59426  1.0000
  C   C4482     1.0  0.92057  0.37765  0.82681  1.0000
  H   H7926     1.0  0.89645  0.39872  0.60324  1.0000
  H   H7927     1.0  0.93699  0.48451  0.67607  1.0000
  H   H7928     1.0  0.74508  0.34808  0.96390  1.0000
  C   C4483     1.0  0.93201  0.24650  0.56342  1.0000
  H   H7929     1.0  0.94243  0.45884  0.81254  1.0000
  C   C4484     1.0  0.96241  0.43740  0.74396  1.0000
  C   C4485     1.0  0.98072  0.40965  0.77621  1.0000
  S   S996      1.0  0.95644  0.39275  0.68554  1.0000
  H   H7930     1.0  0.96026  0.39105  0.49872  1.0000
  C   C4486     1.0  0.96390  0.45981  0.77261  1.0000
  N   N253      1.0  0.77545  0.47682  0.95875  1.0000
  H   H7931     1.0  0.97260  0.41686  0.78117  1.0000
  C   C4487     1.0  0.85394  0.41554  0.97224  1.0000
  C   C4488     1.0  0.91709  0.40616  0.77745  1.0000
  H   H7932     1.0  0.93489  0.43315  0.64893  1.0000
  C   C4489     1.0  0.93077  0.47483  0.64045  1.0000
  C   C4490     1.0  0.95375  0.47834  0.58675  1.0000
  C   C4491     1.0  0.97824  0.41727  0.66286  1.0000
  H   H7933     1.0  0.93880  0.35957  0.63032  1.0000
  H   H7934     1.0  0.83092  0.37523  0.95389  1.0000
  H   H7935     1.0  0.90648  0.40759  0.77913  1.0000
  C   C4492     1.0  0.95542  0.39354  0.66009  1.0000
  S   S997      1.0  0.94634  0.42739  0.69524  1.0000
  H   H7936     1.0  0.96394  0.43192  0.73608  1.0000
  H   H7937     1.0  0.94003  0.36671  0.50673  1.0000
  H   H7938     1.0  0.89080  0.37478  0.62553  1.0000
  H   H7939     1.0  0.88752  0.46596  0.95827  1.0000
  H   H7940     1.0  0.95152  0.37616  0.48359  1.0000
  C   C4493     1.0  0.84724  0.41841  0.96195  1.0000
  H   H7941     1.0  0.98412  0.47083  0.84337  1.0000
  H   H7942     1.0  0.91444  0.38872  0.57939  1.0000
  H   H7943     1.0  0.88319  0.39184  0.62407  1.0000
  H   H7944     1.0  0.95390  0.42163  0.65918  1.0000
  H   H7945     1.0  0.89795  0.45330  0.85920  1.0000
  H   H7946     1.0  0.86213  0.40701  0.97303  1.0000
  H   H7947     1.0  0.90786  0.28063  0.49460  1.0000
  C   C4494     1.0  0.97439  0.44190  0.66011  1.0000
  H   H7948     1.0  0.95375  0.27950  0.49029  1.0000
  C   C4495     1.0  0.91590  0.37605  0.62359  1.0000
  H   H7949     1.0  0.89635  0.41630  0.60989  1.0000
  Fe  Fe497     1.0  0.91434  0.24571  0.52872  1.0000
  H   H7950     1.0  0.81670  0.38886  0.95444  1.0000
  H   H7951     1.0  0.93854  0.47467  0.69832  1.0000
  H   H7952     1.0  0.96524  0.25245  0.52667  1.0000
  C   C4496     1.0  0.74532  0.40086  0.97218  1.0000
  H   H7953     1.0  0.97979  0.35583  0.57282  1.0000
  H   H7954     1.0  0.89538  0.32373  0.49633  1.0000
  H   H7955     1.0  0.91314  0.36644  0.62475  1.0000
  C   C4497     1.0  0.78511  0.46431  0.95554  1.0000
  C   C4498     1.0  0.77944  0.45183  0.95823  1.0000
  H   H7956     1.0  0.96761  0.46731  0.78757  1.0000
  H   H7957     1.0  0.87073  0.28901  0.50449  1.0000
  C   C4499     1.0  0.87063  0.44731  0.95916  1.0000
  H   H7958     1.0  0.90717  0.32263  0.51970  1.0000
  C   C4500     1.0  0.79006  0.44057  0.95304  1.0000
  C   C4501     1.0  0.89630  0.46349  0.86080  1.0000
  C   C4502     1.0  0.93120  0.37063  0.50227  1.0000
  H   H7959     1.0  0.75778  0.47188  0.95715  1.0000
  H   H7960     1.0  0.93443  0.28776  0.50658  1.0000
  H   H7961     1.0  0.86677  0.38882  0.64557  1.0000
  H   H7962     1.0  0.86023  0.44706  0.95982  1.0000
  C   C4503     1.0  0.88084  0.43295  0.90911  1.0000
  H   H7963     1.0  0.79037  0.46621  0.94491  1.0000
  H   H7964     1.0  0.79305  0.46137  0.96125  1.0000
  H   H7965     1.0  0.77126  0.45375  0.95313  1.0000
  H   H7966     1.0  0.77603  0.44820  0.96909  1.0000
  C   C4504     1.0  0.92660  0.46763  0.72450  1.0000
  H   H7967     1.0  0.91002  0.47860  0.68976  1.0000
  H   H7968     1.0  0.96252  0.43591  0.83113  1.0000
  C   C4505     1.0  0.88954  0.29507  0.49673  1.0000
  C   C4506     1.0  0.75882  0.47037  0.98133  1.0000
  C   C4507     1.0  0.98076  0.31421  0.55452  1.0000
  H   H7969     1.0  0.96270  0.26596  0.57838  1.0000
  H   H7970     1.0  0.90720  0.37516  0.58036  1.0000
  H   H7971     1.0  0.86913  0.47278  0.91028  1.0000
  H   H7972     1.0  0.79237  0.44290  0.94194  1.0000
  H   H7973     1.0  0.79921  0.43911  0.95657  1.0000
  H   H7974     1.0  0.78650  0.43113  0.95667  1.0000
  H   H7975     1.0  0.96065  0.45099  0.77984  1.0000
  C   C4508     1.0  0.78846  0.38647  0.96595  1.0000
  H   H7976     1.0  0.98689  0.41870  0.60614  1.0000
  N   N254      1.0  0.90140  0.45817  0.77858  1.0000
  C   C4509     1.0  0.90973  0.46205  0.78548  1.0000
  C   C4510     1.0  0.89200  0.45042  0.78898  1.0000
  C   C4511     1.0  0.91059  0.44888  0.76987  1.0000
  H   H7977     1.0  0.94454  0.46297  0.65291  1.0000
  H   H7978     1.0  0.97123  0.25150  0.57161  1.0000
  H   H7979     1.0  0.74983  0.47748  0.97850  1.0000
  C   C4512     1.0  0.90388  0.44232  0.76307  1.0000
  C   C4513     1.0  0.88201  0.45766  0.79960  1.0000
  C   C4514     1.0  0.87473  0.44793  0.81058  1.0000
  C   C4515     1.0  0.74643  0.44332  0.97639  1.0000
  H   H7980     1.0  0.94109  0.47327  0.57732  1.0000
  C   C4516     1.0  0.91402  0.43571  0.75236  1.0000
  H   H7981     1.0  0.91367  0.45330  0.79287  1.0000
  H   H7982     1.0  0.92711  0.46286  0.68756  1.0000
  H   H7983     1.0  0.88588  0.44714  0.78421  1.0000
  H   H7984     1.0  0.89776  0.44116  0.79436  1.0000
  H   H7985     1.0  0.91704  0.44066  0.77575  1.0000
  H   H7986     1.0  0.91738  0.45431  0.76161  1.0000
  S   S998      1.0  0.73747  0.45602  0.88284  1.0000
  N   N255      1.0  0.97838  0.43055  0.65298  1.0000
  C   C4517     1.0  0.97313  0.43297  0.82800  1.0000
  H   H7987     1.0  0.94961  0.26593  0.50402  1.0000
  C   C4518     1.0  0.93604  0.47170  0.65337  1.0000
  C   C4519     1.0  0.95064  0.47441  0.81395  1.0000
  H   H7988     1.0  0.89622  0.44977  0.75822  1.0000
  H   H7989     1.0  0.89926  0.43442  0.77052  1.0000
  H   H7990     1.0  0.88688  0.46215  0.80456  1.0000
  H   H7991     1.0  0.96075  0.46894  0.81167  1.0000
  H   H7992     1.0  0.88191  0.43989  0.81562  1.0000
  H   H7993     1.0  0.86764  0.45325  0.81816  1.0000
  H   H7994     1.0  0.86918  0.44341  0.80634  1.0000
  H   H7995     1.0  0.88515  0.30513  0.49875  1.0000
  S   S999      1.0  0.91419  0.46872  0.81767  1.0000
  H   H7996     1.0  0.91463  0.37115  0.60090  1.0000
  H   H7997     1.0  0.98407  0.41908  0.73305  1.0000
  C   C4520     1.0  0.90568  0.37915  0.59966  1.0000
  H   H7998     1.0  0.79649  0.48217  0.90595  1.0000
  H   H7999     1.0  0.92184  0.42805  0.75673  1.0000
  H   H8000     1.0  0.90914  0.43094  0.74765  1.0000
  H   H8001     1.0  0.91881  0.44319  0.74453  1.0000
  C   C4521     1.0  0.96439  0.47359  0.59310  1.0000
  C   C4522     1.0  0.91552  0.47533  0.73139  1.0000
  H   H8002     1.0  0.88371  0.38492  0.82768  1.0000
  C   C4523     1.0  0.83664  0.42938  0.96105  1.0000
  C   C4524     1.0  0.82004  0.39730  0.97554  1.0000
  H   H8003     1.0  0.96693  0.43452  0.76311  1.0000
  H   H8004     1.0  0.90827  0.33456  0.50392  1.0000
  H   H8005     1.0  0.92097  0.31399  0.49581  1.0000
  H   H8006     1.0  0.89466  0.37321  0.87116  1.0000
  S   S1000     1.0  0.96887  0.41964  0.81142  1.0000
  H   H8007     1.0  0.89679  0.40690  0.84615  1.0000
  C   C4525     1.0  0.90877  0.38205  0.85381  1.0000
  H   H8008     1.0  0.87697  0.42984  0.95055  1.0000
  H   H8009     1.0  0.90301  0.39220  0.82214  1.0000
  H   H8010     1.0  0.98596  0.46586  0.82082  1.0000
  H   H8011     1.0  0.89666  0.39100  0.58292  1.0000
  H   H8012     1.0  0.89019  0.43330  0.62325  1.0000
  C   C4526     1.0  0.88125  0.40690  0.83699  1.0000
  C   C4527     1.0  0.95410  0.43165  0.65268  1.0000
  H   H8013     1.0  0.88949  0.42930  0.90149  1.0000
  H   H8014     1.0  0.89093  0.44708  0.91015  1.0000
  H   H8015     1.0  0.86617  0.42502  0.83372  1.0000
  H   H8016     1.0  0.77015  0.37277  0.97116  1.0000
  C   C4528     1.0  0.97306  0.46473  0.77783  1.0000
  C   C4529     1.0  0.92528  0.40123  0.76633  1.0000
  C   C4530     1.0  0.86285  0.45755  0.89767  1.0000
  H   H8017     1.0  0.96047  0.37345  0.50338  1.0000
  C   C4531     1.0  0.89561  0.41285  0.62083  1.0000
  H   H8018     1.0  0.85730  0.45403  0.90798  1.0000
  C   C4532     1.0  0.88820  0.37517  0.83334  1.0000
  C   C4533     1.0  0.82637  0.38379  0.97128  1.0000
  C   C4534     1.0  0.88812  0.38156  0.64326  1.0000
  H   H8019     1.0  0.90597  0.39809  0.63485  1.0000
  H   H8020     1.0  0.74797  0.35888  0.98022  1.0000
  C   C4535     1.0  0.96933  0.42859  0.75535  1.0000
  C   C4536     1.0  0.93374  0.46466  0.67751  1.0000
  C   C4537     1.0  0.90289  0.47352  0.73231  1.0000
  C   C4538     1.0  0.90518  0.39092  0.60578  1.0000
  C   C4539     1.0  0.97885  0.28288  0.59084  1.0000
  C   C4540     1.0  0.93576  0.28197  0.57723  1.0000
  H   H8021     1.0  0.88346  0.47631  0.87345  1.0000
  C   C4541     1.0  0.94496  0.43422  0.64314  1.0000
  H   H8022     1.0  0.90023  0.47210  0.75965  1.0000
  C   C4542     1.0  0.75003  0.44103  0.95015  1.0000
  H   H8023     1.0  0.93871  0.28377  0.55612  1.0000
  H   H8024     1.0  0.96743  0.44254  0.63782  1.0000
  C   C4543     1.0  0.93413  0.29694  0.57547  1.0000
  H   H8025     1.0  0.92479  0.26268  0.57351  1.0000
  C   C4544     1.0  0.93634  0.40734  0.78411  1.0000
  C   C4545     1.0  0.95247  0.26654  0.53861  1.0000
  H   H8026     1.0  0.95513  0.46785  0.77108  1.0000
  S   S1001     1.0  0.93490  0.40860  0.82640  1.0000
  H   H8027     1.0  0.97534  0.47395  0.77063  1.0000
  H   H8028     1.0  0.92807  0.26795  0.55600  1.0000
  H   H8029     1.0  0.95361  0.28007  0.56154  1.0000
  C   C4546     1.0  0.92691  0.37977  0.81190  1.0000
  H   H8030     1.0  0.93563  0.36154  0.64722  1.0000
  H   H8031     1.0  0.96080  0.35576  0.61696  1.0000
  H   H8032     1.0  0.91724  0.36378  0.87601  1.0000
  H   H8033     1.0  0.91952  0.38107  0.80592  1.0000
  H   H8034     1.0  0.95815  0.24852  0.55294  1.0000
  H   H8035     1.0  0.89687  0.37476  0.60436  1.0000
  H   H8036     1.0  0.96561  0.38809  0.65908  1.0000
  H   H8037     1.0  0.83314  0.39201  0.95009  1.0000
  H   H8038     1.0  0.97167  0.42514  0.63828  1.0000
  H   H8039     1.0  0.75277  0.47214  0.86164  1.0000
  C   C4547     1.0  0.98133  0.43684  0.83371  1.0000
  H   H8040     1.0  0.87444  0.46548  0.79493  1.0000
  H   H8041     1.0  0.98386  0.38296  0.74207  1.0000
  H   H8042     1.0  0.93496  0.37103  0.80987  1.0000
  H   H8043     1.0  0.93127  0.38869  0.80868  1.0000
  C   C4548     1.0  0.94969  0.25390  0.57682  1.0000
  H   H8044     1.0  0.94165  0.25518  0.58585  1.0000
  H   H8045     1.0  0.92619  0.46685  0.64021  1.0000
  H   H8046     1.0  0.96429  0.42017  0.76004  1.0000
  C   C4549     1.0  0.75828  0.43215  0.95834  1.0000
  H   H8047     1.0  0.98465  0.47415  0.79240  1.0000
  H   H8048     1.0  0.91748  0.36799  0.83010  1.0000
  H   H8049     1.0  0.88545  0.41142  0.62580  1.0000
  H   H8050     1.0  0.97172  0.37984  0.56416  1.0000
  C   C4550     1.0  0.88960  0.48343  0.77441  1.0000
  C   C4551     1.0  0.96835  0.43258  0.64474  1.0000
  C   C4552     1.0  0.89086  0.39975  0.84644  1.0000
  H   H8051     1.0  0.97698  0.44273  0.84123  1.0000
  H   H8052     1.0  0.94566  0.44775  0.75689  1.0000
  C   C4553     1.0  0.85401  0.47159  0.96835  1.0000
  C   C4554     1.0  0.93902  0.39909  0.76425  1.0000
  H   H8053     1.0  0.94550  0.26773  0.48838  1.0000
  H   H8054     1.0  0.89797  0.36616  0.84959  1.0000
  H   H8055     1.0  0.94027  0.48032  0.65254  1.0000
  H   H8056     1.0  0.96695  0.36118  0.62816  1.0000
  H   H8057     1.0  0.87180  0.43228  0.90660  1.0000
  H   H8058     1.0  0.92758  0.38281  0.63315  1.0000
  H   H8059     1.0  0.95682  0.25141  0.60089  1.0000
  C   C4555     1.0  0.87319  0.42017  0.84042  1.0000
  C   C4556     1.0  0.89998  0.31785  0.50482  1.0000
  C   C4557     1.0  0.93289  0.28209  0.50011  1.0000
  C   C4558     1.0  0.89778  0.42410  0.62562  1.0000
  C   C4559     1.0  0.91607  0.48209  0.66762  1.0000
  C   C4560     1.0  0.84086  0.46763  0.89098  1.0000
  C   C4561     1.0  0.82109  0.48183  0.92132  1.0000
  H   H8060     1.0  0.93636  0.46889  0.72377  1.0000
  H   H8061     1.0  0.97866  0.39798  0.84872  1.0000
  C   C4562     1.0  0.87395  0.37966  0.64907  1.0000
  H   H8062     1.0  0.92530  0.35352  0.64281  1.0000
  H   H8063     1.0  0.88903  0.38999  0.64679  1.0000
  C   C4563     1.0  0.90162  0.37989  0.86880  1.0000
  H   H8064     1.0  0.92099  0.39886  0.75949  1.0000
  H   H8065     1.0  0.88599  0.44595  0.88347  1.0000
  C   C4564     1.0  0.89404  0.46997  0.76990  1.0000
  H   H8066     1.0  0.88439  0.39827  0.85661  1.0000
  H   H8067     1.0  0.89296  0.31214  0.51234  1.0000
  H   H8068     1.0  0.95001  0.43902  0.65908  1.0000
  H   H8069     1.0  0.91594  0.40188  0.61886  1.0000
  H   H8070     1.0  0.81043  0.40099  0.97242  1.0000
  H   H8071     1.0  0.87248  0.37111  0.64611  1.0000
  S   S1002     1.0  0.94940  0.39206  0.75093  1.0000
  H   H8072     1.0  0.88383  0.48245  0.78482  1.0000
  H   H8073     1.0  0.89704  0.42138  0.63659  1.0000
  H   H8074     1.0  0.97339  0.36500  0.58582  1.0000
  H   H8075     1.0  0.89246  0.33401  0.51537  1.0000
  S   S1003     1.0  0.98269  0.48227  0.73952  1.0000
  H   H8076     1.0  0.94269  0.44772  0.74115  1.0000
  C   C4565     1.0  0.94025  0.46869  0.81449  1.0000
  H   H8077     1.0  0.94052  0.45480  0.67677  1.0000
  C   C4566     1.0  0.88184  0.42336  0.92257  1.0000
  C   C4567     1.0  0.83302  0.43779  0.97004  1.0000
  C   C4568     1.0  0.93091  0.36157  0.63920  1.0000
  H   H8078     1.0  0.89474  0.37227  0.64741  1.0000
  H   H8079     1.0  0.87193  0.37760  0.66016  1.0000
  H   H8080     1.0  0.91404  0.39515  0.60019  1.0000
  H   H8081     1.0  0.89076  0.42352  0.92572  1.0000
  H   H8082     1.0  0.83117  0.43126  0.95347  1.0000
  H   H8083     1.0  0.97123  0.45751  0.67822  1.0000
  H   H8084     1.0  0.84314  0.46201  0.88301  1.0000
  C   C4569     1.0  0.94756  0.44164  0.74943  1.0000
  Fe  Fe498     1.0  0.95964  0.42463  0.70898  1.0000
  H   H8085     1.0  0.87286  0.42604  0.93032  1.0000
  C   C4570     1.0  0.90603  0.39982  0.62411  1.0000
  H   H8086     1.0  0.98030  0.29318  0.58614  1.0000
  C   C4571     1.0  0.82675  0.38510  0.95655  1.0000
  H   H8087     1.0  0.87418  0.44954  0.91920  1.0000
  H   H8088     1.0  0.91830  0.23543  0.56272  1.0000
  C   C4572     1.0  0.74268  0.47325  0.89452  1.0000
  C   C4573     1.0  0.90411  0.29008  0.49824  1.0000
  H   H8089     1.0  0.88253  0.41306  0.92175  1.0000
  C   C4574     1.0  0.88073  0.44738  0.90955  1.0000
  C   C4575     1.0  0.88968  0.47353  0.90161  1.0000
  H   H8090     1.0  0.87258  0.47991  0.89303  1.0000
  H   H8091     1.0  0.97312  0.43934  0.55627  1.0000
  C   C4576     1.0  0.98349  0.40079  0.74814  1.0000
  H   H8092     1.0  0.89847  0.47620  0.68163  1.0000
  H   H8093     1.0  0.83676  0.38024  0.97244  1.0000
  C   C4577     1.0  0.98158  0.37613  0.56672  1.0000
  C   C4578     1.0  0.87770  0.47299  0.95972  1.0000
  C   C4579     1.0  0.93442  0.36756  0.48845  1.0000
  C   C4580     1.0  0.85346  0.47062  0.89227  1.0000
  H   H8094     1.0  0.97004  0.28168  0.58823  1.0000
  H   H8095     1.0  0.74513  0.38428  0.95758  1.0000
  H   H8096     1.0  0.89447  0.47075  0.85143  1.0000
  H   H8097     1.0  0.94649  0.48459  0.62739  1.0000
  H   H8098     1.0  0.95034  0.45982  0.69412  1.0000
  H   H8099     1.0  0.85348  0.46925  0.95905  1.0000
  H   H8100     1.0  0.87394  0.45425  0.94968  1.0000
  C   C4581     1.0  0.98582  0.45390  0.77947  1.0000
  H   H8101     1.0  0.91529  0.25254  0.55377  1.0000
  H   H8102     1.0  0.97619  0.41003  0.65837  1.0000
  H   H8103     1.0  0.98293  0.44540  0.78765  1.0000
  N   N256      1.0  0.98412  0.42369  0.75152  1.0000
  H   H8104     1.0  0.97626  0.25926  0.48990  1.0000
  H   H8105     1.0  0.83616  0.46169  0.90055  1.0000
  H   H8106     1.0  0.79396  0.39322  0.96720  1.0000
  H   H8107     1.0  0.83361  0.47702  0.88852  1.0000
  C   C4582     1.0  0.97993  0.37823  0.49765  1.0000
  H   H8108     1.0  0.97693  0.28151  0.60186  1.0000
  C   C4583     1.0  0.88448  0.46608  0.87235  1.0000
  H   H8109     1.0  0.93809  0.47828  0.61890  1.0000
  C   C4584     1.0  0.98007  0.47666  0.85129  1.0000
  H   H8110     1.0  0.97606  0.40312  0.77349  1.0000
  H   H8111     1.0  0.93836  0.35668  0.48939  1.0000
  C   C4585     1.0  0.94242  0.47402  0.67753  1.0000
  H   H8112     1.0  0.94981  0.46691  0.62818  1.0000
  H   H8113     1.0  0.84701  0.46637  0.97650  1.0000
  H   H8114     1.0  0.85046  0.47734  0.89937  1.0000
  H   H8115     1.0  0.89425  0.47955  0.73748  1.0000
  C   C4586     1.0  0.74910  0.36426  0.96959  1.0000
  H   H8116     1.0  0.77488  0.47545  0.93328  1.0000
  H   H8117     1.0  0.82070  0.37611  0.97734  1.0000
  C   C4587     1.0  0.91824  0.24575  0.56291  1.0000
  C   C4588     1.0  0.93959  0.32969  0.48529  1.0000
  H   H8118     1.0  0.98418  0.38597  0.49887  1.0000
  C   C4589     1.0  0.98483  0.44363  0.66657  1.0000
  C   C4590     1.0  0.76344  0.47987  0.95291  1.0000
  H   H8119     1.0  0.98277  0.36212  0.51496  1.0000
  C   C4591     1.0  0.74124  0.35897  0.96310  1.0000
  H   H8120     1.0  0.92494  0.37022  0.48515  1.0000
  H   H8121     1.0  0.87558  0.46550  0.86946  1.0000
  H   H8122     1.0  0.92331  0.48438  0.63959  1.0000
  C   C4592     1.0  0.90556  0.48227  0.68088  1.0000
  C   C4593     1.0  0.98672  0.36390  0.50392  1.0000
  H   H8123     1.0  0.98434  0.45774  0.80206  1.0000
  H   H8124     1.0  0.74759  0.40523  0.97939  1.0000
  S   S1004     1.0  0.97097  0.48453  0.59776  1.0000
  H   H8125     1.0  0.98001  0.44986  0.56170  1.0000
  C   C4594     1.0  0.83972  0.43495  0.98033  1.0000
  S   S1005     1.0  0.95606  0.48299  0.72015  1.0000
  H   H8126     1.0  0.77186  0.39170  0.98147  1.0000
  H   H8127     1.0  0.98614  0.42627  0.57305  1.0000
  H   H8128     1.0  0.98554  0.44399  0.74939  1.0000
  H   H8129     1.0  0.98575  0.43574  0.67571  1.0000
  C   C4595     1.0  0.76606  0.48252  0.93745  1.0000
  H   H8130     1.0  0.73703  0.46853  0.90381  1.0000
  H   H8131     1.0  0.75591  0.48466  0.92186  1.0000
  C   C4596     1.0  0.74818  0.48378  0.89425  1.0000
  H   H8132     1.0  0.88521  0.48395  0.96970  1.0000
  H   H8133     1.0  0.98031  0.23513  0.50082  1.0000
  H   H8134     1.0  0.93419  0.29836  0.48260  1.0000
  S   S1006     1.0  0.85319  0.48437  0.93236  1.0000
  H   H8135     1.0  0.92649  0.56697  0.14844  1.0000
  H   H8136     1.0  0.96298  0.66611  0.39377  1.0000
  H   H8137     1.0  0.90044  0.71176  0.46445  1.0000
  C   C4597     1.0  0.80507  0.58238  0.01383  1.0000
  S   S1007     1.0  0.95497  0.71976  0.38056  1.0000
  H   H8138     1.0  0.94017  0.52121  0.27621  1.0000
  Fe  Fe499     1.0  0.85639  0.53608  0.04499  1.0000
  S   S1008     1.0  0.86898  0.53151  0.02537  1.0000
  S   S1009     1.0  0.86194  0.53986  0.06251  1.0000
  Fe  Fe500     1.0  0.83224  0.52843  0.04131  1.0000
  S   S1010     1.0  0.84291  0.52339  0.02153  1.0000
  S   S1011     1.0  0.81305  0.52175  0.05133  1.0000
  Fe  Fe501     1.0  0.86005  0.51359  0.03118  1.0000
  H   H8139     1.0  0.97723  0.57449  0.47790  1.0000
  Fe  Fe502     1.0  0.85063  0.54176  0.01720  1.0000
  H   H8140     1.0  0.76852  0.55754  0.99224  1.0000
  S   S1012     1.0  0.84898  0.51722  0.05129  1.0000
  S   S1013     1.0  0.83850  0.54790  0.03643  1.0000
  Fe  Fe503     1.0  0.91603  0.53991  0.09606  1.0000
  S   S1014     1.0  0.93036  0.52108  0.10289  1.0000
  S   S1015     1.0  0.91357  0.54669  0.07459  1.0000
  Fe  Fe504     1.0  0.90699  0.54624  0.12384  1.0000
  S   S1016     1.0  0.91998  0.52772  0.13284  1.0000
  S   S1017     1.0  0.89390  0.56157  0.13530  1.0000
  Fe  Fe505     1.0  0.93555  0.53270  0.11448  1.0000
  S   S1018     1.0  0.95485  0.53123  0.11980  1.0000
  Fe  Fe506     1.0  0.91356  0.51794  0.12056  1.0000
  S   S1019     1.0  0.90808  0.49813  0.12868  1.0000
  S   S1020     1.0  0.92283  0.55202  0.10604  1.0000
  S   S1021     1.0  0.89898  0.53601  0.11314  1.0000
  N   N257      1.0  0.98423  0.50503  0.26654  1.0000
  Fe  Fe507     1.0  0.91663  0.55075  0.20250  1.0000
  S   S1022     1.0  0.92554  0.52975  0.20036  1.0000
  S   S1023     1.0  0.90609  0.56711  0.18810  1.0000
  Fe  Fe508     1.0  0.92806  0.54708  0.22689  1.0000
  S   S1024     1.0  0.93772  0.52569  0.22679  1.0000
  S   S1025     1.0  0.93318  0.55802  0.23933  1.0000
  Fe  Fe509     1.0  0.94368  0.53264  0.20460  1.0000
  S   S1026     1.0  0.96476  0.52773  0.19311  1.0000
  Fe  Fe510     1.0  0.91875  0.52470  0.22273  1.0000
  S   S1027     1.0  0.91079  0.50655  0.23440  1.0000
  S   S1028     1.0  0.93530  0.55405  0.20491  1.0000
  S   S1029     1.0  0.90842  0.54566  0.22473  1.0000
  H   H8141     1.0  0.96140  0.55612  0.09788  1.0000
  Fe  Fe511     1.0  0.94452  0.59231  0.41417  1.0000
  S   S1030     1.0  0.92653  0.60030  0.40519  1.0000
  S   S1031     1.0  0.94649  0.58039  0.43495  1.0000
  Fe  Fe512     1.0  0.96255  0.60416  0.38919  1.0000
  S   S1032     1.0  0.94627  0.61355  0.37811  1.0000
  H   H8142     1.0  0.97103  0.70023  0.35926  1.0000
  Fe  Fe513     1.0  0.93427  0.61914  0.39729  1.0000
  S   S1033     1.0  0.92113  0.63918  0.39944  1.0000
  Fe  Fe514     1.0  0.93986  0.59400  0.38655  1.0000
  S   S1034     1.0  0.93307  0.58757  0.37138  1.0000
  S   S1035     1.0  0.95108  0.61161  0.40766  1.0000
  S   S1036     1.0  0.95719  0.58420  0.39624  1.0000
  Fe  Fe515     1.0  0.93344  0.53653  0.31051  1.0000
  S   S1037     1.0  0.95200  0.52876  0.29668  1.0000
  S   S1038     1.0  0.91506  0.54253  0.30241  1.0000
  Fe  Fe516     1.0  0.94743  0.53134  0.33321  1.0000
  S   S1039     1.0  0.96685  0.52240  0.32110  1.0000
  S   S1040     1.0  0.94796  0.53227  0.35405  1.0000
  Fe  Fe517     1.0  0.96150  0.53986  0.30478  1.0000
  S   S1041     1.0  0.97673  0.55166  0.29278  1.0000
  Fe  Fe518     1.0  0.95529  0.51209  0.31433  1.0000
  S   S1042     1.0  0.96282  0.49179  0.30928  1.0000
  S   S1043     1.0  0.94262  0.54935  0.31708  1.0000
  S   S1044     1.0  0.93618  0.51928  0.32793  1.0000
  H   H8143     1.0  0.90966  0.57213  0.30724  1.0000
  C   C4598     1.0  0.97951  0.59286  0.30444  1.0000
  H   H8144     1.0  0.96758  0.57410  0.24296  1.0000
  H   H8145     1.0  0.90061  0.50104  0.19448  1.0000
  C   C4599     1.0  0.88701  0.49041  0.06511  1.0000
  C   C4600     1.0  0.90654  0.64383  0.47475  1.0000
  H   H8146     1.0  0.98228  0.57915  0.10081  1.0000
  H   H8147     1.0  0.93226  0.48794  0.29221  1.0000
  H   H8148     1.0  0.92776  0.49237  0.26057  1.0000
  C   C4601     1.0  0.79522  0.49565  0.00893  1.0000
  H   H8149     1.0  0.97780  0.62803  0.35413  1.0000
  N   N258      1.0  0.95332  0.48789  0.07554  1.0000
  H   H8150     1.0  0.80392  0.50055  0.98716  1.0000
  H   H8151     1.0  0.87251  0.49372  0.18303  1.0000
  C   C4602     1.0  0.95808  0.62879  0.45339  1.0000
  H   H8152     1.0  0.95705  0.60202  0.20343  1.0000
  C   C4603     1.0  0.78654  0.55807  0.99717  1.0000
  H   H8153     1.0  0.77964  0.56259  0.04044  1.0000
  H   H8154     1.0  0.96793  0.54927  0.32142  1.0000
  C   C4604     1.0  0.84816  0.53768  0.98363  1.0000
  H   H8155     1.0  0.89966  0.63800  0.46096  1.0000
  H   H8156     1.0  0.84660  0.53138  0.11865  1.0000
  C   C4605     1.0  0.93920  0.57225  0.36623  1.0000
  C   C4606     1.0  0.94337  0.56031  0.37497  1.0000
  C   C4607     1.0  0.94644  0.54811  0.37099  1.0000
  C   C4608     1.0  0.94567  0.54779  0.35817  1.0000
  C   C4609     1.0  0.94224  0.55981  0.34920  1.0000
  C   C4610     1.0  0.93874  0.57194  0.35332  1.0000
  H   H8157     1.0  0.94365  0.56043  0.38498  1.0000
  H   H8158     1.0  0.94911  0.53887  0.37800  1.0000
  H   H8159     1.0  0.94179  0.55974  0.33927  1.0000
  H   H8160     1.0  0.93541  0.58111  0.34653  1.0000
  C   C4611     1.0  0.92855  0.65300  0.39279  1.0000
  C   C4612     1.0  0.94056  0.65234  0.38336  1.0000
  C   C4613     1.0  0.94580  0.66382  0.37762  1.0000
  C   C4614     1.0  0.92205  0.66500  0.39676  1.0000
  H   H8161     1.0  0.94560  0.64311  0.38022  1.0000
  H   H8162     1.0  0.95487  0.66341  0.37003  1.0000
  H   H8163     1.0  0.91267  0.66557  0.40391  1.0000
  H   H8164     1.0  0.80308  0.59449  0.02783  1.0000
  C   C4615     1.0  0.92853  0.59724  0.47261  1.0000
  C   C4616     1.0  0.94201  0.59623  0.46680  1.0000
  C   C4617     1.0  0.94743  0.59169  0.45480  1.0000
  C   C4618     1.0  0.93936  0.58836  0.44849  1.0000
  C   C4619     1.0  0.92586  0.58963  0.45423  1.0000
  C   C4620     1.0  0.92049  0.59403  0.46624  1.0000
  H   H8165     1.0  0.98681  0.69856  0.45746  1.0000
  H   H8166     1.0  0.95790  0.59053  0.45046  1.0000
  H   H8167     1.0  0.91964  0.58676  0.44964  1.0000
  H   H8168     1.0  0.93996  0.49195  0.11570  1.0000
  C   C4621     1.0  0.92774  0.55365  0.25682  1.0000
  C   C4622     1.0  0.93337  0.55779  0.26487  1.0000
  C   C4623     1.0  0.92952  0.55429  0.27884  1.0000
  C   C4624     1.0  0.91961  0.54708  0.28486  1.0000
  C   C4625     1.0  0.91369  0.54319  0.27684  1.0000
  C   C4626     1.0  0.91793  0.54626  0.26282  1.0000
  H   H8169     1.0  0.94082  0.56363  0.26033  1.0000
  H   H8170     1.0  0.93410  0.55735  0.28496  1.0000
  H   H8171     1.0  0.90604  0.53757  0.28147  1.0000
  H   H8172     1.0  0.91348  0.54309  0.25666  1.0000
  H   H8173     1.0  0.82537  0.48560  0.04871  1.0000
  H   H8174     1.0  0.81174  0.54683  0.99270  1.0000
  C   C4627     1.0  0.90491  0.50380  0.21196  1.0000
  C   C4628     1.0  0.90803  0.49751  0.22441  1.0000
  H   H8175     1.0  0.93987  0.50092  0.26958  1.0000
  H   H8176     1.0  0.91559  0.73296  0.44933  1.0000
  H   H8177     1.0  0.78553  0.49342  0.01472  1.0000
  H   H8178     1.0  0.90349  0.51450  0.20863  1.0000
  S   S1045     1.0  0.87033  0.49279  0.02925  1.0000
  N   N259      1.0  0.97282  0.59633  0.34153  1.0000
  C   C4629     1.0  0.89727  0.56216  0.15037  1.0000
  C   C4630     1.0  0.90450  0.55118  0.15807  1.0000
  C   C4631     1.0  0.90716  0.55237  0.16987  1.0000
  C   C4632     1.0  0.90270  0.56459  0.17386  1.0000
  C   C4633     1.0  0.89544  0.57543  0.16617  1.0000
  C   C4634     1.0  0.89265  0.57420  0.15459  1.0000
  H   H8179     1.0  0.90793  0.54178  0.15503  1.0000
  H   H8180     1.0  0.91261  0.54392  0.17587  1.0000
  H   H8181     1.0  0.89190  0.58486  0.16921  1.0000
  H   H8182     1.0  0.88701  0.58269  0.14878  1.0000
  C   C4635     1.0  0.90906  0.49989  0.10237  1.0000
  C   C4636     1.0  0.97940  0.69460  0.35280  1.0000
  H   H8183     1.0  0.95405  0.65099  0.41371  1.0000
  C   C4637     1.0  0.95421  0.48615  0.16936  1.0000
  H   H8184     1.0  0.90808  0.51046  0.10098  1.0000
  Fe  Fe519     1.0  0.75068  0.54232  0.02553  1.0000
  C   C4638     1.0  0.90045  0.54298  0.07032  1.0000
  C   C4639     1.0  0.89716  0.54933  0.05788  1.0000
  C   C4640     1.0  0.88595  0.54757  0.05482  1.0000
  C   C4641     1.0  0.87796  0.53938  0.06417  1.0000
  C   C4642     1.0  0.88169  0.53247  0.07628  1.0000
  C   C4643     1.0  0.89286  0.53424  0.07933  1.0000
  H   H8185     1.0  0.90302  0.55604  0.05079  1.0000
  H   H8186     1.0  0.88310  0.55308  0.04552  1.0000
  H   H8187     1.0  0.87564  0.52607  0.08355  1.0000
  H   H8188     1.0  0.89535  0.52916  0.08885  1.0000
  S   S1046     1.0  0.73878  0.55206  0.00980  1.0000
  H   H8189     1.0  0.97809  0.66921  0.36684  1.0000
  H   H8190     1.0  0.97960  0.50539  0.28756  1.0000
  C   C4644     1.0  0.97476  0.53271  0.20047  1.0000
  C   C4645     1.0  0.96919  0.53782  0.21199  1.0000
  C   C4646     1.0  0.97702  0.54193  0.21786  1.0000
  H   H8191     1.0  0.95723  0.48629  0.19343  1.0000
  H   H8192     1.0  0.78651  0.54817  0.00409  1.0000
  H   H8193     1.0  0.95879  0.53874  0.21642  1.0000
  H   H8194     1.0  0.97257  0.54583  0.22677  1.0000
  H   H8195     1.0  0.86445  0.48972  0.05862  1.0000
  H   H8196     1.0  0.77370  0.50532  0.99692  1.0000
  C   C4647     1.0  0.97076  0.52864  0.09493  1.0000
  C   C4648     1.0  0.96978  0.53036  0.10771  1.0000
  S   S1047     1.0  0.73803  0.52187  0.00856  1.0000
  H   H8197     1.0  0.97707  0.60738  0.40663  1.0000
  H   H8198     1.0  0.96748  0.49828  0.06051  1.0000
  H   H8199     1.0  0.96227  0.52727  0.09239  1.0000
  H   H8200     1.0  0.82079  0.49202  0.99601  1.0000
  H   H8201     1.0  0.79459  0.58625  0.01303  1.0000
  H   H8202     1.0  0.94382  0.48890  0.33491  1.0000
  C   C4649     1.0  0.98352  0.55304  0.32766  1.0000
  C   C4650     1.0  0.79816  0.53098  0.04670  1.0000
  C   C4651     1.0  0.79448  0.54482  0.04527  1.0000
  C   C4652     1.0  0.98224  0.67440  0.37187  1.0000
  C   C4653     1.0  0.79501  0.49738  0.99402  1.0000
  H   H8203     1.0  0.91142  0.69625  0.46131  1.0000
  C   C4654     1.0  0.95844  0.57756  0.21294  1.0000
  H   H8204     1.0  0.94865  0.58372  0.21677  1.0000
  H   H8205     1.0  0.93742  0.51737  0.04592  1.0000
  H   H8206     1.0  0.95601  0.58537  0.18020  1.0000
  H   H8207     1.0  0.95359  0.59334  0.34225  1.0000
  H   H8208     1.0  0.95677  0.56728  0.21495  1.0000
  C   C4655     1.0  0.94936  0.57172  0.08561  1.0000
  N   N260      1.0  0.92036  0.63858  0.45187  1.0000
  C   C4656     1.0  0.92147  0.62963  0.44274  1.0000
  C   C4657     1.0  0.93298  0.63524  0.45693  1.0000
  C   C4658     1.0  0.92726  0.65802  0.43270  1.0000
  C   C4659     1.0  0.90959  0.63219  0.43617  1.0000
  C   C4660     1.0  0.94624  0.63004  0.44758  1.0000
  H   H8209     1.0  0.86061  0.48756  0.17864  1.0000
  C   C4661     1.0  0.91054  0.62042  0.43027  1.0000
  H   H8210     1.0  0.92338  0.61904  0.44828  1.0000
  H   H8211     1.0  0.93010  0.63039  0.43418  1.0000
  H   H8212     1.0  0.93247  0.62725  0.46624  1.0000
  H   H8213     1.0  0.91114  0.62494  0.46860  1.0000
  H   H8214     1.0  0.92928  0.65219  0.42496  1.0000
  H   H8215     1.0  0.93659  0.65736  0.43553  1.0000
  H   H8216     1.0  0.89986  0.63360  0.44314  1.0000
  H   H8217     1.0  0.90967  0.64127  0.42798  1.0000
  H   H8218     1.0  0.94649  0.61999  0.44641  1.0000
  H   H8219     1.0  0.94763  0.63660  0.43749  1.0000
  H   H8220     1.0  0.80800  0.58388  0.98828  1.0000
  H   H8221     1.0  0.93598  0.50309  0.21129  1.0000
  H   H8222     1.0  0.97697  0.57849  0.17197  1.0000
  H   H8223     1.0  0.85118  0.58683  0.05737  1.0000
  H   H8224     1.0  0.92050  0.61782  0.42386  1.0000
  H   H8225     1.0  0.90871  0.61158  0.43836  1.0000
  H   H8226     1.0  0.90306  0.62304  0.42409  1.0000
  C   C4662     1.0  0.90081  0.57252  0.36770  1.0000
  H   H8227     1.0  0.96047  0.62462  0.18830  1.0000
  H   H8228     1.0  0.92259  0.54198  0.34859  1.0000
  H   H8229     1.0  0.79245  0.51351  0.04598  1.0000
  H   H8230     1.0  0.77148  0.52602  0.03910  1.0000
  H   H8231     1.0  0.90606  0.50495  0.04933  1.0000
  H   H8232     1.0  0.84619  0.55277  0.10164  1.0000
  H   H8233     1.0  0.90316  0.55133  0.37527  1.0000
  C   C4663     1.0  0.90667  0.55808  0.36567  1.0000
  H   H8234     1.0  0.85833  0.52437  0.10521  1.0000
  H   H8235     1.0  0.97574  0.56035  0.37949  1.0000
  H   H8236     1.0  0.98113  0.59469  0.24909  1.0000
  H   H8237     1.0  0.96337  0.50245  0.07627  1.0000
  C   C4664     1.0  0.94612  0.48867  0.08971  1.0000
  H   H8238     1.0  0.81790  0.50031  0.00904  1.0000
  H   H8239     1.0  0.91221  0.57022  0.38249  1.0000
  C   C4665     1.0  0.98076  0.53222  0.11089  1.0000
  H   H8240     1.0  0.89303  0.68441  0.47428  1.0000
  H   H8241     1.0  0.80624  0.52434  0.00749  1.0000
  C   C4666     1.0  0.91701  0.65310  0.44519  1.0000
  H   H8242     1.0  0.88178  0.55676  0.09007  1.0000
  C   C4667     1.0  0.81368  0.55007  0.00077  1.0000
  H   H8243     1.0  0.92786  0.51731  0.29117  1.0000
  H   H8244     1.0  0.93011  0.67617  0.41793  1.0000
  H   H8245     1.0  0.90452  0.58405  0.31774  1.0000
  C   C4668     1.0  0.95387  0.61120  0.10432  1.0000
  C   C4669     1.0  0.98315  0.65399  0.38944  1.0000
  H   H8246     1.0  0.92107  0.57374  0.31587  1.0000
  H   H8247     1.0  0.86236  0.52094  0.12128  1.0000
  H   H8248     1.0  0.95383  0.54507  0.48187  1.0000
  C   C4670     1.0  0.85071  0.57465  0.10234  1.0000
  C   C4671     1.0  0.85036  0.57161  0.11747  1.0000
  C   C4672     1.0  0.87975  0.57683  0.09199  1.0000
  C   C4673     1.0  0.84064  0.58263  0.12397  1.0000
  C   C4674     1.0  0.89312  0.57441  0.09553  1.0000
  H   H8249     1.0  0.87562  0.55919  0.10652  1.0000
  H   H8250     1.0  0.85201  0.58504  0.09789  1.0000
  H   H8251     1.0  0.84056  0.57488  0.10162  1.0000
  H   H8252     1.0  0.86016  0.57083  0.11938  1.0000
  H   H8253     1.0  0.84697  0.56222  0.12256  1.0000
  H   H8254     1.0  0.87284  0.58452  0.09721  1.0000
  H   H8255     1.0  0.86231  0.54465  0.11846  1.0000
  H   H8256     1.0  0.84374  0.59228  0.11952  1.0000
  H   H8257     1.0  0.83050  0.58369  0.12272  1.0000
  H   H8258     1.0  0.84045  0.58011  0.13484  1.0000
  H   H8259     1.0  0.89227  0.57071  0.10647  1.0000
  H   H8260     1.0  0.90057  0.56703  0.09025  1.0000
  H   H8261     1.0  0.83964  0.49677  0.01381  1.0000
  H   H8262     1.0  0.88723  0.52061  0.26149  1.0000
  C   C4675     1.0  0.97355  0.57788  0.36339  1.0000
  C   C4676     1.0  0.81903  0.49038  0.00701  1.0000
  C   C4677     1.0  0.97731  0.55218  0.31813  1.0000
  H   H8263     1.0  0.97899  0.49366  0.24737  1.0000
  H   H8264     1.0  0.90724  0.65562  0.44244  1.0000
  H   H8265     1.0  0.82349  0.57224  0.98788  1.0000
  H   H8266     1.0  0.95529  0.61708  0.32746  1.0000
  C   C4678     1.0  0.96539  0.49388  0.07145  1.0000
  C   C4679     1.0  0.80992  0.56765  0.01252  1.0000
  C   C4680     1.0  0.79197  0.56689  0.00282  1.0000
  H   H8267     1.0  0.79246  0.55629  0.98734  1.0000
  S   S1048     1.0  0.98350  0.60573  0.37884  1.0000
  H   H8268     1.0  0.89595  0.69286  0.44995  1.0000
  C   C4681     1.0  0.90473  0.49235  0.28016  1.0000
  C   C4682     1.0  0.97730  0.49400  0.26828  1.0000
  H   H8269     1.0  0.98475  0.67862  0.39379  1.0000
  C   C4683     1.0  0.97838  0.59793  0.32665  1.0000
  H   H8270     1.0  0.98556  0.49893  0.07993  1.0000
  H   H8271     1.0  0.80543  0.56164  0.02216  1.0000
  H   H8272     1.0  0.78701  0.56549  0.01363  1.0000
  H   H8273     1.0  0.98356  0.57355  0.19938  1.0000
  H   H8274     1.0  0.81604  0.54016  0.02109  1.0000
  H   H8275     1.0  0.97481  0.68945  0.46873  1.0000
  H   H8276     1.0  0.86162  0.49249  0.07474  1.0000
  C   C4684     1.0  0.98277  0.52886  0.08538  1.0000
  C   C4685     1.0  0.98608  0.51271  0.35651  1.0000
  H   H8277     1.0  0.91575  0.64471  0.47667  1.0000
  H   H8278     1.0  0.95376  0.57068  0.19206  1.0000
  H   H8279     1.0  0.97497  0.53310  0.35654  1.0000
  H   H8280     1.0  0.79971  0.57818  0.03563  1.0000
  H   H8281     1.0  0.97211  0.66330  0.40647  1.0000
  C   C4686     1.0  0.81280  0.57324  0.98833  1.0000
  H   H8282     1.0  0.91121  0.55348  0.32640  1.0000
  H   H8283     1.0  0.84505  0.56174  0.07834  1.0000
  H   H8284     1.0  0.95857  0.72655  0.43823  1.0000
  N   N261      1.0  0.80684  0.56437  0.00099  1.0000
  H   H8285     1.0  0.88170  0.49772  0.07151  1.0000
  C   C4687     1.0  0.92233  0.67269  0.42650  1.0000
  H   H8286     1.0  0.89848  0.58435  0.38207  1.0000
  H   H8287     1.0  0.85743  0.56987  0.05514  1.0000
  N   N262      1.0  0.96314  0.58273  0.19810  1.0000
  C   C4688     1.0  0.95985  0.56711  0.09434  1.0000
  H   H8288     1.0  0.79969  0.54232  0.01876  1.0000
  H   H8289     1.0  0.80082  0.55001  0.04716  1.0000
  H   H8290     1.0  0.97514  0.56333  0.19579  1.0000
  H   H8291     1.0  0.87838  0.50331  0.04828  1.0000
  C   C4689     1.0  0.97865  0.60417  0.34740  1.0000
  H   H8292     1.0  0.96276  0.58036  0.36745  1.0000
  H   H8293     1.0  0.81125  0.58869  0.00590  1.0000
  H   H8294     1.0  0.78799  0.57754  0.99854  1.0000
  C   C4690     1.0  0.92717  0.71462  0.44386  1.0000
  C   C4691     1.0  0.94037  0.69999  0.45938  1.0000
  C   C4692     1.0  0.90877  0.49163  0.11514  1.0000
  H   H8295     1.0  0.81659  0.58008  0.02849  1.0000
  H   H8296     1.0  0.98683  0.61725  0.41885  1.0000
  C   C4693     1.0  0.97827  0.56289  0.36840  1.0000
  C   C4694     1.0  0.88872  0.51034  0.26776  1.0000
  H   H8297     1.0  0.83985  0.48932  0.06756  1.0000
  H   H8298     1.0  0.97655  0.56919  0.22086  1.0000
  N   N263      1.0  0.91876  0.48595  0.28159  1.0000
  C   C4695     1.0  0.91053  0.57398  0.31666  1.0000
  H   H8299     1.0  0.95007  0.56204  0.47257  1.0000
  H   H8300     1.0  0.97928  0.50960  0.16659  1.0000
  H   H8301     1.0  0.96182  0.48672  0.09986  1.0000
  H   H8302     1.0  0.91756  0.55624  0.36453  1.0000
  H   H8303     1.0  0.96357  0.50376  0.25472  1.0000
  C   C4696     1.0  0.97122  0.49449  0.25658  1.0000
  C   C4697     1.0  0.77429  0.54518  0.03901  1.0000
  H   H8304     1.0  0.95743  0.56519  0.23957  1.0000
  H   H8305     1.0  0.98670  0.58689  0.17689  1.0000
  H   H8306     1.0  0.81348  0.51859  0.02188  1.0000
  H   H8307     1.0  0.97437  0.72353  0.47164  1.0000
  H   H8308     1.0  0.78358  0.51785  0.99091  1.0000
  H   H8309     1.0  0.88083  0.51003  0.27704  1.0000
  H   H8310     1.0  0.78566  0.49625  0.03535  1.0000
  C   C4698     1.0  0.98174  0.59016  0.25965  1.0000
  H   H8311     1.0  0.97722  0.50950  0.35624  1.0000
  H   H8312     1.0  0.96400  0.55741  0.15550  1.0000
  C   C4699     1.0  0.93639  0.70955  0.46715  1.0000
  Fe  Fe520     1.0  0.74991  0.51479  0.02439  1.0000
  H   H8313     1.0  0.97557  0.58741  0.29952  1.0000
  S   S1049     1.0  0.92944  0.71152  0.40389  1.0000
  C   C4700     1.0  0.91097  0.49440  0.09132  1.0000
  H   H8314     1.0  0.89375  0.49202  0.04325  1.0000
  H   H8315     1.0  0.88800  0.49091  0.16146  1.0000
  C   C4701     1.0  0.94391  0.49580  0.06652  1.0000
  C   C4702     1.0  0.98582  0.61118  0.40162  1.0000
  H   H8316     1.0  0.82458  0.54902  0.99839  1.0000
  Fe  Fe521     1.0  0.94043  0.72823  0.39735  1.0000
  H   H8317     1.0  0.88282  0.69939  0.47846  1.0000
  H   H8318     1.0  0.79499  0.50552  0.01064  1.0000
  C   C4703     1.0  0.88827  0.49845  0.05045  1.0000
  C   C4704     1.0  0.89582  0.50938  0.04786  1.0000
  Fe  Fe522     1.0  0.94540  0.70220  0.38838  1.0000
  H   H8319     1.0  0.93259  0.61535  0.35245  1.0000
  H   H8320     1.0  0.94279  0.49914  0.09075  1.0000
  C   C4705     1.0  0.95175  0.61475  0.33847  1.0000
  H   H8321     1.0  0.97139  0.59212  0.47743  1.0000
  H   H8322     1.0  0.97462  0.62382  0.33346  1.0000
  C   C4706     1.0  0.96640  0.61946  0.18014  1.0000
  C   C4707     1.0  0.92740  0.72141  0.46360  1.0000
  H   H8323     1.0  0.91273  0.67176  0.47356  1.0000
  H   H8324     1.0  0.97922  0.50280  0.13003  1.0000
  H   H8325     1.0  0.97506  0.53976  0.14331  1.0000
  H   H8326     1.0  0.89630  0.51522  0.03742  1.0000
  C   C4708     1.0  0.77233  0.56436  0.99564  1.0000
  C   C4709     1.0  0.94177  0.56917  0.13028  1.0000
  H   H8327     1.0  0.96198  0.59502  0.31999  1.0000
  S   S1050     1.0  0.85078  0.55567  0.99679  1.0000
  N   N264      1.0  0.90352  0.55477  0.35418  1.0000
  H   H8328     1.0  0.94715  0.59260  0.09579  1.0000
  H   H8329     1.0  0.97190  0.57562  0.34470  1.0000
  H   H8330     1.0  0.97600  0.55199  0.16578  1.0000
  S   S1051     1.0  0.76448  0.52768  0.01384  1.0000
  H   H8331     1.0  0.86005  0.54689  0.08979  1.0000
  H   H8332     1.0  0.92360  0.71660  0.43483  1.0000
  H   H8333     1.0  0.97181  0.60667  0.35675  1.0000
  C   C4710     1.0  0.93113  0.50535  0.27657  1.0000
  C   C4711     1.0  0.93609  0.51295  0.28363  1.0000
  C   C4712     1.0  0.80620  0.58383  0.02728  1.0000
  C   C4713     1.0  0.86341  0.54087  0.10949  1.0000
  H   H8334     1.0  0.93522  0.57823  0.11167  1.0000
  H   H8335     1.0  0.91657  0.49925  0.29444  1.0000
  N   N265      1.0  0.95673  0.57351  0.10612  1.0000
  C   C4714     1.0  0.95353  0.59667  0.11117  1.0000
  H   H8336     1.0  0.86539  0.50285  0.16884  1.0000
  C   C4715     1.0  0.96775  0.56725  0.11356  1.0000
  Fe  Fe523     1.0  0.75149  0.53611  0.99919  1.0000
  C   C4716     1.0  0.84774  0.57157  0.07567  1.0000
  Fe  Fe524     1.0  0.94393  0.70193  0.41713  1.0000
  C   C4717     1.0  0.97020  0.65876  0.39926  1.0000
  S   S1052     1.0  0.95364  0.71922  0.41185  1.0000
  C   C4718     1.0  0.97769  0.53868  0.15296  1.0000
  H   H8337     1.0  0.88794  0.50351  0.26200  1.0000
  H   H8338     1.0  0.92441  0.51270  0.27055  1.0000
  H   H8339     1.0  0.94396  0.50622  0.28872  1.0000
  H   H8340     1.0  0.98505  0.49723  0.33696  1.0000
  C   C4719     1.0  0.90560  0.56331  0.32848  1.0000
  H   H8341     1.0  0.83995  0.57693  0.05775  1.0000
  H   H8342     1.0  0.93535  0.49108  0.06870  1.0000
  N   N266      1.0  0.80656  0.48528  0.01391  1.0000
  H   H8343     1.0  0.97914  0.52990  0.27586  1.0000
  Fe  Fe525     1.0  0.96728  0.70938  0.39567  1.0000
  C   C4720     1.0  0.98119  0.52500  0.36262  1.0000
  C   C4721     1.0  0.97444  0.51819  0.26453  1.0000
  C   C4722     1.0  0.98266  0.61717  0.33826  1.0000
  H   H8344     1.0  0.95209  0.61707  0.11197  1.0000
  H   H8345     1.0  0.96591  0.57130  0.12255  1.0000
  H   H8346     1.0  0.95196  0.49386  0.21422  1.0000
  C   C4723     1.0  0.97900  0.53036  0.26538  1.0000
  H   H8347     1.0  0.97342  0.68011  0.37782  1.0000
  H   H8348     1.0  0.90280  0.51388  0.27631  1.0000
  H   H8349     1.0  0.98245  0.69187  0.43833  1.0000
  C   C4724     1.0  0.89330  0.69375  0.47664  1.0000
  C   C4725     1.0  0.96957  0.54335  0.26073  1.0000
  H   H8350     1.0  0.93915  0.57217  0.09171  1.0000
  H   H8351     1.0  0.96506  0.51761  0.27222  1.0000
  H   H8352     1.0  0.97146  0.52057  0.25486  1.0000
  H   H8353     1.0  0.94001  0.48523  0.21369  1.0000
  H   H8354     1.0  0.95410  0.62186  0.34282  1.0000
  H   H8355     1.0  0.97483  0.58591  0.46243  1.0000
  H   H8356     1.0  0.91625  0.50854  0.37176  1.0000
  H   H8357     1.0  0.84825  0.53032  0.99289  1.0000
  H   H8358     1.0  0.96796  0.55643  0.11748  1.0000
  H   H8359     1.0  0.96169  0.60055  0.26693  1.0000
  H   H8360     1.0  0.97429  0.58008  0.32343  1.0000
  C   C4726     1.0  0.85726  0.52867  0.11389  1.0000
  H   H8361     1.0  0.96284  0.58426  0.26444  1.0000
  C   C4727     1.0  0.93081  0.51798  0.05588  1.0000
  C   C4728     1.0  0.90238  0.50645  0.27105  1.0000
  H   H8362     1.0  0.94838  0.55986  0.13451  1.0000
  H   H8363     1.0  0.96973  0.68413  0.45009  1.0000
  H   H8364     1.0  0.97425  0.59708  0.19706  1.0000
  H   H8365     1.0  0.95857  0.63867  0.45444  1.0000
  H   H8366     1.0  0.94716  0.69075  0.46230  1.0000
  S   S1053     1.0  0.75975  0.55426  0.03350  1.0000
  C   C4729     1.0  0.97805  0.58460  0.47180  1.0000
  C   C4730     1.0  0.93187  0.66645  0.47787  1.0000
  H   H8367     1.0  0.97247  0.55187  0.26227  1.0000
  H   H8368     1.0  0.96986  0.54482  0.24997  1.0000
  H   H8369     1.0  0.76581  0.56617  0.00533  1.0000
  C   C4731     1.0  0.90094  0.70154  0.46363  1.0000
  H   H8370     1.0  0.97761  0.60359  0.29945  1.0000
  C   C4732     1.0  0.84999  0.55039  0.98275  1.0000
  C   C4733     1.0  0.89517  0.70284  0.45167  1.0000
  C   C4734     1.0  0.98342  0.55472  0.30453  1.0000
  H   H8371     1.0  0.95189  0.58288  0.23872  1.0000
  S   S1054     1.0  0.75895  0.49333  0.03144  1.0000
  H   H8372     1.0  0.79675  0.48764  0.05473  1.0000
  H   H8373     1.0  0.95738  0.62183  0.46335  1.0000
  H   H8374     1.0  0.96171  0.64201  0.40059  1.0000
  H   H8375     1.0  0.94395  0.57763  0.13265  1.0000
  H   H8376     1.0  0.91924  0.69103  0.47972  1.0000
  H   H8377     1.0  0.96457  0.62607  0.17047  1.0000
  H   H8378     1.0  0.98543  0.56268  0.09774  1.0000
  H   H8379     1.0  0.93102  0.51176  0.07661  1.0000
  C   C4735     1.0  0.95334  0.58140  0.19112  1.0000
  C   C4736     1.0  0.92439  0.49440  0.28688  1.0000
  H   H8380     1.0  0.89549  0.56783  0.38952  1.0000
  H   H8381     1.0  0.91967  0.59359  0.19069  1.0000
  H   H8382     1.0  0.90465  0.49622  0.17188  1.0000
  C   C4737     1.0  0.96441  0.59696  0.19573  1.0000
  H   H8383     1.0  0.94620  0.51587  0.06596  1.0000
  C   C4738     1.0  0.77790  0.53132  0.04067  1.0000
  H   H8384     1.0  0.82372  0.52339  0.00556  1.0000
  H   H8385     1.0  0.96738  0.62487  0.44663  1.0000
  H   H8386     1.0  0.94368  0.59663  0.11800  1.0000
  N   N267      1.0  0.86079  0.56511  0.09451  1.0000
  C   C4739     1.0  0.90732  0.56510  0.34174  1.0000
  S   S1055     1.0  0.94036  0.69050  0.43826  1.0000
  H   H8387     1.0  0.97986  0.73269  0.36669  1.0000
  H   H8388     1.0  0.89815  0.49342  0.29002  1.0000
  C   C4740     1.0  0.93824  0.51071  0.06705  1.0000
  H   H8389     1.0  0.96823  0.70185  0.44727  1.0000
  H   H8390     1.0  0.84210  0.49930  0.04012  1.0000
  C   C4741     1.0  0.93022  0.58972  0.18631  1.0000
  H   H8391     1.0  0.93769  0.59787  0.19830  1.0000
  H   H8392     1.0  0.86256  0.58088  0.07658  1.0000
  H   H8393     1.0  0.97505  0.52247  0.37284  1.0000
  H   H8394     1.0  0.92047  0.57736  0.13399  1.0000
  H   H8395     1.0  0.96448  0.59026  0.09279  1.0000
  H   H8396     1.0  0.94237  0.56093  0.11416  1.0000
  N   N268      1.0  0.94300  0.49795  0.17181  1.0000
  C   C4742     1.0  0.93870  0.49683  0.18679  1.0000
  C   C4743     1.0  0.93161  0.49677  0.16694  1.0000
  H   H8397     1.0  0.94443  0.56601  0.06992  1.0000
  C   C4744     1.0  0.94777  0.51052  0.16407  1.0000
  C   C4745     1.0  0.94093  0.52343  0.16931  1.0000
  H   H8398     1.0  0.98355  0.49811  0.19278  1.0000
  H   H8399     1.0  0.80348  0.52854  0.98592  1.0000
  C   C4746     1.0  0.91920  0.50826  0.16785  1.0000
  C   C4747     1.0  0.90781  0.50495  0.16443  1.0000
  C   C4748     1.0  0.94176  0.53587  0.15806  1.0000
  H   H8400     1.0  0.92520  0.55946  0.13583  1.0000
  H   H8401     1.0  0.91006  0.59473  0.47071  1.0000
  H   H8402     1.0  0.93443  0.65670  0.47507  1.0000
  H   H8403     1.0  0.93065  0.50529  0.18942  1.0000
  H   H8404     1.0  0.93458  0.49643  0.15620  1.0000
  C   C4749     1.0  0.94961  0.49555  0.19423  1.0000
  H   H8405     1.0  0.93576  0.67365  0.46893  1.0000
  C   C4750     1.0  0.81370  0.52569  0.01202  1.0000
  H   H8406     1.0  0.95847  0.50919  0.16360  1.0000
  H   H8407     1.0  0.94707  0.51249  0.15344  1.0000
  H   H8408     1.0  0.94593  0.52396  0.17687  1.0000
  H   H8409     1.0  0.93038  0.52396  0.17404  1.0000
  H   H8410     1.0  0.89072  0.51625  0.05471  1.0000
  H   H8411     1.0  0.95444  0.50416  0.19016  1.0000
  H   H8412     1.0  0.93242  0.62745  0.33689  1.0000
  H   H8413     1.0  0.98585  0.51169  0.23852  1.0000
  H   H8414     1.0  0.91566  0.51044  0.17792  1.0000
  H   H8415     1.0  0.92146  0.51744  0.16062  1.0000
  H   H8416     1.0  0.91081  0.50273  0.15432  1.0000
  H   H8417     1.0  0.98583  0.59661  0.26324  1.0000
  H   H8418     1.0  0.89924  0.51358  0.16457  1.0000
  H   H8419     1.0  0.93543  0.53660  0.15117  1.0000
  H   H8420     1.0  0.93819  0.54489  0.16237  1.0000
  H   H8421     1.0  0.95205  0.53561  0.15225  1.0000
  H   H8422     1.0  0.92710  0.52865  0.05625  1.0000
  H   H8423     1.0  0.95932  0.54317  0.26655  1.0000
  C   C4751     1.0  0.97680  0.58171  0.34787  1.0000
  C   C4752     1.0  0.94373  0.57058  0.11501  1.0000
  H   H8424     1.0  0.91591  0.65944  0.45226  1.0000
  H   H8425     1.0  0.90085  0.65408  0.47149  1.0000
  H   H8426     1.0  0.86894  0.56447  0.07369  1.0000
  C   C4753     1.0  0.88886  0.55513  0.35728  1.0000
  C   C4754     1.0  0.88447  0.54572  0.35140  1.0000
  C   C4755     1.0  0.86946  0.54900  0.35306  1.0000
  H   H8427     1.0  0.88490  0.55251  0.36827  1.0000
  H   H8428     1.0  0.88330  0.56548  0.35401  1.0000
  H   H8429     1.0  0.88739  0.53521  0.35667  1.0000
  H   H8430     1.0  0.88898  0.54627  0.34065  1.0000
  H   H8431     1.0  0.90109  0.53040  0.37120  1.0000
  H   H8432     1.0  0.89500  0.56447  0.32881  1.0000
  H   H8433     1.0  0.86660  0.54190  0.34911  1.0000
  H   H8434     1.0  0.86445  0.54814  0.36378  1.0000
  H   H8435     1.0  0.86605  0.55925  0.34739  1.0000
  H   H8436     1.0  0.91193  0.51443  0.35566  1.0000
  H   H8437     1.0  0.92789  0.51522  0.35751  1.0000
  C   C4756     1.0  0.97627  0.72974  0.46141  1.0000
  C   C4757     1.0  0.93572  0.70251  0.44777  1.0000
  H   H8438     1.0  0.91326  0.67408  0.42287  1.0000
  H   H8439     1.0  0.96925  0.56902  0.08733  1.0000
  H   H8440     1.0  0.96264  0.49377  0.14812  1.0000
  C   C4758     1.0  0.85713  0.55162  0.09852  1.0000
  H   H8441     1.0  0.90081  0.70854  0.44254  1.0000
  H   H8442     1.0  0.77186  0.57396  0.98817  1.0000
  H   H8443     1.0  0.93442  0.58162  0.20581  1.0000
  H   H8444     1.0  0.91782  0.56557  0.34035  1.0000
  C   C4759     1.0  0.78300  0.50788  0.99023  1.0000
  C   C4760     1.0  0.84921  0.57664  0.06056  1.0000
  H   H8445     1.0  0.91727  0.53133  0.37184  1.0000
  S   S1056     1.0  0.95878  0.69134  0.40234  1.0000
  H   H8446     1.0  0.90973  0.50723  0.26146  1.0000
  H   H8447     1.0  0.95060  0.55217  0.08231  1.0000
  H   H8448     1.0  0.92219  0.51365  0.05713  1.0000
  C   C4761     1.0  0.90181  0.57375  0.38129  1.0000
  C   C4762     1.0  0.95177  0.56227  0.07637  1.0000
  H   H8449     1.0  0.96927  0.49378  0.27754  1.0000
  H   H8450     1.0  0.96830  0.60178  0.17348  1.0000
  C   C4763     1.0  0.97274  0.59092  0.31928  1.0000
  H   H8451     1.0  0.98354  0.52758  0.07547  1.0000
  H   H8452     1.0  0.97672  0.60855  0.32139  1.0000
  C   C4764     1.0  0.96245  0.60629  0.18204  1.0000
  H   H8453     1.0  0.97130  0.53275  0.16107  1.0000
  H   H8454     1.0  0.90133  0.57520  0.34277  1.0000
  H   H8455     1.0  0.97893  0.55072  0.33817  1.0000
  H   H8456     1.0  0.97080  0.58687  0.21951  1.0000
  H   H8457     1.0  0.92237  0.68561  0.39441  1.0000
  H   H8458     1.0  0.83938  0.57862  0.08053  1.0000
  H   H8459     1.0  0.96187  0.56154  0.06987  1.0000
  H   H8460     1.0  0.94885  0.49568  0.05590  1.0000
  H   H8461     1.0  0.96290  0.48674  0.17261  1.0000
  H   H8462     1.0  0.92847  0.48725  0.17248  1.0000
  S   S1057     1.0  0.94558  0.69027  0.37398  1.0000
  C   C4765     1.0  0.96762  0.57732  0.22197  1.0000
  C   C4766     1.0  0.93866  0.58799  0.19629  1.0000
  C   C4767     1.0  0.96765  0.59018  0.26793  1.0000
  C   C4768     1.0  0.98635  0.62504  0.34609  1.0000
  C   C4769     1.0  0.92762  0.56820  0.13753  1.0000
  C   C4770     1.0  0.95795  0.60032  0.34480  1.0000
  H   H8463     1.0  0.92016  0.67895  0.43390  1.0000
  C   C4771     1.0  0.96067  0.57475  0.23671  1.0000
  H   H8464     1.0  0.97336  0.55723  0.36470  1.0000
  H   H8465     1.0  0.94018  0.70760  0.47593  1.0000
  C   C4772     1.0  0.78974  0.52423  0.04464  1.0000
  H   H8466     1.0  0.79440  0.48794  0.99211  1.0000
  H   H8467     1.0  0.98070  0.51807  0.14335  1.0000
  H   H8468     1.0  0.75501  0.51448  0.98420  1.0000
  C   C4773     1.0  0.81031  0.53990  0.01403  1.0000
  C   C4774     1.0  0.91204  0.54127  0.35246  1.0000
  H   H8469     1.0  0.96131  0.59295  0.11706  1.0000
  H   H8470     1.0  0.89661  0.58386  0.09244  1.0000
  C   C4775     1.0  0.94400  0.49441  0.20924  1.0000
  H   H8471     1.0  0.90976  0.53782  0.34467  1.0000
  H   H8472     1.0  0.93412  0.64403  0.45976  1.0000
  H   H8473     1.0  0.93101  0.58003  0.18395  1.0000
  C   C4776     1.0  0.87463  0.56376  0.09608  1.0000
  C   C4777     1.0  0.91141  0.53007  0.36538  1.0000
  C   C4778     1.0  0.86071  0.57063  0.07986  1.0000
  H   H8474     1.0  0.98000  0.48705  0.18479  1.0000
  C   C4779     1.0  0.91722  0.51624  0.36232  1.0000
  C   C4780     1.0  0.92752  0.67634  0.39139  1.0000
  H   H8475     1.0  0.91148  0.50076  0.08142  1.0000
  H   H8476     1.0  0.82081  0.56485  0.01198  1.0000
  H   H8477     1.0  0.93427  0.48790  0.19159  1.0000
  H   H8478     1.0  0.96368  0.61195  0.09756  1.0000
  C   C4781     1.0  0.95564  0.58828  0.10079  1.0000
  H   H8479     1.0  0.97004  0.63989  0.41385  1.0000
  H   H8480     1.0  0.93336  0.59689  0.17693  1.0000
  H   H8481     1.0  0.95192  0.60871  0.18145  1.0000
  C   C4782     1.0  0.98189  0.56861  0.10557  1.0000
  H   H8482     1.0  0.89705  0.48701  0.06722  1.0000
  C   C4783     1.0  0.90336  0.49620  0.20391  1.0000
  C   C4784     1.0  0.78250  0.55190  0.04152  1.0000
  H   H8483     1.0  0.87413  0.53744  0.10544  1.0000
  C   C4785     1.0  0.86899  0.49271  0.17460  1.0000
  C   C4786     1.0  0.88025  0.48500  0.16547  1.0000
  C   C4787     1.0  0.84522  0.48875  0.04068  1.0000
  C   C4788     1.0  0.79078  0.48559  0.03761  1.0000
  H   H8484     1.0  0.94605  0.61561  0.09846  1.0000
  H   H8485     1.0  0.97994  0.53377  0.12067  1.0000
  C   C4789     1.0  0.93668  0.61703  0.34149  1.0000
  C   C4790     1.0  0.93929  0.67583  0.38165  1.0000
  H   H8486     1.0  0.94991  0.58181  0.07926  1.0000
  C   C4791     1.0  0.97632  0.57378  0.19366  1.0000
  H   H8487     1.0  0.88464  0.70825  0.45329  1.0000
  C   C4792     1.0  0.96365  0.64715  0.40733  1.0000
  H   H8488     1.0  0.90645  0.57947  0.35995  1.0000
  C   C4793     1.0  0.90925  0.63578  0.46385  1.0000
  H   H8489     1.0  0.95423  0.59936  0.35573  1.0000
  H   H8490     1.0  0.89025  0.57575  0.36709  1.0000
  H   H8491     1.0  0.88119  0.58082  0.08103  1.0000
  H   H8492     1.0  0.93363  0.61018  0.33739  1.0000
  C   C4794     1.0  0.92273  0.72392  0.45198  1.0000
  H   H8493     1.0  0.97965  0.70874  0.41666  1.0000
  H   H8494     1.0  0.98496  0.58105  0.40093  1.0000
  H   H8495     1.0  0.84470  0.49430  0.99691  1.0000
  C   C4795     1.0  0.98242  0.68982  0.45928  1.0000
  H   H8496     1.0  0.97887  0.72316  0.45425  1.0000
  H   H8497     1.0  0.97835  0.58307  0.36771  1.0000
  H   H8498     1.0  0.80966  0.49064  0.03094  1.0000
  H   H8499     1.0  0.98504  0.56999  0.25794  1.0000
  C   C4796     1.0  0.97530  0.69204  0.44806  1.0000
  H   H8500     1.0  0.94827  0.59870  0.47165  1.0000
  H   H8501     1.0  0.87933  0.48674  0.09291  1.0000
  H   H8502     1.0  0.97708  0.61769  0.17999  1.0000
  C   C4797     1.0  0.97451  0.55262  0.15571  1.0000
  H   H8503     1.0  0.98455  0.70185  0.34493  1.0000
  H   H8504     1.0  0.98032  0.64917  0.38301  1.0000
  H   H8505     1.0  0.96872  0.73187  0.42198  1.0000
  H   H8506     1.0  0.96773  0.58587  0.27868  1.0000
  H   H8507     1.0  0.97542  0.68911  0.34795  1.0000
  C   C4798     1.0  0.84272  0.48919  0.00761  1.0000
  H   H8508     1.0  0.98091  0.55890  0.14803  1.0000
  S   S1058     1.0  0.92187  0.73317  0.47356  1.0000
  H   H8509     1.0  0.98586  0.56496  0.39815  1.0000
  C   C4799     1.0  0.98340  0.57746  0.17883  1.0000
  H   H8510     1.0  0.94222  0.73432  0.35657  1.0000
  H   H8511     1.0  0.75649  0.48583  0.07583  1.0000
  H   H8512     1.0  0.83947  0.48599  0.08514  1.0000
  H   H8513     1.0  0.90068  0.48574  0.27670  1.0000
  Fe  Fe526     1.0  0.85195  0.50616  0.92411  1.0000
  S   S1059     1.0  0.86445  0.51568  0.93048  1.0000
  H   H8514     1.0  0.98513  0.54124  0.77553  1.0000
  Fe  Fe527     1.0  0.84111  0.53154  0.90581  1.0000
  S   S1060     1.0  0.85304  0.54328  0.91038  1.0000
  S   S1061     1.0  0.82870  0.54100  0.89033  1.0000
  Fe  Fe528     1.0  0.86969  0.52522  0.90859  1.0000
  S   S1062     1.0  0.89154  0.52328  0.89904  1.0000
  Fe  Fe529     1.0  0.84679  0.53262  0.93179  1.0000
  S   S1063     1.0  0.83681  0.54287  0.94911  1.0000
  S   S1064     1.0  0.85826  0.51441  0.90227  1.0000
  S   S1065     1.0  0.83368  0.52214  0.92720  1.0000
  Fe  Fe530     1.0  0.95414  0.51636  0.81471  1.0000
  S   S1066     1.0  0.94924  0.52381  0.83358  1.0000
  H   H8515     1.0  0.80460  0.51085  0.89239  1.0000
  Fe  Fe531     1.0  0.94857  0.54381  0.79692  1.0000
  S   S1067     1.0  0.94294  0.55361  0.81427  1.0000
  S   S1068     1.0  0.94750  0.55749  0.77677  1.0000
  Fe  Fe532     1.0  0.96070  0.53926  0.82074  1.0000
  H   H8516     1.0  0.87213  0.49072  0.76577  1.0000
  Fe  Fe533     1.0  0.93192  0.53745  0.82547  1.0000
  S   S1069     1.0  0.91060  0.54283  0.83640  1.0000
  S   S1070     1.0  0.96715  0.53058  0.80259  1.0000
  S   S1071     1.0  0.93606  0.52892  0.80743  1.0000
  Fe  Fe534     1.0  0.75468  0.54006  0.90352  1.0000
  S   S1072     1.0  0.76197  0.51839  0.91152  1.0000
  S   S1073     1.0  0.76639  0.55580  0.89917  1.0000
  Fe  Fe535     1.0  0.75229  0.51526  0.89691  1.0000
  H   H8517     1.0  0.76316  0.49024  0.86129  1.0000
  S   S1074     1.0  0.74649  0.53698  0.88781  1.0000
  C   C4800     1.0  0.83373  0.49017  0.96593  1.0000
  C   C4801     1.0  0.75255  0.51960  0.97467  1.0000
  Fe  Fe536     1.0  0.93715  0.52913  0.59252  1.0000
  S   S1075     1.0  0.93556  0.53725  0.61021  1.0000
  S   S1076     1.0  0.92620  0.54218  0.57658  1.0000
  Fe  Fe537     1.0  0.95749  0.53152  0.60525  1.0000
  H   H8518     1.0  0.83524  0.49012  0.83403  1.0000
  Fe  Fe538     1.0  0.93672  0.51633  0.62229  1.0000
  S   S1077     1.0  0.92620  0.51232  0.64411  1.0000
  S   S1078     1.0  0.95936  0.52420  0.58693  1.0000
  S   S1079     1.0  0.93536  0.50861  0.60521  1.0000
  Fe  Fe539     1.0  0.94437  0.60419  0.52271  1.0000
  S   S1080     1.0  0.94804  0.62487  0.51777  1.0000
  S   S1081     1.0  0.95311  0.58934  0.53942  1.0000
  H   H8519     1.0  0.89124  0.50135  0.94961  1.0000
  H   H8520     1.0  0.93583  0.53056  0.52808  1.0000
  H   H8521     1.0  0.81943  0.50833  0.84369  1.0000
  H   H8522     1.0  0.97323  0.57565  0.50120  1.0000
  Fe  Fe540     1.0  0.92770  0.63175  0.51371  1.0000
  S   S1082     1.0  0.91216  0.64936  0.51973  1.0000
  S   S1083     1.0  0.95243  0.60108  0.50171  1.0000
  S   S1084     1.0  0.92333  0.61121  0.52037  1.0000
  H   H8523     1.0  0.78981  0.52775  0.88240  1.0000
  S   S1085     1.0  0.96618  0.51082  0.71502  1.0000
  H   H8524     1.0  0.87500  0.51253  0.80586  1.0000
  S   S1086     1.0  0.92124  0.60219  0.48794  1.0000
  S   S1087     1.0  0.93571  0.51232  0.71414  1.0000
  Fe  Fe541     1.0  0.95600  0.50224  0.70485  1.0000
  S   S1088     1.0  0.96457  0.50166  0.68318  1.0000
  Fe  Fe542     1.0  0.94588  0.51903  0.72593  1.0000
  S   S1089     1.0  0.93864  0.54009  0.72865  1.0000
  H   H8525     1.0  0.95959  0.51038  0.87664  1.0000
  H   H8526     1.0  0.82671  0.52025  0.86064  1.0000
  C   C4802     1.0  0.97717  0.52567  0.64276  1.0000
  Fe  Fe543     1.0  0.93180  0.71369  0.51919  1.0000
  H   H8527     1.0  0.88593  0.49367  0.93961  1.0000
  S   S1090     1.0  0.92200  0.69845  0.53512  1.0000
  Fe  Fe544     1.0  0.93178  0.60981  0.49885  1.0000
  C   C4803     1.0  0.80682  0.53040  0.96455  1.0000
  Fe  Fe545     1.0  0.95756  0.50437  0.60066  1.0000
  S   S1091     1.0  0.94694  0.72337  0.52129  1.0000
  H   H8528     1.0  0.80629  0.52350  0.85473  1.0000
  C   C4804     1.0  0.91601  0.66228  0.52424  1.0000
  C   C4805     1.0  0.90641  0.66888  0.53348  1.0000
  C   C4806     1.0  0.90852  0.67977  0.53681  1.0000
  C   C4807     1.0  0.92001  0.68461  0.53051  1.0000
  C   C4808     1.0  0.92962  0.67816  0.52105  1.0000
  C   C4809     1.0  0.92773  0.66683  0.51811  1.0000
  H   H8529     1.0  0.89730  0.66549  0.53820  1.0000
  H   H8530     1.0  0.90109  0.68461  0.54415  1.0000
  H   H8531     1.0  0.93859  0.68172  0.51620  1.0000
  H   H8532     1.0  0.93517  0.66184  0.51089  1.0000
  H   H8533     1.0  0.81025  0.56573  0.88580  1.0000
  C   C4810     1.0  0.93291  0.55618  0.56730  1.0000
  C   C4811     1.0  0.94535  0.55702  0.56810  1.0000
  C   C4812     1.0  0.95129  0.56735  0.55966  1.0000
  C   C4813     1.0  0.94470  0.57724  0.55059  1.0000
  C   C4814     1.0  0.93194  0.57689  0.55023  1.0000
  C   C4815     1.0  0.92609  0.56632  0.55853  1.0000
  H   H8534     1.0  0.95049  0.54969  0.57514  1.0000
  H   H8535     1.0  0.96109  0.56753  0.56015  1.0000
  H   H8536     1.0  0.92669  0.58461  0.54340  1.0000
  H   H8537     1.0  0.91633  0.56591  0.55807  1.0000
  C   C4816     1.0  0.93667  0.50914  0.65527  1.0000
  C   C4817     1.0  0.94981  0.50227  0.65222  1.0000
  C   C4818     1.0  0.95820  0.49999  0.66091  1.0000
  C   C4819     1.0  0.95342  0.50415  0.67300  1.0000
  C   C4820     1.0  0.94010  0.51048  0.67645  1.0000
  C   C4821     1.0  0.93173  0.51297  0.66759  1.0000
  H   H8538     1.0  0.95344  0.49816  0.64346  1.0000
  H   H8539     1.0  0.79389  0.51466  0.86442  1.0000
  H   H8540     1.0  0.93629  0.51366  0.68581  1.0000
  H   H8541     1.0  0.92149  0.51801  0.67020  1.0000
  H   H8542     1.0  0.98198  0.56757  0.71787  1.0000
  H   H8543     1.0  0.90216  0.57503  0.52392  1.0000
  C   C4822     1.0  0.94482  0.55173  0.76410  1.0000
  C   C4823     1.0  0.95082  0.53888  0.76190  1.0000
  C   C4824     1.0  0.94914  0.53513  0.75093  1.0000
  C   C4825     1.0  0.94120  0.54411  0.74245  1.0000
  C   C4826     1.0  0.93523  0.55687  0.74477  1.0000
  C   C4827     1.0  0.93716  0.56070  0.75545  1.0000
  H   H8544     1.0  0.95704  0.53203  0.76839  1.0000
  H   H8545     1.0  0.95412  0.52540  0.74890  1.0000
  H   H8546     1.0  0.92920  0.56388  0.73819  1.0000
  H   H8547     1.0  0.93264  0.57067  0.75702  1.0000
  C   C4828     1.0  0.84486  0.54438  0.96075  1.0000
  C   C4829     1.0  0.84743  0.55677  0.95969  1.0000
  H   H8548     1.0  0.84670  0.56439  0.95065  1.0000
  C   C4830     1.0  0.89637  0.52786  0.88147  1.0000
  C   C4831     1.0  0.88777  0.53713  0.87392  1.0000
  C   C4832     1.0  0.89222  0.54148  0.86007  1.0000
  C   C4833     1.0  0.90518  0.53643  0.85363  1.0000
  C   C4834     1.0  0.91360  0.52674  0.86109  1.0000
  C   C4835     1.0  0.90928  0.52263  0.87501  1.0000
  H   H8549     1.0  0.87782  0.54124  0.87882  1.0000
  H   H8550     1.0  0.88562  0.54892  0.85434  1.0000
  H   H8551     1.0  0.92346  0.52252  0.85612  1.0000
  H   H8552     1.0  0.91593  0.51537  0.88079  1.0000
  C   C4836     1.0  0.81134  0.54493  0.89488  1.0000
  C   C4837     1.0  0.80411  0.53495  0.90076  1.0000
  C   C4838     1.0  0.79030  0.53806  0.90192  1.0000
  C   C4839     1.0  0.78366  0.55125  0.89781  1.0000
  C   C4840     1.0  0.79090  0.56123  0.89238  1.0000
  C   C4841     1.0  0.80469  0.55804  0.89064  1.0000
  H   H8553     1.0  0.80925  0.52477  0.90387  1.0000
  H   H8554     1.0  0.78486  0.53024  0.90583  1.0000
  H   H8555     1.0  0.78589  0.57142  0.88908  1.0000
  H   H8556     1.0  0.78572  0.48937  0.94152  1.0000
  H   H8557     1.0  0.96851  0.55350  0.52634  1.0000
  H   H8558     1.0  0.74907  0.58212  0.86495  1.0000
  C   C4842     1.0  0.74780  0.51308  0.96788  1.0000
  H   H8559     1.0  0.81796  0.53497  0.97609  1.0000
  H   H8560     1.0  0.97206  0.55595  0.75626  1.0000
  H   H8561     1.0  0.95690  0.50725  0.77270  1.0000
  C   C4843     1.0  0.79476  0.53116  0.87193  1.0000
  H   H8562     1.0  0.95521  0.58873  0.57321  1.0000
  H   H8563     1.0  0.74672  0.48711  0.90332  1.0000
  H   H8564     1.0  0.74461  0.58053  0.88921  1.0000
  H   H8565     1.0  0.87813  0.50348  0.76881  1.0000
  H   H8566     1.0  0.96418  0.53293  0.86681  1.0000
  H   H8567     1.0  0.97217  0.51082  0.86139  1.0000
  H   H8568     1.0  0.80133  0.57247  0.97464  1.0000
  N   N269      1.0  0.89869  0.69097  0.48901  1.0000
  H   H8569     1.0  0.98112  0.49987  0.77857  1.0000
  H   H8570     1.0  0.78891  0.49798  0.91075  1.0000
  H   H8571     1.0  0.86988  0.67092  0.51710  1.0000
  H   H8572     1.0  0.74642  0.50304  0.97234  1.0000
  S   S1092     1.0  0.95876  0.51116  0.61819  1.0000
  H   H8573     1.0  0.79275  0.50843  0.95499  1.0000
  H   H8574     1.0  0.90363  0.62707  0.49167  1.0000
  H   H8575     1.0  0.83872  0.49613  0.87178  1.0000
  H   H8576     1.0  0.90903  0.58432  0.53111  1.0000
  C   C4844     1.0  0.98270  0.54668  0.58432  1.0000
  C   C4845     1.0  0.98231  0.55728  0.75134  1.0000
  C   C4846     1.0  0.88117  0.49396  0.76541  1.0000
  Fe  Fe546     1.0  0.74176  0.51983  0.92503  1.0000
  H   H8577     1.0  0.95730  0.49335  0.78679  1.0000
  C   C4847     1.0  0.74649  0.53260  0.94982  1.0000
  H   H8578     1.0  0.93341  0.49589  0.79145  1.0000
  C   C4848     1.0  0.90942  0.55243  0.79054  1.0000
  H   H8579     1.0  0.90267  0.56238  0.78877  1.0000
  H   H8580     1.0  0.95227  0.51655  0.54175  1.0000
  Fe  Fe547     1.0  0.95433  0.62226  0.49669  1.0000
  H   H8581     1.0  0.85049  0.51455  0.86174  1.0000
  H   H8582     1.0  0.96749  0.55334  0.63171  1.0000
  C   C4849     1.0  0.95403  0.59698  0.74859  1.0000
  C   C4850     1.0  0.95631  0.55017  0.66550  1.0000
  C   C4851     1.0  0.75567  0.48982  0.88230  1.0000
  C   C4852     1.0  0.90895  0.58186  0.52169  1.0000
  H   H8583     1.0  0.97583  0.57920  0.63289  1.0000
  C   C4853     1.0  0.82918  0.48783  0.84433  1.0000
  N   N270      1.0  0.79385  0.54920  0.94866  1.0000
  C   C4854     1.0  0.78238  0.56104  0.94927  1.0000
  C   C4855     1.0  0.78973  0.53796  0.94605  1.0000
  C   C4856     1.0  0.79728  0.54429  0.96227  1.0000
  C   C4857     1.0  0.80603  0.55263  0.93847  1.0000
  C   C4858     1.0  0.80400  0.56321  0.92547  1.0000
  C   C4859     1.0  0.78428  0.57226  0.95465  1.0000
  H   H8584     1.0  0.92104  0.49039  0.66575  1.0000
  C   C4860     1.0  0.78221  0.54124  0.93479  1.0000
  C   C4861     1.0  0.77859  0.52873  0.93390  1.0000
  C   C4862     1.0  0.81729  0.56446  0.91583  1.0000
  C   C4863     1.0  0.77357  0.58489  0.95222  1.0000
  Fe  Fe548     1.0  0.96470  0.49233  0.73107  1.0000
  H   H8585     1.0  0.77329  0.55783  0.95580  1.0000
  H   H8586     1.0  0.77992  0.56548  0.93932  1.0000
  H   H8587     1.0  0.79852  0.52990  0.94369  1.0000
  H   H8588     1.0  0.78312  0.53344  0.95528  1.0000
  H   H8589     1.0  0.97490  0.59156  0.74767  1.0000
  H   H8590     1.0  0.77936  0.48942  0.90590  1.0000
  H   H8591     1.0  0.81192  0.55656  0.94293  1.0000
  H   H8592     1.0  0.81279  0.54351  0.93552  1.0000
  H   H8593     1.0  0.79915  0.57317  0.92770  1.0000
  H   H8594     1.0  0.79789  0.56078  0.92015  1.0000
  C   C4864     1.0  0.96627  0.55562  0.64155  1.0000
  H   H8595     1.0  0.79410  0.57474  0.94992  1.0000
  H   H8596     1.0  0.81542  0.52958  0.95600  1.0000
  C   C4865     1.0  0.94952  0.54210  0.64919  1.0000
  H   H8597     1.0  0.77291  0.54882  0.93657  1.0000
  H   H8598     1.0  0.78842  0.54487  0.92507  1.0000
  H   H8599     1.0  0.77132  0.53162  0.92747  1.0000
  H   H8600     1.0  0.78752  0.52185  0.92956  1.0000
  H   H8601     1.0  0.77403  0.52334  0.94387  1.0000
  H   H8602     1.0  0.82371  0.56742  0.92052  1.0000
  H   H8603     1.0  0.82246  0.55484  0.91292  1.0000
  H   H8604     1.0  0.81569  0.57212  0.90663  1.0000
  H   H8605     1.0  0.96586  0.68125  0.54699  1.0000
  H   H8606     1.0  0.77497  0.59260  0.95650  1.0000
  H   H8607     1.0  0.77415  0.58889  0.94133  1.0000
  H   H8608     1.0  0.93676  0.66546  0.48607  1.0000
  C   C4866     1.0  0.74479  0.51957  0.95542  1.0000
  C   C4867     1.0  0.98021  0.67630  0.57435  1.0000
  H   H8609     1.0  0.89783  0.48882  0.90425  1.0000
  C   C4868     1.0  0.97311  0.55152  0.73030  1.0000
  H   H8610     1.0  0.80160  0.52242  0.96577  1.0000
  C   C4869     1.0  0.94500  0.55046  0.50743  1.0000
  C   C4870     1.0  0.74363  0.57396  0.86799  1.0000
  H   H8611     1.0  0.96964  0.52168  0.64074  1.0000
  H   H8612     1.0  0.95260  0.69430  0.53109  1.0000
  C   C4871     1.0  0.83527  0.50500  0.87622  1.0000
  C   C4872     1.0  0.81179  0.57094  0.97501  1.0000
  H   H8613     1.0  0.92218  0.57369  0.50553  1.0000
  H   H8614     1.0  0.80187  0.55148  0.96421  1.0000
  C   C4873     1.0  0.97024  0.68033  0.53650  1.0000
  H   H8615     1.0  0.81343  0.49467  0.89065  1.0000
  C   C4874     1.0  0.89059  0.68288  0.50087  1.0000
  C   C4875     1.0  0.88991  0.49176  0.94865  1.0000
  S   S1093     1.0  0.94518  0.50126  0.74291  1.0000
  C   C4876     1.0  0.95204  0.49892  0.77865  1.0000
  H   H8616     1.0  0.74432  0.52536  0.86251  1.0000
  H   H8617     1.0  0.98016  0.51742  0.77617  1.0000
  C   C4877     1.0  0.92292  0.57555  0.51497  1.0000
  C   C4878     1.0  0.96972  0.57782  0.73891  1.0000
  C   C4879     1.0  0.93482  0.49411  0.81958  1.0000
  C   C4880     1.0  0.80026  0.49982  0.95179  1.0000
  C   C4881     1.0  0.92839  0.56229  0.52406  1.0000
  H   H8618     1.0  0.83422  0.50301  0.85013  1.0000
  C   C4882     1.0  0.75416  0.53266  0.96905  1.0000
  C   C4883     1.0  0.94251  0.52202  0.54651  1.0000
  H   H8619     1.0  0.75213  0.54934  0.95241  1.0000
  H   H8620     1.0  0.74039  0.57342  0.85920  1.0000
  S   S1094     1.0  0.92011  0.73310  0.50966  1.0000
  H   H8621     1.0  0.89704  0.64303  0.49574  1.0000
  C   C4884     1.0  0.79304  0.49884  0.88933  1.0000
  C   C4885     1.0  0.89738  0.70423  0.49218  1.0000
  H   H8622     1.0  0.93841  0.55801  0.68794  1.0000
  C   C4886     1.0  0.80622  0.50336  0.88636  1.0000
  C   C4887     1.0  0.95868  0.68442  0.52952  1.0000
  H   H8623     1.0  0.97871  0.52764  0.68798  1.0000
  H   H8624     1.0  0.89667  0.67710  0.50834  1.0000
  H   H8625     1.0  0.95349  0.54797  0.69302  1.0000
  C   C4888     1.0  0.75107  0.53918  0.95667  1.0000
  H   H8626     1.0  0.92705  0.53874  0.54174  1.0000
  H   H8627     1.0  0.95874  0.56132  0.49174  1.0000
  C   C4889     1.0  0.96262  0.58531  0.57956  1.0000
  H   H8628     1.0  0.87305  0.65765  0.50853  1.0000
  H   H8629     1.0  0.89809  0.69584  0.51362  1.0000
  C   C4890     1.0  0.88417  0.67300  0.49800  1.0000
  C   C4891     1.0  0.98106  0.52426  0.55095  1.0000
  H   H8630     1.0  0.91044  0.48505  0.65959  1.0000
  H   H8631     1.0  0.88538  0.49517  0.89451  1.0000
  H   H8632     1.0  0.74006  0.57944  0.93640  1.0000
  H   H8633     1.0  0.96837  0.49474  0.65835  1.0000
  N   N271      1.0  0.98241  0.56735  0.73814  1.0000
  H   H8634     1.0  0.98275  0.65046  0.50661  1.0000
  C   C4892     1.0  0.98142  0.54731  0.59753  1.0000
  H   H8635     1.0  0.88695  0.70999  0.49292  1.0000
  H   H8636     1.0  0.82792  0.58081  0.96329  1.0000
  H   H8637     1.0  0.95000  0.57370  0.50928  1.0000
  H   H8638     1.0  0.89301  0.52446  0.79906  1.0000
  H   H8639     1.0  0.94626  0.53332  0.65645  1.0000
  H   H8640     1.0  0.90006  0.71618  0.51842  1.0000
  C   C4893     1.0  0.95135  0.56535  0.51798  1.0000
  H   H8641     1.0  0.98546  0.50260  0.57195  1.0000
  H   H8642     1.0  0.97510  0.55090  0.70955  1.0000
  H   H8643     1.0  0.98145  0.50633  0.79226  1.0000
  C   C4894     1.0  0.98021  0.68947  0.52978  1.0000
  C   C4895     1.0  0.89314  0.51765  0.79286  1.0000
  C   C4896     1.0  0.81192  0.52772  0.97720  1.0000
  H   H8644     1.0  0.96413  0.57432  0.58323  1.0000
  H   H8645     1.0  0.93574  0.51706  0.76515  1.0000
  H   H8646     1.0  0.93737  0.51128  0.79067  1.0000
  H   H8647     1.0  0.88071  0.48952  0.91249  1.0000
  H   H8648     1.0  0.95633  0.53833  0.52833  1.0000
  H   H8649     1.0  0.73999  0.59495  0.91394  1.0000
  H   H8650     1.0  0.80786  0.49408  0.86392  1.0000
  H   H8651     1.0  0.91269  0.70130  0.50328  1.0000
  H   H8652     1.0  0.76361  0.58277  0.95711  1.0000
  C   C4897     1.0  0.82504  0.50017  0.85031  1.0000
  H   H8653     1.0  0.94923  0.48886  0.58486  1.0000
  H   H8654     1.0  0.95864  0.58999  0.58834  1.0000
  C   C4898     1.0  0.84547  0.53472  0.97270  1.0000
  H   H8655     1.0  0.91786  0.53204  0.75755  1.0000
  C   C4899     1.0  0.81650  0.49731  0.86472  1.0000
  H   H8656     1.0  0.96111  0.57305  0.74160  1.0000
  C   C4900     1.0  0.94834  0.54165  0.67773  1.0000
  C   C4901     1.0  0.85001  0.55974  0.97059  1.0000
  H   H8657     1.0  0.91244  0.52877  0.73768  1.0000
  C   C4902     1.0  0.87766  0.66451  0.51093  1.0000
  H   H8658     1.0  0.77631  0.53544  0.86538  1.0000
  H   H8659     1.0  0.91665  0.68182  0.49627  1.0000
  H   H8660     1.0  0.95905  0.56536  0.64127  1.0000
  C   C4903     1.0  0.78925  0.49170  0.90391  1.0000
  H   H8661     1.0  0.97375  0.60023  0.56855  1.0000
  C   C4904     1.0  0.84827  0.48675  0.96673  1.0000
  H   H8662     1.0  0.76922  0.48595  0.97597  1.0000
  N   N272      1.0  0.93786  0.54973  0.86474  1.0000
  C   C4905     1.0  0.93814  0.55407  0.84996  1.0000
  C   C4906     1.0  0.94309  0.53483  0.86820  1.0000
  C   C4907     1.0  0.92349  0.55262  0.87192  1.0000
  C   C4908     1.0  0.94546  0.55695  0.86926  1.0000
  C   C4909     1.0  0.95779  0.56123  0.85901  1.0000
  C   C4910     1.0  0.93230  0.56913  0.84480  1.0000
  C   C4911     1.0  0.92045  0.54738  0.88731  1.0000
  C   C4912     1.0  0.95790  0.52955  0.86235  1.0000
  C   C4913     1.0  0.96150  0.51431  0.86565  1.0000
  C   C4914     1.0  0.96623  0.56553  0.86570  1.0000
  C   C4915     1.0  0.91884  0.57169  0.84133  1.0000
  C   C4916     1.0  0.90632  0.55358  0.89369  1.0000
  H   H8663     1.0  0.93298  0.54798  0.84706  1.0000
  H   H8664     1.0  0.94835  0.55191  0.84395  1.0000
  H   H8665     1.0  0.94197  0.53115  0.87918  1.0000
  H   H8666     1.0  0.93717  0.52966  0.86516  1.0000
  H   H8667     1.0  0.91746  0.54840  0.86789  1.0000
  H   H8668     1.0  0.91931  0.56354  0.87004  1.0000
  H   H8669     1.0  0.93897  0.56625  0.87218  1.0000
  H   H8670     1.0  0.94865  0.55078  0.87857  1.0000
  H   H8671     1.0  0.95471  0.56982  0.85104  1.0000
  H   H8672     1.0  0.96422  0.55321  0.85401  1.0000
  H   H8673     1.0  0.93143  0.57526  0.85195  1.0000
  H   H8674     1.0  0.93920  0.57300  0.83550  1.0000
  H   H8675     1.0  0.92733  0.54965  0.89196  1.0000
  H   H8676     1.0  0.92128  0.53643  0.88980  1.0000
  H   H8677     1.0  0.96048  0.53288  0.85136  1.0000
  H   H8678     1.0  0.87133  0.49371  0.96284  1.0000
  H   H8679     1.0  0.98578  0.57047  0.76238  1.0000
  C   C4917     1.0  0.94841  0.56019  0.49371  1.0000
  H   H8680     1.0  0.95210  0.60289  0.75625  1.0000
  H   H8681     1.0  0.97019  0.55705  0.87332  1.0000
  H   H8682     1.0  0.97473  0.56885  0.85805  1.0000
  H   H8683     1.0  0.75094  0.56638  0.92826  1.0000
  H   H8684     1.0  0.91494  0.58259  0.83837  1.0000
  H   H8685     1.0  0.91986  0.56725  0.83278  1.0000
  H   H8686     1.0  0.91154  0.56745  0.84991  1.0000
  H   H8687     1.0  0.89910  0.55169  0.88916  1.0000
  H   H8688     1.0  0.90414  0.54904  0.90456  1.0000
  H   H8689     1.0  0.90502  0.56449  0.89236  1.0000
  H   H8690     1.0  0.91333  0.66296  0.49057  1.0000
  C   C4918     1.0  0.98469  0.50731  0.78129  1.0000
  H   H8691     1.0  0.78844  0.54467  0.85425  1.0000
  H   H8692     1.0  0.97168  0.57678  0.51814  1.0000
  H   H8693     1.0  0.89156  0.66625  0.49200  1.0000
  H   H8694     1.0  0.92187  0.55554  0.52491  1.0000
  H   H8695     1.0  0.97438  0.69970  0.53043  1.0000
  C   C4919     1.0  0.93730  0.55375  0.64790  1.0000
  H   H8696     1.0  0.95483  0.60384  0.73858  1.0000
  C   C4920     1.0  0.91312  0.68415  0.48687  1.0000
  H   H8697     1.0  0.75644  0.58117  0.92695  1.0000
  S   S1095     1.0  0.94297  0.70817  0.49989  1.0000
  C   C4921     1.0  0.92613  0.54915  0.64552  1.0000
  H   H8698     1.0  0.77936  0.54913  0.86990  1.0000
  H   H8699     1.0  0.88219  0.68955  0.50630  1.0000
  H   H8700     1.0  0.85536  0.50439  0.87689  1.0000
  S   S1096     1.0  0.96112  0.49465  0.81443  1.0000
  H   H8701     1.0  0.81416  0.48806  0.91533  1.0000
  H   H8702     1.0  0.97989  0.60171  0.49596  1.0000
  C   C4922     1.0  0.88047  0.48595  0.96117  1.0000
  C   C4923     1.0  0.96682  0.58637  0.74932  1.0000
  C   C4924     1.0  0.82323  0.51481  0.87104  1.0000
  H   H8703     1.0  0.89995  0.72498  0.50130  1.0000
  C   C4925     1.0  0.84706  0.51154  0.87275  1.0000
  N   N273      1.0  0.94276  0.55572  0.51983  1.0000
  H   H8704     1.0  0.96297  0.55777  0.73079  1.0000
  H   H8705     1.0  0.93337  0.55783  0.65704  1.0000
  H   H8706     1.0  0.89755  0.54309  0.78451  1.0000
  H   H8707     1.0  0.94197  0.57026  0.49328  1.0000
  S   S1097     1.0  0.76281  0.50285  0.88164  1.0000
  H   H8708     1.0  0.78813  0.54370  0.97031  1.0000
  C   C4926     1.0  0.92441  0.48845  0.81998  1.0000
  H   H8709     1.0  0.93992  0.56191  0.63929  1.0000
  C   C4927     1.0  0.96640  0.55918  0.51645  1.0000
  H   H8710     1.0  0.92908  0.58294  0.51276  1.0000
  H   H8711     1.0  0.81986  0.52260  0.87706  1.0000
  C   C4928     1.0  0.98688  0.60707  0.49624  1.0000
  H   H8712     1.0  0.81158  0.59119  0.96314  1.0000
  H   H8713     1.0  0.91769  0.55773  0.64403  1.0000
  H   H8714     1.0  0.92954  0.54489  0.63646  1.0000
  H   H8715     1.0  0.92262  0.54147  0.65422  1.0000
  Fe  Fe549     1.0  0.95736  0.71905  0.50111  1.0000
  H   H8716     1.0  0.80193  0.53695  0.87169  1.0000
  H   H8717     1.0  0.81791  0.57834  0.95363  1.0000
  H   H8718     1.0  0.80298  0.50170  0.94070  1.0000
  H   H8719     1.0  0.83154  0.49726  0.91865  1.0000
  C   C4929     1.0  0.98596  0.65869  0.50839  1.0000
  H   H8720     1.0  0.96698  0.52482  0.66303  1.0000
  Fe  Fe550     1.0  0.93644  0.49379  0.73038  1.0000
  H   H8721     1.0  0.88856  0.63725  0.48679  1.0000
  H   H8722     1.0  0.88511  0.65841  0.51684  1.0000
  H   H8723     1.0  0.93684  0.55442  0.48334  1.0000
  N   N274      1.0  0.81192  0.50870  0.87184  1.0000
  C   C4930     1.0  0.98408  0.55178  0.77570  1.0000
  C   C4931     1.0  0.98331  0.56027  0.72738  1.0000
  C   C4932     1.0  0.92959  0.51111  0.77349  1.0000
  C   C4933     1.0  0.97460  0.56987  0.51126  1.0000
  S   S1098     1.0  0.97470  0.54813  0.82597  1.0000
  H   H8724     1.0  0.92767  0.53237  0.77962  1.0000
  C   C4934     1.0  0.97568  0.58924  0.57166  1.0000
  C   C4935     1.0  0.78408  0.54065  0.86486  1.0000
  H   H8725     1.0  0.74494  0.48748  0.93743  1.0000
  C   C4936     1.0  0.81766  0.58095  0.96307  1.0000
  C   C4937     1.0  0.80172  0.51919  0.86520  1.0000
  H   H8726     1.0  0.93865  0.54161  0.69849  1.0000
  H   H8727     1.0  0.85147  0.56955  0.96977  1.0000
  H   H8728     1.0  0.97215  0.52005  0.55607  1.0000
  H   H8729     1.0  0.95325  0.54149  0.50730  1.0000
  H   H8730     1.0  0.97934  0.53402  0.65828  1.0000
  C   C4938     1.0  0.98330  0.50492  0.74597  1.0000
  H   H8731     1.0  0.83260  0.50166  0.88728  1.0000
  H   H8732     1.0  0.98377  0.52273  0.75121  1.0000
  H   H8733     1.0  0.95026  0.56052  0.66381  1.0000
  H   H8734     1.0  0.83268  0.48698  0.95732  1.0000
  C   C4939     1.0  0.91765  0.53009  0.78374  1.0000
  H   H8735     1.0  0.93907  0.54093  0.67568  1.0000
  C   C4940     1.0  0.75746  0.48549  0.87058  1.0000
  H   H8736     1.0  0.75060  0.58160  0.90620  1.0000
  H   H8737     1.0  0.87629  0.67855  0.49242  1.0000
  S   S1099     1.0  0.96688  0.54563  0.60931  1.0000
  H   H8738     1.0  0.95284  0.53915  0.63937  1.0000
  H   H8739     1.0  0.90411  0.50293  0.68112  1.0000
  H   H8740     1.0  0.97330  0.54407  0.73983  1.0000
  H   H8741     1.0  0.95421  0.53142  0.68053  1.0000
  C   C4941     1.0  0.90421  0.52430  0.74461  1.0000
  H   H8742     1.0  0.95292  0.49211  0.77215  1.0000
  H   H8743     1.0  0.88548  0.71918  0.51206  1.0000
  H   H8744     1.0  0.95568  0.51024  0.86127  1.0000
  H   H8745     1.0  0.89972  0.51208  0.76423  1.0000
  H   H8746     1.0  0.93561  0.51513  0.55037  1.0000
  C   C4942     1.0  0.91084  0.52616  0.76494  1.0000
  H   H8747     1.0  0.90219  0.51732  0.73982  1.0000
  N   N275      1.0  0.96080  0.54508  0.65276  1.0000
  H   H8748     1.0  0.97775  0.53516  0.54728  1.0000
  H   H8749     1.0  0.91186  0.50582  0.79643  1.0000
  H   H8750     1.0  0.91672  0.50865  0.75555  1.0000
  C   C4943     1.0  0.90804  0.51669  0.75787  1.0000
  H   H8751     1.0  0.88460  0.50051  0.79597  1.0000
  H   H8752     1.0  0.97377  0.50412  0.75251  1.0000
  N   N276      1.0  0.91607  0.51968  0.77752  1.0000
  H   H8753     1.0  0.90511  0.59124  0.51492  1.0000
  H   H8754     1.0  0.92891  0.50284  0.76959  1.0000
  H   H8755     1.0  0.98258  0.51979  0.83653  1.0000
  H   H8756     1.0  0.93619  0.54688  0.50760  1.0000
  H   H8757     1.0  0.90137  0.53347  0.76690  1.0000
  H   H8758     1.0  0.89520  0.53229  0.74621  1.0000
  H   H8759     1.0  0.76765  0.49280  0.93304  1.0000
  C   C4944     1.0  0.97118  0.53243  0.65484  1.0000
  H   H8760     1.0  0.97423  0.54625  0.58106  1.0000
  C   C4945     1.0  0.90171  0.70356  0.50510  1.0000
  H   H8761     1.0  0.78354  0.56900  0.96560  1.0000
  S   S1100     1.0  0.93436  0.63083  0.49212  1.0000
  S   S1101     1.0  0.76030  0.54088  0.97724  1.0000
  H   H8762     1.0  0.74075  0.60239  0.89213  1.0000
  C   C4946     1.0  0.88519  0.50737  0.80178  1.0000
  H   H8763     1.0  0.91030  0.54939  0.77127  1.0000
  C   C4947     1.0  0.78237  0.48829  0.95255  1.0000
  C   C4948     1.0  0.90752  0.51078  0.78749  1.0000
  C   C4949     1.0  0.97983  0.62244  0.52978  1.0000
  H   H8764     1.0  0.96538  0.58003  0.75957  1.0000
  C   C4950     1.0  0.94453  0.54774  0.68999  1.0000
  H   H8765     1.0  0.96499  0.55089  0.66872  1.0000
  H   H8766     1.0  0.75043  0.56438  0.87120  1.0000
  H   H8767     1.0  0.88985  0.49630  0.69077  1.0000
  C   C4951     1.0  0.93754  0.50436  0.78462  1.0000
  C   C4952     1.0  0.89757  0.49644  0.68136  1.0000
  H   H8768     1.0  0.82207  0.48831  0.87064  1.0000
  C   C4953     1.0  0.97597  0.54389  0.71929  1.0000
  H   H8769     1.0  0.91970  0.55390  0.78800  1.0000
  H   H8770     1.0  0.90732  0.50251  0.78322  1.0000
  H   H8771     1.0  0.97013  0.68271  0.57444  1.0000
  H   H8772     1.0  0.96873  0.53748  0.72180  1.0000
  H   H8773     1.0  0.97494  0.66978  0.53618  1.0000
  H   H8774     1.0  0.94822  0.57021  0.52663  1.0000
  H   H8775     1.0  0.89267  0.50071  0.67276  1.0000
  S   S1102     1.0  0.97886  0.70918  0.49677  1.0000
  C   C4954     1.0  0.89646  0.71683  0.50943  1.0000
  H   H8776     1.0  0.78491  0.50759  0.88740  1.0000
  H   H8777     1.0  0.88986  0.50145  0.81029  1.0000
  C   C4955     1.0  0.94611  0.54421  0.53123  1.0000
  H   H8778     1.0  0.77531  0.49785  0.95413  1.0000
  H   H8779     1.0  0.95224  0.67709  0.53382  1.0000
  H   H8780     1.0  0.94359  0.52521  0.55513  1.0000
  C   C4956     1.0  0.93697  0.53410  0.53643  1.0000
  H   H8781     1.0  0.94553  0.59221  0.75064  1.0000
  H   H8782     1.0  0.96920  0.58457  0.72897  1.0000
  C   C4957     1.0  0.90801  0.54393  0.78187  1.0000
  H   H8783     1.0  0.90686  0.54764  0.80132  1.0000
  H   H8784     1.0  0.92650  0.56414  0.53419  1.0000
  H   H8785     1.0  0.84440  0.52044  0.87709  1.0000
  C   C4958     1.0  0.74774  0.57734  0.92739  1.0000
  H   H8786     1.0  0.82989  0.50110  0.96451  1.0000
  H   H8787     1.0  0.88808  0.52335  0.78461  1.0000
  H   H8788     1.0  0.91702  0.52613  0.79467  1.0000
  H   H8789     1.0  0.93265  0.50372  0.82199  1.0000
  H   H8790     1.0  0.94601  0.54803  0.54000  1.0000
  H   H8791     1.0  0.96981  0.55229  0.50951  1.0000
  H   H8792     1.0  0.97100  0.61020  0.54781  1.0000
  C   C4959     1.0  0.74243  0.58402  0.91469  1.0000
  H   H8793     1.0  0.96033  0.57393  0.87050  1.0000
  C   C4960     1.0  0.79490  0.48715  0.95761  1.0000
  H   H8794     1.0  0.97366  0.58365  0.55445  1.0000
  H   H8795     1.0  0.96220  0.68493  0.51862  1.0000
  H   H8796     1.0  0.80925  0.49875  0.95544  1.0000
  H   H8797     1.0  0.75642  0.48881  0.95595  1.0000
  H   H8798     1.0  0.97931  0.66673  0.58165  1.0000
  C   C4961     1.0  0.89841  0.63740  0.48799  1.0000
  H   H8799     1.0  0.97958  0.69457  0.55198  1.0000
  H   H8800     1.0  0.97359  0.55596  0.77991  1.0000
  H   H8801     1.0  0.82773  0.48510  0.97521  1.0000
  H   H8802     1.0  0.91428  0.49384  0.82247  1.0000
  H   H8803     1.0  0.98095  0.53266  0.63354  1.0000
  C   C4962     1.0  0.98171  0.58247  0.55958  1.0000
  H   H8804     1.0  0.88693  0.49577  0.75491  1.0000
  H   H8805     1.0  0.84324  0.52521  0.97375  1.0000
  H   H8806     1.0  0.98604  0.53737  0.71837  1.0000
  H   H8807     1.0  0.97560  0.61952  0.52294  1.0000
  H   H8808     1.0  0.98072  0.66831  0.55789  1.0000
  H   H8809     1.0  0.81724  0.56081  0.97362  1.0000
  H   H8810     1.0  0.85366  0.49221  0.95727  1.0000
  H   H8811     1.0  0.79278  0.48549  0.96866  1.0000
  H   H8812     1.0  0.74427  0.53770  0.94025  1.0000
  H   H8813     1.0  0.97723  0.66692  0.51015  1.0000
  H   H8814     1.0  0.84886  0.49045  0.97518  1.0000
  Fe  Fe551     1.0  0.93243  0.72827  0.49033  1.0000
  C   C4963     1.0  0.83093  0.48701  0.92319  1.0000
  H   H8815     1.0  0.97319  0.63165  0.53267  1.0000
  H   H8816     1.0  0.79361  0.49193  0.88308  1.0000
  C   C4964     1.0  0.88825  0.48761  0.90332  1.0000
  H   H8817     1.0  0.98425  0.52711  0.56859  1.0000
  H   H8818     1.0  0.98502  0.66283  0.48295  1.0000
  C   C4965     1.0  0.97970  0.55794  0.64199  1.0000
  H   H8819     1.0  0.98286  0.59510  0.53359  1.0000
  H   H8820     1.0  0.98578  0.50751  0.65576  1.0000
  C   C4966     1.0  0.98114  0.61132  0.54226  1.0000
  H   H8821     1.0  0.97940  0.55978  0.65179  1.0000
  H   H8822     1.0  0.98428  0.57168  0.56421  1.0000
  C   C4967     1.0  0.98178  0.73422  0.49490  1.0000
  H   H8823     1.0  0.98322  0.68929  0.51897  1.0000
  H   H8824     1.0  0.98257  0.58595  0.57857  1.0000
  H   H8825     1.0  0.89829  0.48736  0.77374  1.0000
  H   H8826     1.0  0.98611  0.71505  0.52133  1.0000
  C   C4968     1.0  0.94795  0.48721  0.81628  1.0000
  H   H8827     1.0  0.98338  0.67893  0.48570  1.0000
  H   H8828     1.0  0.90348  0.71048  0.48403  1.0000
  S   S1103     1.0  0.73880  0.51130  0.94707  1.0000
  S   S1104     1.0  0.91740  0.48673  0.73942  1.0000
  H   H8829     1.0  0.81829  0.51757  0.97893  1.0000
  S   S1105     1.0  0.97204  0.62926  0.48303  1.0000
  H   H8830     1.0  0.78267  0.50842  0.97980  1.0000
  C   C4969     1.0  0.91688  0.67089  0.48221  1.0000
  H   H8831     1.0  0.97345  0.48608  0.84733  1.0000
  H   H8832     1.0  0.98603  0.56463  0.54534  1.0000
  H   H8833     1.0  0.98525  0.56513  0.51054  1.0000
  C   C4970     1.0  0.98330  0.56997  0.63120  1.0000
  H   H8834     1.0  0.98389  0.56854  0.62112  1.0000
  H   H8835     1.0  0.98661  0.48564  0.86314  1.0000
  H   H8836     1.0  0.98646  0.51973  0.54223  1.0000
  H   H8837     1.0  0.73931  0.56554  0.89665  1.0000
  C   C4971     1.0  0.94722  0.55504  0.48222  1.0000
  H   H8838     1.0  0.98621  0.68127  0.57753  1.0000
  H   H8839     1.0  0.98584  0.61458  0.54842  1.0000
  C   C4972     1.0  0.98537  0.62069  0.49048  1.0000
  H   H8840     1.0  0.89974  0.48480  0.94734  1.0000
  C   C4973     1.0  0.98680  0.67362  0.56041  1.0000
  H   H8841     1.0  0.82035  0.48473  0.84385  1.0000
  Fe  Fe552     1.0  0.84284  0.91897  0.39216  1.0000
  S   S1106     1.0  0.93443  0.86009  0.46889  1.0000
  S   S1107     1.0  0.82906  0.90788  0.38972  1.0000
  Fe  Fe553     1.0  0.84767  0.92457  0.41638  1.0000
  C   C4974     1.0  0.95346  0.78141  0.39031  1.0000
  S   S1108     1.0  0.84013  0.92210  0.43843  1.0000
  Fe  Fe554     1.0  0.87054  0.91947  0.39306  1.0000
  S   S1109     1.0  0.89245  0.91058  0.38966  1.0000
  C   C4975     1.0  0.85127  0.86716  0.44525  1.0000
  S   S1110     1.0  0.85600  0.90744  0.40639  1.0000
  H   H8842     1.0  0.84100  0.85119  0.45651  1.0000
  S   S1111     1.0  0.93205  0.81669  0.40596  1.0000
  S   S1112     1.0  0.91042  0.84907  0.38903  1.0000
  H   H8843     1.0  0.88954  0.89346  0.43644  1.0000
  H   H8844     1.0  0.97507  0.77281  0.44256  1.0000
  C   C4976     1.0  0.75672  0.94757  0.42909  1.0000
  Fe  Fe555     1.0  0.76642  0.93695  0.36641  1.0000
  C   C4977     1.0  0.74768  0.97597  0.39453  1.0000
  S   S1113     1.0  0.78701  0.93786  0.35425  1.0000
  C   C4978     1.0  0.77650  0.97581  0.36810  1.0000
  C   C4979     1.0  0.75720  0.93933  0.42076  1.0000
  H   H8845     1.0  0.98021  0.81027  0.45913  1.0000
  H   H8846     1.0  0.98591  0.81250  0.47880  1.0000
  H   H8847     1.0  0.84551  0.88140  0.40696  1.0000
  Fe  Fe556     1.0  0.75210  0.92805  0.39506  1.0000
  S   S1114     1.0  0.75378  0.91676  0.41587  1.0000
  H   H8848     1.0  0.77555  0.96598  0.44787  1.0000
  S   S1115     1.0  0.75936  0.91822  0.37764  1.0000
  H   H8849     1.0  0.91091  0.83753  0.41858  1.0000
  H   H8850     1.0  0.96670  0.80444  0.35256  1.0000
  S   S1116     1.0  0.88481  0.91881  0.46720  1.0000
  Fe  Fe557     1.0  0.73992  0.92943  0.37233  1.0000
  H   H8851     1.0  0.78815  0.98039  0.45399  1.0000
  C   C4980     1.0  0.84297  0.86025  0.45803  1.0000
  H   H8852     1.0  0.94035  0.76441  0.35153  1.0000
  C   C4981     1.0  0.87295  0.88334  0.46931  1.0000
  C   C4982     1.0  0.90465  0.83360  0.42829  1.0000
  H   H8853     1.0  0.90435  0.89164  0.42348  1.0000
  Fe  Fe558     1.0  0.84976  0.94527  0.39038  1.0000
  C   C4983     1.0  0.87988  0.87296  0.43442  1.0000
  H   H8854     1.0  0.84543  0.87021  0.43741  1.0000
  H   H8855     1.0  0.90253  0.87854  0.43833  1.0000
  H   H8856     1.0  0.85259  0.87631  0.44714  1.0000
  H   H8857     1.0  0.90069  0.85145  0.43528  1.0000
  H   H8858     1.0  0.91117  0.82787  0.43532  1.0000
  C   C4984     1.0  0.86192  0.86492  0.41175  1.0000
  H   H8859     1.0  0.88773  0.98346  0.44697  1.0000
  H   H8860     1.0  0.90170  0.84808  0.46008  1.0000
  N   N277      1.0  0.87457  0.86409  0.42941  1.0000
  C   C4985     1.0  0.86805  0.87244  0.41813  1.0000
  C   C4986     1.0  0.88550  0.85319  0.42434  1.0000
  H   H8861     1.0  0.90407  0.94614  0.45131  1.0000
  H   H8862     1.0  0.89879  0.87260  0.41915  1.0000
  C   C4987     1.0  0.74843  0.93151  0.44835  1.0000
  H   H8863     1.0  0.82611  0.94846  0.42476  1.0000
  C   C4988     1.0  0.79751  0.92118  0.44957  1.0000
  C   C4989     1.0  0.74892  0.92327  0.44001  1.0000
  H   H8864     1.0  0.88089  0.85429  0.47689  1.0000
  N   N278      1.0  0.97606  0.87049  0.44007  1.0000
  C   C4990     1.0  0.92444  0.77105  0.47492  1.0000
  C   C4991     1.0  0.95219  0.86561  0.42111  1.0000
  H   H8865     1.0  0.74565  0.91402  0.44431  1.0000
  H   H8866     1.0  0.81821  0.95619  0.37968  1.0000
  C   C4992     1.0  0.75337  0.92714  0.42618  1.0000
  H   H8867     1.0  0.84129  0.95548  0.46817  1.0000
  H   H8868     1.0  0.83626  0.96654  0.45334  1.0000
  H   H8869     1.0  0.85288  0.89532  0.47356  1.0000
  H   H8870     1.0  0.94203  0.76905  0.45951  1.0000
  H   H8871     1.0  0.92021  0.77887  0.45029  1.0000
  H   H8872     1.0  0.95933  0.86891  0.45694  1.0000
  H   H8873     1.0  0.86986  0.85809  0.40616  1.0000
  S   S1117     1.0  0.84353  0.96761  0.38372  1.0000
  C   C4993     1.0  0.93277  0.77532  0.39253  1.0000
  H   H8874     1.0  0.85645  0.92409  0.47579  1.0000
  H   H8875     1.0  0.88372  0.86734  0.44351  1.0000
  H   H8876     1.0  0.88918  0.84079  0.44384  1.0000
  H   H8877     1.0  0.93491  0.79549  0.38945  1.0000
  H   H8878     1.0  0.92232  0.77828  0.39255  1.0000
  H   H8879     1.0  0.86038  0.88095  0.42138  1.0000
  C   C4994     1.0  0.93660  0.82705  0.44884  1.0000
  C   C4995     1.0  0.94123  0.82392  0.46058  1.0000
  C   C4996     1.0  0.94045  0.83406  0.46687  1.0000
  C   C4997     1.0  0.93489  0.84728  0.46151  1.0000
  C   C4998     1.0  0.92976  0.85032  0.45011  1.0000
  C   C4999     1.0  0.93064  0.84021  0.44377  1.0000
  H   H8880     1.0  0.97568  0.75061  0.33587  1.0000
  H   H8881     1.0  0.91548  0.76679  0.47930  1.0000
  H   H8882     1.0  0.92532  0.86052  0.44605  1.0000
  H   H8883     1.0  0.92666  0.84260  0.43498  1.0000
  C   C5000     1.0  0.89766  0.89374  0.38851  1.0000
  C   C5001     1.0  0.91027  0.88666  0.39046  1.0000
  C   C5002     1.0  0.91438  0.87302  0.39036  1.0000
  C   C5003     1.0  0.90593  0.86639  0.38823  1.0000
  C   C5004     1.0  0.89345  0.87357  0.38591  1.0000
  C   C5005     1.0  0.88931  0.88721  0.38607  1.0000
  H   H8884     1.0  0.91682  0.89169  0.39222  1.0000
  H   H8885     1.0  0.92411  0.86768  0.39189  1.0000
  H   H8886     1.0  0.88692  0.86854  0.38409  1.0000
  H   H8887     1.0  0.87965  0.89267  0.38434  1.0000
  C   C5006     1.0  0.81753  0.91722  0.37997  1.0000
  C   C5007     1.0  0.80406  0.91762  0.38543  1.0000
  C   C5008     1.0  0.79471  0.92410  0.37759  1.0000
  C   C5009     1.0  0.79876  0.93007  0.36415  1.0000
  C   C5010     1.0  0.81222  0.92985  0.35867  1.0000
  C   C5011     1.0  0.82161  0.92352  0.36662  1.0000
  H   H8888     1.0  0.80083  0.91298  0.39577  1.0000
  H   H8889     1.0  0.78436  0.92430  0.38191  1.0000
  C   C5012     1.0  0.79158  0.95713  0.38791  1.0000
  C   C5013     1.0  0.81679  0.96053  0.43998  1.0000
  C   C5014     1.0  0.85259  0.92142  0.44622  1.0000
  C   C5015     1.0  0.86589  0.91870  0.43960  1.0000
  C   C5016     1.0  0.87580  0.91794  0.44607  1.0000
  C   C5017     1.0  0.87242  0.91990  0.45911  1.0000
  C   C5018     1.0  0.85913  0.92266  0.46569  1.0000
  C   C5019     1.0  0.84921  0.92343  0.45924  1.0000
  H   H8890     1.0  0.86855  0.91697  0.42959  1.0000
  H   H8891     1.0  0.88609  0.91581  0.44098  1.0000
  H   H8892     1.0  0.85839  0.89213  0.45702  1.0000
  H   H8893     1.0  0.83892  0.92547  0.46438  1.0000
  H   H8894     1.0  0.96210  0.89741  0.44090  1.0000
  S   S1118     1.0  0.83343  0.93525  0.40326  1.0000
  C   C5020     1.0  0.95979  0.76788  0.39202  1.0000
  H   H8895     1.0  0.80742  0.93970  0.39247  1.0000
  H   H8896     1.0  0.89776  0.76215  0.43064  1.0000
  H   H8897     1.0  0.76267  0.89971  0.45927  1.0000
  H   H8898     1.0  0.80783  0.91580  0.45009  1.0000
  H   H8899     1.0  0.97029  0.76498  0.39175  1.0000
  C   C5021     1.0  0.93915  0.76183  0.39387  1.0000
  H   H8900     1.0  0.79778  0.93194  0.41591  1.0000
  H   H8901     1.0  0.83891  0.97068  0.42500  1.0000
  C   C5022     1.0  0.95870  0.78666  0.42191  1.0000
  H   H8902     1.0  0.82272  0.95434  0.44750  1.0000
  H   H8903     1.0  0.96688  0.88061  0.42323  1.0000
  C   C5023     1.0  0.82518  0.95860  0.42599  1.0000
  H   H8904     1.0  0.95666  0.75499  0.42108  1.0000
  H   H8905     1.0  0.79945  0.96458  0.42400  1.0000
  Fe  Fe559     1.0  0.74128  0.95477  0.37861  1.0000
  H   H8906     1.0  0.81602  0.97110  0.43992  1.0000
  Fe  Fe560     1.0  0.95788  0.83901  0.39414  1.0000
  S   S1119     1.0  0.94948  0.83375  0.37970  1.0000
  H   H8907     1.0  0.88662  0.94452  0.40513  1.0000
  H   H8908     1.0  0.87713  0.96169  0.41838  1.0000
  H   H8909     1.0  0.78282  0.96286  0.39393  1.0000
  H   H8910     1.0  0.97883  0.89389  0.47116  1.0000
  H   H8911     1.0  0.78595  0.93409  0.40608  1.0000
  C   C5024     1.0  0.93987  0.78508  0.39083  1.0000
  H   H8912     1.0  0.81541  0.93446  0.34827  1.0000
  C   C5025     1.0  0.79519  0.96659  0.43418  1.0000
  C   C5026     1.0  0.75117  0.97861  0.47845  1.0000
  S   S1120     1.0  0.93003  0.74998  0.39524  1.0000
  H   H8913     1.0  0.96521  0.79067  0.42548  1.0000
  C   C5027     1.0  0.79480  0.93495  0.45255  1.0000
  H   H8914     1.0  0.87128  0.97877  0.42986  1.0000
  H   H8915     1.0  0.79081  0.91519  0.45712  1.0000
  C   C5028     1.0  0.95179  0.74706  0.42802  1.0000
  Fe  Fe561     1.0  0.93006  0.83799  0.39436  1.0000
  H   H8916     1.0  0.78422  0.94630  0.41563  1.0000
  H   H8917     1.0  0.90968  0.83841  0.47365  1.0000
  C   C5029     1.0  0.97429  0.76043  0.33832  1.0000
  H   H8918     1.0  0.96256  0.78673  0.45895  1.0000
  H   H8919     1.0  0.87530  0.87709  0.40986  1.0000
  C   C5030     1.0  0.89716  0.88622  0.43112  1.0000
  H   H8920     1.0  0.95684  0.77175  0.32958  1.0000
  H   H8921     1.0  0.95663  0.80103  0.34350  1.0000
  C   C5031     1.0  0.96871  0.78339  0.35389  1.0000
  H   H8922     1.0  0.75978  0.95692  0.42483  1.0000
  H   H8923     1.0  0.87183  0.88125  0.43764  1.0000
  H   H8924     1.0  0.84004  0.95522  0.36383  1.0000
  H   H8925     1.0  0.89584  0.83383  0.47123  1.0000
  Fe  Fe562     1.0  0.94183  0.82309  0.41827  1.0000
  C   C5032     1.0  0.97801  0.75444  0.36115  1.0000
  C   C5033     1.0  0.98605  0.73999  0.36082  1.0000
  C   C5034     1.0  0.88378  0.95757  0.45645  1.0000
  H   H8926     1.0  0.80595  0.94219  0.43269  1.0000
  H   H8927     1.0  0.77134  0.96969  0.37711  1.0000
  S   S1121     1.0  0.93831  0.84466  0.40786  1.0000
  H   H8928     1.0  0.86033  0.88072  0.39381  1.0000
  C   C5035     1.0  0.89483  0.84509  0.43392  1.0000
  C   C5036     1.0  0.89078  0.87973  0.42424  1.0000
  H   H8929     1.0  0.88640  0.88772  0.41653  1.0000
  H   H8930     1.0  0.91421  0.89853  0.47214  1.0000
  H   H8931     1.0  0.96249  0.85200  0.43581  1.0000
  H   H8932     1.0  0.85004  0.86903  0.39706  1.0000
  H   H8933     1.0  0.84811  0.85742  0.46641  1.0000
  C   C5037     1.0  0.86478  0.85778  0.44087  1.0000
  H   H8934     1.0  0.89942  0.82672  0.42680  1.0000
  S   S1122     1.0  0.93868  0.81456  0.44035  1.0000
  H   H8935     1.0  0.85522  0.85898  0.41937  1.0000
  H   H8936     1.0  0.89169  0.85724  0.41458  1.0000
  H   H8937     1.0  0.88130  0.84590  0.42208  1.0000
  H   H8938     1.0  0.86265  0.84919  0.43852  1.0000
  H   H8939     1.0  0.94987  0.75352  0.34025  1.0000
  H   H8940     1.0  0.83334  0.86715  0.46080  1.0000
  C   C5038     1.0  0.85398  0.87464  0.40182  1.0000
  H   H8941     1.0  0.86915  0.85340  0.44984  1.0000
  H   H8942     1.0  0.97658  0.78231  0.46657  1.0000
  C   C5039     1.0  0.89054  0.85126  0.47983  1.0000
  H   H8943     1.0  0.93297  0.74491  0.36818  1.0000
  H   H8944     1.0  0.84482  0.95942  0.41386  1.0000
  H   H8945     1.0  0.91914  0.75364  0.43789  1.0000
  C   C5040     1.0  0.79139  0.93943  0.40955  1.0000
  H   H8946     1.0  0.78777  0.95574  0.46198  1.0000
  H   H8947     1.0  0.86924  0.96199  0.39038  1.0000
  H   H8948     1.0  0.81291  0.95062  0.36842  1.0000
  H   H8949     1.0  0.83405  0.95147  0.35140  1.0000
  H   H8950     1.0  0.94245  0.77436  0.41913  1.0000
  H   H8951     1.0  0.82070  0.96592  0.41794  1.0000
  C   C5041     1.0  0.86390  0.95963  0.44848  1.0000
  H   H8952     1.0  0.89381  0.77912  0.42144  1.0000
  H   H8953     1.0  0.96488  0.78035  0.41479  1.0000
  H   H8954     1.0  0.90727  0.76729  0.41395  1.0000
  C   C5042     1.0  0.94295  0.75164  0.44083  1.0000
  H   H8955     1.0  0.95098  0.86620  0.44123  1.0000
  N   N279      1.0  0.80328  0.95724  0.44386  1.0000
  C   C5043     1.0  0.93293  0.76513  0.46300  1.0000
  C   C5044     1.0  0.98611  0.87915  0.43443  1.0000
  C   C5045     1.0  0.92327  0.76246  0.43190  1.0000
  H   H8956     1.0  0.84436  0.95291  0.43138  1.0000
  C   C5046     1.0  0.79996  0.94714  0.39767  1.0000
  C   C5047     1.0  0.95634  0.88967  0.44639  1.0000
  H   H8957     1.0  0.78760  0.95072  0.38407  1.0000
  H   H8958     1.0  0.89876  0.86852  0.46823  1.0000
  N   N280      1.0  0.87810  0.96106  0.44418  1.0000
  C   C5048     1.0  0.75253  0.94356  0.44292  1.0000
  H   H8959     1.0  0.98117  0.75033  0.44251  1.0000
  C   C5049     1.0  0.81270  0.95975  0.37156  1.0000
  H   H8960     1.0  0.89962  0.94809  0.41005  1.0000
  C   C5050     1.0  0.97353  0.78370  0.45706  1.0000
  C   C5051     1.0  0.90003  0.84240  0.47061  1.0000
  H   H8961     1.0  0.95187  0.89605  0.46519  1.0000
  H   H8962     1.0  0.94970  0.75193  0.44681  1.0000
  H   H8963     1.0  0.92836  0.76014  0.42196  1.0000
  C   C5052     1.0  0.79475  0.97315  0.46028  1.0000
  H   H8964     1.0  0.76076  0.94237  0.41019  1.0000
  H   H8965     1.0  0.95046  0.88876  0.43979  1.0000
  H   H8966     1.0  0.85266  0.97965  0.45071  1.0000
  C   C5053     1.0  0.88575  0.95087  0.43588  1.0000
  C   C5054     1.0  0.90202  0.77044  0.42349  1.0000
  H   H8967     1.0  0.93788  0.74351  0.44699  1.0000
  N   N281      1.0  0.79338  0.88638  0.42756  1.0000
  C   C5055     1.0  0.78581  0.89023  0.41659  1.0000
  C   C5056     1.0  0.78439  0.89009  0.44030  1.0000
  C   C5057     1.0  0.80400  0.89441  0.42297  1.0000
  C   C5058     1.0  0.80009  0.87181  0.43003  1.0000
  C   C5059     1.0  0.79111  0.86174  0.43358  1.0000
  C   C5060     1.0  0.79347  0.88584  0.40332  1.0000
  C   C5061     1.0  0.81248  0.89276  0.43317  1.0000
  C   C5062     1.0  0.76991  0.88834  0.44371  1.0000
  C   C5063     1.0  0.76290  0.88974  0.45797  1.0000
  C   C5064     1.0  0.79933  0.84776  0.43259  1.0000
  C   C5065     1.0  0.78481  0.89063  0.39305  1.0000
  C   C5066     1.0  0.82248  0.90171  0.42757  1.0000
  H   H8968     1.0  0.78201  0.90125  0.41427  1.0000
  H   H8969     1.0  0.77683  0.88606  0.41978  1.0000
  H   H8970     1.0  0.78884  0.88446  0.44905  1.0000
  H   H8971     1.0  0.78342  0.90083  0.43997  1.0000
  H   H8972     1.0  0.79949  0.90524  0.42013  1.0000
  H   H8973     1.0  0.81114  0.89186  0.41381  1.0000
  H   H8974     1.0  0.80819  0.86972  0.42125  1.0000
  H   H8975     1.0  0.80508  0.86916  0.43851  1.0000
  H   H8976     1.0  0.78412  0.86447  0.42690  1.0000
  H   H8977     1.0  0.78545  0.86114  0.44408  1.0000
  H   H8978     1.0  0.80248  0.88990  0.39880  1.0000
  H   H8979     1.0  0.79646  0.87482  0.40497  1.0000
  H   H8980     1.0  0.81825  0.88239  0.43546  1.0000
  H   H8981     1.0  0.80623  0.89535  0.44266  1.0000
  H   H8982     1.0  0.76427  0.89617  0.43688  1.0000
  H   H8983     1.0  0.76921  0.87862  0.44265  1.0000
  H   H8984     1.0  0.96703  0.73727  0.46005  1.0000
  C   C5067     1.0  0.85864  0.88767  0.46769  1.0000
  H   H8985     1.0  0.76793  0.88196  0.46536  1.0000
  H   H8986     1.0  0.80490  0.84760  0.42215  1.0000
  H   H8987     1.0  0.80638  0.84438  0.43932  1.0000
  H   H8988     1.0  0.79268  0.84066  0.43561  1.0000
  H   H8989     1.0  0.79057  0.88782  0.38347  1.0000
  H   H8990     1.0  0.77601  0.88609  0.39665  1.0000
  H   H8991     1.0  0.78143  0.90162  0.39112  1.0000
  H   H8992     1.0  0.82815  0.90066  0.43517  1.0000
  H   H8993     1.0  0.82956  0.89882  0.41856  1.0000
  H   H8994     1.0  0.81744  0.91234  0.42486  1.0000
  H   H8995     1.0  0.86342  0.94924  0.45412  1.0000
  C   C5068     1.0  0.87031  0.97992  0.39515  1.0000
  C   C5069     1.0  0.79161  0.96977  0.36494  1.0000
  C   C5070     1.0  0.77024  0.97669  0.35661  1.0000
  H   H8996     1.0  0.97271  0.83652  0.41479  1.0000
  C   C5071     1.0  0.89605  0.86349  0.47895  1.0000
  H   H8997     1.0  0.89995  0.94891  0.47472  1.0000
  H   H8998     1.0  0.88012  0.97593  0.39709  1.0000
  H   H8999     1.0  0.94636  0.78452  0.44153  1.0000
  C   C5072     1.0  0.78807  0.97350  0.47478  1.0000
  S   S1123     1.0  0.75308  0.95323  0.45344  1.0000
  H   H9000     1.0  0.77827  0.97094  0.47736  1.0000
  H   H9001     1.0  0.92855  0.74762  0.35244  1.0000
  C   C5073     1.0  0.94655  0.89454  0.45838  1.0000
  H   H9002     1.0  0.85755  0.96925  0.46580  1.0000
  H   H9003     1.0  0.93994  0.90416  0.45489  1.0000
  C   C5074     1.0  0.75475  0.98216  0.39926  1.0000
  H   H9004     1.0  0.92147  0.78206  0.47186  1.0000
  H   H9005     1.0  0.80386  0.95204  0.46476  1.0000
  H   H9006     1.0  0.89539  0.88926  0.47259  1.0000
  C   C5075     1.0  0.87913  0.97484  0.43577  1.0000
  H   H9007     1.0  0.97466  0.85034  0.45064  1.0000
  H   H9008     1.0  0.77143  0.96659  0.35494  1.0000
  S   S1124     1.0  0.76472  0.91766  0.47369  1.0000
  H   H9009     1.0  0.87753  0.89209  0.46495  1.0000
  H   H9010     1.0  0.97456  0.83874  0.36026  1.0000
  H   H9011     1.0  0.94587  0.74414  0.42277  1.0000
  C   C5076     1.0  0.95876  0.86293  0.43283  1.0000
  H   H9012     1.0  0.76141  0.97623  0.40566  1.0000
  H   H9013     1.0  0.89889  0.96663  0.46846  1.0000
  C   C5077     1.0  0.96752  0.77139  0.32779  1.0000
  N   N282      1.0  0.96757  0.75985  0.35288  1.0000
  C   C5078     1.0  0.96009  0.77333  0.35569  1.0000
  C   C5079     1.0  0.95816  0.75052  0.35767  1.0000
  H   H9014     1.0  0.98514  0.76075  0.42221  1.0000
  H   H9015     1.0  0.95203  0.79830  0.36154  1.0000
  H   H9016     1.0  0.87819  0.87570  0.46337  1.0000
  Fe  Fe563     1.0  0.75556  0.93921  0.47288  1.0000
  H   H9017     1.0  0.97794  0.86532  0.42131  1.0000
  C   C5080     1.0  0.94630  0.75426  0.35086  1.0000
  H   H9018     1.0  0.97687  0.78306  0.34488  1.0000
  H   H9019     1.0  0.96917  0.77734  0.30633  1.0000
  C   C5081     1.0  0.96048  0.79765  0.35278  1.0000
  C   C5082     1.0  0.73893  0.98357  0.38633  1.0000
  H   H9020     1.0  0.95413  0.77219  0.36614  1.0000
  H   H9021     1.0  0.95263  0.77814  0.34949  1.0000
  H   H9022     1.0  0.96344  0.74038  0.35610  1.0000
  H   H9023     1.0  0.95413  0.74943  0.36866  1.0000
  H   H9024     1.0  0.94429  0.83160  0.47578  1.0000
  C   C5083     1.0  0.89898  0.95602  0.45373  1.0000
  H   H9025     1.0  0.97348  0.75469  0.37181  1.0000
  H   H9026     1.0  0.74466  0.92858  0.45900  1.0000
  H   H9027     1.0  0.77976  0.95666  0.43499  1.0000
  C   C5084     1.0  0.78049  0.96585  0.43731  1.0000
  H   H9028     1.0  0.83202  0.92313  0.36230  1.0000
  H   H9029     1.0  0.97321  0.78091  0.36270  1.0000
  H   H9030     1.0  0.95764  0.74771  0.39500  1.0000
  Fe  Fe564     1.0  0.95225  0.81306  0.39269  1.0000
  H   H9031     1.0  0.97026  0.87770  0.45834  1.0000
  H   H9032     1.0  0.85966  0.96127  0.43966  1.0000
  S   S1125     1.0  0.85809  0.92984  0.37774  1.0000
  H   H9033     1.0  0.79550  0.93335  0.46309  1.0000
  S   S1126     1.0  0.86329  0.93577  0.40452  1.0000
  H   H9034     1.0  0.74868  0.96536  0.39764  1.0000
  H   H9035     1.0  0.81470  0.93694  0.44573  1.0000
  H   H9036     1.0  0.79581  0.92207  0.43956  1.0000
  C   C5085     1.0  0.88030  0.95130  0.42374  1.0000
  C   C5086     1.0  0.80517  0.94289  0.44311  1.0000
  H   H9037     1.0  0.78455  0.94010  0.45175  1.0000
  H   H9038     1.0  0.98537  0.76084  0.35788  1.0000
  H   H9039     1.0  0.95210  0.79511  0.41666  1.0000
  H   H9040     1.0  0.89616  0.95200  0.43190  1.0000
  S   S1127     1.0  0.76079  0.94578  0.38428  1.0000
  H   H9041     1.0  0.94573  0.81373  0.46460  1.0000
  H   H9042     1.0  0.79315  0.96063  0.36113  1.0000
  C   C5087     1.0  0.95265  0.75810  0.39385  1.0000
  H   H9043     1.0  0.97269  0.75957  0.31269  1.0000
  S   S1128     1.0  0.96291  0.79355  0.38656  1.0000
  C   C5088     1.0  0.93699  0.74466  0.35745  1.0000
  S   S1129     1.0  0.96220  0.81816  0.40582  1.0000
  C   C5089     1.0  0.83915  0.96056  0.42402  1.0000
  H   H9044     1.0  0.88636  0.94059  0.44219  1.0000
  N   N283      1.0  0.93287  0.76461  0.43862  1.0000
  H   H9045     1.0  0.79585  0.97712  0.35636  1.0000
  H   H9046     1.0  0.84112  0.96590  0.34741  1.0000
  H   H9047     1.0  0.75251  0.88870  0.46002  1.0000
  C   C5090     1.0  0.93904  0.77587  0.42955  1.0000
  C   C5091     1.0  0.79735  0.95888  0.45803  1.0000
  C   C5092     1.0  0.83494  0.95964  0.35540  1.0000
  H   H9048     1.0  0.97292  0.76337  0.45939  1.0000
  C   C5093     1.0  0.85410  0.96936  0.45693  1.0000
  H   H9049     1.0  0.95732  0.76937  0.43742  1.0000
  C   C5094     1.0  0.91147  0.77431  0.42933  1.0000
  H   H9050     1.0  0.93155  0.78544  0.42880  1.0000
  H   H9051     1.0  0.91500  0.78292  0.42202  1.0000
  C   C5095     1.0  0.96559  0.87616  0.45098  1.0000
  H   H9052     1.0  0.85384  0.87902  0.47108  1.0000
  H   H9053     1.0  0.91710  0.76253  0.45637  1.0000
  N   N284      1.0  0.79850  0.96653  0.37637  1.0000
  H   H9054     1.0  0.88857  0.97449  0.42806  1.0000
  H   H9055     1.0  0.90571  0.77753  0.43869  1.0000
  H   H9056     1.0  0.94745  0.87633  0.41840  1.0000
  C   C5096     1.0  0.92519  0.76812  0.45185  1.0000
  H   H9057     1.0  0.87164  0.94655  0.42714  1.0000
  H   H9058     1.0  0.82274  0.97650  0.36329  1.0000
  C   C5097     1.0  0.97821  0.77081  0.45200  1.0000
  H   H9059     1.0  0.79422  0.96614  0.48145  1.0000
  C   C5098     1.0  0.84054  0.96577  0.46191  1.0000
  H   H9060     1.0  0.93583  0.75422  0.46674  1.0000
  H   H9061     1.0  0.75820  0.98128  0.46884  1.0000
  H   H9062     1.0  0.81462  0.97231  0.38981  1.0000
  C   C5099     1.0  0.85161  0.97726  0.38840  1.0000
  C   C5100     1.0  0.86415  0.97202  0.39134  1.0000
  H   H9063     1.0  0.88168  0.94790  0.46285  1.0000
  S   S1130     1.0  0.97369  0.85097  0.38719  1.0000
  H   H9064     1.0  0.80527  0.95211  0.40162  1.0000
  C   C5101     1.0  0.98231  0.85641  0.44602  1.0000
  H   H9065     1.0  0.95951  0.86265  0.41224  1.0000
  C   C5102     1.0  0.82129  0.96817  0.35996  1.0000
  H   H9066     1.0  0.89353  0.93305  0.41863  1.0000
  C   C5103     1.0  0.95049  0.77859  0.43370  1.0000
  C   C5104     1.0  0.89069  0.94376  0.41383  1.0000
  H   H9067     1.0  0.94445  0.85976  0.42393  1.0000
  H   H9068     1.0  0.83379  0.97276  0.46808  1.0000
  H   H9069     1.0  0.94033  0.88720  0.46404  1.0000
  S   S1131     1.0  0.74753  0.94749  0.35952  1.0000
  C   C5105     1.0  0.97026  0.87029  0.42883  1.0000
  H   H9070     1.0  0.87892  0.96484  0.46292  1.0000
  H   H9071     1.0  0.91417  0.95498  0.46393  1.0000
  H   H9072     1.0  0.79858  0.97361  0.40111  1.0000
  H   H9073     1.0  0.96850  0.78136  0.32800  1.0000
  H   H9074     1.0  0.81688  0.97229  0.35108  1.0000
  H   H9075     1.0  0.96950  0.73760  0.43584  1.0000
  H   H9076     1.0  0.98464  0.82297  0.37848  1.0000
  H   H9077     1.0  0.90249  0.96380  0.44516  1.0000
  C   C5106     1.0  0.90323  0.95669  0.46598  1.0000
  C   C5107     1.0  0.97394  0.76919  0.31366  1.0000
  H   H9078     1.0  0.97761  0.79184  0.44944  1.0000
  H   H9079     1.0  0.79572  0.97707  0.43311  1.0000
  H   H9080     1.0  0.80411  0.97649  0.45821  1.0000
  H   H9081     1.0  0.73777  0.97826  0.46717  1.0000
  C   C5108     1.0  0.79750  0.97938  0.38014  1.0000
  H   H9082     1.0  0.76241  0.97630  0.43048  1.0000
  C   C5109     1.0  0.77263  0.97766  0.42883  1.0000
  C   C5110     1.0  0.98278  0.83014  0.35819  1.0000
  C   C5111     1.0  0.80436  0.97825  0.39144  1.0000
  H   H9083     1.0  0.77729  0.97856  0.41803  1.0000
  H   H9084     1.0  0.78696  0.98415  0.38365  1.0000
  H   H9085     1.0  0.75948  0.98113  0.35914  1.0000
  H   H9086     1.0  0.97849  0.82171  0.35854  1.0000
  H   H9087     1.0  0.77483  0.98301  0.34726  1.0000
  H   H9088     1.0  0.78673  0.98360  0.47648  1.0000
  H   H9089     1.0  0.98274  0.85827  0.46577  1.0000
  C   C5112     1.0  0.98182  0.84001  0.41097  1.0000
  H   H9090     1.0  0.98165  0.88900  0.42872  1.0000
  H   H9091     1.0  0.98449  0.76207  0.33630  1.0000
  C   C5113     1.0  0.98460  0.84747  0.39788  1.0000
  H   H9092     1.0  0.98483  0.74279  0.46696  1.0000
  H   H9093     1.0  0.98465  0.76918  0.31123  1.0000
  C   C5114     1.0  0.96278  0.73499  0.43133  1.0000
  C   C5115     1.0  0.73722  0.98201  0.47607  1.0000
  H   H9094     1.0  0.98680  0.79887  0.41098  1.0000
  H   H9095     1.0  0.83475  0.96446  0.53815  1.0000
  S   S1132     1.0  0.85921  0.93730  0.51910  1.0000
  C   C5116     1.0  0.74172  0.97167  0.55628  1.0000
  C   C5117     1.0  0.76965  0.96477  0.56363  1.0000
  H   H9096     1.0  0.84367  0.89883  0.57288  1.0000
  C   C5118     1.0  0.85117  0.93447  0.59740  1.0000
  C   C5119     1.0  0.77210  0.96693  0.50645  1.0000
  S   S1133     1.0  0.87858  0.90350  0.53506  1.0000
  S   S1134     1.0  0.88758  0.92725  0.49921  1.0000
  H   H9097     1.0  0.85655  0.97586  0.53965  1.0000
  C   C5120     1.0  0.85421  0.92155  0.56062  1.0000
  H   H9098     1.0  0.86779  0.87959  0.51081  1.0000
  H   H9099     1.0  0.87148  0.90477  0.56344  1.0000
  H   H9100     1.0  0.76376  0.93948  0.59217  1.0000
  H   H9101     1.0  0.85641  0.94228  0.59677  1.0000
  Fe  Fe565     1.0  0.95680  0.82551  0.50284  1.0000
  S   S1135     1.0  0.96054  0.83604  0.51648  1.0000
  S   S1136     1.0  0.96558  0.80349  0.50435  1.0000
  Fe  Fe566     1.0  0.93997  0.84844  0.51592  1.0000
  S   S1137     1.0  0.92521  0.85196  0.53489  1.0000
  Fe  Fe567     1.0  0.96683  0.85089  0.49790  1.0000
  S   S1138     1.0  0.93569  0.83656  0.50395  1.0000
  H   H9102     1.0  0.81959  0.96219  0.55012  1.0000
  S   S1139     1.0  0.74242  0.94735  0.51873  1.0000
  H   H9103     1.0  0.88515  0.94162  0.55666  1.0000
  C   C5121     1.0  0.75369  0.97828  0.54935  1.0000
  H   H9104     1.0  0.76250  0.95132  0.54894  1.0000
  C   C5122     1.0  0.87823  0.87576  0.51176  1.0000
  C   C5123     1.0  0.85430  0.89683  0.56782  1.0000
  H   H9105     1.0  0.97699  0.78548  0.54561  1.0000
  S   S1140     1.0  0.92935  0.76318  0.51339  1.0000
  N   N285      1.0  0.86008  0.93315  0.55965  1.0000
  C   C5124     1.0  0.95603  0.79243  0.50462  1.0000
  C   C5125     1.0  0.94291  0.79704  0.50331  1.0000
  C   C5126     1.0  0.93495  0.78792  0.50550  1.0000
  C   C5127     1.0  0.94017  0.77415  0.50861  1.0000
  C   C5128     1.0  0.95354  0.76953  0.50907  1.0000
  C   C5129     1.0  0.96143  0.77866  0.50716  1.0000
  H   H9106     1.0  0.93880  0.80762  0.50097  1.0000
  C   C5130     1.0  0.76909  0.95819  0.54299  1.0000
  H   H9107     1.0  0.95764  0.75893  0.51146  1.0000
  H   H9108     1.0  0.97162  0.77503  0.50803  1.0000
  S   S1141     1.0  0.86215  0.91331  0.50395  1.0000
  H   H9109     1.0  0.89599  0.86201  0.50400  1.0000
  H   H9110     1.0  0.86621  0.96064  0.52367  1.0000
  C   C5131     1.0  0.89209  0.88971  0.53444  1.0000
  C   C5132     1.0  0.90184  0.88833  0.52277  1.0000
  C   C5133     1.0  0.91224  0.87686  0.52276  1.0000
  C   C5134     1.0  0.91283  0.86679  0.53441  1.0000
  C   C5135     1.0  0.90318  0.86838  0.54607  1.0000
  C   C5136     1.0  0.89292  0.87978  0.54609  1.0000
  C   C5137     1.0  0.92409  0.76491  0.55256  1.0000
  H   H9111     1.0  0.78856  0.94815  0.54801  1.0000
  H   H9112     1.0  0.90360  0.86071  0.55511  1.0000
  H   H9113     1.0  0.88547  0.88079  0.55516  1.0000
  H   H9114     1.0  0.78913  0.95494  0.53047  1.0000
  C   C5138     1.0  0.80515  0.93536  0.50393  1.0000
  C   C5139     1.0  0.79843  0.92880  0.49915  1.0000
  H   H9115     1.0  0.85576  0.94825  0.54212  1.0000
  S   S1142     1.0  0.94659  0.86426  0.49838  1.0000
  C   C5140     1.0  0.76622  0.94922  0.58656  1.0000
  H   H9116     1.0  0.79961  0.94306  0.50934  1.0000
  H   H9117     1.0  0.78779  0.93126  0.50110  1.0000
  C   C5141     1.0  0.85204  0.94619  0.55313  1.0000
  H   H9118     1.0  0.82178  0.97019  0.49506  1.0000
  N   N286      1.0  0.93616  0.79806  0.54508  1.0000
  C   C5142     1.0  0.93282  0.81043  0.53452  1.0000
  C   C5143     1.0  0.95094  0.79264  0.54218  1.0000
  C   C5144     1.0  0.92981  0.78771  0.54373  1.0000
  C   C5145     1.0  0.93121  0.80044  0.55912  1.0000
  C   C5146     1.0  0.93049  0.81459  0.56087  1.0000
  C   C5147     1.0  0.91779  0.81658  0.53525  1.0000
  C   C5148     1.0  0.93320  0.77356  0.55259  1.0000
  C   C5149     1.0  0.95970  0.80159  0.54278  1.0000
  H   H9119     1.0  0.92317  0.98048  0.49184  1.0000
  C   C5150     1.0  0.92812  0.81483  0.57559  1.0000
  C   C5151     1.0  0.91253  0.81371  0.52466  1.0000
  H   H9120     1.0  0.93761  0.80849  0.52439  1.0000
  H   H9121     1.0  0.93724  0.81850  0.53482  1.0000
  H   H9122     1.0  0.95362  0.78321  0.54946  1.0000
  H   H9123     1.0  0.95427  0.79009  0.53216  1.0000
  H   H9124     1.0  0.93259  0.78655  0.53318  1.0000
  H   H9125     1.0  0.92103  0.79862  0.56342  1.0000
  H   H9126     1.0  0.93736  0.79304  0.56585  1.0000
  H   H9127     1.0  0.92219  0.82190  0.55689  1.0000
  H   H9128     1.0  0.93960  0.81828  0.55553  1.0000
  H   H9129     1.0  0.91163  0.81333  0.54526  1.0000
  H   H9130     1.0  0.91615  0.82759  0.53354  1.0000
  H   H9131     1.0  0.93226  0.77398  0.56309  1.0000
  H   H9132     1.0  0.94346  0.76844  0.54863  1.0000
  H   H9133     1.0  0.95785  0.81145  0.53595  1.0000
  H   H9134     1.0  0.95793  0.80285  0.55314  1.0000
  H   H9135     1.0  0.88029  0.92168  0.55506  1.0000
  H   H9136     1.0  0.77850  0.93011  0.54729  1.0000
  H   H9137     1.0  0.86566  0.94259  0.57204  1.0000
  H   H9138     1.0  0.92726  0.82513  0.57651  1.0000
  H   H9139     1.0  0.91880  0.81162  0.58133  1.0000
  H   H9140     1.0  0.93651  0.80819  0.57995  1.0000
  H   H9141     1.0  0.91368  0.80289  0.52571  1.0000
  H   H9142     1.0  0.90184  0.81847  0.52572  1.0000
  H   H9143     1.0  0.91775  0.81792  0.51447  1.0000
  H   H9144     1.0  0.90006  0.93062  0.53823  1.0000
  H   H9145     1.0  0.92487  0.76411  0.54220  1.0000
  C   C5152     1.0  0.76499  0.95689  0.51009  1.0000
  H   H9146     1.0  0.90478  0.88026  0.49903  1.0000
  H   H9147     1.0  0.87265  0.87471  0.53312  1.0000
  H   H9148     1.0  0.88267  0.88440  0.51016  1.0000
  C   C5153     1.0  0.86141  0.93392  0.57306  1.0000
  H   H9149     1.0  0.89013  0.94182  0.52676  1.0000
  S   S1143     1.0  0.73798  0.93589  0.48925  1.0000
  H   H9150     1.0  0.77279  0.94294  0.56799  1.0000
  C   C5154     1.0  0.86614  0.97111  0.52033  1.0000
  C   C5155     1.0  0.80546  0.91879  0.49221  1.0000
  S   S1144     1.0  0.86138  0.94434  0.48696  1.0000
  H   H9151     1.0  0.87320  0.92954  0.54100  1.0000
  C   C5156     1.0  0.81895  0.93181  0.50197  1.0000
  C   C5157     1.0  0.87377  0.93097  0.55074  1.0000
  C   C5158     1.0  0.97437  0.79523  0.53871  1.0000
  Fe  Fe568     1.0  0.75074  0.93552  0.50274  1.0000
  H   H9152     1.0  0.78270  0.96455  0.50300  1.0000
  H   H9153     1.0  0.84168  0.93591  0.60488  1.0000
  H   H9154     1.0  0.84366  0.92310  0.56587  1.0000
  H   H9155     1.0  0.85726  0.92450  0.60089  1.0000
  H   H9156     1.0  0.83124  0.96885  0.55417  1.0000
  H   H9157     1.0  0.76582  0.96213  0.53342  1.0000
  H   H9158     1.0  0.86796  0.86987  0.48851  1.0000
  Fe  Fe569     1.0  0.87258  0.94634  0.50072  1.0000
  H   H9159     1.0  0.92466  0.79153  0.50499  1.0000
  H   H9160     1.0  0.92701  0.75472  0.55859  1.0000
  H   H9161     1.0  0.80395  0.97332  0.50068  1.0000
  C   C5159     1.0  0.87805  0.86798  0.52616  1.0000
  C   C5160     1.0  0.75134  0.95973  0.51513  1.0000
  H   H9162     1.0  0.85991  0.90762  0.57869  1.0000
  H   H9163     1.0  0.83536  0.94066  0.54964  1.0000
  C   C5161     1.0  0.89341  0.94060  0.53611  1.0000
  H   H9164     1.0  0.85928  0.88701  0.57309  1.0000
  Fe  Fe570     1.0  0.93642  0.74234  0.50952  1.0000
  C   C5162     1.0  0.84841  0.93548  0.58383  1.0000
  H   H9165     1.0  0.84294  0.92770  0.58510  1.0000
  H   H9166     1.0  0.87297  0.85963  0.52855  1.0000
  H   H9167     1.0  0.92126  0.89367  0.48669  1.0000
  H   H9168     1.0  0.77008  0.94685  0.50932  1.0000
  H   H9169     1.0  0.86867  0.92507  0.57704  1.0000
  C   C5163     1.0  0.90634  0.88307  0.48804  1.0000
  C   C5164     1.0  0.88146  0.94216  0.54777  1.0000
  H   H9170     1.0  0.91886  0.79099  0.54615  1.0000
  H   H9171     1.0  0.91978  0.87580  0.51379  1.0000
  Fe  Fe571     1.0  0.94389  0.85142  0.48646  1.0000
  Fe  Fe572     1.0  0.87331  0.91782  0.51644  1.0000
  S   S1145     1.0  0.75887  0.91339  0.50617  1.0000
  C   C5165     1.0  0.83027  0.96161  0.54899  1.0000
  Fe  Fe573     1.0  0.84919  0.93359  0.50513  1.0000
  S   S1146     1.0  0.82697  0.93985  0.50867  1.0000
  C   C5166     1.0  0.86077  0.97969  0.52930  1.0000
  H   H9172     1.0  0.85331  0.95470  0.55635  1.0000
  H   H9173     1.0  0.89905  0.94834  0.53451  1.0000
  C   C5167     1.0  0.83699  0.94743  0.55497  1.0000
  H   H9174     1.0  0.90138  0.89608  0.51380  1.0000
  H   H9175     1.0  0.88828  0.86394  0.52776  1.0000
  H   H9176     1.0  0.85521  0.89626  0.55736  1.0000
  H   H9177     1.0  0.83202  0.94487  0.56563  1.0000
  H   H9178     1.0  0.90033  0.98274  0.50720  1.0000
  H   H9179     1.0  0.85431  0.92075  0.55039  1.0000
  H   H9180     1.0  0.87527  0.95226  0.54515  1.0000
  C   C5168     1.0  0.87180  0.97608  0.50701  1.0000
  H   H9181     1.0  0.84201  0.94545  0.58106  1.0000
  S   S1147     1.0  0.87909  0.96567  0.49562  1.0000
  C   C5169     1.0  0.86086  0.90768  0.56805  1.0000
  C   C5170     1.0  0.82605  0.92186  0.49494  1.0000
  C   C5171     1.0  0.74485  0.97255  0.51698  1.0000
  H   H9182     1.0  0.79389  0.93057  0.53511  1.0000
  C   C5172     1.0  0.78338  0.94972  0.53988  1.0000
  H   H9183     1.0  0.83669  0.91906  0.49337  1.0000
  H   H9184     1.0  0.78033  0.96327  0.56346  1.0000
  C   C5173     1.0  0.75192  0.98270  0.51301  1.0000
  C   C5174     1.0  0.78351  0.93608  0.53793  1.0000
  C   C5175     1.0  0.77714  0.97796  0.54114  1.0000
  H   H9185     1.0  0.77626  0.94914  0.58744  1.0000
  Fe  Fe574     1.0  0.74760  0.91430  0.49089  1.0000
  H   H9186     1.0  0.88091  0.85835  0.50431  1.0000
  H   H9187     1.0  0.94482  0.98101  0.49557  1.0000
  C   C5176     1.0  0.88602  0.86672  0.50175  1.0000
  H   H9188     1.0  0.88926  0.84505  0.49014  1.0000
  H   H9189     1.0  0.74249  0.96270  0.55265  1.0000
  H   H9190     1.0  0.75575  0.95103  0.57159  1.0000
  H   H9191     1.0  0.75890  0.95718  0.59117  1.0000
  H   H9192     1.0  0.91365  0.76916  0.55693  1.0000
  H   H9193     1.0  0.81164  0.97324  0.48336  1.0000
  H   H9194     1.0  0.77847  0.93718  0.52981  1.0000
  H   H9195     1.0  0.98044  0.80190  0.53909  1.0000
  H   H9196     1.0  0.97681  0.79370  0.52837  1.0000
  C   C5177     1.0  0.81227  0.97602  0.49235  1.0000
  C   C5178     1.0  0.76552  0.97995  0.50745  1.0000
  N   N287      1.0  0.76734  0.96952  0.54958  1.0000
  H   H9197     1.0  0.89807  0.97392  0.53116  1.0000
  C   C5179     1.0  0.76576  0.95145  0.57192  1.0000
  H   H9198     1.0  0.76445  0.97264  0.56943  1.0000
  H   H9199     1.0  0.78743  0.97193  0.54010  1.0000
  H   H9200     1.0  0.90482  0.90397  0.48731  1.0000
  C   C5180     1.0  0.81931  0.91538  0.49003  1.0000
  N   N288      1.0  0.88721  0.87337  0.48714  1.0000
  H   H9201     1.0  0.90566  0.85936  0.48208  1.0000
  H   H9202     1.0  0.74076  0.96906  0.56726  1.0000
  H   H9203     1.0  0.86768  0.88621  0.48933  1.0000
  S   S1148     1.0  0.94808  0.73873  0.48941  1.0000
  Fe  Fe575     1.0  0.87526  0.92450  0.48686  1.0000
  S   S1149     1.0  0.76755  0.94104  0.48594  1.0000
  H   H9204     1.0  0.91502  0.98275  0.51232  1.0000
  H   H9205     1.0  0.88615  0.89372  0.48781  1.0000
  Fe  Fe576     1.0  0.77510  0.91901  0.48854  1.0000
  S   S1150     1.0  0.98582  0.85821  0.49114  1.0000
  S   S1151     1.0  0.79707  0.91037  0.48635  1.0000
  H   H9206     1.0  0.77544  0.98178  0.53077  1.0000
  H   H9207     1.0  0.75282  0.98291  0.53881  1.0000
  H   H9208     1.0  0.82481  0.90767  0.48462  1.0000
  H   H9209     1.0  0.75423  0.96782  0.48258  1.0000
  C   C5181     1.0  0.94329  0.98263  0.48533  1.0000
  H   H9210     1.0  0.98162  0.86674  0.51589  1.0000
  S   S1152     1.0  0.96463  0.83949  0.48426  1.0000
  H   H9211     1.0  0.91391  0.87503  0.48401  1.0000
  H   H9212     1.0  0.97124  0.73671  0.49877  1.0000
  C   C5182     1.0  0.87355  0.87796  0.48424  1.0000
  C   C5183     1.0  0.91197  0.89561  0.48323  1.0000
  C   C5184     1.0  0.89325  0.88537  0.48361  1.0000
  H   H9213     1.0  0.98422  0.75415  0.49238  1.0000
  H   H9214     1.0  0.93020  0.76861  0.48277  1.0000
  H   H9215     1.0  0.75163  0.98421  0.48556  1.0000
  H   H9216     1.0  0.94679  0.97294  0.48222  1.0000
