data_image0
_chemical_formula_structural       HFeHSH3C6H5CSC2HC3HCH2C3H2SH2NHC2H10C2H3CH2Fe2S3FeHCSCSH2C2H4NHC2HFeHCHFeH6SCHC2H2CH3CH2SH4CH2C3HFeSCH4C2HFeH4S3CHC2SHCHSH2CNHCHCHC2H4CH5CHCHFeCH2CNHC2H2CFeSC2HC2HSC2HCSHCH6CH2C3HFeHCS2CH2C3HSHFeH2CHFeHC4H2SH4CH2CHS2HC3HCH3CS2CH3CH3C5H3NHCHCHC2HC2H4CSH3CH3CH4CH2C2SHCH3CHFeH2CH8CHNH2CHCH2CHC3H4CHC3SCH7CNH2CH3SH4CH3CSCHC2H2CHFeCHCSH2CH7CHCH4CH2CHCHCSHFeH2CH2CHSC2H2CH2C3H4CFeSHFeSC2HSHCH2C10H12SNC2H2C3H5CH7CHCH2CHCH3SCH10SFeHCNC5H8CHSH3C2HC3HCH3NCH3CH7CHCH3FeHCH6NHSHSH4C3SCH5FeC2HSFeH4CSCH2C5H7C2H2C2HCH6CHCH3CNH3C2H2SH6CFeHCH2NHCH2S2FeHSFeS2FeS2FeSFeS2C3H2C6H4CHC6H3C3HCH3FeH7CH8NSHCH2C2H3CHSHC2H3CH4NHCSC2H5C2H2CH3SCHC8H2C2H2CH6CHSH5CH3C3HFeC2H4C4H10FeCHFeSC2H4CHC4H4CH5C2H5CHNHCH2CHCH7C2
_chemical_formula_sum              "H512 Fe32 S64 C288 N16"
_cell_length_a       33.344
_cell_length_b       33.4507
_cell_length_c       31.4028
_cell_angle_alpha    90.5762
_cell_angle_beta     92.2109
_cell_angle_gamma    119.831

_space_group_name_H-M_alt    "P 1"
_space_group_IT_number       1

loop_
  _space_group_symop_operation_xyz
  'x, y, z'

loop_
  _atom_site_type_symbol
  _atom_site_label
  _atom_site_symmetry_multiplicity
  _atom_site_fract_x
  _atom_site_fract_y
  _atom_site_fract_z
  _atom_site_occupancy
  H   H1        1.0  0.30708  0.05104  0.30235  1.0000
  Fe  Fe1       1.0  0.09445  0.05321  0.22012  1.0000
  H   H2        1.0  0.18912  0.24439  0.25101  1.0000
  S   S1        1.0  0.17020  0.08878  0.24217  1.0000
  H   H3        1.0  0.10768  0.13013  0.12196  1.0000
  H   H4        1.0  0.19385  0.12111  0.15175  1.0000
  H   H5        1.0  0.22983  0.19248  0.12170  1.0000
  C   C1        1.0  0.24712  0.24266  0.28163  1.0000
  C   C2        1.0  0.26577  0.21459  0.29268  1.0000
  C   C3        1.0  0.24178  0.16741  0.28059  1.0000
  C   C4        1.0  0.19860  0.14777  0.25815  1.0000
  C   C5        1.0  0.17952  0.17562  0.24788  1.0000
  C   C6        1.0  0.20389  0.22294  0.25928  1.0000
  H   H6        1.0  0.20805  0.12790  0.07246  1.0000
  H   H7        1.0  0.14626  0.16090  0.23075  1.0000
  H   H8        1.0  0.25680  0.14612  0.28865  1.0000
  H   H9        1.0  0.13315  0.08363  0.13922  1.0000
  H   H10       1.0  0.45789  0.19496  0.32976  1.0000
  C   C7        1.0  0.04719  0.15620  0.08678  1.0000
  S   S2        1.0  0.27784  0.30268  0.29347  1.0000
  C   C8        1.0  0.17309  0.11851  0.08341  1.0000
  C   C9        1.0  0.09986  0.17934  0.08554  1.0000
  H   H11       1.0  0.18049  0.18508  0.14782  1.0000
  C   C10       1.0  0.24333  0.03736  0.33153  1.0000
  C   C11       1.0  0.19744  0.19423  0.11668  1.0000
  C   C12       1.0  0.11600  0.14342  0.08943  1.0000
  H   H12       1.0  0.17296  0.04019  0.15663  1.0000
  C   C13       1.0  0.17941  0.18006  0.03839  1.0000
  H   H13       1.0  0.26530  0.26964  0.16369  1.0000
  H   H14       1.0  0.14771  0.09043  0.06116  1.0000
  C   C14       1.0  0.16822  0.09627  0.12751  1.0000
  C   C15       1.0  0.17609  0.05506  0.12466  1.0000
  C   C16       1.0  0.23693  0.27499  0.15061  1.0000
  H   H15       1.0  0.21652  0.19130  0.03394  1.0000
  H   H16       1.0  0.24127  0.25891  0.08518  1.0000
  S   S3        1.0  0.05387  0.08475  0.19255  1.0000
  H   H17       1.0  0.18657  0.25238  0.09827  1.0000
  H   H18       1.0  0.25157  0.31215  0.14415  1.0000
  N   N1        1.0  0.16616  0.15987  0.08188  1.0000
  H   H19       1.0  0.21129  0.06594  0.11386  1.0000
  C   C17       1.0  0.51106  0.26441  0.32047  1.0000
  C   C18       1.0  0.21466  0.24604  0.10954  1.0000
  H   H20       1.0  0.17701  0.21178  0.03543  1.0000
  H   H21       1.0  0.09314  0.11334  0.06797  1.0000
  H   H22       1.0  0.21068  0.26567  0.17498  1.0000
  H   H23       1.0  0.22736  0.03796  0.30007  1.0000
  H   H24       1.0  0.10969  0.19782  0.05529  1.0000
  H   H25       1.0  0.11469  0.20447  0.11295  1.0000
  H   H26       1.0  0.29918  0.22948  0.30964  1.0000
  H   H27       1.0  0.04859  0.17780  0.32172  1.0000
  H   H28       1.0  0.50767  0.20034  0.30435  1.0000
  H   H29       1.0  0.06237  0.23721  0.32113  1.0000
  C   C19       1.0  0.49634  0.21445  0.33037  1.0000
  C   C20       1.0  0.29576  0.06580  0.32795  1.0000
  H   H30       1.0  0.14980  0.02792  0.10228  1.0000
  H   H31       1.0  0.49479  0.26554  0.28931  1.0000
  H   H32       1.0  0.51187  0.13709  0.32226  1.0000
  C   C21       1.0  0.04515  0.20495  0.33913  1.0000
  H   H33       1.0  0.03645  0.18273  0.08544  1.0000
  H   H34       1.0  0.30564  0.10175  0.32001  1.0000
  Fe  Fe2       1.0  0.08982  0.34051  0.60965  1.0000
  Fe  Fe3       1.0  0.07864  0.33913  0.51311  1.0000
  S   S4        1.0  0.10500  0.32520  0.45316  1.0000
  S   S5        1.0  0.12171  0.39615  0.56140  1.0000
  S   S6        1.0  0.12958  0.32426  0.65992  1.0000
  Fe  Fe4       1.0  0.05746  0.40211  0.56570  1.0000
  H   H35       1.0  0.07252  0.46639  0.47996  1.0000
  C   C22       1.0  0.06066  0.49078  0.48496  1.0000
  S   S7        1.0  0.05630  0.46955  0.57061  1.0000
  C   C23       1.0  0.04901  0.49748  0.52571  1.0000
  S   S8        1.0  0.05212  0.28379  0.56056  1.0000
  H   H36       1.0  0.14814  0.21066  0.59855  1.0000
  H   H37       1.0  0.15126  0.33018  0.53428  1.0000
  C   C24       1.0  0.15395  0.32026  0.46673  1.0000
  C   C25       1.0  0.05798  0.51655  0.45081  1.0000
  H   H38       1.0  0.03914  0.15588  0.62235  1.0000
  H   H39       1.0  0.06763  0.51160  0.41953  1.0000
  H   H40       1.0  0.15933  0.16351  0.54424  1.0000
  H   H41       1.0  0.15976  0.10327  0.49153  1.0000
  N   N2        1.0  0.51117  0.16495  0.38496  1.0000
  H   H42       1.0  0.15706  0.16739  0.39778  1.0000
  C   C26       1.0  0.31965  0.49676  0.54326  1.0000
  C   C27       1.0  0.51650  0.21133  0.37482  1.0000
  H   H43       1.0  0.19437  0.16471  0.35929  1.0000
  Fe  Fe5       1.0  0.31399  0.03547  0.50331  1.0000
  H   H44       1.0  0.24763  0.49483  0.58716  1.0000
  C   C28       1.0  0.23636  0.31996  0.48803  1.0000
  H   H45       1.0  0.26130  0.24057  0.55317  1.0000
  Fe  Fe6       1.0  0.39957  0.03506  0.53902  1.0000
  H   H46       1.0  0.45562  0.08180  0.43349  1.0000
  H   H47       1.0  0.17693  0.05530  0.60703  1.0000
  H   H48       1.0  0.24815  0.04989  0.60071  1.0000
  H   H49       1.0  0.53526  0.13607  0.43462  1.0000
  H   H50       1.0  0.20969  0.24851  0.60546  1.0000
  H   H51       1.0  0.46651  0.06724  0.38157  1.0000
  S   S9        1.0  0.30533  0.03634  0.66441  1.0000
  C   C29       1.0  0.23459  0.13655  0.50944  1.0000
  H   H52       1.0  0.31400  0.06670  0.35858  1.0000
  C   C30       1.0  0.19506  0.05313  0.63538  1.0000
  C   C31       1.0  0.17623  0.05156  0.51031  1.0000
  H   H53       1.0  0.20005  0.04693  0.53278  1.0000
  H   H54       1.0  0.17372  0.10424  0.54779  1.0000
  C   C32       1.0  0.18346  0.10023  0.51527  1.0000
  H   H55       1.0  0.18298  0.04514  0.47727  1.0000
  H   H56       1.0  0.44171  0.14264  0.40428  1.0000
  H   H57       1.0  0.40295  0.25408  0.55319  1.0000
  C   C33       1.0  0.16999  0.32528  0.50937  1.0000
  H   H58       1.0  0.23008  0.22861  0.46497  1.0000
  H   H59       1.0  0.29521  0.46282  0.55669  1.0000
  S   S10       1.0  0.40728  0.35618  0.34784  1.0000
  H   H60       1.0  0.34397  0.51718  0.57053  1.0000
  H   H61       1.0  0.41847  0.47607  0.55246  1.0000
  H   H62       1.0  0.37206  0.46763  0.58557  1.0000
  H   H63       1.0  0.49828  0.22128  0.39794  1.0000
  C   C34       1.0  0.53449  0.16842  0.42811  1.0000
  H   H64       1.0  0.28035  0.12736  0.39501  1.0000
  H   H65       1.0  0.25449  0.13331  0.53718  1.0000
  C   C35       1.0  0.17823  0.31310  0.43487  1.0000
  C   C36       1.0  0.48846  0.51322  0.47787  1.0000
  C   C37       1.0  0.29581  0.21501  0.49819  1.0000
  H   H66       1.0  0.52484  0.18882  0.53560  1.0000
  Fe  Fe7       1.0  0.33049  0.32847  0.34930  1.0000
  S   S11       1.0  0.33863  0.38583  0.39353  1.0000
  C   C38       1.0  0.21816  0.19129  0.46883  1.0000
  H   H67       1.0  0.18410  0.22286  0.52968  1.0000
  H   H68       1.0  0.51164  0.21082  0.46289  1.0000
  H   H69       1.0  0.37871  0.28909  0.53535  1.0000
  H   H70       1.0  0.23319  0.05479  0.35553  1.0000
  C   C39       1.0  0.32699  0.11940  0.43887  1.0000
  C   C40       1.0  0.23606  0.20309  0.54748  1.0000
  H   H71       1.0  0.43794  0.20293  0.46413  1.0000
  Fe  Fe8       1.0  0.39714  0.31106  0.40336  1.0000
  H   H72       1.0  0.16586  0.30897  0.40186  1.0000
  H   H73       1.0  0.21271  0.40521  0.41657  1.0000
  H   H74       1.0  0.24197  0.18571  0.57514  1.0000
  H   H75       1.0  0.30444  0.25122  0.49333  1.0000
  S   S12       1.0  0.32013  0.27963  0.40121  1.0000
  S   S13       1.0  0.47183  0.48372  0.39260  1.0000
  S   S14       1.0  0.41018  0.36555  0.45303  1.0000
  C   C41       1.0  0.19375  0.18105  0.39003  1.0000
  H   H76       1.0  0.39106  0.25645  0.49712  1.0000
  C   C42       1.0  0.51332  0.17887  0.46688  1.0000
  C   C43       1.0  0.40397  0.18616  0.44827  1.0000
  S   S15       1.0  0.28566  0.06325  0.45243  1.0000
  H   H77       1.0  0.25568  0.18420  0.41511  1.0000
  C   C44       1.0  0.31486  0.14356  0.40981  1.0000
  H   H78       1.0  0.33209  0.18312  0.53011  1.0000
  S   S16       1.0  0.36813  0.07946  0.55410  1.0000
  H   H79       1.0  0.20358  0.13230  0.42618  1.0000
  H   H80       1.0  0.26462  0.44394  0.39058  1.0000
  C   C45       1.0  0.39169  0.21063  0.41994  1.0000
  N   N3        1.0  0.34597  0.49056  0.50796  1.0000
  H   H81       1.0  0.23740  0.46623  0.42524  1.0000
  C   C46       1.0  0.24580  0.43834  0.42035  1.0000
  H   H82       1.0  0.33917  0.38305  0.57909  1.0000
  C   C47       1.0  0.37864  0.25625  0.52941  1.0000
  H   H83       1.0  0.33798  0.20718  0.37706  1.0000
  C   C48       1.0  0.23533  0.05008  0.63176  1.0000
  C   C49       1.0  0.50206  0.04741  0.49494  1.0000
  H   H84       1.0  0.25406  0.42841  0.48721  1.0000
  H   H85       1.0  0.36629  0.44048  0.48979  1.0000
  H   H86       1.0  0.50489  0.41010  0.41158  1.0000
  H   H87       1.0  0.18081  0.17516  0.47463  1.0000
  C   C50       1.0  0.32159  0.48235  0.46458  1.0000
  H   H88       1.0  0.31935  0.21708  0.56596  1.0000
  H   H89       1.0  0.22362  0.32978  0.55301  1.0000
  H   H90       1.0  0.21030  0.21887  0.38587  1.0000
  H   H91       1.0  0.30470  0.20396  0.46838  1.0000
  H   H92       1.0  0.47794  0.14998  0.47176  1.0000
  C   C51       1.0  0.33001  0.21517  0.53337  1.0000
  H   H93       1.0  0.46208  0.47867  0.48511  1.0000
  C   C52       1.0  0.34733  0.18898  0.40001  1.0000
  H   H94       1.0  0.34411  0.48197  0.43935  1.0000
  Fe  Fe9       1.0  0.41475  0.40907  0.39758  1.0000
  C   C53       1.0  0.44754  0.08120  0.39884  1.0000
  H   H95       1.0  0.38233  0.12175  0.47827  1.0000
  H   H96       1.0  0.24700  0.12617  0.48123  1.0000
  C   C54       1.0  0.21960  0.31320  0.44547  1.0000
  N   N4        1.0  0.24494  0.18561  0.50603  1.0000
  H   H97       1.0  0.23896  0.30909  0.42060  1.0000
  C   C55       1.0  0.27479  0.43667  0.45848  1.0000
  C   C56       1.0  0.46025  0.13008  0.38434  1.0000
  H   H98       1.0  0.31664  0.41815  0.52079  1.0000
  H   H99       1.0  0.38411  0.39086  0.54377  1.0000
  C   C57       1.0  0.38123  0.45329  0.55802  1.0000
  Fe  Fe10      1.0  0.33363  0.33814  0.44520  1.0000
  S   S17       1.0  0.47735  0.06644  0.53362  1.0000
  C   C58       1.0  0.37535  0.40673  0.57046  1.0000
  C   C59       1.0  0.18228  0.21256  0.59685  1.0000
  H   H100      1.0  0.18397  0.18879  0.62040  1.0000
  C   C60       1.0  0.21100  0.32493  0.52001  1.0000
  C   C61       1.0  0.18791  0.19902  0.55174  1.0000
  H   H101      1.0  0.28165  0.40798  0.45228  1.0000
  S   S18       1.0  0.29024  0.32517  0.50169  1.0000
  C   C62       1.0  0.35123  0.44906  0.51720  1.0000
  C   C63       1.0  0.21990  0.17036  0.42503  1.0000
  H   H102      1.0  0.39875  0.41146  0.59854  1.0000
  C   C64       1.0  0.37198  0.14047  0.45718  1.0000
  S   S19       1.0  0.43197  0.26844  0.41089  1.0000
  H   H103      1.0  0.31548  0.51109  0.45643  1.0000
  C   C65       1.0  0.25823  0.04613  0.66831  1.0000
  H   H104      1.0  0.26013  0.49633  0.50954  1.0000
  H   H105      1.0  0.14002  0.02596  0.51714  1.0000
  H   H106      1.0  0.20238  0.52289  0.45410  1.0000
  H   H107      1.0  0.37506  0.05859  0.40890  1.0000
  H   H108      1.0  0.06295  0.21102  0.37117  1.0000
  H   H109      1.0  0.38594  0.04539  0.35596  1.0000
  C   C66       1.0  0.39586  0.04755  0.39043  1.0000
  H   H110      1.0  0.44448  0.12577  0.35154  1.0000
  H   H111      1.0  0.49965  0.27993  0.34534  1.0000
  C   C67       1.0  0.28981  0.51929  0.53162  1.0000
  C   C68       1.0  0.17746  0.05240  0.67542  1.0000
  C   C69       1.0  0.53361  0.14975  0.35250  1.0000
  H   H112      1.0  0.53461  0.38933  0.44591  1.0000
  Fe  Fe11      1.0  0.32307  0.02443  0.59830  1.0000
  H   H113      1.0  0.20204  0.18544  0.95292  1.0000
  C   C70       1.0  0.16485  0.17283  0.95777  1.0000
  S   S20       1.0  0.08971  0.03903  0.89964  1.0000
  S   S21       1.0  0.09931  0.10247  0.78691  1.0000
  C   C71       1.0  0.08456  0.20205  0.71845  1.0000
  H   H114      1.0  0.09711  0.17829  0.72442  1.0000
  H   H115      1.0  0.15839  0.20236  0.95742  1.0000
  C   C72       1.0  0.06441  0.03602  0.94934  1.0000
  C   C73       1.0  0.24171  0.04730  0.70854  1.0000
  C   C74       1.0  0.20124  0.05017  0.71213  1.0000
  H   H116      1.0  0.03920  0.28688  0.69489  1.0000
  S   S22       1.0  0.12481  0.05263  0.67733  1.0000
  H   H117      1.0  0.14541  0.25057  0.68641  1.0000
  Fe  Fe12      1.0  0.06366  0.04345  0.83187  1.0000
  H   H118      1.0  0.18821  0.05017  0.74316  1.0000
  H   H119      1.0  0.15602  0.11770  0.99711  1.0000
  C   C75       1.0  0.15064  0.14777  0.99969  1.0000
  H   H120      1.0  0.25974  0.04495  0.73695  1.0000
  Fe  Fe13      1.0  0.08577  0.04804  0.73646  1.0000
  H   H121      1.0  0.14409  0.14861  0.93078  1.0000
  C   C76       1.0  0.04130  0.19224  0.73237  1.0000
  C   C77       1.0  0.11184  0.24295  0.69682  1.0000
  C   C78       1.0  0.09542  0.27350  0.68777  1.0000
  C   C79       1.0  0.05202  0.26342  0.70144  1.0000
  H   H122      1.0  0.11316  0.13515  0.00223  1.0000
  H   H123      1.0  0.20291  0.96527  0.26228  1.0000
  S   S23       1.0  0.07437  0.77693  0.31862  1.0000
  H   H124      1.0  0.24346  0.97286  0.32242  1.0000
  H   H125      1.0  0.18264  0.89714  0.32474  1.0000
  H   H126      1.0  0.10534  0.94220  0.23005  1.0000
  H   H127      1.0  0.07470  0.81704  0.23807  1.0000
  C   C80       1.0  0.14335  0.95841  0.22769  1.0000
  H   H128      1.0  0.15841  0.99636  0.22703  1.0000
  H   H129      1.0  0.15309  0.90847  0.26218  1.0000
  C   C81       1.0  0.16495  0.94588  0.26530  1.0000
  H   H130      1.0  0.15047  0.94641  0.19730  1.0000
  S   S24       1.0  0.04386  0.01657  0.26980  1.0000
  S   S25       1.0  0.06340  0.99144  0.17428  1.0000
  H   H131      1.0  0.11294  0.93091  0.30998  1.0000
  C   C82       1.0  0.05701  0.82745  0.25994  1.0000
  C   C83       1.0  0.05275  0.81332  0.30223  1.0000
  C   C84       1.0  0.15034  0.95666  0.30833  1.0000
  H   H132      1.0  0.16733  0.67355  0.33347  1.0000
  C   C85       1.0  0.05969  0.01775  0.02526  1.0000
  H   H133      1.0  0.15151  0.99051  0.30662  1.0000
  H   H134      1.0  0.07070  0.00527  0.05239  1.0000
  H   H135      1.0  0.03754  0.86124  0.21181  1.0000
  C   C86       1.0  0.03629  0.85282  0.24510  1.0000
  S   S26       1.0  0.08031  0.71598  0.42473  1.0000
  S   S27       1.0  0.05618  0.76871  0.52462  1.0000
  C   C87       1.0  0.11649  0.79695  0.52446  1.0000
  H   H136      1.0  0.12331  0.85891  0.49765  1.0000
  H   H137      1.0  0.13578  0.59972  0.51089  1.0000
  H   H138      1.0  0.15358  0.97261  0.57032  1.0000
  C   C88       1.0  0.12156  0.93878  0.57277  1.0000
  H   H139      1.0  0.09561  0.94384  0.58956  1.0000
  H   H140      1.0  0.10738  0.92466  0.54005  1.0000
  H   H141      1.0  0.38778  0.01262  0.40023  1.0000
  C   C89       1.0  0.13981  0.77470  0.53986  1.0000
  C   C90       1.0  0.18824  0.79731  0.54092  1.0000
  C   C91       1.0  0.21334  0.84244  0.52702  1.0000
  C   C92       1.0  0.18998  0.86473  0.51144  1.0000
  C   C93       1.0  0.14144  0.84185  0.50993  1.0000
  H   H142      1.0  0.12023  0.74031  0.55166  1.0000
  H   H143      1.0  0.20636  0.78030  0.55334  1.0000
  H   H144      1.0  0.20926  0.89918  0.49974  1.0000
  N   N5        1.0  0.19217  0.65790  0.48098  1.0000
  H   H145      1.0  0.20886  0.65890  0.39237  1.0000
  C   C94       1.0  0.22413  0.70877  0.49177  1.0000
  H   H146      1.0  0.10012  0.87168  0.59597  1.0000
  C   C95       1.0  0.16201  0.63648  0.51827  1.0000
  H   H147      1.0  0.13569  0.61442  0.43646  1.0000
  C   C96       1.0  0.19140  0.58050  0.46692  1.0000
  C   C97       1.0  0.16099  0.65147  0.44241  1.0000
  H   H148      1.0  0.15886  0.90253  0.57832  1.0000
  C   C98       1.0  0.13261  0.90546  0.59641  1.0000
  C   C99       1.0  0.18497  0.67153  0.40046  1.0000
  H   H149      1.0  0.13950  0.66769  0.44835  1.0000
  H   H150      1.0  0.24275  0.64784  0.44796  1.0000
  H   H151      1.0  0.20425  0.70976  0.40317  1.0000
  H   H152      1.0  0.20678  0.72887  0.48269  1.0000
  C   C100      1.0  0.21969  0.63368  0.47491  1.0000
  S   S28       1.0  0.26645  0.98365  0.54877  1.0000
  H   H153      1.0  0.24312  0.64033  0.50366  1.0000
  H   H154      1.0  0.27038  0.72541  0.43763  1.0000
  H   H155      1.0  0.16630  0.57074  0.43926  1.0000
  C   C101      1.0  0.09892  0.95554  0.43758  1.0000
  H   H156      1.0  0.18356  0.63641  0.54631  1.0000
  H   H157      1.0  0.15439  0.69715  0.53348  1.0000
  H   H158      1.0  0.23162  0.71480  0.52692  1.0000
  C   C102      1.0  0.11051  0.93763  0.39769  1.0000
  H   H159      1.0  0.12334  0.82221  0.60829  1.0000
  H   H160      1.0  0.19868  0.87990  0.61630  1.0000
  H   H161      1.0  0.06247  0.93160  0.44520  1.0000
  H   H162      1.0  0.10459  0.90269  0.40451  1.0000
  C   C103      1.0  0.16119  0.97060  0.38572  1.0000
  H   H163      1.0  0.12181  0.95747  0.46512  1.0000
  H   H164      1.0  0.17808  0.90719  0.42229  1.0000
  C   C104      1.0  0.18969  0.89784  0.39312  1.0000
  C   C105      1.0  0.17547  0.84688  0.39552  1.0000
  S   S29       1.0  0.27383  0.87045  0.52994  1.0000
  H   H165      1.0  0.13757  0.82562  0.39926  1.0000
  C   C106      1.0  0.13367  0.65921  0.53259  1.0000
  H   H166      1.0  0.10326  0.64880  0.51017  1.0000
  H   H167      1.0  0.23399  0.93505  0.64001  1.0000
  H   H168      1.0  0.12971  0.61983  0.35791  1.0000
  C   C107      1.0  0.11616  0.64491  0.57726  1.0000
  H   H169      1.0  0.09212  0.65768  0.58477  1.0000
  Fe  Fe14      1.0  0.03986  0.72736  0.37195  1.0000
  H   H170      1.0  0.04764  0.77127  0.63894  1.0000
  H   H171      1.0  0.24690  0.99068  0.37606  1.0000
  C   C108      1.0  0.15028  0.92287  0.64286  1.0000
  H   H172      1.0  0.24351  0.83974  0.62411  1.0000
  H   H173      1.0  0.08566  0.93451  0.37156  1.0000
  H   H174      1.0  0.09743  0.60684  0.57944  1.0000
  H   H175      1.0  0.18452  0.97665  0.41440  1.0000
  H   H176      1.0  0.16412  0.00476  0.38018  1.0000
  H   H177      1.0  0.14560  0.65986  0.60138  1.0000
  H   H178      1.0  0.17232  0.56298  0.49542  1.0000
  H   H179      1.0  0.24081  0.57470  0.42742  1.0000
  C   C109      1.0  0.22320  0.56110  0.45758  1.0000
  H   H180      1.0  0.27701  0.79934  0.46384  1.0000
  N   N6        1.0  0.17712  0.95536  0.34764  1.0000
  H   H181      1.0  0.19364  0.84167  0.42343  1.0000
  H   H182      1.0  0.24956  0.57028  0.48411  1.0000
  C   C110      1.0  0.07745  0.76561  0.64515  1.0000
  H   H183      1.0  0.10310  0.99020  0.43240  1.0000
  C   C111      1.0  0.53450  0.56909  0.42659  1.0000
  H   H184      1.0  0.12474  0.67029  0.36903  1.0000
  H   H185      1.0  0.24755  0.54291  0.56210  1.0000
  C   C112      1.0  0.22850  0.98745  0.34470  1.0000
  H   H186      1.0  0.18458  0.83477  0.36630  1.0000
  C   C113      1.0  0.27249  0.73252  0.47237  1.0000
  C   C114      1.0  0.49979  0.52428  0.43552  1.0000
  C   C115      1.0  0.16847  0.90686  0.35197  1.0000
  H   H187      1.0  0.07474  0.73960  0.62117  1.0000
  H   H188      1.0  0.22807  0.91808  0.39366  1.0000
  H   H189      1.0  0.15152  0.80249  0.64462  1.0000
  H   H190      1.0  0.17797  0.95955  0.64204  1.0000
  C   C116      1.0  0.26586  0.86892  0.64671  1.0000
  H   H191      1.0  0.13078  0.88156  0.34956  1.0000
  C   C117      1.0  0.20886  0.89869  0.64767  1.0000
  C   C118      1.0  0.12306  0.81052  0.64097  1.0000
  C   C119      1.0  0.26958  0.52782  0.57129  1.0000
  S   S30       1.0  0.34815  0.99484  0.48543  1.0000
  C   C120      1.0  0.29703  0.78482  0.47985  1.0000
  H   H192      1.0  0.33190  0.80103  0.46660  1.0000
  H   H193      1.0  0.30121  0.79390  0.51450  1.0000
  H   H194      1.0  0.29463  0.72007  0.48779  1.0000
  H   H195      1.0  0.05751  0.95349  0.65748  1.0000
  H   H196      1.0  0.52261  0.73896  0.59493  1.0000
  H   H197      1.0  0.47549  0.97374  0.40909  1.0000
  H   H198      1.0  0.30994  0.55251  0.51599  1.0000
  C   C121      1.0  0.47512  0.01314  0.46389  1.0000
  N   N7        1.0  0.16781  0.89639  0.66874  1.0000
  H   H199      1.0  0.12076  0.92292  0.65797  1.0000
  H   H200      1.0  0.52645  0.77902  0.52728  1.0000
  C   C122      1.0  0.14945  0.65791  0.36303  1.0000
  H   H201      1.0  0.50116  0.53889  0.54334  1.0000
  H   H202      1.0  0.37749  0.57707  0.46729  1.0000
  H   H203      1.0  0.29764  0.55212  0.59422  1.0000
  S   S31       1.0  0.04368  0.58282  0.41371  1.0000
  H   H204      1.0  0.51618  0.91557  0.52463  1.0000
  H   H205      1.0  0.28711  0.85883  0.66707  1.0000
  H   H206      1.0  0.47041  0.61918  0.51913  1.0000
  H   H207      1.0  0.52774  0.90432  0.47111  1.0000
  C   C123      1.0  0.04339  0.54899  0.45697  1.0000
  H   H208      1.0  0.43781  0.99661  0.46357  1.0000
  H   H209      1.0  0.28945  0.89918  0.62832  1.0000
  H   H210      1.0  0.51395  0.70302  0.54840  1.0000
  C   C124      1.0  0.39405  0.53169  0.50610  1.0000
  S   S32       1.0  0.35997  0.98436  0.58881  1.0000
  C   C125      1.0  0.44821  0.61527  0.49028  1.0000
  H   H211      1.0  0.46168  0.60562  0.46248  1.0000
  C   C126      1.0  0.39787  0.57870  0.49660  1.0000
  C   C127      1.0  0.49658  0.00029  0.43299  1.0000
  H   H212      1.0  0.38621  0.59071  0.52408  1.0000
  H   H213      1.0  0.45060  0.64903  0.48430  1.0000
  C   C128      1.0  0.51067  0.54729  0.51074  1.0000
  H   H214      1.0  0.41407  0.53770  0.53690  1.0000
  Fe  Fe15      1.0  0.30620  0.94737  0.53599  1.0000
  C   C129      1.0  0.12939  0.84757  0.67489  1.0000
  H   H215      1.0  0.41328  0.52466  0.48160  1.0000
  C   C130      1.0  0.23638  0.88076  0.67450  1.0000
  S   S33       1.0  0.05698  0.99053  0.78247  1.0000
  H   H216      1.0  0.21303  0.84962  0.69199  1.0000
  H   H217      1.0  0.14345  0.95455  0.72187  1.0000
  C   C131      1.0  0.18493  0.92087  0.71194  1.0000
  H   H218      1.0  0.19648  0.90165  0.73310  1.0000
  H   H219      1.0  0.21620  0.95536  0.70873  1.0000
  H   H220      1.0  0.05693  0.92206  0.70400  1.0000
  H   H221      1.0  0.11598  0.89551  0.73798  1.0000
  H   H222      1.0  0.17222  0.91920  0.80055  1.0000
  H   H223      1.0  0.13455  0.83470  0.70605  1.0000
  H   H224      1.0  0.20102  0.97812  0.78317  1.0000
  C   C132      1.0  0.16750  0.94523  0.78278  1.0000
  H   H225      1.0  0.14221  0.95161  0.79926  1.0000
  C   C133      1.0  0.14956  0.92805  0.73694  1.0000
  H   H226      1.0  0.10400  0.00948  0.98178  1.0000
  H   H227      1.0  0.26008  0.90796  0.69832  1.0000
  H   H228      1.0  0.05509  0.94720  0.86605  1.0000
  H   H229      1.0  0.04835  0.89120  0.87439  1.0000
  C   C134      1.0  0.07843  0.02009  0.98514  1.0000
  H   H230      1.0  0.09571  0.84678  0.67679  1.0000
  H   H231      1.0  0.07568  0.75174  0.67743  1.0000
  C   C135      1.0  0.87049  0.15409  0.27279  1.0000
  H   H232      1.0  0.86682  0.16720  0.24140  1.0000
  C   C136      1.0  0.89128  0.05848  0.32381  1.0000
  H   H233      1.0  0.88823  0.13382  0.26831  1.0000
  C   C137      1.0  0.89872  0.19444  0.30440  1.0000
  S   S34       1.0  0.00122  0.02898  0.07957  1.0000
  H   H234      1.0  0.89624  0.03871  0.21839  1.0000
  Fe  Fe16      1.0  0.99979  0.04240  0.23875  1.0000
  H   H235      1.0  0.03024  0.13172  0.05906  1.0000
  H   H236      1.0  0.64019  0.19226  0.30507  1.0000
  C   C138      1.0  0.88200  0.04107  0.24807  1.0000
  H   H237      1.0  0.93362  0.21607  0.29206  1.0000
  H   H238      1.0  0.60849  0.13825  0.33104  1.0000
  C   C139      1.0  0.81692  0.03473  0.28706  1.0000
  H   H239      1.0  0.97756  0.18196  0.31045  1.0000
  S   S35       1.0  0.96831  0.06803  0.28740  1.0000
  C   C140      1.0  0.84490  0.04763  0.32465  1.0000
  C   C141      1.0  0.90991  0.05471  0.28575  1.0000
  H   H240      1.0  0.83532  0.13128  0.28430  1.0000
  H   H241      1.0  0.58373  0.14954  0.28346  1.0000
  C   C142      1.0  0.83570  0.03142  0.24870  1.0000
  H   H242      1.0  0.88132  0.21543  0.30534  1.0000
  H   H243      1.0  0.58266  0.21447  0.32278  1.0000
  C   C143      1.0  0.58326  0.18650  0.34100  1.0000
  C   C144      1.0  0.02653  0.03126  0.03004  1.0000
  C   C145      1.0  0.60507  0.16518  0.31345  1.0000
  H   H244      1.0  0.54925  0.28526  0.31873  1.0000
  H   H245      1.0  0.03501  0.13714  0.11665  1.0000
  H   H246      1.0  0.57681  0.21866  0.50641  1.0000
  H   H247      1.0  0.64801  0.17795  0.41950  1.0000
  C   C146      1.0  0.73069  0.12251  0.58896  1.0000
  Fe  Fe17      1.0  0.74266  0.11405  0.40799  1.0000
  S   S36       1.0  0.78088  0.19045  0.42021  1.0000
  H   H248      1.0  0.95518  0.16488  0.59154  1.0000
  Fe  Fe18      1.0  0.99428  0.29843  0.56637  1.0000
  S   S37       1.0  0.92571  0.23458  0.57279  1.0000
  C   C147      1.0  0.67447  0.17497  0.48265  1.0000
  C   C148      1.0  0.93188  0.19488  0.42427  1.0000
  H   H249      1.0  0.67060  0.22890  0.60166  1.0000
  S   S38       1.0  0.02971  0.35172  0.61907  1.0000
  H   H250      1.0  0.69060  0.47036  0.47943  1.0000
  C   C149      1.0  0.93379  0.25539  0.38037  1.0000
  H   H251      1.0  0.74605  0.21810  0.50082  1.0000
  H   H252      1.0  0.92789  0.33181  0.40788  1.0000
  C   C150      1.0  0.64663  0.19727  0.58248  1.0000
  C   C151      1.0  0.71280  0.20636  0.51653  1.0000
  C   C152      1.0  0.66692  0.16460  0.57853  1.0000
  C   C153      1.0  0.60056  0.17362  0.60433  1.0000
  C   C154      1.0  0.88746  0.22324  0.52905  1.0000
  C   C155      1.0  0.85386  0.17760  0.51888  1.0000
  C   C156      1.0  0.82188  0.16755  0.48469  1.0000
  C   C157      1.0  0.82252  0.20325  0.46144  1.0000
  C   C158      1.0  0.85589  0.24903  0.47179  1.0000
  C   C159      1.0  0.88867  0.25904  0.50550  1.0000
  H   H253      1.0  0.85277  0.14998  0.53729  1.0000
  H   H254      1.0  0.79595  0.13218  0.47718  1.0000
  H   H255      1.0  0.85629  0.27672  0.45394  1.0000
  H   H256      1.0  0.91403  0.29446  0.51397  1.0000
  H   H257      1.0  0.89757  0.24568  0.38759  1.0000
  H   H258      1.0  0.70844  0.21905  0.42964  1.0000
  H   H259      1.0  0.90473  0.14645  0.34625  1.0000
  H   H260      1.0  0.54086  0.46145  0.47495  1.0000
  H   H261      1.0  0.93964  0.15961  0.50079  1.0000
  H   H262      1.0  0.93972  0.27074  0.34837  1.0000
  H   H263      1.0  0.63960  0.15902  0.49549  1.0000
  H   H264      1.0  0.66492  0.22858  0.45309  1.0000
  S   S39       1.0  0.78138  0.07593  0.40165  1.0000
  N   N8        1.0  0.93935  0.21318  0.37978  1.0000
  C   C160      1.0  0.56337  0.46405  0.44879  1.0000
  C   C161      1.0  0.89694  0.17325  0.67365  1.0000
  H   H265      1.0  0.87060  0.28861  0.59884  1.0000
  H   H266      1.0  0.89742  0.18791  0.43442  1.0000
  C   C162      1.0  0.99390  0.18924  0.34318  1.0000
  C   C163      1.0  0.86525  0.19410  0.67034  1.0000
  C   C164      1.0  0.55043  0.06817  0.49503  1.0000
  H   H267      1.0  0.77011  0.09664  0.55582  1.0000
  H   H268      1.0  0.89332  0.02895  0.54171  1.0000
  H   H269      1.0  0.95692  0.28544  0.44516  1.0000
  H   H270      1.0  0.90009  0.04229  0.61957  1.0000
  H   H271      1.0  0.97810  0.15623  0.35971  1.0000
  C   C165      1.0  0.90159  0.17769  0.34977  1.0000
  H   H272      1.0  0.88257  0.11895  0.47776  1.0000
  H   H273      1.0  0.97451  0.35113  0.37153  1.0000
  H   H274      1.0  0.68075  0.14724  0.47106  1.0000
  H   H275      1.0  0.93187  0.19964  0.66400  1.0000
  H   H276      1.0  0.83986  0.10850  0.64678  1.0000
  H   H277      1.0  0.60908  0.07125  0.46498  1.0000
  H   H278      1.0  0.64048  0.13244  0.56121  1.0000
  C   C166      1.0  0.92028  0.13229  0.47558  1.0000
  H   H279      1.0  0.63998  0.20758  0.55072  1.0000
  C   C167      1.0  0.87741  0.05794  0.62110  1.0000
  H   H280      1.0  0.71085  0.23825  0.52211  1.0000
  H   H281      1.0  0.88998  0.09868  0.56204  1.0000
  C   C168      1.0  0.57188  0.05518  0.46437  1.0000
  H   H282      1.0  0.83094  0.04911  0.35449  1.0000
  C   C169      1.0  0.96975  0.14390  0.60468  1.0000
  H   H283      1.0  0.70008  0.10752  0.60885  1.0000
  H   H284      1.0  0.92709  0.10345  0.48123  1.0000
  H   H285      1.0  0.00336  0.30404  0.40929  1.0000
  S   S40       1.0  0.01677  0.34886  0.51377  1.0000
  C   C170      1.0  0.61252  0.47639  0.46635  1.0000
  H   H286      1.0  0.58627  0.19729  0.60620  1.0000
  H   H287      1.0  0.76125  0.14769  0.60899  1.0000
  H   H288      1.0  0.83097  0.26049  0.64023  1.0000
  H   H289      1.0  0.54940  0.15706  0.51217  1.0000
  H   H290      1.0  0.63015  0.47199  0.43898  1.0000
  H   H291      1.0  0.91335  0.12291  0.40791  1.0000
  H   H292      1.0  0.60851  0.44927  0.48893  1.0000
  H   H293      1.0  0.57487  0.14186  0.58605  1.0000
  H   H294      1.0  0.85890  0.19981  0.63661  1.0000
  H   H295      1.0  0.96136  0.11455  0.58236  1.0000
  S   S41       1.0  0.69331  0.06548  0.45411  1.0000
  Fe  Fe19      1.0  0.64834  0.02969  0.39558  1.0000
  H   H296      1.0  0.88314  0.14232  0.61139  1.0000
  C   C171      1.0  0.67406  0.20205  0.44395  1.0000
  N   N9        1.0  0.71297  0.18425  0.55818  1.0000
  C   C172      1.0  0.72236  0.14534  0.54937  1.0000
  C   C173      1.0  0.74974  0.22053  0.58832  1.0000
  C   C174      1.0  0.80047  0.24040  0.57533  1.0000
  C   C175      1.0  0.93548  0.15102  0.43134  1.0000
  C   C176      1.0  0.86444  0.06552  0.57498  1.0000
  H   H297      1.0  0.69275  0.11717  0.53035  1.0000
  H   H298      1.0  0.75232  0.15695  0.52897  1.0000
  H   H299      1.0  0.74717  0.20718  0.62103  1.0000
  H   H300      1.0  0.74415  0.25051  0.59172  1.0000
  H   H301      1.0  0.80608  0.25788  0.54454  1.0000
  H   H302      1.0  0.80959  0.21293  0.57235  1.0000
  H   H303      1.0  0.66956  0.15361  0.61137  1.0000
  H   H304      1.0  0.97206  0.15953  0.42944  1.0000
  C   C177      1.0  0.73937  0.08345  0.57553  1.0000
  H   H305      1.0  0.60541  0.16435  0.63725  1.0000
  S   S42       1.0  0.69632  0.08105  0.34961  1.0000
  H   H306      1.0  0.84396  0.03056  0.63296  1.0000
  H   H307      1.0  0.82899  0.30598  0.61100  1.0000
  H   H308      1.0  0.86703  0.16520  0.36333  1.0000
  C   C178      1.0  0.95119  0.12583  0.64888  1.0000
  C   C179      1.0  0.96376  0.33873  0.40407  1.0000
  H   H309      1.0  0.95784  0.22101  0.44764  1.0000
  C   C180      1.0  0.87809  0.12939  0.64420  1.0000
  C   C181      1.0  0.98755  0.22686  0.36646  1.0000
  C   C182      1.0  0.83462  0.27600  0.60852  1.0000
  H   H310      1.0  0.01251  0.24036  0.39475  1.0000
  C   C183      1.0  0.02242  0.17421  0.60732  1.0000
  H   H311      1.0  0.70888  0.05602  0.55683  1.0000
  H   H312      1.0  0.00039  0.25628  0.34455  1.0000
  H   H313      1.0  0.60899  0.49523  0.54702  1.0000
  N   N10       1.0  0.89932  0.09920  0.65184  1.0000
  C   C184      1.0  0.96679  0.29524  0.41202  1.0000
  H   H314      1.0  0.56502  0.49015  0.42636  1.0000
  H   H315      1.0  0.57121  0.09418  0.51922  1.0000
  H   H316      1.0  0.57135  0.19604  0.42860  1.0000
  C   C185      1.0  0.71027  0.50838  0.47621  1.0000
  H   H317      1.0  0.55989  0.41791  0.39718  1.0000
  H   H318      1.0  0.77477  0.50753  0.47242  1.0000
  H   H319      1.0  0.96684  0.10464  0.65888  1.0000
  H   H320      1.0  0.76232  0.51746  0.52567  1.0000
  H   H321      1.0  0.74579  0.06792  0.60422  1.0000
  H   H322      1.0  0.83080  0.06502  0.57447  1.0000
  H   H323      1.0  0.96655  0.15558  0.67184  1.0000
  C   C186      1.0  0.53948  0.41747  0.42448  1.0000
  H   H324      1.0  0.98722  0.36659  0.42739  1.0000
  C   C187      1.0  0.54303  0.18630  0.50768  1.0000
  H   H325      1.0  0.91265  0.06890  0.35305  1.0000
  H   H326      1.0  0.71016  0.51570  0.44198  1.0000
  H   H327      1.0  0.68701  0.51777  0.53572  1.0000
  Fe  Fe20      1.0  0.73132  0.03809  0.34672  1.0000
  H   H328      1.0  0.84761  0.03223  0.51233  1.0000
  C   C188      1.0  0.85950  0.02749  0.54440  1.0000
  H   H329      1.0  0.58225  0.52129  0.51706  1.0000
  H   H330      1.0  0.60633  0.20236  0.36985  1.0000
  H   H331      1.0  0.55349  0.23884  0.37856  1.0000
  H   H332      1.0  0.03268  0.20634  0.62620  1.0000
  H   H333      1.0  0.03528  0.18390  0.57482  1.0000
  H   H334      1.0  0.53589  0.11951  0.36403  1.0000
  N   N11       1.0  0.64132  0.52352  0.48784  1.0000
  H   H335      1.0  0.89980  0.16640  0.70769  1.0000
  S   S43       1.0  0.01555  0.03666  0.71510  1.0000
  H   H336      1.0  0.93227  0.04881  0.70196  1.0000
  S   S44       1.0  0.99247  0.03202  0.81591  1.0000
  H   H337      1.0  0.85259  0.07113  0.70359  1.0000
  H   H338      1.0  0.83157  0.17090  0.68427  1.0000
  H   H339      1.0  0.98753  0.05850  0.99769  1.0000
  H   H340      1.0  0.91122  0.11002  0.72059  1.0000
  C   C189      1.0  0.01273  0.04741  0.99431  1.0000
  C   C190      1.0  0.89657  0.04083  0.70788  1.0000
  C   C191      1.0  0.02557  0.22349  0.72438  1.0000
  S   S45       1.0  0.00487  0.14048  0.75810  1.0000
  C   C192      1.0  0.88911  0.08196  0.69678  1.0000
  H   H341      1.0  0.91273  0.05853  0.77583  1.0000
  H   H342      1.0  0.88189  0.22786  0.68810  1.0000
  H   H343      1.0  0.90969  0.04423  0.89257  1.0000
  H   H344      1.0  0.99235  0.21638  0.73526  1.0000
  H   H345      1.0  0.02214  0.06431  0.92767  1.0000
  Fe  Fe21      1.0  0.02733  0.08738  0.76798  1.0000
  C   C193      1.0  0.88817  0.02878  0.75471  1.0000
  C   C194      1.0  0.03184  0.05021  0.95437  1.0000
  H   H346      1.0  0.82710  0.88967  0.20905  1.0000
  S   S46       1.0  0.96219  0.98103  0.19391  1.0000
  Fe  Fe22      1.0  0.00927  0.95724  0.22286  1.0000
  H   H347      1.0  0.79620  0.92126  0.20915  1.0000
  H   H348      1.0  0.83864  0.77291  0.15986  1.0000
  H   H349      1.0  0.01302  0.72661  0.23719  1.0000
  H   H350      1.0  0.83162  0.71004  0.20545  1.0000
  C   C195      1.0  0.03066  0.82777  0.33040  1.0000
  S   S47       1.0  0.97665  0.88693  0.25265  1.0000
  C   C196      1.0  0.00949  0.85267  0.31549  1.0000
  H   H351      1.0  0.95710  0.75523  0.24886  1.0000
  H   H352      1.0  0.81441  0.02149  0.21939  1.0000
  C   C197      1.0  0.95076  0.69235  0.27352  1.0000
  C   C198      1.0  0.82719  0.92056  0.22249  1.0000
  C   C199      1.0  0.86280  0.74466  0.21008  1.0000
  C   C200      1.0  0.98559  0.69111  0.24405  1.0000
  C   C201      1.0  0.92842  0.71944  0.25358  1.0000
  H   H353      1.0  0.92560  0.91076  0.04000  1.0000
  H   H354      1.0  0.89025  0.74672  0.18980  1.0000
  H   H355      1.0  0.91968  0.95989  0.02569  1.0000
  H   H356      1.0  0.87105  0.90910  0.04491  1.0000
  H   H357      1.0  0.85851  0.95198  0.21259  1.0000
  H   H358      1.0  0.85325  0.75804  0.27472  1.0000
  H   H359      1.0  0.82257  0.94842  0.28278  1.0000
  C   C202      1.0  0.84984  0.67257  0.27729  1.0000
  C   C203      1.0  0.82606  0.91899  0.27107  1.0000
  H   H360      1.0  0.96452  0.97785  0.32137  1.0000
  H   H361      1.0  0.75772  0.60615  0.25825  1.0000
  C   C204      1.0  0.90182  0.92162  0.02531  1.0000
  C   C205      1.0  0.01178  0.86490  0.27267  1.0000
  H   H362      1.0  0.91126  0.78973  0.25984  1.0000
  C   C206      1.0  0.87994  0.75474  0.25761  1.0000
  H   H363      1.0  0.85867  0.64891  0.29465  1.0000
  H   H364      1.0  0.79442  0.88691  0.27893  1.0000
  H   H365      1.0  0.84037  0.65815  0.24400  1.0000
  H   H366      1.0  0.92456  0.65616  0.27934  1.0000
  H   H367      1.0  0.87865  0.89821  0.27279  1.0000
  H   H368      1.0  0.88078  0.81558  0.19747  1.0000
  C   C207      1.0  0.80586  0.66686  0.29750  1.0000
  H   H369      1.0  0.89945  0.95713  0.28444  1.0000
  C   C208      1.0  0.85019  0.78026  0.19410  1.0000
  H   H370      1.0  0.91469  0.70371  0.22115  1.0000
  H   H371      1.0  0.90654  0.79957  0.33476  1.0000
  H   H372      1.0  0.82164  0.77896  0.21226  1.0000
  C   C209      1.0  0.87084  0.92201  0.29112  1.0000
  N   N12       1.0  0.89107  0.72070  0.27844  1.0000
  H   H373      1.0  0.96801  0.67222  0.21361  1.0000
  H   H374      1.0  0.96962  0.70887  0.30424  1.0000
  H   H375      1.0  0.81255  0.82874  0.28675  1.0000
  C   C210      1.0  0.82270  0.82579  0.32012  1.0000
  C   C211      1.0  0.76639  0.61696  0.29249  1.0000
  H   H376      1.0  0.79367  0.68894  0.28236  1.0000
  H   H377      1.0  0.94773  0.75919  0.32487  1.0000
  S   S48       1.0  0.75885  0.02305  0.28698  1.0000
  H   H378      1.0  0.00241  0.67325  0.25980  1.0000
  H   H379      1.0  0.77953  0.75122  0.31526  1.0000
  H   H380      1.0  0.73514  0.61376  0.30696  1.0000
  H   H381      1.0  0.77611  0.59353  0.30903  1.0000
  H   H382      1.0  0.85484  0.82399  0.31968  1.0000
  H   H383      1.0  0.92070  0.89119  0.32896  1.0000
  C   C212      1.0  0.90977  0.73659  0.32390  1.0000
  Fe  Fe23      1.0  0.01962  0.02096  0.14900  1.0000
  H   H384      1.0  0.81265  0.67511  0.33216  1.0000
  C   C213      1.0  0.78449  0.78031  0.33634  1.0000
  H   H385      1.0  0.75125  0.78050  0.33642  1.0000
  H   H386      1.0  0.99002  0.86105  0.33698  1.0000
  N   N13       1.0  0.87055  0.91337  0.33822  1.0000
  H   H387      1.0  0.00881  0.93908  0.33866  1.0000
  C   C214      1.0  0.66284  0.59943  0.38794  1.0000
  H   H388      1.0  0.74433  0.95637  0.40665  1.0000
  H   H389      1.0  0.56866  0.72938  0.57809  1.0000
  S   S49       1.0  0.74850  0.99136  0.49309  1.0000
  S   S50       1.0  0.67791  0.98262  0.38626  1.0000
  Fe  Fe24      1.0  0.94730  0.66049  0.40870  1.0000
  H   H390      1.0  0.84292  0.99665  0.41962  1.0000
  S   S51       1.0  0.87123  0.63365  0.39432  1.0000
  Fe  Fe25      1.0  0.71958  0.76452  0.48416  1.0000
  S   S52       1.0  0.67171  0.76788  0.53039  1.0000
  S   S53       1.0  0.73722  0.80794  0.42629  1.0000
  Fe  Fe26      1.0  0.74073  0.70417  0.54088  1.0000
  S   S54       1.0  0.69665  0.70507  0.59251  1.0000
  S   S55       1.0  0.78092  0.66790  0.55304  1.0000
  Fe  Fe27      1.0  0.64542  0.69206  0.53770  1.0000
  S   S56       1.0  0.57100  0.63489  0.54319  1.0000
  Fe  Fe28      1.0  0.72801  0.78061  0.57980  1.0000
  S   S57       1.0  0.68856  0.68774  0.48678  1.0000
  S   S58       1.0  0.77651  0.78026  0.53279  1.0000
  C   C215      1.0  0.00243  0.95775  0.36450  1.0000
  C   C216      1.0  0.53955  0.73454  0.56691  1.0000
  C   C217      1.0  0.64633  0.56159  0.45938  1.0000
  H   H391      1.0  0.58368  0.63728  0.45199  1.0000
  H   H392      1.0  0.03322  0.99281  0.36844  1.0000
  C   C218      1.0  0.80696  0.66146  0.50819  1.0000
  C   C219      1.0  0.78617  0.65550  0.46730  1.0000
  C   C220      1.0  0.80566  0.64639  0.43227  1.0000
  C   C221      1.0  0.84682  0.64497  0.43798  1.0000
  C   C222      1.0  0.86836  0.65266  0.47865  1.0000
  C   C223      1.0  0.84802  0.66006  0.51381  1.0000
  H   H393      1.0  0.75443  0.65650  0.46286  1.0000
  H   H394      1.0  0.78887  0.64041  0.40088  1.0000
  H   H395      1.0  0.90005  0.65166  0.48332  1.0000
  H   H396      1.0  0.86410  0.66454  0.54542  1.0000
  C   C224      1.0  0.62558  0.84138  0.42100  1.0000
  H   H397      1.0  0.60074  0.82517  0.39314  1.0000
  C   C225      1.0  0.75367  0.94503  0.47283  1.0000
  C   C226      1.0  0.76036  0.91676  0.50119  1.0000
  C   C227      1.0  0.75650  0.87530  0.48664  1.0000
  C   C228      1.0  0.74717  0.86237  0.44337  1.0000
  C   C229      1.0  0.74444  0.89250  0.41431  1.0000
  C   C230      1.0  0.74763  0.93384  0.42909  1.0000
  H   H398      1.0  0.76676  0.92581  0.53477  1.0000
  H   H399      1.0  0.75990  0.85306  0.50931  1.0000
  H   H400      1.0  0.73771  0.88301  0.38068  1.0000
  C   C231      1.0  0.63304  0.86535  0.49962  1.0000
  C   C232      1.0  0.91483  0.91368  0.35124  1.0000
  C   C233      1.0  0.68539  0.89619  0.59004  1.0000
  H   H401      1.0  0.58012  0.82276  0.59435  1.0000
  C   C234      1.0  0.72577  0.94103  0.60943  1.0000
  H   H402      1.0  0.66372  0.93701  0.55345  1.0000
  H   H403      1.0  0.66048  0.90078  0.49231  1.0000
  H   H404      1.0  0.65162  0.84555  0.50335  1.0000
  Fe  Fe29      1.0  0.72694  0.02326  0.44118  1.0000
  H   H405      1.0  0.89353  0.94051  0.51206  1.0000
  H   H406      1.0  0.69845  0.88178  0.56589  1.0000
  H   H407      1.0  0.71398  0.56882  0.50662  1.0000
  H   H408      1.0  0.02413  0.53431  0.56296  1.0000
  H   H409      1.0  0.63398  0.59789  0.61470  1.0000
  H   H410      1.0  0.92738  0.75533  0.48532  1.0000
  H   H411      1.0  0.75286  0.93420  0.62326  1.0000
  C   C235      1.0  0.87807  0.90903  0.53117  1.0000
  H   H412      1.0  0.96342  0.81716  0.48355  1.0000
  H   H413      1.0  0.97929  0.78432  0.51888  1.0000
  H   H414      1.0  0.91230  0.89842  0.38304  1.0000
  H   H415      1.0  0.85493  0.71447  0.65038  1.0000
  H   H416      1.0  0.61273  0.56085  0.45494  1.0000
  H   H417      1.0  0.67190  0.87135  0.61617  1.0000
  H   H418      1.0  0.67022  0.59564  0.47506  1.0000
  H   H419      1.0  0.85688  0.91293  0.55562  1.0000
  N   N14       1.0  0.61073  0.86566  0.54064  1.0000
  S   S59       1.0  0.99356  0.73702  0.41520  1.0000
  H   H420      1.0  0.83386  0.99321  0.55574  1.0000
  C   C236      1.0  0.55688  0.77632  0.53857  1.0000
  H   H421      1.0  0.58004  0.55678  0.58783  1.0000
  H   H422      1.0  0.64064  0.81918  0.42928  1.0000
  C   C237      1.0  0.59378  0.82066  0.56303  1.0000
  C   C238      1.0  0.64645  0.90383  0.57033  1.0000
  H   H423      1.0  0.56935  0.81348  0.46259  1.0000
  H   H424      1.0  0.90059  0.94790  0.42340  1.0000
  H   H425      1.0  0.90793  0.76051  0.55804  1.0000
  C   C239      1.0  0.89609  0.86059  0.58161  1.0000
  H   H426      1.0  0.89382  0.79159  0.41210  1.0000
  S   S60       1.0  0.97956  0.64459  0.46548  1.0000
  H   H427      1.0  0.92489  0.79141  0.63931  1.0000
  C   C240      1.0  0.90505  0.80966  0.63318  1.0000
  C   C241      1.0  0.66527  0.56285  0.41495  1.0000
  H   H428      1.0  0.61566  0.53731  0.61542  1.0000
  H   H429      1.0  0.84941  0.75779  0.58879  1.0000
  H   H430      1.0  0.62949  0.90991  0.59761  1.0000
  C   C242      1.0  0.91652  0.90254  0.55227  1.0000
  H   H431      1.0  0.83137  0.78839  0.62227  1.0000
  H   H432      1.0  0.87774  0.86794  0.60671  1.0000
  H   H433      1.0  0.54339  0.57792  0.39390  1.0000
  H   H434      1.0  0.74147  0.96720  0.58470  1.0000
  N   N15       1.0  0.92971  0.84796  0.60231  1.0000
  H   H435      1.0  0.98836  0.91767  0.60558  1.0000
  C   C243      1.0  0.92222  0.79257  0.53976  1.0000
  S   S61       1.0  0.75684  0.84532  0.62233  1.0000
  C   C244      1.0  0.96626  0.89007  0.62740  1.0000
  C   C245      1.0  0.00002  0.88282  0.65757  1.0000
  H   H436      1.0  0.86872  0.83129  0.56232  1.0000
  H   H437      1.0  0.94632  0.79225  0.39904  1.0000
  H   H438      1.0  0.93995  0.93481  0.57093  1.0000
  H   H439      1.0  0.57246  0.76895  0.51111  1.0000
  H   H440      1.0  0.71382  0.95500  0.63516  1.0000
  C   C246      1.0  0.58491  0.92389  0.51808  1.0000
  C   C247      1.0  0.85392  0.77283  0.62122  1.0000
  H   H441      1.0  0.89349  0.79529  0.52385  1.0000
  H   H442      1.0  0.64309  0.59924  0.53785  1.0000
  C   C248      1.0  0.55747  0.60276  0.45949  1.0000
  H   H443      1.0  0.62282  0.81407  0.57040  1.0000
  H   H444      1.0  0.67766  0.57872  0.56468  1.0000
  H   H445      1.0  0.83885  0.91883  0.42261  1.0000
  S   S62       1.0  0.57075  0.00327  0.39441  1.0000
  C   C249      1.0  0.57104  0.87486  0.53355  1.0000
  H   H446      1.0  0.68444  0.63427  0.40322  1.0000
  C   C250      1.0  0.94993  0.78728  0.50474  1.0000
  C   C251      1.0  0.03078  0.55491  0.49749  1.0000
  C   C252      1.0  0.90796  0.77219  0.39545  1.0000
  C   C253      1.0  0.84080  0.90889  0.66058  1.0000
  C   C254      1.0  0.64174  0.56982  0.55503  1.0000
  C   C255      1.0  0.86980  0.94947  0.41127  1.0000
  C   C256      1.0  0.87235  0.99242  0.43154  1.0000
  C   C257      1.0  0.83571  0.73359  0.65247  1.0000
  H   H447      1.0  0.65330  0.87563  0.41158  1.0000
  H   H448      1.0  0.97531  0.86454  0.54994  1.0000
  C   C258      1.0  0.95358  0.83470  0.56976  1.0000
  C   C259      1.0  0.54533  0.59216  0.50168  1.0000
  H   H449      1.0  0.94947  0.90483  0.64743  1.0000
  H   H450      1.0  0.97834  0.82595  0.58587  1.0000
  C   C260      1.0  0.60076  0.84703  0.45843  1.0000
  H   H451      1.0  0.89523  0.73849  0.41074  1.0000
  H   H452      1.0  0.99823  0.93963  0.39485  1.0000
  H   H453      1.0  0.83830  0.93356  0.64026  1.0000
  H   H454      1.0  0.60088  0.94942  0.54519  1.0000
  H   H455      1.0  0.83354  0.85901  0.38218  1.0000
  H   H456      1.0  0.70215  0.57225  0.41828  1.0000
  C   C261      1.0  0.86680  0.95063  0.36195  1.0000
  H   H457      1.0  0.87076  0.98899  0.46656  1.0000
  S   S63       1.0  0.99062  0.65133  0.36101  1.0000
  H   H458      1.0  0.79852  0.70910  0.64432  1.0000
  H   H459      1.0  0.67588  0.59936  0.35601  1.0000
  H   H460      1.0  0.79367  0.77461  0.36926  1.0000
  H   H461      1.0  0.85509  0.87907  0.50954  1.0000
  H   H462      1.0  0.61054  0.93481  0.49298  1.0000
  C   C262      1.0  0.80581  0.86232  0.65741  1.0000
  H   H463      1.0  0.62652  0.59203  0.38359  1.0000
  H   H464      1.0  0.93584  0.89789  0.52655  1.0000
  H   H465      1.0  0.58914  0.87160  0.44872  1.0000
  C   C263      1.0  0.61615  0.56490  0.59571  1.0000
  C   C264      1.0  0.82998  0.86731  0.34846  1.0000
  C   C265      1.0  0.03367  0.52931  0.53164  1.0000
  H   H466      1.0  0.79711  0.86839  0.34683  1.0000
  Fe  Fe30      1.0  0.02646  0.64049  0.41835  1.0000
  C   C266      1.0  0.76033  0.52509  0.49155  1.0000
  C   C267      1.0  0.89210  0.76490  0.34841  1.0000
  H   H467      1.0  0.78197  0.56275  0.48754  1.0000
  H   H468      1.0  0.95846  0.98546  0.37673  1.0000
  H   H469      1.0  0.54410  0.84921  0.51070  1.0000
  H   H470      1.0  0.02834  0.81823  0.36335  1.0000
  C   C268      1.0  0.68845  0.53121  0.50311  1.0000
  C   C269      1.0  0.61642  0.52497  0.52655  1.0000
  C   C270      1.0  0.54291  0.92642  0.50054  1.0000
  C   C271      1.0  0.95963  0.96163  0.35269  1.0000
  H   H471      1.0  0.85397  0.74822  0.34658  1.0000
  H   H472      1.0  0.55382  0.96248  0.49233  1.0000
  H   H473      1.0  0.90355  0.82433  0.66473  1.0000
  H   H474      1.0  0.55283  0.87035  0.56369  1.0000
  H   H475      1.0  0.01917  0.57947  0.50263  1.0000
  H   H476      1.0  0.90450  0.70698  0.34322  1.0000
  H   H477      1.0  0.64518  0.52942  0.39708  1.0000
  H   H478      1.0  0.01994  0.87035  0.63974  1.0000
  H   H479      1.0  0.89374  0.98508  0.35198  1.0000
  H   H480      1.0  0.83324  0.94890  0.35335  1.0000
  Fe  Fe31      1.0  0.03020  0.72073  0.46724  1.0000
  C   C272      1.0  0.54506  0.02115  0.43313  1.0000
  H   H481      1.0  0.90530  0.02372  0.42431  1.0000
  Fe  Fe32      1.0  0.98764  0.98276  0.76413  1.0000
  S   S64       1.0  0.92831  0.90901  0.75509  1.0000
  C   C273      1.0  0.88674  0.90218  0.97963  1.0000
  C   C274      1.0  0.88195  0.89203  0.71679  1.0000
  H   H482      1.0  0.87213  0.00939  0.68876  1.0000
  H   H483      1.0  0.01665  0.94284  0.69805  1.0000
  H   H484      1.0  0.94560  0.89609  0.96479  1.0000
  H   H485      1.0  0.80906  0.78255  0.85381  1.0000
  C   C275      1.0  0.99138  0.89905  0.89553  1.0000
  H   H486      1.0  0.89364  0.99925  0.76149  1.0000
  C   C276      1.0  0.87892  0.84059  0.84845  1.0000
  C   C277      1.0  0.96410  0.92419  0.88349  1.0000
  C   C278      1.0  0.91706  0.98420  0.90341  1.0000
  C   C279      1.0  0.89578  0.93334  0.88747  1.0000
  H   H487      1.0  0.85581  0.99023  0.88890  1.0000
  H   H488      1.0  0.84885  0.82095  0.73449  1.0000
  H   H489      1.0  0.98804  0.96141  0.89133  1.0000
  H   H490      1.0  0.91380  0.98683  0.93821  1.0000
  C   C280      1.0  0.84694  0.84557  0.71366  1.0000
  H   H491      1.0  0.85841  0.91547  0.89438  1.0000
  H   H492      1.0  0.95853  0.92252  0.84818  1.0000
  H   H493      1.0  0.96890  0.86113  0.89471  1.0000
  H   H494      1.0  0.95413  0.00386  0.89688  1.0000
  H   H495      1.0  0.89624  0.93359  0.85198  1.0000
  C   C281      1.0  0.89289  0.00757  0.88133  1.0000
  C   C282      1.0  0.84309  0.78939  0.84275  1.0000
  H   H496      1.0  0.86586  0.86402  0.98088  1.0000
  H   H497      1.0  0.83867  0.77893  0.80843  1.0000
  H   H498      1.0  0.89830  0.83563  0.91434  1.0000
  H   H499      1.0  0.89553  0.00663  0.84625  1.0000
  H   H500      1.0  0.85187  0.84626  0.90804  1.0000
  C   C283      1.0  0.92930  0.91596  0.95240  1.0000
  H   H501      1.0  0.86630  0.86002  0.82906  1.0000
  N   N16       1.0  0.91897  0.90753  0.90497  1.0000
  H   H502      1.0  0.00790  0.91043  0.92811  1.0000
  C   C284      1.0  0.88663  0.85665  0.89609  1.0000
  H   H503      1.0  0.85465  0.76821  0.86079  1.0000
  H   H504      1.0  0.91150  0.84563  0.83532  1.0000
  C   C285      1.0  0.87917  0.92355  0.68967  1.0000
  H   H505      1.0  0.90640  0.95920  0.69144  1.0000
  C   C286      1.0  0.80920  0.83070  0.68394  1.0000
  H   H506      1.0  0.95580  0.95265  0.95981  1.0000
  H   H507      1.0  0.86396  0.91487  0.96651  1.0000
  H   H508      1.0  0.83898  0.74712  0.68563  1.0000
  H   H509      1.0  0.01495  0.89854  0.83180  1.0000
  H   H510      1.0  0.85215  0.01889  0.76204  1.0000
  H   H511      1.0  0.78211  0.79490  0.68221  1.0000
  H   H512      1.0  0.98123  0.85779  0.68242  1.0000
  C   C287      1.0  0.02971  0.90976  0.86494  1.0000
  C   C288      1.0  0.03490  0.92811  0.68058  1.0000
