data_image0
_chemical_formula_structural       H2SCH2C3HCH9C2NHCH2CHCH3CH2C3HCH5C2H3CH6CHFeH4C6HFeHFeS2HFeS3C3H3C5H6SH5CHC3HC3HCH6CH2NCH6SCH2C3H4C3H2CH2NH3CH2C3H2CHSCHS2HSH3C3H2C4HFeH2CSCH2FeCHC3FeNC9HCH24SCH3C2H5NH3CH3CHCH2CH4Fe2SHSHSHFeS2C2H3C3HC3HCH2CHS2FeCH3CHNHCH4CHC2HCH2C2FeH2CHC3HSCH3CHNH2CHCHCH2CSCHCH2CH4NHSHCFeC3H2CH8SHCSC6H5CHCH2CH2CH2CH3CH2C2FeH2CHCH5NH3CH2NH3C3H3CHCH7CH2CHCH2C2H3SCFeSCHSFeHS2HFeHC6H6CH3FeH7C2HCHCNC2HC2H5CHSH4CH3SCH2CHC2HSH2CH3C2H2C2H2CHSH7FeH4FeSCFeS2CSCSHC8H4CH4CH7C2H3FeH4CH2C2H2CH4C2H3CH2CH3FeSFeHSCFeSHCH2C6H4CHCHCH4CSCHC2H2SH3CHNH8CH7C2HC2HCH4SH2CH2C2SH2CH7SCH2SH3SCHFeSH2FeS2FeSFeS2CH2C6H4CSC2H2C2HCHNC8HC3H22CH3CHCSH6CH2CH5CH3CFeSHSHNFeS2H2C6H4FeSH3C3SH2C2HC2H2C2H5CH10C5H3C3HSC2HCH6CFeCH2NH2CHCH2SH3CFeH2NC6H2SCSH3FeH2CSCSH4C2H2CHSCHFeSC2HFeH2C3H6NH3C2H5CSCH3CH5SC5HCH2SH4NC2HCHFeHSCSH2CHCHC4H2C2H3C2H4CHC2H5CH5CH3C2HSH5NC2HCHCHFeHSHC2H3CH3SHC3H2C2HC3H3FeH5N
_chemical_formula_sum              "H640 S80 C360 N20 Fe40"
_cell_length_a       42.1233
_cell_length_b       42.387
_cell_length_c       28.9167
_cell_angle_alpha    85.5825
_cell_angle_beta     85.146
_cell_angle_gamma    121.074

_space_group_name_H-M_alt    "P 1"
_space_group_IT_number       1

loop_
  _space_group_symop_operation_xyz
  'x, y, z'

loop_
  _atom_site_type_symbol
  _atom_site_label
  _atom_site_symmetry_multiplicity
  _atom_site_fract_x
  _atom_site_fract_y
  _atom_site_fract_z
  _atom_site_occupancy
  H   H1        1.0  0.15741  0.36873  0.35947  1.0000
  H   H2        1.0  0.02283  0.30039  0.43849  1.0000
  S   S1        1.0  0.27540  0.40653  0.41287  1.0000
  C   C1        1.0  0.30013  0.13075  0.42345  1.0000
  H   H3        1.0  0.11920  0.42502  0.46000  1.0000
  H   H4        1.0  0.21811  0.42505  0.42365  1.0000
  C   C2        1.0  0.23997  0.44484  0.39601  1.0000
  C   C3        1.0  0.06159  0.31184  0.37455  1.0000
  C   C4        1.0  0.12595  0.38790  0.32294  1.0000
  H   H5        1.0  0.20281  0.05624  0.45540  1.0000
  C   C5        1.0  0.27160  0.44259  0.38484  1.0000
  H   H6        1.0  0.08418  0.37231  0.41237  1.0000
  H   H7        1.0  0.12437  0.40638  0.34689  1.0000
  H   H8        1.0  0.12157  0.28592  0.35272  1.0000
  H   H9        1.0  0.06262  0.29613  0.34592  1.0000
  H   H10       1.0  0.33662  0.07301  0.43701  1.0000
  H   H11       1.0  0.14873  0.26959  0.41554  1.0000
  H   H12       1.0  0.24814  0.42605  0.25766  1.0000
  H   H13       1.0  0.30284  0.47220  0.13738  1.0000
  H   H14       1.0  0.10069  0.37601  0.30510  1.0000
  C   C6        1.0  0.16015  0.41232  0.28555  1.0000
  C   C7        1.0  0.09743  0.35720  0.42575  1.0000
  N   N1        1.0  0.09926  0.33317  0.39104  1.0000
  H   H15       1.0  0.16261  0.39548  0.25949  1.0000
  C   C8        1.0  0.02823  0.28468  0.41323  1.0000
  H   H16       1.0  0.22756  0.42124  0.20444  1.0000
  H   H17       1.0  0.03361  0.26488  0.43301  1.0000
  C   C9        1.0  0.12976  0.40821  0.47607  1.0000
  H   H18       1.0  0.27981  0.11799  0.39848  1.0000
  C   C10       1.0  0.13525  0.38587  0.44068  1.0000
  H   H19       1.0  0.15512  0.40603  0.41028  1.0000
  H   H20       1.0  0.12803  0.33842  0.32259  1.0000
  H   H21       1.0  0.31436  0.25749  0.44495  1.0000
  C   C11       1.0  0.28814  0.48594  0.15098  1.0000
  H   H22       1.0  0.05403  0.33136  0.35860  1.0000
  H   H23       1.0  0.07517  0.25571  0.38457  1.0000
  C   C12       1.0  0.10493  0.27512  0.38819  1.0000
  C   C13       1.0  0.10934  0.30724  0.41494  1.0000
  C   C14       1.0  0.30020  0.46862  0.34928  1.0000
  H   H24       1.0  0.09253  0.29447  0.45018  1.0000
  C   C15       1.0  0.11817  0.25231  0.41438  1.0000
  H   H25       1.0  0.11274  0.22831  0.39600  1.0000
  H   H26       1.0  0.15739  0.43451  0.26691  1.0000
  H   H27       1.0  0.13887  0.32306  0.42191  1.0000
  H   H28       1.0  0.18620  0.42595  0.30190  1.0000
  H   H29       1.0  0.07879  0.33955  0.45863  1.0000
  C   C16       1.0  0.12884  0.35631  0.34920  1.0000
  C   C17       1.0  0.23613  0.47187  0.37014  1.0000
  H   H30       1.0  0.27096  0.08281  0.47544  1.0000
  H   H31       1.0  0.26237  0.48669  0.22035  1.0000
  H   H32       1.0  0.23457  0.11791  0.45824  1.0000
  C   C18       1.0  0.28135  0.11280  0.47385  1.0000
  H   H33       1.0  0.14830  0.37171  0.45713  1.0000
  H   H34       1.0  0.31148  0.16115  0.41925  1.0000
  H   H35       1.0  0.28561  0.47955  0.05692  1.0000
  H   H36       1.0  0.26104  0.47223  0.13723  1.0000
  H   H37       1.0  0.30410  0.48483  0.22183  1.0000
  H   H38       1.0  0.32368  0.12653  0.41442  1.0000
  C   C19       1.0  0.27847  0.47500  0.20511  1.0000
  H   H39       1.0  0.10293  0.24143  0.45074  1.0000
  Fe  Fe1       1.0  0.23694  0.37189  0.47986  1.0000
  H   H40       1.0  0.32482  0.46708  0.34066  1.0000
  H   H41       1.0  0.21100  0.47270  0.37771  1.0000
  H   H42       1.0  0.26963  0.41951  0.20566  1.0000
  H   H43       1.0  0.27027  0.27488  0.47902  1.0000
  C   C20       1.0  0.25445  0.43280  0.21880  1.0000
  C   C21       1.0  0.29688  0.49634  0.32434  1.0000
  C   C22       1.0  0.30393  0.34687  0.67329  1.0000
  C   C23       1.0  0.29198  0.47508  0.68385  1.0000
  C   C24       1.0  0.04899  0.24525  0.53316  1.0000
  C   C25       1.0  0.24209  0.10842  0.57584  1.0000
  H   H44       1.0  0.25655  0.28970  0.67082  1.0000
  Fe  Fe2       1.0  0.16136  0.32865  0.54228  1.0000
  H   H45       1.0  0.22118  0.10335  0.60638  1.0000
  Fe  Fe3       1.0  0.23331  0.37798  0.58458  1.0000
  S   S2        1.0  0.26680  0.36387  0.53553  1.0000
  S   S3        1.0  0.27048  0.41689  0.63304  1.0000
  H   H46       1.0  0.23949  0.31088  0.74183  1.0000
  Fe  Fe4       1.0  0.21908  0.30485  0.55038  1.0000
  S   S4        1.0  0.23103  0.25942  0.57471  1.0000
  S   S5        1.0  0.20665  0.39008  0.52750  1.0000
  S   S6        1.0  0.18637  0.31810  0.60343  1.0000
  C   C26       1.0  0.26461  0.45072  0.65822  1.0000
  C   C27       1.0  0.23406  0.45451  0.65238  1.0000
  C   C28       1.0  0.27896  0.25991  0.50135  1.0000
  H   H47       1.0  0.21269  0.43583  0.63297  1.0000
  H   H48       1.0  0.31572  0.47239  0.68860  1.0000
  H   H49       1.0  0.23975  0.34749  0.70466  1.0000
  C   C29       1.0  0.01258  0.21680  0.52743  1.0000
  C   C30       1.0  0.02638  0.28685  0.54110  1.0000
  C   C31       1.0  0.26458  0.24971  0.54909  1.0000
  C   C32       1.0  0.27584  0.22965  0.57726  1.0000
  C   C33       1.0  0.30136  0.22021  0.55813  1.0000
  H   H50       1.0  0.20615  0.29939  0.70130  1.0000
  H   H51       1.0  0.26326  0.13884  0.57087  1.0000
  H   H52       1.0  0.26451  0.22111  0.61410  1.0000
  H   H53       1.0  0.14886  0.13199  0.57643  1.0000
  H   H54       1.0  0.25561  0.09277  0.66767  1.0000
  H   H55       1.0  0.29971  0.32459  0.58866  1.0000
  S   S7        1.0  0.10189  0.31831  0.54502  1.0000
  H   H56       1.0  0.31560  0.29623  0.69910  1.0000
  H   H57       1.0  0.29558  0.09004  0.64687  1.0000
  H   H58       1.0  0.32819  0.48342  0.56836  1.0000
  H   H59       1.0  0.26818  0.47454  0.55821  1.0000
  H   H60       1.0  0.29622  0.13264  0.63304  1.0000
  C   C34       1.0  0.26167  0.08806  0.59329  1.0000
  H   H61       1.0  0.03150  0.31397  0.54647  1.0000
  C   C35       1.0  0.20545  0.05635  0.53138  1.0000
  C   C36       1.0  0.26250  0.31854  0.66842  1.0000
  C   C37       1.0  0.05616  0.28054  0.54002  1.0000
  H   H62       1.0  0.20701  0.48484  0.66789  1.0000
  C   C38       1.0  0.27829  0.10184  0.63786  1.0000
  C   C39       1.0  0.29561  0.01985  0.53021  1.0000
  C   C40       1.0  0.23547  0.31924  0.70650  1.0000
  H   H63       1.0  0.25608  0.32575  0.63422  1.0000
  C   C41       1.0  0.31535  0.23002  0.51024  1.0000
  H   H64       1.0  0.21616  0.15351  0.57569  1.0000
  H   H65       1.0  0.24139  0.05768  0.60276  1.0000
  H   H66       1.0  0.18529  0.04054  0.56411  1.0000
  H   H67       1.0  0.30592  0.28366  0.64281  1.0000
  H   H68       1.0  0.30968  0.20476  0.58021  1.0000
  H   H69       1.0  0.30595  0.34391  0.71131  1.0000
  C   C42       1.0  0.31454  0.02059  0.56801  1.0000
  H   H70       1.0  0.28441  0.09231  0.56656  1.0000
  H   H71       1.0  0.27347  0.48346  0.49694  1.0000
  N   N2        1.0  0.22321  0.09761  0.53244  1.0000
  C   C43       1.0  0.23094  0.48235  0.67215  1.0000
  H   H72       1.0  0.07143  0.23981  0.53239  1.0000
  H   H73       1.0  0.29851  0.04530  0.51437  1.0000
  H   H74       1.0  0.00738  0.18960  0.52230  1.0000
  H   H75       1.0  0.16951  0.08655  0.56497  1.0000
  H   H76       1.0  0.17948  0.18000  0.55111  1.0000
  H   H77       1.0  0.20201  0.46343  0.54343  1.0000
  S   S8        1.0  0.19072  0.31132  0.49028  1.0000
  C   C44       1.0  0.19213  0.10572  0.53564  1.0000
  H   H78       1.0  0.22653  0.04812  0.53148  1.0000
  H   H79       1.0  0.30891  0.37530  0.66411  1.0000
  C   C45       1.0  0.21670  0.49084  0.52069  1.0000
  C   C46       1.0  0.20387  0.14616  0.54283  1.0000
  C   C47       1.0  0.17020  0.15089  0.54609  1.0000
  H   H80       1.0  0.33078  0.37353  0.58361  1.0000
  H   H81       1.0  0.32180  0.33779  0.50151  1.0000
  H   H82       1.0  0.15737  0.14516  0.51335  1.0000
  H   H83       1.0  0.22467  0.16665  0.51316  1.0000
  C   C48       1.0  0.32826  0.34635  0.59406  1.0000
  C   C49       1.0  0.33431  0.47514  0.49598  1.0000
  C   C50       1.0  0.32746  0.30522  0.66120  1.0000
  H   H84       1.0  0.10974  0.38947  0.50748  1.0000
  H   H85       1.0  0.33239  0.24333  0.64529  1.0000
  C   C51       1.0  0.30394  0.24990  0.48209  1.0000
  H   H86       1.0  0.30437  0.45511  0.49397  1.0000
  H   H87       1.0  0.30305  0.12522  0.49704  1.0000
  N   N3        1.0  0.33322  0.34285  0.64491  1.0000
  H   H88       1.0  0.15695  0.42722  0.48765  1.0000
  H   H89       1.0  0.26499  0.15071  0.49181  1.0000
  H   H90       1.0  0.17874  0.10048  0.50324  1.0000
  C   C52       1.0  0.25013  0.12057  0.48842  1.0000
  H   H91       1.0  0.21870  0.48662  0.48334  1.0000
  H   H92       1.0  0.15919  0.04306  0.49058  1.0000
  C   C53       1.0  0.18443  0.04097  0.48919  1.0000
  C   C54       1.0  0.17132  0.99989  0.48964  1.0000
  C   C55       1.0  0.28694  0.50653  0.05369  1.0000
  H   H93       1.0  0.29444  0.54736  0.99621  1.0000
  H   H94       1.0  0.20655  0.54065  0.16020  1.0000
  C   C56       1.0  0.30132  0.61942  0.01985  1.0000
  H   H95       1.0  0.27140  0.60424  0.01930  1.0000
  S   S9        1.0  0.29919  0.80920  0.42882  1.0000
  C   C57       1.0  0.25362  0.53431  0.14081  1.0000
  H   H96       1.0  0.21956  0.59178  0.43105  1.0000
  S   S10       1.0  0.29274  0.62469  0.22993  1.0000
  S   S11       1.0  0.27265  0.67916  0.31309  1.0000
  H   H97       1.0  0.25521  0.54315  0.10311  1.0000
  S   S12       1.0  0.25694  0.52804  0.29853  1.0000
  H   H98       1.0  0.29598  0.62375  0.09401  1.0000
  H   H99       1.0  0.09571  0.78645  0.37148  1.0000
  H   H100      1.0  0.29502  0.53873  0.44023  1.0000
  C   C58       1.0  0.29349  0.54752  0.15239  1.0000
  C   C59       1.0  0.31516  0.63019  0.06252  1.0000
  C   C60       1.0  0.26451  0.49759  0.33412  1.0000
  H   H101      1.0  0.25151  0.58212  0.15921  1.0000
  H   H102      1.0  0.25437  0.63955  0.40912  1.0000
  C   C61       1.0  0.29292  0.77103  0.40142  1.0000
  C   C62       1.0  0.25861  0.73719  0.40899  1.0000
  C   C63       1.0  0.25328  0.70862  0.38289  1.0000
  C   C64       1.0  0.28251  0.71329  0.35013  1.0000
  H   H103      1.0  0.12758  0.81332  0.41105  1.0000
  Fe  Fe5       1.0  0.30388  0.58821  0.27750  1.0000
  H   H104      1.0  0.23591  0.73354  0.43373  1.0000
  H   H105      1.0  0.22620  0.68308  0.38725  1.0000
  C   C65       1.0  0.12422  0.81022  0.37369  1.0000
  S   S13       1.0  0.32163  0.62617  0.33198  1.0000
  C   C66       1.0  0.31752  0.74624  0.34475  1.0000
  H   H106      1.0  0.10804  0.68422  0.25221  1.0000
  H   H107      1.0  0.25898  0.50095  0.06751  1.0000
  Fe  Fe6       1.0  0.25277  0.80415  0.48037  1.0000
  C   C67       1.0  0.02819  0.74070  0.46446  1.0000
  H   H108      1.0  0.12720  0.83603  0.35608  1.0000
  C   C68       1.0  0.31459  0.76768  0.00672  1.0000
  C   C69       1.0  0.32259  0.77516  0.37009  1.0000
  C   C70       1.0  0.24505  0.61696  0.43866  1.0000
  Fe  Fe7       1.0  0.31421  0.66446  0.28286  1.0000
  N   N4        1.0  0.17204  0.75443  0.34493  1.0000
  C   C71       1.0  0.15066  0.76807  0.37283  1.0000
  C   C72       1.0  0.17132  0.72354  0.37568  1.0000
  C   C73       1.0  0.21258  0.78605  0.33364  1.0000
  C   C74       1.0  0.15713  0.74198  0.29974  1.0000
  C   C75       1.0  0.11427  0.72398  0.29973  1.0000
  C   C76       1.0  0.15426  0.80438  0.35006  1.0000
  C   C77       1.0  0.23974  0.77812  0.30424  1.0000
  C   C78       1.0  0.13279  0.68725  0.39105  1.0000
  C   C79       1.0  0.10245  0.70698  0.25484  1.0000
  H   H109      1.0  0.10760  0.63550  0.43858  1.0000
  C   C80       1.0  0.27892  0.81306  0.29234  1.0000
  H   H110      1.0  0.16000  0.77323  0.40776  1.0000
  H   H111      1.0  0.12044  0.74641  0.38128  1.0000
  H   H112      1.0  0.18894  0.71444  0.35776  1.0000
  H   H113      1.0  0.18362  0.73402  0.40797  1.0000
  H   H114      1.0  0.22427  0.79562  0.36658  1.0000
  H   H115      1.0  0.21488  0.81050  0.31291  1.0000
  H   H116      1.0  0.17072  0.76601  0.27100  1.0000
  H   H117      1.0  0.16502  0.72213  0.28816  1.0000
  H   H118      1.0  0.10647  0.74522  0.30161  1.0000
  H   H119      1.0  0.09736  0.70186  0.32974  1.0000
  H   H120      1.0  0.18184  0.82881  0.35416  1.0000
  H   H121      1.0  0.15216  0.80423  0.31210  1.0000
  H   H122      1.0  0.22973  0.76858  0.27078  1.0000
  H   H123      1.0  0.24304  0.75674  0.32354  1.0000
  H   H124      1.0  0.12325  0.67207  0.36056  1.0000
  H   H125      1.0  0.11124  0.69254  0.40617  1.0000
  H   H126      1.0  0.33197  0.79781  0.99281  1.0000
  H   H127      1.0  0.14438  0.67504  0.46009  1.0000
  H   H128      1.0  0.15581  0.65393  0.41455  1.0000
  H   H129      1.0  0.11781  0.72851  0.22354  1.0000
  H   H130      1.0  0.26735  0.61049  0.44080  1.0000
  H   H131      1.0  0.29026  0.82370  0.32487  1.0000
  H   H132      1.0  0.29811  0.80625  0.27311  1.0000
  H   H133      1.0  0.27831  0.83517  0.26993  1.0000
  S   S14       1.0  0.21367  0.82240  0.46098  1.0000
  C   C81       1.0  0.23533  0.55144  0.16861  1.0000
  H   H134      1.0  0.28448  0.75859  0.01056  1.0000
  H   H135      1.0  0.27325  0.68667  0.46699  1.0000
  H   H136      1.0  0.23468  0.50376  0.14916  1.0000
  C   C82       1.0  0.13548  0.66141  0.42830  1.0000
  C   C83       1.0  0.32238  0.54061  0.43819  1.0000
  H   H137      1.0  0.07195  0.69518  0.25522  1.0000
  H   H138      1.0  0.32160  0.76348  0.04197  1.0000
  H   H139      1.0  0.23341  0.54414  0.20690  1.0000
  H   H140      1.0  0.33433  0.56236  0.36417  1.0000
  H   H141      1.0  0.31749  0.51335  0.43097  1.0000
  N   N5        1.0  0.31132  0.52719  0.13332  1.0000
  H   H142      1.0  0.31090  0.57770  0.13861  1.0000
  H   H143      1.0  0.31885  0.51602  0.29660  1.0000
  H   H144      1.0  0.02446  0.76405  0.45891  1.0000
  C   C84       1.0  0.29483  0.52133  0.00146  1.0000
  H   H145      1.0  0.29293  0.54657  0.19106  1.0000
  H   H146      1.0  0.32325  0.74057  0.47112  1.0000
  H   H147      1.0  0.33299  0.94875  0.41149  1.0000
  C   C85       1.0  0.06267  0.74672  0.47588  1.0000
  H   H148      1.0  0.15601  0.98934  0.45948  1.0000
  C   C86       1.0  0.31828  0.53416  0.08016  1.0000
  H   H149      1.0  0.31204  0.91656  0.46503  1.0000
  H   H150      1.0  0.32523  0.56285  0.06737  1.0000
  C   C87       1.0  0.03867  0.68112  0.47754  1.0000
  H   H151      1.0  0.08494  0.77438  0.47969  1.0000
  H   H152      1.0  0.27293  0.50048  0.98295  1.0000
  H   H153      1.0  0.30558  0.71548  0.99051  1.0000
  H   H154      1.0  0.32255  0.52704  0.98550  1.0000
  Fe  Fe8       1.0  0.33543  0.67208  0.75200  1.0000
  Fe  Fe9       1.0  0.21958  0.78304  0.58316  1.0000
  S   S15       1.0  0.21468  0.74953  0.65169  1.0000
  H   H155      1.0  0.33690  0.81553  0.79506  1.0000
  S   S16       1.0  0.17813  0.80077  0.57233  1.0000
  H   H156      1.0  0.28621  0.74818  0.92745  1.0000
  S   S17       1.0  0.28538  0.62379  0.79756  1.0000
  H   H157      1.0  0.03613  0.73375  0.59175  1.0000
  Fe  Fe10      1.0  0.29817  0.58764  0.75599  1.0000
  S   S18       1.0  0.25304  0.54122  0.72205  1.0000
  S   S19       1.0  0.33470  0.58452  0.80623  1.0000
  C   C88       1.0  0.28680  0.95310  0.57174  1.0000
  C   C89       1.0  0.19824  0.64789  0.57586  1.0000
  H   H158      1.0  0.28886  0.64062  0.56678  1.0000
  H   H159      1.0  0.27444  0.60884  0.65492  1.0000
  H   H160      1.0  0.19962  0.63928  0.61247  1.0000
  C   C90       1.0  0.31505  0.75820  0.65886  1.0000
  C   C91       1.0  0.25015  0.74164  0.66664  1.0000
  C   C92       1.0  0.28714  0.76396  0.64431  1.0000
  H   H161      1.0  0.16358  0.66440  0.54207  1.0000
  C   C93       1.0  0.30611  0.72946  0.69489  1.0000
  C   C94       1.0  0.26900  0.70669  0.71670  1.0000
  C   C95       1.0  0.24122  0.71301  0.70288  1.0000
  H   H162      1.0  0.29439  0.78638  0.61685  1.0000
  C   C96       1.0  0.31491  0.74509  0.50629  1.0000
  H   H163      1.0  0.26182  0.68466  0.74473  1.0000
  H   H164      1.0  0.21268  0.69572  0.72044  1.0000
  C   C97       1.0  0.26753  0.95225  0.53428  1.0000
  H   H165      1.0  0.26451  0.63130  0.69941  1.0000
  S   S20       1.0  0.30632  0.61530  0.92464  1.0000
  S   S21       1.0  0.26883  0.83564  0.54207  1.0000
  Fe  Fe11      1.0  0.16789  0.77128  0.50871  1.0000
  C   C98       1.0  0.27757  0.69127  0.89154  1.0000
  H   H166      1.0  0.32914  0.70767  0.54044  1.0000
  H   H167      1.0  0.28343  0.92754  0.58817  1.0000
  H   H168      1.0  0.25666  0.69788  0.88100  1.0000
  C   C99       1.0  0.25897  0.62273  0.66421  1.0000
  H   H169      1.0  0.33400  0.78408  0.75460  1.0000
  N   N6        1.0  0.32109  0.52372  0.52777  1.0000
  H   H170      1.0  0.29074  0.74873  0.50490  1.0000
  C   C100      1.0  0.27044  0.66511  0.49430  1.0000
  H   H171      1.0  0.25209  0.52026  0.57062  1.0000
  H   H172      1.0  0.25611  0.67010  0.63873  1.0000
  H   H173      1.0  0.22843  0.60261  0.66610  1.0000
  H   H174      1.0  0.28548  0.76475  0.85034  1.0000
  C   C101      1.0  0.25933  0.66662  0.93978  1.0000
  H   H175      1.0  0.30483  0.72186  0.57837  1.0000
  C   C102      1.0  0.31768  0.78910  0.78202  1.0000
  C   C103      1.0  0.32246  0.74494  0.97428  1.0000
  H   H176      1.0  0.31542  0.56275  0.56673  1.0000
  C   C104      1.0  0.32652  0.54401  0.57003  1.0000
  H   H177      1.0  0.18934  0.62365  0.55691  1.0000
  H   H178      1.0  0.27597  0.73230  0.80915  1.0000
  C   C105      1.0  0.27953  0.49768  0.52858  1.0000
  C   C106      1.0  0.23664  0.68211  0.55260  1.0000
  Fe  Fe12      1.0  0.22682  0.85121  0.52567  1.0000
  H   H179      1.0  0.07049  0.70623  0.66202  1.0000
  H   H180      1.0  0.29619  0.79208  0.76580  1.0000
  C   C107      1.0  0.27217  0.98588  0.51362  1.0000
  H   H181      1.0  0.24363  0.70367  0.57635  1.0000
  C   C108      1.0  0.25833  0.50676  0.69773  1.0000
  C   C109      1.0  0.03622  0.71060  0.61233  1.0000
  C   C110      1.0  0.30981  0.98698  0.58873  1.0000
  H   H182      1.0  0.27936  0.67385  0.86564  1.0000
  S   S22       1.0  0.20679  0.75105  0.52229  1.0000
  C   C111      1.0  0.30516  0.71202  0.54387  1.0000
  H   H183      1.0  0.25738  0.98557  0.48468  1.0000
  H   H184      1.0  0.24002  0.61981  0.58060  1.0000
  H   H185      1.0  0.14057  0.63230  0.59559  1.0000
  C   C112      1.0  0.27197  0.65692  0.62838  1.0000
  H   H186      1.0  0.04334  0.69575  0.58752  1.0000
  N   N7        1.0  0.26875  0.67594  0.54259  1.0000
  H   H187      1.0  0.31017  0.52156  0.72314  1.0000
  H   H188      1.0  0.17455  0.68037  0.59829  1.0000
  C   C113      1.0  0.06792  0.72803  0.64193  1.0000
  H   H189      1.0  0.23250  0.61356  0.91250  1.0000
  C   C114      1.0  0.25569  0.51580  0.53362  1.0000
  H   H190      1.0  0.33123  0.73093  0.81493  1.0000
  C   C115      1.0  0.16746  0.65693  0.57793  1.0000
  H   H191      1.0  0.30204  0.67682  0.63018  1.0000
  H   H192      1.0  0.22764  0.60474  0.51251  1.0000
  C   C116      1.0  0.23629  0.62827  0.48474  1.0000
  S   S23       1.0  0.23697  0.91018  0.51234  1.0000
  C   C117      1.0  0.26685  0.64673  0.57810  1.0000
  H   H193      1.0  0.33458  0.78083  0.91036  1.0000
  C   C118      1.0  0.06829  0.71700  0.48191  1.0000
  H   H194      1.0  0.09484  0.74701  0.61857  1.0000
  H   H195      1.0  0.15218  0.98305  0.52251  1.0000
  C   C119      1.0  0.22467  0.62924  0.93516  1.0000
  H   H196      1.0  0.23219  0.69383  0.51968  1.0000
  H   H197      1.0  0.06302  0.74444  0.66658  1.0000
  H   H198      1.0  0.29596  0.66367  0.48647  1.0000
  H   H199      1.0  0.20352  0.63339  0.91997  1.0000
  N   N8        1.0  0.31549  0.72626  0.88976  1.0000
  H   H200      1.0  0.32394  0.98708  0.61832  1.0000
  S   S24       1.0  0.11164  0.72286  0.49400  1.0000
  H   H201      1.0  0.26932  0.54316  0.51112  1.0000
  C   C120      1.0  0.32663  0.74710  0.84056  1.0000
  Fe  Fe13      1.0  0.32620  0.62473  0.84479  1.0000
  C   C121      1.0  0.32575  0.62865  0.97779  1.0000
  C   C122      1.0  0.31410  0.75093  0.92402  1.0000
  C   C123      1.0  0.29859  0.75683  0.82238  1.0000
  H   H202      1.0  0.30997  0.52387  0.60229  1.0000
  H   H203      1.0  0.27874  0.66069  0.95629  1.0000
  C   C124      1.0  0.28898  0.50308  0.70335  1.0000
  H   H204      1.0  0.19997  0.50402  0.52586  1.0000
  H   H205      1.0  0.04274  0.65792  0.48188  1.0000
  H   H206      1.0  0.21198  0.61229  0.97029  1.0000
  H   H207      1.0  0.25017  0.68064  0.96366  1.0000
  H   H208      1.0  0.19565  0.99617  0.48661  1.0000
  H   H209      1.0  0.21236  0.63210  0.48148  1.0000
  H   H210      1.0  0.62474  0.48831  0.41494  1.0000
  H   H211      1.0  0.62868  0.31324  0.17347  1.0000
  S   S25       1.0  0.60591  0.31597  0.28625  1.0000
  H   H212      1.0  0.56930  0.21030  0.15177  1.0000
  C   C125      1.0  0.59216  0.33364  0.08015  1.0000
  S   S26       1.0  0.48297  0.17539  0.43037  1.0000
  C   C126      1.0  0.51837  0.21604  0.39347  1.0000
  C   C127      1.0  0.54984  0.21670  0.37168  1.0000
  C   C128      1.0  0.57751  0.24776  0.34003  1.0000
  C   C129      1.0  0.57345  0.27810  0.32913  1.0000
  C   C130      1.0  0.54248  0.27788  0.35179  1.0000
  C   C131      1.0  0.51521  0.24712  0.38428  1.0000
  H   H213      1.0  0.55270  0.19295  0.37885  1.0000
  H   H214      1.0  0.60134  0.24770  0.32292  1.0000
  H   H215      1.0  0.53924  0.30131  0.34363  1.0000
  H   H216      1.0  0.49107  0.24690  0.40082  1.0000
  H   H217      1.0  0.64025  0.36697  0.47084  1.0000
  C   C132      1.0  0.39740  0.00258  0.44686  1.0000
  H   H218      1.0  0.58569  0.38689  0.17075  1.0000
  C   C133      1.0  0.62278  0.34693  0.44788  1.0000
  H   H219      1.0  0.59718  0.36101  0.06467  1.0000
  H   H220      1.0  0.52061  0.36885  0.19219  1.0000
  C   C134      1.0  0.59812  0.32447  0.99439  1.0000
  H   H221      1.0  0.63306  0.39682  0.12150  1.0000
  H   H222      1.0  0.51505  0.08254  0.37600  1.0000
  C   C135      1.0  0.45353  0.06516  0.44244  1.0000
  H   H223      1.0  0.61019  0.35443  0.98183  1.0000
  H   H224      1.0  0.50607  0.10805  0.33157  1.0000
  C   C136      1.0  0.63992  0.37500  0.12782  1.0000
  H   H225      1.0  0.47057  0.05284  0.45084  1.0000
  H   H226      1.0  0.56606  0.22929  0.46966  1.0000
  H   H227      1.0  0.56088  0.26238  0.12586  1.0000
  C   C137      1.0  0.57566  0.33110  0.16488  1.0000
  H   H228      1.0  0.53178  0.34183  0.23121  1.0000
  H   H229      1.0  0.60545  0.24257  0.10494  1.0000
  C   C138      1.0  0.65708  0.20765  0.46278  1.0000
  C   C139      1.0  0.56373  0.36015  0.16091  1.0000
  Fe  Fe14      1.0  0.66184  0.32173  0.26526  1.0000
  H   H230      1.0  0.56721  0.30916  0.99575  1.0000
  H   H231      1.0  0.63130  0.30191  0.46858  1.0000
  C   C140      1.0  0.52784  0.34707  0.19448  1.0000
  H   H232      1.0  0.61533  0.24268  0.16467  1.0000
  C   C141      1.0  0.46009  0.07628  0.38869  1.0000
  H   H233      1.0  0.63050  0.33858  0.37539  1.0000
  H   H234      1.0  0.59750  0.28937  0.05213  1.0000
  H   H235      1.0  0.37966  0.10541  0.39802  1.0000
  H   H236      1.0  0.54975  0.30344  0.16555  1.0000
  H   H237      1.0  0.59005  0.28869  0.44387  1.0000
  N   N9        1.0  0.60605  0.33678  0.12720  1.0000
  H   H238      1.0  0.59931  0.35065  0.44126  1.0000
  H   H239      1.0  0.38828  0.05332  0.38231  1.0000
  H   H240      1.0  0.50411  0.32115  0.18523  1.0000
  C   C142      1.0  0.60861  0.31947  0.04254  1.0000
  H   H241      1.0  0.55874  0.36527  0.12479  1.0000
  H   H242      1.0  0.46632  0.09217  0.45646  1.0000
  N   N10       1.0  0.41341  0.03943  0.46538  1.0000
  H   H243      1.0  0.34879  0.49175  0.46112  1.0000
  H   H244      1.0  0.64727  0.26361  0.00864  1.0000
  H   H245      1.0  0.58436  0.33070  0.20016  1.0000
  C   C143      1.0  0.61566  0.30788  0.14067  1.0000
  C   C144      1.0  0.35583  0.07606  0.40591  1.0000
  C   C145      1.0  0.65083  0.23528  0.43398  1.0000
  H   H246      1.0  0.56119  0.31436  0.08437  1.0000
  H   H247      1.0  0.44868  0.09413  0.37997  1.0000
  H   H248      1.0  0.64902  0.37704  0.16321  1.0000
  C   C146      1.0  0.50196  0.09922  0.36988  1.0000
  H   H249      1.0  0.51624  0.12460  0.38716  1.0000
  C   C147      1.0  0.37018  0.04993  0.41464  1.0000
  H   H250      1.0  0.65657  0.18774  0.43948  1.0000
  H   H251      1.0  0.63947  0.33401  0.03864  1.0000
  H   H252      1.0  0.34555  0.02105  0.41983  1.0000
  H   H253      1.0  0.39501  0.00551  0.40912  1.0000
  H   H254      1.0  0.63751  0.30995  0.11429  1.0000
  H   H255      1.0  0.66793  0.39193  0.05508  1.0000
  H   H256      1.0  0.56776  0.26046  0.18617  1.0000
  C   C148      1.0  0.58190  0.26695  0.14941  1.0000
  H   H257      1.0  0.44722  0.05170  0.36997  1.0000
  H   H258      1.0  0.64912  0.25466  0.45628  1.0000
  C   C149      1.0  0.59392  0.23907  0.14223  1.0000
  H   H259      1.0  0.65810  0.38610  0.38584  1.0000
  C   C150      1.0  0.64719  0.35676  0.40054  1.0000
  H   H260      1.0  0.62417  0.22000  0.41924  1.0000
  H   H261      1.0  0.40897  0.08823  0.45749  1.0000
  C   C151      1.0  0.39084  0.05749  0.45839  1.0000
  C   C152      1.0  0.60739  0.30624  0.46930  1.0000
  H   H262      1.0  0.65725  0.48496  0.37403  1.0000
  H   H263      1.0  0.34022  0.06919  0.37544  1.0000
  H   H264      1.0  0.50476  0.31688  0.47996  1.0000
  S   S27       1.0  0.64305  0.31802  0.78990  1.0000
  C   C153      1.0  0.35203  0.45240  0.50766  1.0000
  Fe  Fe15      1.0  0.64635  0.27908  0.74410  1.0000
  S   S28       1.0  0.60004  0.23157  0.71330  1.0000
  C   C154      1.0  0.54778  0.29108  0.51654  1.0000
  H   H265      1.0  0.60344  0.25518  0.53355  1.0000
  S   S29       1.0  0.37228  0.16969  0.58825  1.0000
  Fe  Fe16      1.0  0.43549  0.20227  0.57798  1.0000
  H   H266      1.0  0.36736  0.35248  0.72452  1.0000
  S   S30       1.0  0.47163  0.24245  0.62571  1.0000
  S   S31       1.0  0.43924  0.15475  0.55620  1.0000
  H   H267      1.0  0.37766  0.31136  0.61945  1.0000
  Fe  Fe17      1.0  0.37837  0.19229  0.51303  1.0000
  H   H268      1.0  0.43165  0.43243  0.68490  1.0000
  C   C155      1.0  0.56501  0.23546  0.68841  1.0000
  C   C156      1.0  0.56327  0.26755  0.68836  1.0000
  C   C157      1.0  0.53442  0.26923  0.66921  1.0000
  C   C158      1.0  0.50739  0.23913  0.64940  1.0000
  C   C159      1.0  0.50942  0.20724  0.64891  1.0000
  C   C160      1.0  0.53810  0.20545  0.66834  1.0000
  H   H269      1.0  0.58376  0.29079  0.70383  1.0000
  H   H270      1.0  0.53294  0.29393  0.66998  1.0000
  H   H271      1.0  0.48853  0.18372  0.63432  1.0000
  H   H272      1.0  0.53912  0.18046  0.66848  1.0000
  H   H273      1.0  0.43559  0.39178  0.69273  1.0000
  H   H274      1.0  0.60778  0.18378  0.64093  1.0000
  C   C161      1.0  0.54612  0.32581  0.52642  1.0000
  H   H275      1.0  0.48546  0.29840  0.54118  1.0000
  H   H276      1.0  0.65376  0.15277  0.50939  1.0000
  H   H277      1.0  0.38448  0.35977  0.56241  1.0000
  Fe  Fe18      1.0  0.37646  0.12365  0.55902  1.0000
  H   H278      1.0  0.57014  0.18641  0.52944  1.0000
  H   H279      1.0  0.63968  0.21158  0.56047  1.0000
  H   H280      1.0  0.42386  0.40849  0.74288  1.0000
  H   H281      1.0  0.41980  0.08360  0.53646  1.0000
  H   H282      1.0  0.60965  0.31333  0.96876  1.0000
  H   H283      1.0  0.38475  0.01402  0.53611  1.0000
  H   H284      1.0  0.46306  0.08405  0.53151  1.0000
  C   C162      1.0  0.57701  0.25519  0.53437  1.0000
  C   C163      1.0  0.42684  0.05542  0.59603  1.0000
  H   H285      1.0  0.36377  0.39298  0.71817  1.0000
  C   C164      1.0  0.54373  0.18613  0.52819  1.0000
  H   H286      1.0  0.36798  0.34700  0.48252  1.0000
  C   C165      1.0  0.55190  0.22398  0.50600  1.0000
  N   N11       1.0  0.58498  0.29362  0.51775  1.0000
  C   C166      1.0  0.60617  0.31850  0.55282  1.0000
  C   C167      1.0  0.35172  0.26138  0.66856  1.0000
  H   H287      1.0  0.39657  0.03812  0.61032  1.0000
  C   C168      1.0  0.64381  0.32202  0.56044  1.0000
  C   C169      1.0  0.37116  0.37493  0.65112  1.0000
  H   H288      1.0  0.64140  0.08782  0.52861  1.0000
  H   H289      1.0  0.66998  0.22521  0.97311  1.0000
  H   H290      1.0  0.58823  0.30830  0.58775  1.0000
  H   H291      1.0  0.61232  0.34714  0.54341  1.0000
  H   H292      1.0  0.66235  0.32960  0.52673  1.0000
  C   C170      1.0  0.43238  0.06664  0.54308  1.0000
  H   H293      1.0  0.54814  0.32930  0.56400  1.0000
  S   S32       1.0  0.44150  0.22767  0.50413  1.0000
  H   H294      1.0  0.63882  0.29547  0.57871  1.0000
  H   H295      1.0  0.34663  0.31260  0.56107  1.0000
  H   H296      1.0  0.38251  0.31837  0.67918  1.0000
  H   H297      1.0  0.38270  0.47096  0.50709  1.0000
  C   C171      1.0  0.50921  0.32178  0.51670  1.0000
  H   H298      1.0  0.56354  0.24640  0.57167  1.0000
  H   H299      1.0  0.63048  0.16484  0.57322  1.0000
  H   H300      1.0  0.44044  0.03957  0.60439  1.0000
  S   S33       1.0  0.37904  0.14428  0.48429  1.0000
  C   C172      1.0  0.66475  0.35203  0.59127  1.0000
  H   H301      1.0  0.39404  0.37300  0.63239  1.0000
  H   H302      1.0  0.37724  0.25967  0.66433  1.0000
  C   C173      1.0  0.41994  0.40465  0.70577  1.0000
  H   H303      1.0  0.52574  0.26819  0.54349  1.0000
  C   C174      1.0  0.37823  0.37968  0.70268  1.0000
  C   C175      1.0  0.41387  0.03203  0.51730  1.0000
  H   H304      1.0  0.64762  0.34508  0.62618  1.0000
  S   S34       1.0  0.34332  0.06230  0.59171  1.0000
  H   H305      1.0  0.37529  0.40168  0.63450  1.0000
  H   H306      1.0  0.36881  0.04851  0.48901  1.0000
  C   C176      1.0  0.63811  0.19424  0.63239  1.0000
  H   H307      1.0  0.52829  0.17870  0.56427  1.0000
  H   H308      1.0  0.43955  0.08078  0.61355  1.0000
  H   H309      1.0  0.36232  0.38364  0.50130  1.0000
  C   C177      1.0  0.36251  0.30169  0.65563  1.0000
  C   C178      1.0  0.64769  0.19391  0.58032  1.0000
  H   H310      1.0  0.63310  0.19184  0.49122  1.0000
  H   H311      1.0  0.65424  0.22296  0.64140  1.0000
  C   C179      1.0  0.35469  0.34220  0.55792  1.0000
  C   C180      1.0  0.35142  0.35338  0.50783  1.0000
  H   H312      1.0  0.64752  0.17806  0.96041  1.0000
  H   H313      1.0  0.50966  0.34762  0.52233  1.0000
  C   C181      1.0  0.66547  0.20775  0.94473  1.0000
  H   H314      1.0  0.56913  0.35166  0.50504  1.0000
  S   S35       1.0  0.34521  0.21637  0.48318  1.0000
  H   H315      1.0  0.53753  0.28327  0.48243  1.0000
  H   H316      1.0  0.65051  0.21389  0.91902  1.0000
  H   H317      1.0  0.52460  0.22175  0.50448  1.0000
  H   H318      1.0  0.42817  0.01643  0.52356  1.0000
  H   H319      1.0  0.64443  0.17607  0.65441  1.0000
  H   H320      1.0  0.33921  0.43546  0.54279  1.0000
  H   H321      1.0  0.52601  0.16444  0.50698  1.0000
  Fe  Fe19      1.0  0.44147  0.17796  0.48286  1.0000
  H   H322      1.0  0.66997  0.13565  0.58246  1.0000
  H   H323      1.0  0.33801  0.25086  0.70558  1.0000
  H   H324      1.0  0.34721  0.43335  0.48111  1.0000
  H   H325      1.0  0.38442  0.58846  0.09210  1.0000
  Fe  Fe20      1.0  0.61249  0.78760  0.43875  1.0000
  S   S36       1.0  0.58453  0.78561  0.37393  1.0000
  C   C182      1.0  0.35863  0.97087  0.47313  1.0000
  Fe  Fe21      1.0  0.38010  0.65343  0.29284  1.0000
  S   S37       1.0  0.36236  0.61211  0.24110  1.0000
  S   S38       1.0  0.42227  0.65685  0.34057  1.0000
  C   C183      1.0  0.49124  0.78199  0.46373  1.0000
  S   S39       1.0  0.37322  0.66622  0.11646  1.0000
  C   C184      1.0  0.33908  0.93898  0.44441  1.0000
  S   S40       1.0  0.37417  0.69512  0.24653  1.0000
  H   H326      1.0  0.37094  0.60194  0.14380  1.0000
  C   C185      1.0  0.52997  0.81716  0.45964  1.0000
  C   C186      1.0  0.35378  0.65033  0.06402  1.0000
  C   C187      1.0  0.53883  0.74996  0.36619  1.0000
  C   C188      1.0  0.51988  0.75761  0.33352  1.0000
  C   C189      1.0  0.48412  0.72964  0.32517  1.0000
  C   C190      1.0  0.46728  0.69347  0.34883  1.0000
  C   C191      1.0  0.48631  0.68580  0.38131  1.0000
  C   C192      1.0  0.52165  0.71392  0.39039  1.0000
  H   H327      1.0  0.53303  0.78535  0.31436  1.0000
  H   H328      1.0  0.46988  0.73596  0.30002  1.0000
  H   H329      1.0  0.47369  0.65781  0.39938  1.0000
  H   H330      1.0  0.53609  0.70748  0.41510  1.0000
  C   C193      1.0  0.42738  0.70874  0.46785  1.0000
  H   H331      1.0  0.43754  0.62388  0.13466  1.0000
  H   H332      1.0  0.50913  0.74364  0.47462  1.0000
  H   H333      1.0  0.34337  0.53326  0.06664  1.0000
  H   H334      1.0  0.46893  0.67944  0.47652  1.0000
  C   C194      1.0  0.41678  0.59402  0.14755  1.0000
  H   H335      1.0  0.61514  0.63729  0.43743  1.0000
  H   H336      1.0  0.40810  0.67467  0.02252  1.0000
  H   H337      1.0  0.48635  0.77537  0.42756  1.0000
  H   H338      1.0  0.44315  0.71008  0.43403  1.0000
  H   H339      1.0  0.34012  0.75016  0.31939  1.0000
  H   H340      1.0  0.33861  0.64731  0.43927  1.0000
  H   H341      1.0  0.39152  0.64830  0.46890  1.0000
  C   C195      1.0  0.37939  0.58317  0.13096  1.0000
  C   C196      1.0  0.37816  0.65916  0.02207  1.0000
  H   H342      1.0  0.64107  0.61494  0.37562  1.0000
  H   H343      1.0  0.55140  0.81275  0.44164  1.0000
  H   H344      1.0  0.35667  0.92713  0.43589  1.0000
  Fe  Fe22      1.0  0.35253  0.65179  0.19648  1.0000
  H   H345      1.0  0.35949  0.69662  0.44075  1.0000
  H   H346      1.0  0.38099  0.68016  0.40063  1.0000
  H   H347      1.0  0.65955  0.68098  0.42901  1.0000
  H   H348      1.0  0.36058  0.52469  0.14221  1.0000
  C   C197      1.0  0.66055  0.63740  0.39454  1.0000
  H   H349      1.0  0.42767  0.57719  0.13358  1.0000
  H   H350      1.0  0.41366  0.58999  0.18646  1.0000
  C   C198      1.0  0.36550  0.67432  0.43635  1.0000
  C   C199      1.0  0.38837  0.67235  0.47359  1.0000
  H   H351      1.0  0.41693  0.99230  0.44868  1.0000
  H   H352      1.0  0.37488  0.57040  0.38981  1.0000
  C   C200      1.0  0.34801  0.56949  0.39611  1.0000
  H   H353      1.0  0.35394  0.59748  0.40203  1.0000
  H   H354      1.0  0.42276  0.73214  0.46223  1.0000
  H   H355      1.0  0.34563  0.54101  0.18932  1.0000
  H   H356      1.0  0.63814  0.55051  0.42934  1.0000
  C   C201      1.0  0.64639  0.50294  0.38344  1.0000
  C   C202      1.0  0.34880  0.54222  0.15052  1.0000
  H   H357      1.0  0.64537  0.60259  0.46047  1.0000
  H   H358      1.0  0.47039  0.78849  0.47796  1.0000
  H   H359      1.0  0.34930  0.80123  0.36437  1.0000
  C   C203      1.0  0.64062  0.65679  0.41194  1.0000
  H   H360      1.0  0.53060  0.84057  0.43860  1.0000
  H   H361      1.0  0.63341  0.50731  0.35365  1.0000
  C   C204      1.0  0.66494  0.56666  0.40482  1.0000
  H   H362      1.0  0.63207  0.66712  0.38189  1.0000
  H   H363      1.0  0.36983  0.56159  0.47666  1.0000
  H   H364      1.0  0.65703  0.57364  0.37158  1.0000
  Fe  Fe23      1.0  0.59868  0.78665  0.54327  1.0000
  S   S41       1.0  0.55562  0.78659  0.59560  1.0000
  Fe  Fe24      1.0  0.38133  0.63589  0.75974  1.0000
  H   H365      1.0  0.41390  0.73847  0.63211  1.0000
  S   S42       1.0  0.43489  0.63956  0.73118  1.0000
  C   C205      1.0  0.61166  0.88833  0.58991  1.0000
  Fe  Fe25      1.0  0.64780  0.75790  0.50423  1.0000
  S   S43       1.0  0.37577  0.67597  0.80126  1.0000
  H   H366      1.0  0.44044  0.76021  0.90104  1.0000
  C   C206      1.0  0.49020  0.65105  0.54383  1.0000
  H   H367      1.0  0.46418  0.62308  0.54860  1.0000
  H   H368      1.0  0.38356  0.65494  0.94785  1.0000
  C   C207      1.0  0.52239  0.74540  0.63291  1.0000
  C   C208      1.0  0.49045  0.74302  0.65620  1.0000
  C   C209      1.0  0.46318  0.71045  0.68587  1.0000
  C   C210      1.0  0.46814  0.68036  0.69319  1.0000
  C   C211      1.0  0.50017  0.68280  0.67005  1.0000
  C   C212      1.0  0.52717  0.71518  0.63974  1.0000
  H   H369      1.0  0.48670  0.76638  0.65118  1.0000
  H   H370      1.0  0.43862  0.70882  0.70366  1.0000
  H   H371      1.0  0.50413  0.65960  0.67566  1.0000
  H   H372      1.0  0.55178  0.71685  0.62202  1.0000
  C   C213      1.0  0.41086  0.73673  0.90948  1.0000
  H   H373      1.0  0.40001  0.60981  0.62365  1.0000
  C   C214      1.0  0.33910  0.50098  0.53328  1.0000
  H   H374      1.0  0.37731  0.55016  0.59412  1.0000
  C   C215      1.0  0.39642  0.73477  0.60386  1.0000
  H   H375      1.0  0.65129  0.54397  0.50081  1.0000
  H   H376      1.0  0.38660  0.58586  0.54735  1.0000
  H   H377      1.0  0.50670  0.65617  0.50903  1.0000
  H   H378      1.0  0.50730  0.65162  0.57135  1.0000
  C   C216      1.0  0.65337  0.92063  0.67266  1.0000
  S   S44       1.0  0.66046  0.71229  0.52475  1.0000
  C   C217      1.0  0.33960  0.55216  0.48400  1.0000
  H   H379      1.0  0.64062  0.93777  0.67706  1.0000
  C   C218      1.0  0.36751  0.56823  0.57979  1.0000
  C   C219      1.0  0.36432  0.64823  0.97942  1.0000
  H   H380      1.0  0.60453  0.89700  0.51714  1.0000
  H   H381      1.0  0.34060  0.78885  0.55035  1.0000
  S   S45       1.0  0.34533  0.63618  0.70746  1.0000
  H   H382      1.0  0.33947  0.57785  0.48933  1.0000
  H   H383      1.0  0.38750  0.75524  0.60491  1.0000
  H   H384      1.0  0.62925  0.89135  0.67933  1.0000
  C   C220      1.0  0.38536  0.74759  0.88800  1.0000
  H   H385      1.0  0.37100  0.70636  0.61108  1.0000
  N   N12       1.0  0.45055  0.71335  0.50681  1.0000
  H   H386      1.0  0.62767  0.89105  0.76687  1.0000
  H   H387      1.0  0.66210  0.87282  0.63330  1.0000
  H   H388      1.0  0.33988  0.98130  0.48178  1.0000
  H   H389      1.0  0.61907  0.86752  0.58200  1.0000
  H   H390      1.0  0.44999  0.71836  0.58065  1.0000
  H   H391      1.0  0.37300  0.77948  0.51824  1.0000
  H   H392      1.0  0.58035  0.91037  0.55865  1.0000
  H   H393      1.0  0.37202  0.66708  0.50844  1.0000
  C   C221      1.0  0.48881  0.74888  0.49453  1.0000
  H   H394      1.0  0.35228  0.57695  0.64960  1.0000
  H   H395      1.0  0.40331  0.73006  0.94824  1.0000
  H   H396      1.0  0.40860  0.71228  0.89487  1.0000
  H   H397      1.0  0.35395  0.77382  0.83776  1.0000
  H   H398      1.0  0.53702  0.82478  0.49482  1.0000
  H   H399      1.0  0.64618  0.94063  0.76146  1.0000
  H   H400      1.0  0.63686  0.94615  0.59752  1.0000
  C   C222      1.0  0.41862  0.74099  0.55589  1.0000
  C   C223      1.0  0.48085  0.68115  0.54818  1.0000
  H   H401      1.0  0.42914  0.65415  0.52060  1.0000
  C   C224      1.0  0.45630  0.68095  0.51099  1.0000
  C   C225      1.0  0.58848  0.88972  0.55284  1.0000
  H   H402      1.0  0.50099  0.75902  0.52694  1.0000
  C   C226      1.0  0.43117  0.71267  0.55355  1.0000
  H   H403      1.0  0.36986  0.51938  0.53241  1.0000
  H   H404      1.0  0.59335  0.87816  0.62428  1.0000
  H   H405      1.0  0.36265  0.61356  0.60328  1.0000
  H   H406      1.0  0.44348  0.76967  0.55107  1.0000
  S   S46       1.0  0.58786  0.74163  0.49937  1.0000
  H   H407      1.0  0.40041  0.73852  0.52919  1.0000
  H   H408      1.0  0.50764  0.70824  0.54467  1.0000
  C   C227      1.0  0.37068  0.59367  0.61621  1.0000
  H   H409      1.0  0.39480  0.75472  0.84952  1.0000
  H   H410      1.0  0.36221  0.95911  0.50661  1.0000
  C   C228      1.0  0.65370  0.91909  0.76037  1.0000
  C   C229      1.0  0.34790  0.78157  0.51666  1.0000
  S   S47       1.0  0.65612  0.79943  0.55373  1.0000
  H   H411      1.0  0.46558  0.67541  0.58400  1.0000
  H   H412      1.0  0.40650  0.68434  0.56641  1.0000
  C   C230      1.0  0.64712  0.92732  0.58996  1.0000
  H   H413      1.0  0.35485  0.80437  0.48837  1.0000
  H   H414      1.0  0.66764  0.54467  0.58110  1.0000
  H   H415      1.0  0.66218  0.93743  0.55348  1.0000
  H   H416      1.0  0.56254  0.86194  0.55518  1.0000
  H   H417      1.0  0.66236  0.58642  0.52380  1.0000
  H   H418      1.0  0.34380  0.77633  0.64235  1.0000
  H   H419      1.0  0.38942  0.77294  0.90174  1.0000
  S   S48       1.0  0.34260  0.72460  0.71315  1.0000
  C   C231      1.0  0.34367  0.71533  0.89811  1.0000
  H   H420      1.0  0.34071  0.69400  0.87577  1.0000
  H   H421      1.0  0.35238  0.75399  0.97355  1.0000
  S   S49       1.0  0.62036  0.83214  0.48249  1.0000
  H   H422      1.0  0.67056  0.92144  0.78890  1.0000
  H   H423      1.0  0.33809  0.70115  0.93434  1.0000
  H   H424      1.0  0.93421  0.31403  0.39685  1.0000
  S   S50       1.0  0.85532  0.16009  0.44978  1.0000
  C   C232      1.0  0.68727  0.30125  0.05003  1.0000
  H   H425      1.0  0.96891  0.24301  0.42109  1.0000
  Fe  Fe26      1.0  0.83680  0.20108  0.45437  1.0000
  S   S51       1.0  0.84422  0.24188  0.39235  1.0000
  H   H426      1.0  0.95887  0.35599  0.35488  1.0000
  H   H427      1.0  0.81432  0.48806  0.47035  1.0000
  Fe  Fe27      1.0  0.74443  0.37247  0.27370  1.0000
  S   S52       1.0  0.69666  0.32276  0.32004  1.0000
  S   S53       1.0  0.78988  0.41962  0.30669  1.0000
  Fe  Fe28      1.0  0.72075  0.33637  0.18278  1.0000
  S   S54       1.0  0.73952  0.35159  0.10240  1.0000
  Fe  Fe29      1.0  0.71035  0.28888  0.27584  1.0000
  S   S55       1.0  0.70527  0.23794  0.31618  1.0000
  S   S56       1.0  0.76069  0.33859  0.23235  1.0000
  C   C233      1.0  0.72022  0.33563  0.04983  1.0000
  H   H428      1.0  0.80040  0.42414  0.44095  1.0000
  H   H429      1.0  0.68265  0.36682  0.09162  1.0000
  C   C234      1.0  0.80527  0.23841  0.36894  1.0000
  C   C235      1.0  0.76854  0.21015  0.38695  1.0000
  C   C236      1.0  0.73817  0.20989  0.36968  1.0000
  C   C237      1.0  0.74425  0.23790  0.33440  1.0000
  C   C238      1.0  0.78100  0.26541  0.31520  1.0000
  C   C239      1.0  0.81136  0.26546  0.33225  1.0000
  H   H430      1.0  0.76352  0.18834  0.41390  1.0000
  H   H431      1.0  0.70983  0.18795  0.38380  1.0000
  H   H432      1.0  0.78597  0.28659  0.28721  1.0000
  H   H433      1.0  0.83972  0.28669  0.31715  1.0000
  C   C240      1.0  0.67289  0.29019  0.00769  1.0000
  S   S57       1.0  0.70865  0.37436  0.22139  1.0000
  C   C241      1.0  0.81730  0.48243  0.34949  1.0000
  C   C242      1.0  0.74921  0.47868  0.36562  1.0000
  H   H434      1.0  0.87137  0.36903  0.44718  1.0000
  H   H435      1.0  0.70171  0.44675  0.09655  1.0000
  C   C243      1.0  0.75133  0.45137  0.34300  1.0000
  C   C244      1.0  0.78550  0.45328  0.33458  1.0000
  H   H436      1.0  0.71642  0.23717  0.44936  1.0000
  C   C245      1.0  0.70811  0.42438  0.09853  1.0000
  H   H437      1.0  0.72667  0.42909  0.33169  1.0000
  N   N13       1.0  0.87249  0.38011  0.37257  1.0000
  C   C246      1.0  0.87780  0.41162  0.33797  1.0000
  C   C247      1.0  0.87793  0.39260  0.42020  1.0000
  C   C248      1.0  0.90038  0.36961  0.35596  1.0000
  C   C249      1.0  0.83371  0.34628  0.37551  1.0000
  C   C250      1.0  0.80082  0.35088  0.39333  1.0000
  C   C251      1.0  0.86625  0.40159  0.28910  1.0000
  C   C252      1.0  0.90608  0.34474  0.39250  1.0000
  C   C253      1.0  0.91717  0.42660  0.42355  1.0000
  H   H438      1.0  0.92061  0.45224  0.40457  1.0000
  C   C254      1.0  0.76363  0.31801  0.38456  1.0000
  C   C255      1.0  0.87977  0.43652  0.25418  1.0000
  C   C256      1.0  0.93078  0.33181  0.36995  1.0000
  H   H439      1.0  0.90773  0.43466  0.33192  1.0000
  H   H440      1.0  0.86220  0.42423  0.35234  1.0000
  H   H441      1.0  0.85768  0.40095  0.43132  1.0000
  H   H442      1.0  0.94011  0.42332  0.40816  1.0000
  H   H443      1.0  0.92843  0.39479  0.34282  1.0000
  H   H444      1.0  0.89184  0.35442  0.32515  1.0000
  H   H445      1.0  0.82922  0.33636  0.34084  1.0000
  H   H446      1.0  0.83039  0.32254  0.39918  1.0000
  H   H447      1.0  0.80385  0.37659  0.37573  1.0000
  H   H448      1.0  0.79932  0.35174  0.43170  1.0000
  H   H449      1.0  0.87810  0.38589  0.27420  1.0000
  H   H450      1.0  0.83525  0.38428  0.29179  1.0000
  H   H451      1.0  0.87912  0.31960  0.40845  1.0000
  H   H452      1.0  0.76419  0.38513  0.00553  1.0000
  H   H453      1.0  0.72275  0.47723  0.37151  1.0000
  H   H454      1.0  0.67398  0.25151  0.40432  1.0000
  H   H455      1.0  0.74518  0.35709  0.46118  1.0000
  H   H456      1.0  0.76017  0.29141  0.39975  1.0000
  H   H457      1.0  0.73984  0.31975  0.40056  1.0000
  H   H458      1.0  0.86956  0.45395  0.26794  1.0000
  H   H459      1.0  0.91085  0.45320  0.24686  1.0000
  H   H460      1.0  0.86867  0.42835  0.22073  1.0000
  C   C257      1.0  0.73869  0.35845  0.00637  1.0000
  H   H461      1.0  0.76267  0.31812  0.34628  1.0000
  H   H462      1.0  0.91745  0.31488  0.34195  1.0000
  H   H463      1.0  0.74447  0.38228  0.40819  1.0000
  C   C258      1.0  0.74245  0.38051  0.44699  1.0000
  H   H464      1.0  0.91992  0.36016  0.42124  1.0000
  C   C259      1.0  0.81186  0.27012  0.98799  1.0000
  S   S58       1.0  0.67132  0.28381  0.22390  1.0000
  H   H465      1.0  0.71449  0.37502  0.46128  1.0000
  H   H466      1.0  0.71661  0.42156  0.13316  1.0000
  H   H467      1.0  0.73213  0.43247  0.07108  1.0000
  H   H468      1.0  0.81638  0.28590  0.01822  1.0000
  H   H469      1.0  0.99541  0.24423  0.36805  1.0000
  H   H470      1.0  0.98453  0.28013  0.37349  1.0000
  C   C260      1.0  0.77311  0.41712  0.46024  1.0000
  H   H471      1.0  0.67315  0.28299  0.08279  1.0000
  H   H472      1.0  0.79275  0.24003  0.00130  1.0000
  C   C261      1.0  0.99219  0.26175  0.39240  1.0000
  H   H473      1.0  0.76783  0.43885  0.44688  1.0000
  H   H474      1.0  0.81691  0.27290  0.46733  1.0000
  H   H475      1.0  0.84389  0.48430  0.34254  1.0000
  H   H476      1.0  0.69617  0.16382  0.47593  1.0000
  H   H477      1.0  0.67131  0.35337  0.40412  1.0000
  C   C262      1.0  0.67428  0.38753  0.09063  1.0000
  H   H478      1.0  0.75391  0.21608  0.47988  1.0000
  H   H479      1.0  0.76029  0.48341  0.48073  1.0000
  H   H480      1.0  0.94984  0.45772  0.47591  1.0000
  C   C263      1.0  0.92206  0.43255  0.47455  1.0000
  Fe  Fe30      1.0  0.81066  0.17887  0.55964  1.0000
  S   S59       1.0  0.77267  0.18136  0.61876  1.0000
  H   H481      1.0  0.82903  0.43944  0.57076  1.0000
  S   S60       1.0  0.82740  0.13601  0.56359  1.0000
  H   H482      1.0  0.68884  0.00406  0.58591  1.0000
  N   N14       1.0  0.70243  0.20581  0.51858  1.0000
  Fe  Fe31      1.0  0.73111  0.31740  0.73993  1.0000
  S   S61       1.0  0.78299  0.31900  0.70691  1.0000
  S   S62       1.0  0.73488  0.36053  0.78454  1.0000
  H   H483      1.0  0.74079  0.24105  0.81519  1.0000
  H   H484      1.0  0.69980  0.47824  0.49984  1.0000
  C   C264      1.0  0.77577  0.22105  0.63938  1.0000
  C   C265      1.0  0.80927  0.25570  0.63256  1.0000
  C   C266      1.0  0.81097  0.28570  0.65276  1.0000
  C   C267      1.0  0.77906  0.28155  0.67909  1.0000
  C   C268      1.0  0.74524  0.24729  0.68442  1.0000
  C   C269      1.0  0.74381  0.21708  0.66530  1.0000
  H   H485      1.0  0.83419  0.25898  0.61328  1.0000
  H   H486      1.0  0.83731  0.31203  0.64870  1.0000
  H   H487      1.0  0.72051  0.24363  0.70477  1.0000
  H   H488      1.0  0.71792  0.19025  0.67142  1.0000
  Fe  Fe32      1.0  0.69406  0.36304  0.74094  1.0000
  S   S63       1.0  0.75509  0.06051  0.48611  1.0000
  H   H489      1.0  0.73952  0.43716  0.57745  1.0000
  H   H490      1.0  0.81788  0.27221  0.89144  1.0000
  H   H491      1.0  0.75906  0.04253  0.58501  1.0000
  C   C270      1.0  0.76674  0.46714  0.69401  1.0000
  C   C271      1.0  0.73104  0.45582  0.68293  1.0000
  C   C272      1.0  0.72625  0.48026  0.65296  1.0000
  S   S64       1.0  0.69178  0.41120  0.70462  1.0000
  H   H492      1.0  0.77048  0.44876  0.71785  1.0000
  H   H493      1.0  0.69857  0.47189  0.64495  1.0000
  C   C273      1.0  0.78919  0.26251  0.90872  1.0000
  C   C274      1.0  0.76218  0.24287  0.83702  1.0000
  H   H494      1.0  0.72912  0.27391  0.92374  1.0000
  C   C275      1.0  0.78722  0.30749  0.84989  1.0000
  C   C276      1.0  0.82315  0.48240  0.50340  1.0000
  H   H495      1.0  0.71276  0.26096  0.87041  1.0000
  H   H496      1.0  0.81803  0.47024  0.59626  1.0000
  C   C277      1.0  0.78041  0.33541  0.87400  1.0000
  C   C278      1.0  0.80947  0.37557  0.85270  1.0000
  H   H497      1.0  0.69653  0.19575  0.89452  1.0000
  H   H498      1.0  0.77694  0.38575  0.68596  1.0000
  H   H499      1.0  0.81795  0.31900  0.84338  1.0000
  H   H500      1.0  0.77874  0.30851  0.81451  1.0000
  H   H501      1.0  0.75538  0.41504  0.63339  1.0000
  C   C279      1.0  0.76943  0.26415  0.51547  1.0000
  H   H502      1.0  0.81010  0.37940  0.81411  1.0000
  H   H503      1.0  0.75095  0.03717  0.64828  1.0000
  H   H504      1.0  0.73379  0.06092  0.61372  1.0000
  H   H505      1.0  0.82223  0.26093  0.82050  1.0000
  H   H506      1.0  0.74509  0.39409  0.53229  1.0000
  H   H507      1.0  0.75231  0.33010  0.86895  1.0000
  H   H508      1.0  0.78108  0.33301  0.91214  1.0000
  H   H509      1.0  0.83775  0.38306  0.86036  1.0000
  H   H510      1.0  0.80221  0.39465  0.86809  1.0000
  H   H511      1.0  0.76534  0.27041  0.55131  1.0000
  C   C280      1.0  0.69003  0.20970  0.56711  1.0000
  C   C281      1.0  0.71484  0.47605  0.52849  1.0000
  C   C282      1.0  0.98997  0.25841  0.53531  1.0000
  C   C283      1.0  0.77822  0.00942  0.49690  1.0000
  C   C284      1.0  0.69134  0.31302  0.96422  1.0000
  H   H512      1.0  0.73883  0.36555  0.93120  1.0000
  H   H513      1.0  0.80591  0.27994  0.77772  1.0000
  H   H514      1.0  0.71565  0.14921  0.55454  1.0000
  C   C285      1.0  0.98278  0.22309  0.52847  1.0000
  C   C286      1.0  0.79469  0.28298  0.95220  1.0000
  C   C287      1.0  0.70162  0.00075  0.61659  1.0000
  H   H515      1.0  0.70426  0.23947  0.57217  1.0000
  S   S65       1.0  0.86529  0.22395  0.51693  1.0000
  C   C288      1.0  0.72809  0.25623  0.89689  1.0000
  C   C289      1.0  0.79800  0.25471  0.80225  1.0000
  H   H516      1.0  0.81758  0.39885  0.64475  1.0000
  C   C290      1.0  0.70292  0.21525  0.92072  1.0000
  H   H517      1.0  0.96744  0.26372  0.53634  1.0000
  H   H518      1.0  0.77672  0.23241  0.92110  1.0000
  H   H519      1.0  0.81584  0.23444  0.74492  1.0000
  H   H520      1.0  0.87485  0.48664  0.52042  1.0000
  H   H521      1.0  0.90002  0.43656  0.49159  1.0000
  H   H522      1.0  0.75134  0.20810  0.54139  1.0000
  C   C291      1.0  0.72439  0.34735  0.96398  1.0000
  Fe  Fe33      1.0  0.88044  0.18004  0.51565  1.0000
  C   C292      1.0  0.79781  0.40736  0.65729  1.0000
  H   H523      1.0  0.80435  0.03202  0.50485  1.0000
  H   H524      1.0  0.81340  0.43393  0.67185  1.0000
  N   N15       1.0  0.76681  0.26772  0.87407  1.0000
  H   H525      1.0  0.69904  0.19679  0.59378  1.0000
  H   H526      1.0  0.69135  0.35383  0.59673  1.0000
  C   C293      1.0  0.68410  0.16554  0.51084  1.0000
  H   H527      1.0  0.78809  0.19957  0.79509  1.0000
  C   C294      1.0  0.77775  0.41118  0.61756  1.0000
  H   H528      1.0  0.71654  0.20874  0.94789  1.0000
  H   H529      1.0  0.67145  0.37966  0.57453  1.0000
  S   S66       1.0  0.93755  0.18597  0.52064  1.0000
  H   H530      1.0  0.67304  0.08198  0.56145  1.0000
  H   H531      1.0  0.76431  0.38445  0.60307  1.0000
  H   H532      1.0  0.76796  0.27798  0.97045  1.0000
  C   C295      1.0  0.74060  0.46282  0.51079  1.0000
  Fe  Fe34      1.0  0.68397  0.31245  0.83080  1.0000
  H   H533      1.0  0.78950  0.39938  0.52031  1.0000
  H   H534      1.0  0.81450  0.31329  0.94156  1.0000
  N   N16       1.0  0.79097  0.44944  0.53551  1.0000
  C   C296      1.0  0.68658  0.13900  0.54851  1.0000
  C   C297      1.0  0.76175  0.45875  0.54976  1.0000
  C   C298      1.0  0.80588  0.44434  0.57945  1.0000
  C   C299      1.0  0.77413  0.41387  0.51400  1.0000
  C   C300      1.0  0.73864  0.03748  0.61590  1.0000
  C   C301      1.0  0.79149  0.22398  0.77284  1.0000
  H   H535      1.0  0.69391  0.45621  0.55860  1.0000
  H   H536      1.0  0.75138  0.21393  0.85362  1.0000
  S   S67       1.0  0.69466  0.32402  0.69322  1.0000
  C   C302      1.0  0.81081  0.27722  0.50363  1.0000
  S   S68       1.0  0.78179  0.15908  0.49688  1.0000
  H   H537      1.0  0.76606  0.21492  0.75585  1.0000
  H   H538      1.0  0.82851  0.30724  0.50660  1.0000
  H   H539      1.0  0.77493  0.48508  0.56534  1.0000
  Fe  Fe35      1.0  0.80173  0.11887  0.49771  1.0000
  H   H540      1.0  0.69935  0.25363  0.49387  1.0000
  H   H541      1.0  0.81831  0.26151  0.52830  1.0000
  C   C303      1.0  0.74422  0.22178  0.51345  1.0000
  S   S69       1.0  0.68302  0.26935  0.78808  1.0000
  C   C304      1.0  0.75032  0.01617  0.48580  1.0000
  S   S70       1.0  0.67183  0.29688  0.91184  1.0000
  H   H542      1.0  0.72268  0.43556  0.49876  1.0000
  H   H543      1.0  0.76358  0.28092  0.49027  1.0000
  H   H544      1.0  0.68795  0.10215  0.50076  1.0000
  H   H545      1.0  0.85036  0.45151  0.48390  1.0000
  C   C305      1.0  0.85826  0.47984  0.49080  1.0000
  C   C306      1.0  0.69538  0.22778  0.48139  1.0000
  H   H546      1.0  0.92070  0.40828  0.49449  1.0000
  H   H547      1.0  0.83932  0.27515  0.97210  1.0000
  C   C307      1.0  0.67118  0.10041  0.53376  1.0000
  H   H548      1.0  0.75221  0.85219  0.45143  1.0000
  S   S71       1.0  0.85003  0.64816  0.42376  1.0000
  C   C308      1.0  0.81516  0.50968  0.37222  1.0000
  H   H549      1.0  0.73867  0.81383  0.36546  1.0000
  Fe  Fe36      1.0  0.81794  0.58646  0.44809  1.0000
  S   S72       1.0  0.77693  0.54196  0.40768  1.0000
  C   C309      1.0  0.78768  0.64616  0.33980  1.0000
  C   C310      1.0  0.75907  0.84434  0.36044  1.0000
  H   H550      1.0  0.77449  0.63809  0.30759  1.0000
  Fe  Fe37      1.0  0.89342  0.65286  0.46829  1.0000
  H   H551      1.0  0.75133  0.59359  0.38283  1.0000
  H   H552      1.0  0.77668  0.73970  0.42729  1.0000
  C   C311      1.0  0.67862  0.54009  0.39347  1.0000
  C   C312      1.0  0.78110  0.50801  0.38020  1.0000
  C   C313      1.0  0.70507  0.59358  0.46738  1.0000
  H   H553      1.0  0.71643  0.62643  0.35129  1.0000
  H   H554      1.0  0.91040  0.50735  0.44263  1.0000
  H   H555      1.0  0.87036  0.49965  0.41606  1.0000
  H   H556      1.0  0.83996  0.53244  0.38260  1.0000
  H   H557      1.0  0.75229  0.81067  0.44875  1.0000
  H   H558      1.0  0.77394  0.63195  0.41451  1.0000
  N   N17       1.0  0.69201  0.60175  0.42348  1.0000
  H   H559      1.0  0.77250  0.85328  0.32325  1.0000
  H   H560      1.0  0.81138  0.64154  0.33809  1.0000
  H   H561      1.0  0.68548  0.65822  0.36922  1.0000
  C   C314      1.0  0.75939  0.62273  0.38354  1.0000
  C   C315      1.0  0.78895  0.85409  0.39253  1.0000
  H   H562      1.0  0.89124  0.53617  0.45241  1.0000
  H   H563      1.0  0.74391  0.85888  0.36776  1.0000
  H   H564      1.0  0.79893  0.67622  0.34102  1.0000
  H   H565      1.0  0.73727  0.65724  0.39306  1.0000
  H   H566      1.0  0.72239  0.74713  0.44632  1.0000
  C   C316      1.0  0.72536  0.62780  0.38663  1.0000
  S   S73       1.0  0.67195  0.80109  0.43990  1.0000
  C   C317      1.0  0.67177  0.62151  0.43605  1.0000
  H   H567      1.0  0.68434  0.92769  0.46859  1.0000
  H   H568      1.0  0.72038  0.57921  0.46066  1.0000
  H   H569      1.0  0.68929  0.64511  0.45510  1.0000
  C   C318      1.0  0.71048  0.95021  0.47666  1.0000
  H   H570      1.0  0.69966  0.55246  0.36132  1.0000
  H   H571      1.0  0.80402  0.83997  0.38261  1.0000
  H   H572      1.0  0.80893  0.88461  0.38517  1.0000
  H   H573      1.0  0.69078  0.53371  0.42260  1.0000
  H   H574      1.0  0.98143  0.64726  0.46394  1.0000
  S   S74       1.0  0.95539  0.69881  0.44680  1.0000
  C   C319      1.0  0.71653  0.98630  0.47556  1.0000
  C   C320      1.0  0.99832  0.70471  0.46093  1.0000
  C   C321      1.0  0.77100  0.84135  0.44491  1.0000
  C   C322      1.0  0.75674  0.72389  0.45858  1.0000
  C   C323      1.0  0.88406  0.50752  0.44785  1.0000
  H   H575      1.0  0.69480  0.99115  0.46674  1.0000
  C   C324      1.0  0.72620  0.72851  0.46951  1.0000
  H   H576      1.0  0.83978  0.84718  0.43855  1.0000
  H   H577      1.0  0.84730  0.90361  0.44415  1.0000
  S   S75       1.0  0.80041  0.69395  0.47091  1.0000
  H   H578      1.0  0.80764  0.90737  0.45785  1.0000
  H   H579      1.0  0.89214  0.95995  0.47684  1.0000
  H   H580      1.0  0.87974  0.82259  0.46528  1.0000
  H   H581      1.0  0.85492  0.96965  0.48000  1.0000
  N   N18       1.0  0.79806  0.85256  0.48026  1.0000
  C   C325      1.0  0.82308  0.89465  0.47183  1.0000
  C   C326      1.0  0.82054  0.83443  0.47237  1.0000
  H   H582      1.0  0.80175  0.80465  0.46826  1.0000
  C   C327      1.0  0.00378  0.67491  0.46762  1.0000
  H   H583      1.0  0.72609  0.62016  0.47874  1.0000
  Fe  Fe38      1.0  0.83315  0.59828  0.54773  1.0000
  H   H584      1.0  0.72337  0.78827  0.52150  1.0000
  S   S76       1.0  0.83239  0.56958  0.61759  1.0000
  C   C328      1.0  0.96317  0.74888  0.55981  1.0000
  S   S77       1.0  0.86466  0.66081  0.53138  1.0000
  H   H585      1.0  0.87694  0.97002  0.53089  1.0000
  H   H586      1.0  0.91909  0.58821  0.67027  1.0000
  C   C329      1.0  0.77526  0.83969  0.52852  1.0000
  H   H587      1.0  0.99406  0.64952  0.56653  1.0000
  C   C330      1.0  0.70456  0.68274  0.53831  1.0000
  H   H588      1.0  0.79353  0.84855  0.55624  1.0000
  C   C331      1.0  0.92922  0.64463  0.65314  1.0000
  C   C332      1.0  0.79289  0.52632  0.64322  1.0000
  C   C333      1.0  0.73506  0.67801  0.52731  1.0000
  C   C334      1.0  0.75705  0.51539  0.63311  1.0000
  H   H589      1.0  0.88385  0.57335  0.74873  1.0000
  H   H590      1.0  0.68312  0.99632  0.64915  1.0000
  C   C335      1.0  0.68999  0.56013  0.55045  1.0000
  C   C336      1.0  0.73143  0.78665  0.59353  1.0000
  H   H591      1.0  0.71015  0.75635  0.60092  1.0000
  H   H592      1.0  0.72269  0.97246  0.57760  1.0000
  H   H593      1.0  0.99102  0.76254  0.53776  1.0000
  C   C337      1.0  0.68385  0.90074  0.61400  1.0000
  C   C338      1.0  0.92305  0.61182  0.68848  1.0000
  H   H594      1.0  0.85185  0.90255  0.53461  1.0000
  H   H595      1.0  0.96823  0.59299  0.52413  1.0000
  H   H596      1.0  0.75878  0.85333  0.53243  1.0000
  H   H597      1.0  0.97428  0.61774  0.61875  1.0000
  C   C339      1.0  0.70003  0.70820  0.50974  1.0000
  H   H598      1.0  0.86285  0.58768  0.70691  1.0000
  C   C340      1.0  0.86232  0.81267  0.50037  1.0000
  C   C341      1.0  0.94178  0.57964  0.54914  1.0000
  H   H599      1.0  0.89119  0.61935  0.74549  1.0000
  H   H600      1.0  0.73152  0.50398  0.53937  1.0000
  H   H601      1.0  0.92867  0.66522  0.67432  1.0000
  H   H602      1.0  0.86863  0.86521  0.50924  1.0000
  H   H603      1.0  0.79383  0.96841  0.50691  1.0000
  C   C342      1.0  0.96030  0.72174  0.60036  1.0000
  H   H604      1.0  0.75397  0.79279  0.61520  1.0000
  H   H605      1.0  0.82514  0.51091  0.68286  1.0000
  H   H606      1.0  0.94278  0.56158  0.57818  1.0000
  H   H607      1.0  0.71318  0.58563  0.56131  1.0000
  H   H608      1.0  0.93769  0.67430  0.56398  1.0000
  C   C343      1.0  0.88811  0.59729  0.72452  1.0000
  H   H609      1.0  0.00155  0.66377  0.66608  1.0000
  H   H610      1.0  0.94721  0.62055  0.70792  1.0000
  H   H611      1.0  0.72041  0.86443  0.58961  1.0000
  C   C344      1.0  0.77214  0.97326  0.49802  1.0000
  C   C345      1.0  0.73815  0.94337  0.48821  1.0000
  H   H612      1.0  0.98699  0.70159  0.55369  1.0000
  S   S78       1.0  0.86396  0.59043  0.48668  1.0000
  H   H613      1.0  0.98312  0.73784  0.62097  1.0000
  H   H614      1.0  0.73827  0.65861  0.54994  1.0000
  H   H615      1.0  0.72932  0.91906  0.65858  1.0000
  H   H616      1.0  0.90408  0.63439  0.63493  1.0000
  H   H617      1.0  0.75308  0.53406  0.61016  1.0000
  N   N19       1.0  0.96461  0.66328  0.61812  1.0000
  C   C346      1.0  0.96270  0.68953  0.58188  1.0000
  C   C347      1.0  0.96892  0.63520  0.59374  1.0000
  H   H618      1.0  0.71768  0.80197  0.60361  1.0000
  C   C348      1.0  0.83850  0.91472  0.51469  1.0000
  H   H619      1.0  0.99298  0.70021  0.66858  1.0000
  C   C349      1.0  0.74731  0.79722  0.54141  1.0000
  H   H620      1.0  0.81525  0.91267  0.53874  1.0000
  Fe  Fe39      1.0  0.81942  0.65272  0.48818  1.0000
  H   H621      1.0  0.88038  0.81469  0.52726  1.0000
  S   S79       1.0  0.78543  0.59071  0.51071  1.0000
  H   H622      1.0  0.82888  0.82525  0.54564  1.0000
  C   C350      1.0  0.93587  0.60909  0.56841  1.0000
  C   C351      1.0  0.67647  0.92475  0.71307  1.0000
  H   H623      1.0  0.93323  0.62511  0.53839  1.0000
  H   H624      1.0  0.93301  0.71062  0.62284  1.0000
  H   H625      1.0  0.83273  0.50825  0.51984  1.0000
  C   C352      1.0  0.67421  0.57028  0.51016  1.0000
  H   H626      1.0  0.74508  0.93133  0.59681  1.0000
  H   H627      1.0  0.68383  0.90311  0.71476  1.0000
  H   H628      1.0  0.76077  0.78125  0.53377  1.0000
  S   S80       1.0  0.73145  0.89806  0.49159  1.0000
  H   H629      1.0  0.83997  0.78290  0.50197  1.0000
  C   C353      1.0  0.70807  0.96803  0.61355  1.0000
  C   C354      1.0  0.84519  0.83618  0.50998  1.0000
  C   C355      1.0  0.99787  0.68386  0.64369  1.0000
  H   H630      1.0  0.90903  0.59425  0.59235  1.0000
  H   H631      1.0  0.91810  0.56196  0.53038  1.0000
  C   C356      1.0  0.86739  0.95609  0.49949  1.0000
  C   C357      1.0  0.76138  0.69857  0.48726  1.0000
  H   H632      1.0  0.70227  0.95272  0.70914  1.0000
  C   C358      1.0  0.79756  0.50236  0.67428  1.0000
  C   C359      1.0  0.72295  0.90925  0.62431  1.0000
  C   C360      1.0  0.72603  0.87492  0.62378  1.0000
  H   H633      1.0  0.75475  0.88223  0.62894  1.0000
  H   H634      1.0  0.72888  0.97161  0.63691  1.0000
  H   H635      1.0  0.94104  0.73417  0.53756  1.0000
  Fe  Fe40      1.0  0.67723  0.84212  0.48923  1.0000
  H   H636      1.0  0.70568  0.85253  0.65227  1.0000
  H   H637      1.0  0.95968  0.77074  0.57378  1.0000
  H   H638      1.0  0.70043  0.54208  0.53987  1.0000
  H   H639      1.0  0.68393  0.89706  0.57619  1.0000
  H   H640      1.0  0.68440  0.66668  0.56936  1.0000
  N   N20       1.0  0.67358  0.92930  0.62343  1.0000
