data_image0
_chemical_formula_structural       HS2C2Fe2SHFeSCHSHSHSH6SC3FeSFeSHC2HSH2CHC4NSCHC3H3C2H3C6H4CFeH2C2H3NC6H14C2HCH4CHSCHCHCH3SHCH2CSFeHCNH2C3HCH2FeH5NHSH5CH2CSHCFeSCH3CSH2SCH3CH4CHCFeH4CHCH2CHC2HC2H3CHCH3CH2FeCH2C2H2SCH3CH2CSHCH4FeH4CHCHSH8SH5CHSH2S2FeCHFeS2CHS2HSHSHCFeSHSCHCH4CSNCSHFeSFeSCH3CHSHCH2C2NC2H4FeHC6H2CHSCH2C7H3C7H7CHSC2HFeCH4C2H4CH3SH4CH2CH4CH4SC3H4FeH7CSH4C2HCFeC2HCH7CSHCH3C2SNC6HC4H13CH6CHCH5CHCHCH3CH2C2H13FeSN2C3SNC2HC9H7SH2C2HCH5CH5C2HCHC2H3C2HCH3SFeCH3CH5C2H2SH2SH3CFeHC5HFeCH9SH2C2HFeH3SH2SFe2HCH2SC2H6CH2CHC4HC2HC2HCHCH2FeHFeCNHC2H3CHCH5CH4SH7CH6CH4C2SH6CHC2HC3SH5C3HCH7CHCHC2HC3H2SHS2HCH2CH2FeS2CFeS3FeH3C6H6CH2SH4NH3CHC3HC6H2SH5CH2CHC2HNCHFeSCHCH2C2HC2H2NCHCH6C3HCHCH8CH6CFeH2SH4SH5SH2CSH3CFeHCHCH5CHSH2CFeH2CH4C2H2SH2FeHSC3HCH3CH7CH2FeH2C2H2FeCH2S2CH2CHCHSHFeHCHCHCHCH5CHC2H2S2CH6CH3NHCHCHC2H2FeCHCH4SNCNHC2H9C2H2CH2SH2SHFeSFeSHSCSHCHCH2SCFeS3FeHFeS4C6H4C6H4CH2C3H6C2HCH2FeNHCHFeCH2CH2C3H3C2H3NHC2H2CHCH5CFeSHCH2CH4SH9CH6C3HCHSHCH2CHCH2C2H3CH2CH2SHCH2CHC3H3NC7HC2H15CH8NC2HC3HC3H7C5H2CH6FeCHCHCHCH2CH2NHCNHCH2CHCH4CSC2HFeHC2SHCH4CH2CH3CH3CHFeH2CSC2HC2H2FeH2C2H2CH2FeH2CH5C3HCHS3CH2CHFeS2H2C3SHCH3SC7HNH2SHCHC2SHC2HSH4FeH3CHCNC4H2CH3SH4FeHSNC12H27CFeCH3FeHC3H4C3H4CH6C2SHNCH3C2HC3HC2H2SH3SCHCHCSFeH2FeH2SH2FeH4CFeH8SHCH2CHCHSHFeHSH4SCHSCH2C2H4SHC2HCH3SH3C2SHCH5C3H2CH5NC7H2C3H3FeH8SC2HC2HFeH2C3H3FeHCH2SHSHC4H5FeH2CSH3CH3C2HCFeCH6CH17C3HCHC2HCHCSHCH3C3H2CFeH2CNH2C2HCH3C2NH8CHCH6CHC3HCNCH4C2H2C2H2CHCHC3SH4CH2CHCH7CH2NCH10C2HCHC3HCH2C2H8CHCH3CH2CH2C3HCHFeS2FeS2FeSFeCS2H2CHCH2CSHFeSHFeSHFeHFeSCSC2H2CHCHNH3CHCH2C5H2C6H4C6H2CH4CH2CH4SH2C2HSC2HC6H8C2HC2HCHC2H2SCHCH3CN2C10H25CHC2HC2HCH3C2HCH4CHCH3CHC2H12C3H4C2H5NHSH2C2H6CH2CH5NH7SH5CH3SC2H3CSH4SH11S2CH2CFeSCHFeS2FeS2FeSFeS3H2FeS2H3S2FeS2FeS2FeHFeS3FeSHCSHFeSFeSCSFeSHFeS2FeHFeS3FeS2FeSHFeSFeS3H2FeS2FeS2FeSFeS3CH2CSH3FeH4SHFeSFeSCH3C2H2CH4C7H2CHC6H6CH5C6H8CH5C4H6FeH2SC2HCHC6H4C6H4C6H4C5H9C6H4C6H4C6H3C7H4SHCH2SCHCNCH2CH2CHCH2CHCH2C3HCH4CH7CHC2SH5NC9HC2H8CH11CH7NC12H30CH4C2H3CHC2H5C2H4C2H2C2H2CHCH2CH2NH5CH3SCHC2H2C2FeNC2H4C2H3CH4CH3CH2CH3CH3C2H2C2H3CHC3SH3C3HCH6CH3CH3CNH3CNC3HCH3C2HCH4CHC5H2C2HC2HC2H2SCH3NH4SH3CH2C2H3SCH2CH4C3HC2H3SCSFeH4C2H2CHFeCH2C2H12CH2SH3CFeCH2CH6C2HCHC2H4NSCH2CH7NH2C3H7CHNH3CH4CH3CH5CHC3NC2HCHCH2CSH3C2H3CHC2H5CHCHCNHCHC2HSNHCHC2H3FeH8CHSH4C2H2CHNC2HSHC2H5C3H4CHCH5CH6C3HSCH2NCH4CH2CHC3NH5CHCHCHCH2CH3CFeH3CH2CH15C2H2CH10CH3CHCH2CFeH7CHC2H2CSCHCH2C3HFeH2CH2CH2CH3SH2FeS2FeS2FeSFeHS2FeCSCHFe2H3CSH2CFeS2FeCHFeH2CS2HCHCH3C2H3CHSCH3CH3CH2NSC3HC2H4C5H2CHCH2C6H5C2HC3H2CHSHFeC4H7NHCHCSHC2HCH2CSH3CH4CH2CH2SHSCH2CNH2C2H6C2HCSH9C2H7CHC4H2CH2CHCHFeCHFeH2CHC2HFeH11C3H3CNC7HC2H13CH6SCH2CH5C2HCHC2H2C2H2NH2C2HC3S2CH3CH4FeS2CS3HFeSCFeSC2SCFeSFeS3CHCFeS2FeS2FeCFeS3H2SH6C2HCH2CHFeSHFeS2FeSFeS3H2SH3CH3NC3H2CHCHC6HCSHFeC5H4C2H3CH3C6H5CHC2HC2HCHCH2CH3C6H4C2H2C6H5C7H2C3H3CHC4H4C2NH2CH6CHC3NSCHCSCHCH3CSHCHCHSH7NC10HCH28CHFeCH6CH17C3HCH2CH2NHCHNH3CH8CH2SH4C2HSHCH4C2NH2CH4CH3SHCHCH5CH2CH9C2H2C4HCH6SH2C2H3CHCH2C2HCFeH11C2H4C2H2C2HC2H2CH3C2HCH2CNH3NC12H30C3NSHCHSCH2SCH3CH2C4H3CNH2CH2CHCHC2FeH3C2HC2H3CHFeSH2C2HC2HCH2NHFeCH2C2HCH2C2H2CSHCSHC2HCH4CH5SHCH3C3SH4CHFeCHFeH2NH2C2H7CSHCSH3CH2SH3CH6SH2CHC3H2CH3CHCH7C3HSC2H3CFeH4C2HCH3CH6CH4C2H2CSFeHFeS2FeS2FeHFeCS4FeSFeCSFeHSFeCH2S2H2C2HFeH3S2CH5SH3C3HC4H3C2H3CH5C2HCH2C2H2CHSHSC3H3CHCHSCH3C7H5CH3CH4C6NH3C6H6CHCH2C2H9C4HC2H2CHFeHCH2C2H2C2H2CH2CH5NC2HCSH2CHNH2CHCH5CH3CH3SH8SCHC2H2SFeC3HC2H2NH2CH3CH2SC2SHC5HC2H4C4SH2CH2CNH2SCNC3H3C5SH5SH3C2H9CHC3HCH2FeH3CFeH5NH4NHCH2CHCH6FeH4FeCH2C2H4CH4C2HCHC2H2FeH5CH2CH2CHCH6CSCSCH4C2HCHC3HSHFeH10C5HFeH2C2HSHCHSCFeSFeS2FeS2FeSFeS3HCH7C2HSH8NH3CSH3CFeNHFeS2FeC2S2HCFeS2FeS2FeSFeS3CH2SH2CHCHCHNH2FeH3C6H7CHC6H4C5HC2HCH2CHSC2H4CHC6H5CH2CHCSHC7H4C5H3C2H3SH2C3H5CH2CH3CH4C2H3CNCHC2H5C2HCHCH5CHCH3C2H2CH2CHCH4CH8CHC2HCHCH4C2HCH5NHCHCH3NSHFeHNFeCHCH3CNC5SC4HC2H7CH5CHFeH2CH3CH5C3H2CH2CH8SH2CH2CH4SCH3C2H4C7HCH7C2H5NC5HC6H11CH9CHSH3NC5SC3H2CH30CH4CHC2H2CHC2HC2H3CH3CH3CH4CH2CH3CH2CH2CHC3H7CHCH5CH3CH2C3SHFeCH5CH4CH2SCNCHCHCSCH4CHSHNC3SH4FeH4SH2CH2FeHSHC3HSHC2HSC3SHC2H2C2Fe2H3C2H4C2H2SH2CH2CHSCHCH4CH2C2H4CFeCHC2H3CNHC2H2SHCHC3H5CFeCHCH2SC2H4CHCH2C2HSH10CH4NHCH2CHCH3CH5SCFeS2H2C3HCSFeS2FeS2FeSFeS3FeS2FeS2FeCFeS3HCH4CH2CHFeS2FeS2FeSFeS3FeS2FeS2FeSFeS3C3H3C6H8C6H5C3H2C6H5CH2CFeH4C6H4C6H4C6H5C3HCH6C4HCH2CH3C6H2SH2C2H4C3H2NHC2HCH8CH11C2HC3H2NC4H2C3H9CH7CHNCH2CH2CHCFeCH7NC12H26NH3CHCHCH6C2HCH2SFeH2C5HC4H3SH3C2H4CH5SHCFeCH2NC5HC4HCH8C2H18NH2C2H2C2H4SH10SCH3CS2HNCFeH2CHCHCH2CHC2NC12H25C2H7CH7CH2C2HCHSCHCNC2SH3C2H3SHNC3H3CH6CH5C2H6CH6C2SC2H4C2H2C3HCH3FeCHCHCHFeHC2H7C2H2CNH3CH2CH2CHC4H2CH4C2H2CH2CH2CHCHNH2CH4NH4CH2C2H2C2HCHC4H2CH4CH5CHCH2CH2CHNH3CH4C2H2CH2CH2CH5C2H4SCHCH2FeCSH2CHC3HCH3CSC3HCHC2H2C3H4FeHCH2SH4S3FeHCHCH5C3HSHCH3CH4FeSHCHCHC2H5FeCHC2H4CH2C5H3C2HC2H2CH2CHNH6CSH6CH2CSFeCH3CSHCSCHC3H2CFeCH2NCSH2CHCHCH4FeSCHC3HC2H3CHCH3C2HCHCSCHFeCHCSH4C2HC2HCSC2SCH5FeHCSCHCH2SC2HS2HFeCH3CS2H2CH3CHCHCHSH2C2SC2HCH2CHCHNH4C2HCHNH2CSCSH2C2HCH3CHCH2CHCH6C2FeSC2HCH3CHCH2CHCH2C2FeNH3CH4NC2H6FeH2CH2CH2CHCFeSH2C2H5C4H2CH4CHCFeH5SH5CH6FeCH3C2H2CH2CNCH2CSH3SHCH5CH3CHCHCH2CH4C2FeCHSCSC3H4NH3C3HCHCSCHNFeS2FeS2FeSFeS3CH2CSHFeSHSH2SHC2HC6H4C6H11C2H2CH5FeNSHC3H2SH2C2H2FeCSCHC2H2NCH2CH3CH3CH6C3H3CH2CHC2HCFe2CH4C4HCH6SH8C2HCHCHCH2CNC11H14CH14CH2CH3CHC3H2CNCH2C2H9CSH2C4NC2SHSH4CH2CHNH3CS2HCHCHCHSH2CH2CH3CSCH3C2H5C2H2CH5C2FeHCH4FeH3CH4CHC2H4CH2CHSH2C2H8CHC3HC2FeHSH3S2HSH5FeSHCH2C2HSCHCFeSHFeS2FeCFeS3HCH2FeS2FeSFeS3FeS2FeS2FeSFeS3HC2FeHSFeSHSH3CHC4HC2HCH3C6H4C6H5C2H5C8H4C6H2CH5CHCHC6H4CNCH2C7H6CH4CH2NCFeHCH3C7H7SHNHC4H3CH7CH3CHCHCH5SCH5C5H14C2HCHSC2N2H6C2HSFeH2CH2CHCSHCHCH4CH2CH2CFeH5CHCSCH2C2HC2H2NHSH8C2H3CH3CH4CHFeC3HCH2CH7NC12H30NH2SH5SC2H3CSH2CFeH5CHC3H4NH7C2H2C2HCH3C2HC4H4CH2C3H3CH6SH2C2H5C2H2C2HCHCHCH6NCH2C2H4C3H3CNCHFeH2CH3CH4SH3C2H5NC3H2CHCHCH2CH12C2HCH5S2C2HC3H2CH4C2HSNH2SH4CFeCHCHSFeSH3FeSHSFeS2FeHSFeSH2S3H3CHCHC7H2C2H2C2H4FeHSHC2H2C6H5C2HCH4CH6FeC3H5CH4CH2C4HCSH7C3H2CH2C3FeHCH2CH3CH2CH7C2H3FeHSC2H4C2HCNSCH3CH3SFeHFeCH3C3H4CH3SC3HCSC2H3CNHFeH3CHCFeHSHCH2C2H6C2H2CH2CH2C2H2C2H3CH5CH3CH3CSC2HC2H2C2SHC2SH2CH2C4HC2NFeH2C2S2H4CH2C2H2FeH4CH4C2HSH4CH5SH3C3HSHSH3CH5CNSHCH5SH2C2HFeS2FeS2FeSFeHS3FeSH2FeSFeHC4H2C8H5CH2CH2CH2CH3CHCH2C9H3CH2NHC4HSH2FeHSH4CH2S2FeH3CHCHSCFeNH2CHCH2SCHC2SC2FeCH3SH2FeH2NH3SC2HCH2C2HCH6C2NSHC2HC3H3CH2C2HC2HCH3NC8HC3H17C2H11CHC2H3FeHCH2FeH2FeH3SH4CH6C2H8C3H2C2H4NCHC2H4CH2SH3CH3CFeHC2H2C2H3FeSCH3CHFeHCHCH2SH4SCHC2NH2CH11C2HCSCH2SNC2SH2C2H2C2SCHCH6SC2SHC2H4NSC2HSC3HCH4CH2CHCHC2FeH6CH2CH2CHC2H12CH3CSCH5C2SHCHFeS2FeSCFeSFeS3FeS2FeS2FeSFeS4FeS2FeS2FeSFeS3FeS2FeS2FeSFeS3C2SHFeS2FeS2FeHFeS3CHC3HSH2SCHFeS2FeS2FeSFeS3H2C6H12CH2CH2C7H4C6H5C6H4C6H4C6H4C6H4C2H3C6H4C6H4C6H4C6H4C6H4CH2C3HCH2CH5NC11H24CNC5HC5H21CHNC4H2CSHCHCHCH7CH2CH10CHNC11H26NC12H28NC12H28NC9HCH13C2H3C2H6CSCSCHCH5CHNH4CH2SH6CH6C2HCH3CNC12H28NC11H20CH4CH3CH3CH4SH4CHC3HFeCNSH3CH2CH6FeH2CH2CHCHCHCHCSCH4C3FeHCH2CH6FeH2CHC2H4SNH2CH3C3H2CHC2H4SH2SH2C3H4C2HCH5NH3CH2C2SHNC2H2C3H7NCNCH3CH3C2H8CH2CH4C2H2CH4CH5CH7CH4FeCHCH5CHCH5C2H2CHC2H2CH2CHCHSCH2CH3C3HC2HFeH3CH3C3H4C3HCHSH3SHSHCFeS2CFeS2CH2C2HC4HCH2C3HC2HCH4FeH2C2FeHC3HCH4NH2NCH2C3H2SCSHCH3C2HCH2CH3SHC2HC3FeH2FeH6SH5C2H2CFeCHC3HCH2CHSH2CH2C2H2CH2CH7CHSHC3H2C3H5SH3SH5CSH6CH5CHCSHSCH2NH8CHC2H4C2FeHS4H2CH8FeCSFeHCH2CSCSFeS2FeS2FeSFeS3HC2H2SCFeS2FeS2FeSFeS3C7H5CHC2HCSC5HCH2FeCH6C2HC2FeC3HCH6C5NH3C6H5CH7SC6H4C6H5NHC7H10SH5NC8HC3H18CNC2H6NHC3H2C3H2C2H7CSCH6FeCFeHSH4NC8HC3H17CH9CH4CH7CH2C3HCH7NC12H20CH11SH2CH2C2HSHNH2FeC2H3CHCH2C3HCH3NC4HC2HCHC2H2CH3CHSH5SHCH5C4H2C3HCH2FeCH3CH2NCH4CHCH4CHCHCHCH2CH2C2HCHFeSC2H2CFeSHFeC4H3CSHS2HFeH2FeCH2CHCH2SHCHCH2CFeCSH2CS2H2CHSCHFeHCH2CSC2HCHCHCH2SH2CH2CSHSHC2HC2H2SH3CH2C2HNFeHCH6CH2C2FeHSH3SH2CH3SH2CH5CHC2HCNH9CHSH2CH2CHCH3C2H5CNCH2CHC2HCHCH2FeH4C2H2C3H3SH3CH10CHCH5C2HCH4SH5CH2CHC4HC2HC2NH3CH3C2SHCSH5CH2CHSHCHC2H3CH3CH2SCH4CSC2H5CH3CNHCH2C3HCH3NH3CHSC3FeC4H2CH8C2HCH2SC3H2CH3CH2CSCH4C3H6CH3CH3CH2CFeC2HCFeHCSHCHCH8SHCHCHC3HCHNH8Fe2SHCHCHSHCNH3SHC2FeH5SFeNSH3C3H3NH8C2HCHFeHC2SHCH2CHCHCHCH4CH3CH3CH5CH2CH2CS2HCHCH3CH2C3HCHNC3H3CFeCH2SH12C2H2CHFeH2FeHC4HCHSH5C2H3FeH2SH5CHCHC3HFeSC2H3CHCH3CFeHSCHCHC3SC2HSCHSH2CHCHCH3FeH2CH3CHCH6SH3SCH3CH5FeH3SC2HCH3C2NCHCHC2H4CH3C2HCHCHCSHSHFeNCH2C
_chemical_formula_sum              "H6144 S768 C3456 Fe384 N192"
_cell_length_a       95.4055
_cell_length_b       96.3636
_cell_length_c       96.1067
_cell_angle_alpha    74.2633
_cell_angle_beta     74.1686
_cell_angle_gamma    73.5095

_space_group_name_H-M_alt    "P 1"
_space_group_IT_number       1

loop_
  _space_group_symop_operation_xyz
  'x, y, z'

loop_
  _atom_site_type_symbol
  _atom_site_label
  _atom_site_symmetry_multiplicity
  _atom_site_fract_x
  _atom_site_fract_y
  _atom_site_fract_z
  _atom_site_occupancy
  H   H1        1.0  0.38465  0.06763  0.15407  1.0000
  S   S1        1.0  0.47064  0.03170  0.10560  1.0000
  S   S2        1.0  0.41981  0.06641  0.20082  1.0000
  C   C1        1.0  0.42326  0.11921  0.06337  1.0000
  C   C2        1.0  0.43175  0.03469  0.12936  1.0000
  Fe  Fe1       1.0  0.46717  0.02074  0.08933  1.0000
  Fe  Fe2       1.0  0.42014  0.06340  0.17838  1.0000
  S   S3        1.0  0.41648  0.08275  0.15945  1.0000
  H   H2        1.0  0.43666  0.02465  0.12455  1.0000
  Fe  Fe3       1.0  0.42341  0.03047  0.18844  1.0000
  S   S4        1.0  0.44026  0.04447  0.17758  1.0000
  C   C3        1.0  0.44954  0.15177  0.03567  1.0000
  H   H3        1.0  0.42996  0.02026  0.15127  1.0000
  S   S5        1.0  0.45579  0.00162  0.09704  1.0000
  H   H4        1.0  0.42537  0.02877  0.08110  1.0000
  S   S6        1.0  0.44718  0.07417  0.09440  1.0000
  H   H5        1.0  0.45480  0.14082  0.03264  1.0000
  S   S7        1.0  0.45769  0.04202  0.07492  1.0000
  H   H6        1.0  0.43035  0.03892  0.15132  1.0000
  H   H7        1.0  0.43523  0.03073  0.10110  1.0000
  H   H8        1.0  0.37529  0.08047  0.14012  1.0000
  H   H9        1.0  0.42627  0.14641  0.05997  1.0000
  H   H10       1.0  0.45214  0.09487  0.04420  1.0000
  H   H11       1.0  0.43849  0.04290  0.12273  1.0000
  S   S8        1.0  0.42390  0.25585  0.01136  1.0000
  C   C4        1.0  0.45164  0.02480  0.14475  1.0000
  C   C5        1.0  0.40658  0.02910  0.13550  1.0000
  C   C6        1.0  0.46727  0.23828  0.06713  1.0000
  Fe  Fe4       1.0  0.44454  0.24032  0.01819  1.0000
  S   S9        1.0  0.44642  0.21678  0.03084  1.0000
  Fe  Fe5       1.0  0.43190  0.27340  0.01638  1.0000
  S   S10       1.0  0.41825  0.29231  0.02733  1.0000
  H   H12       1.0  0.46320  0.01976  0.20265  1.0000
  C   C7        1.0  0.43487  0.02986  0.14515  1.0000
  C   C8        1.0  0.43013  0.12858  0.04889  1.0000
  H   H13       1.0  0.39785  0.01695  0.20803  1.0000
  S   S11       1.0  0.45085  0.25733  0.02577  1.0000
  H   H14       1.0  0.39339  0.08183  0.14121  1.0000
  H   H15       1.0  0.39479  0.07041  0.12030  1.0000
  C   C9        1.0  0.48562  0.03541  0.16203  1.0000
  H   H16       1.0  0.46449  0.18731  0.02983  1.0000
  C   C10       1.0  0.42289  0.03288  0.10282  1.0000
  C   C11       1.0  0.40948  0.05462  0.13429  1.0000
  C   C12       1.0  0.45091  0.20589  0.01760  1.0000
  C   C13       1.0  0.44577  0.21169  0.00444  1.0000
  N   N1        1.0  0.41560  0.04076  0.12811  1.0000
  S   S12       1.0  0.48604  0.26811  0.00010  1.0000
  C   C14       1.0  0.39375  0.06355  0.13172  1.0000
  H   H17       1.0  0.43834  0.22254  0.00278  1.0000
  C   C15       1.0  0.41912  0.03748  0.08751  1.0000
  C   C16       1.0  0.46590  0.09641  0.02223  1.0000
  C   C17       1.0  0.47749  0.09849  0.07234  1.0000
  H   H18       1.0  0.42244  0.04802  0.08137  1.0000
  H   H19       1.0  0.45351  0.02051  0.15620  1.0000
  H   H20       1.0  0.45722  0.03417  0.13952  1.0000
  C   C18       1.0  0.47168  0.14707  0.04737  1.0000
  C   C19       1.0  0.39441  0.01372  0.15939  1.0000
  H   H21       1.0  0.49033  0.19489  0.99681  1.0000
  H   H22       1.0  0.47679  0.03212  0.17166  1.0000
  H   H23       1.0  0.45988  0.11578  0.06353  1.0000
  C   C20       1.0  0.42668  0.08081  0.14155  1.0000
  C   C21       1.0  0.42167  0.09100  0.12948  1.0000
  C   C22       1.0  0.42844  0.08906  0.11505  1.0000
  C   C23       1.0  0.44041  0.07704  0.11254  1.0000
  C   C24       1.0  0.44610  0.06732  0.12450  1.0000
  C   C25       1.0  0.43912  0.06912  0.13905  1.0000
  H   H24       1.0  0.41220  0.10015  0.13132  1.0000
  H   H25       1.0  0.42413  0.09671  0.10582  1.0000
  H   H26       1.0  0.45567  0.05831  0.12254  1.0000
  H   H27       1.0  0.44335  0.06147  0.14826  1.0000
  C   C26       1.0  0.49939  0.02677  0.20770  1.0000
  Fe  Fe6       1.0  0.46322  0.05295  0.08994  1.0000
  H   H28       1.0  0.42651  0.12630  0.03984  1.0000
  H   H29       1.0  0.41085  0.12238  0.06536  1.0000
  C   C27       1.0  0.45774  0.06753  0.23693  1.0000
  C   C28       1.0  0.46776  0.07416  0.04155  1.0000
  H   H30       1.0  0.41936  0.02238  0.10857  1.0000
  H   H31       1.0  0.41375  0.01795  0.13439  1.0000
  H   H32       1.0  0.45064  0.00645  0.18357  1.0000
  N   N2        1.0  0.43292  0.15554  0.03650  1.0000
  C   C29       1.0  0.42623  0.17159  0.03760  1.0000
  C   C30       1.0  0.43046  0.15356  0.02234  1.0000
  C   C31       1.0  0.43676  0.16389  0.00789  1.0000
  C   C32       1.0  0.41995  0.17498  0.05333  1.0000
  C   C33       1.0  0.41657  0.19159  0.05274  1.0000
  C   C34       1.0  0.49382  0.23120  0.05247  1.0000
  H   H33       1.0  0.41279  0.14867  0.04957  1.0000
  H   H34       1.0  0.43450  0.17851  0.03151  1.0000
  H   H35       1.0  0.41660  0.17629  0.03196  1.0000
  H   H36       1.0  0.41827  0.15508  0.02304  1.0000
  H   H37       1.0  0.43579  0.14212  0.02062  1.0000
  H   H38       1.0  0.45484  0.15976  0.02658  1.0000
  H   H39       1.0  0.44915  0.16110  0.00554  1.0000
  H   H40       1.0  0.43278  0.17574  0.00853  1.0000
  H   H41       1.0  0.40933  0.17123  0.05833  1.0000
  H   H42       1.0  0.42775  0.16936  0.06085  1.0000
  H   H43       1.0  0.40862  0.19781  0.04542  1.0000
  H   H44       1.0  0.41153  0.19380  0.06401  1.0000
  H   H45       1.0  0.42704  0.19569  0.04854  1.0000
  H   H46       1.0  0.49301  0.04930  0.10975  1.0000
  C   C35       1.0  0.46118  0.10473  0.07106  1.0000
  C   C36       1.0  0.40970  0.99975  0.23166  1.0000
  H   H47       1.0  0.40928  0.01088  0.23319  1.0000
  C   C37       1.0  0.44820  0.99599  0.18411  1.0000
  H   H48       1.0  0.37801  0.03024  0.19443  1.0000
  H   H49       1.0  0.49138  0.29553  0.01777  1.0000
  H   H50       1.0  0.47334  0.17343  0.00963  1.0000
  H   H51       1.0  0.46061  0.08951  0.22438  1.0000
  C   C38       1.0  0.47720  0.08880  0.01248  1.0000
  H   H52       1.0  0.37513  0.03724  0.21081  1.0000
  S   S13       1.0  0.45832  0.11528  0.01655  1.0000
  C   C39       1.0  0.46030  0.18976  0.99507  1.0000
  H   H53       1.0  0.47924  0.25355  0.05116  1.0000
  C   C40       1.0  0.46097  0.08903  0.03668  1.0000
  H   H54       1.0  0.48344  0.00734  0.16510  1.0000
  C   C41       1.0  0.49180  0.21620  0.03033  1.0000
  H   H55       1.0  0.47725  0.07490  0.22234  1.0000
  H   H56       1.0  0.44243  0.12463  0.04727  1.0000
  H   H57       1.0  0.45405  0.10586  0.08214  1.0000
  S   S14       1.0  0.48624  0.05395  0.07644  1.0000
  H   H58       1.0  0.48063  0.10614  0.07706  1.0000
  C   C42       1.0  0.46277  0.29915  0.03683  1.0000
  H   H59       1.0  0.42695  0.12056  0.07284  1.0000
  H   H60       1.0  0.48071  0.04034  0.15206  1.0000
  C   C43       1.0  0.49316  0.00983  0.15605  1.0000
  S   S15       1.0  0.41957  0.01130  0.18230  1.0000
  Fe  Fe7       1.0  0.43878  0.04645  0.20074  1.0000
  H   H61       1.0  0.43657  0.15048  0.99299  1.0000
  C   C44       1.0  0.48811  0.30769  0.01339  1.0000
  N   N3        1.0  0.39418  0.99687  0.23660  1.0000
  H   H62       1.0  0.48547  0.04696  0.21378  1.0000
  H   H63       1.0  0.46832  0.28977  0.01738  1.0000
  C   C45       1.0  0.38684  0.01402  0.21235  1.0000
  C   C46       1.0  0.47288  0.03457  0.20840  1.0000
  C   C47       1.0  0.40892  0.07337  0.23901  1.0000
  H   H64       1.0  0.41978  0.16495  0.99611  1.0000
  C   C48       1.0  0.47433  0.31003  0.99408  1.0000
  H   H65       1.0  0.43876  0.99683  0.14356  1.0000
  H   H66       1.0  0.48869  0.01514  0.14584  1.0000
  Fe  Fe8       1.0  0.40546  0.04989  0.21009  1.0000
  H   H67       1.0  0.44228  0.29095  0.04404  1.0000
  H   H68       1.0  0.48732  0.00153  0.19789  1.0000
  H   H69       1.0  0.40696  0.03886  0.08845  1.0000
  H   H70       1.0  0.40609  0.02998  0.15856  1.0000
  H   H71       1.0  0.49315  0.12214  0.06361  1.0000
  N   N4        1.0  0.47283  0.31172  0.00961  1.0000
  H   H72       1.0  0.40366  0.04933  0.11023  1.0000
  S   S16       1.0  0.45644  0.04810  0.21093  1.0000
  H   H73       1.0  0.38860  0.03742  0.15321  1.0000
  H   H74       1.0  0.45673  0.01582  0.13849  1.0000
  H   H75       1.0  0.48615  0.99517  0.10057  1.0000
  H   H76       1.0  0.41709  0.06231  0.12917  1.0000
  H   H77       1.0  0.40929  0.05233  0.14627  1.0000
  C   C49       1.0  0.46035  0.19175  0.01973  1.0000
  H   H78       1.0  0.48775  0.31301  0.02247  1.0000
  H   H79       1.0  0.48982  0.04400  0.16438  1.0000
  C   C50       1.0  0.47827  0.24201  0.05255  1.0000
  S   S17       1.0  0.48113  0.14354  0.00832  1.0000
  H   H80       1.0  0.47811  0.08772  0.08044  1.0000
  C   C51       1.0  0.48692  0.01128  0.20160  1.0000
  Fe  Fe9       1.0  0.47580  0.12627  0.00043  1.0000
  S   S18       1.0  0.49044  0.01908  0.07544  1.0000
  C   C52       1.0  0.47909  0.06653  0.03178  1.0000
  H   H81       1.0  0.48409  0.10568  0.04841  1.0000
  H   H82       1.0  0.36386  0.02514  0.21038  1.0000
  H   H83       1.0  0.46542  0.22703  0.06870  1.0000
  C   C53       1.0  0.46525  0.18381  0.00835  1.0000
  S   S19       1.0  0.42447  0.03011  0.21149  1.0000
  H   H84       1.0  0.47152  0.23882  0.07660  1.0000
  H   H85       1.0  0.47398  0.29550  0.03960  1.0000
  S   S20       1.0  0.40338  0.04928  0.18763  1.0000
  C   C54       1.0  0.37520  0.02748  0.20672  1.0000
  H   H86       1.0  0.45932  0.27664  0.04294  1.0000
  H   H87       1.0  0.47509  0.14724  0.05748  1.0000
  H   H88       1.0  0.41404  0.00018  0.21963  1.0000
  C   C55       1.0  0.47328  0.02162  0.20420  1.0000
  H   H89       1.0  0.45325  0.28636  0.05791  1.0000
  H   H90       1.0  0.43370  0.04737  0.23715  1.0000
  H   H91       1.0  0.45696  0.30970  0.04047  1.0000
  H   H92       1.0  0.45634  0.24636  0.06693  1.0000
  C   C56       1.0  0.43214  0.16205  0.99459  1.0000
  H   H93       1.0  0.44978  0.14453  0.05949  1.0000
  C   C57       1.0  0.45387  0.28756  0.04595  1.0000
  Fe  Fe10      1.0  0.48132  0.04143  0.06255  1.0000
  H   H94       1.0  0.45200  0.30430  0.01873  1.0000
  H   H95       1.0  0.38644  0.00486  0.20769  1.0000
  H   H96       1.0  0.47333  0.24163  0.04354  1.0000
  H   H97       1.0  0.47713  0.15472  0.03792  1.0000
  C   C58       1.0  0.45465  0.15202  0.04951  1.0000
  H   H98       1.0  0.38673  0.01188  0.15357  1.0000
  C   C59       1.0  0.48583  0.03695  0.21052  1.0000
  H   H99       1.0  0.45729  0.09713  0.06687  1.0000
  H   H100      1.0  0.47945  0.99937  0.14118  1.0000
  C   C60       1.0  0.46494  0.07776  0.22338  1.0000
  H   H101      1.0  0.46421  0.06864  0.05286  1.0000
  C   C61       1.0  0.39889  0.02847  0.15210  1.0000
  C   C62       1.0  0.46380  0.30097  0.02004  1.0000
  H   H102      1.0  0.38623  0.05619  0.13297  1.0000
  C   C63       1.0  0.41537  0.04521  0.11181  1.0000
  C   C64       1.0  0.38634  0.07399  0.14246  1.0000
  H   H103      1.0  0.39745  0.03054  0.12972  1.0000
  H   H104      1.0  0.42099  0.05462  0.10635  1.0000
  H   H105      1.0  0.42697  0.10732  0.06275  1.0000
  C   C65       1.0  0.41931  0.30971  0.01562  1.0000
  H   H106      1.0  0.45155  0.16346  0.05138  1.0000
  C   C66       1.0  0.42506  0.14534  0.04918  1.0000
  H   H107      1.0  0.43865  0.07003  0.22791  1.0000
  H   H108      1.0  0.48076  0.22216  0.01183  1.0000
  H   H109      1.0  0.46266  0.07645  0.21312  1.0000
  C   C67       1.0  0.38341  0.00986  0.22943  1.0000
  H   H110      1.0  0.47565  0.13566  0.04529  1.0000
  H   H111      1.0  0.48100  0.09452  0.00138  1.0000
  Fe  Fe11      1.0  0.46436  0.26182  0.00276  1.0000
  C   C68       1.0  0.43381  0.99540  0.18383  1.0000
  H   H112      1.0  0.49233  0.06789  0.00960  1.0000
  H   H113      1.0  0.48480  0.08655  0.05508  1.0000
  C   C69       1.0  0.41904  0.32152  0.02162  1.0000
  C   C70       1.0  0.42099  0.31180  0.00031  1.0000
  H   H114      1.0  0.38781  0.08241  0.23198  1.0000
  H   H115      1.0  0.42103  0.30285  0.99559  1.0000
  S   S21       1.0  0.38543  0.05153  0.22900  1.0000
  C   C71       1.0  0.49855  0.02210  0.15942  1.0000
  H   H116      1.0  0.43960  0.00022  0.22922  1.0000
  H   H117      1.0  0.38864  0.01380  0.17110  1.0000
  H   H118      1.0  0.38266  0.01996  0.23341  1.0000
  C   C72       1.0  0.48359  0.07378  0.01715  1.0000
  H   H119      1.0  0.43648  0.08302  0.23880  1.0000
  H   H120      1.0  0.39749  0.29751  0.99680  1.0000
  C   C73       1.0  0.44056  0.07104  0.23849  1.0000
  S   S22       1.0  0.48812  0.04816  0.03785  1.0000
  H   H121      1.0  0.41421  0.08142  0.22993  1.0000
  C   C74       1.0  0.48903  0.21287  0.01682  1.0000
  H   H122      1.0  0.42824  0.99170  0.13349  1.0000
  H   H123      1.0  0.48087  0.21812  0.03823  1.0000
  H   H124      1.0  0.49615  0.99146  0.12908  1.0000
  H   H125      1.0  0.41072  0.06309  0.23503  1.0000
  Fe  Fe12      1.0  0.49326  0.03166  0.09057  1.0000
  H   H126      1.0  0.49227  0.21965  0.05664  1.0000
  H   H127      1.0  0.40450  0.00446  0.15930  1.0000
  H   H128      1.0  0.45187  0.02230  0.23601  1.0000
  H   H129      1.0  0.46292  0.05610  0.23542  1.0000
  C   C75       1.0  0.45034  0.20356  0.99327  1.0000
  H   H130      1.0  0.48452  0.20278  0.02023  1.0000
  C   C76       1.0  0.48779  0.09609  0.05717  1.0000
  H   H131      1.0  0.49016  0.23968  0.02207  1.0000
  S   S23       1.0  0.45955  0.24361  0.99563  1.0000
  H   H132      1.0  0.37193  0.00783  0.23274  1.0000
  H   H133      1.0  0.49405  0.06381  0.12714  1.0000
  H   H134      1.0  0.49616  0.09175  0.02971  1.0000
  H   H135      1.0  0.47914  0.01592  0.23846  1.0000
  H   H136      1.0  0.41763  0.32001  0.03345  1.0000
  H   H137      1.0  0.49861  0.01250  0.23878  1.0000
  H   H138      1.0  0.45140  0.30777  0.99626  1.0000
  H   H139      1.0  0.48016  0.29849  0.99305  1.0000
  S   S24       1.0  0.44592  0.27896  0.99383  1.0000
  H   H140      1.0  0.49834  0.23335  0.06100  1.0000
  H   H141      1.0  0.49964  0.21092  0.00846  1.0000
  H   H142      1.0  0.49913  0.20616  0.03558  1.0000
  H   H143      1.0  0.49915  0.32230  0.99377  1.0000
  H   H144      1.0  0.49730  0.25612  0.03027  1.0000
  C   C77       1.0  0.49877  0.22990  0.02597  1.0000
  H   H145      1.0  0.39317  0.28376  0.99022  1.0000
  S   S25       1.0  0.27115  0.02505  0.35854  1.0000
  H   H146      1.0  0.17949  0.02904  0.45401  1.0000
  H   H147      1.0  0.19547  0.02934  0.43885  1.0000
  S   S26       1.0  0.10989  0.05363  0.45461  1.0000
  S   S27       1.0  0.07280  0.04086  0.46550  1.0000
  Fe  Fe13      1.0  0.01486  0.15368  0.44980  1.0000
  C   C78       1.0  0.01180  0.30794  0.39388  1.0000
  H   H148      1.0  0.28080  0.08749  0.48848  1.0000
  Fe  Fe14      1.0  0.02967  0.12171  0.44844  1.0000
  S   S28       1.0  0.01863  0.11351  0.47174  1.0000
  S   S29       1.0  0.04615  0.10649  0.43431  1.0000
  C   C79       1.0  0.28703  0.02223  0.36558  1.0000
  H   H149      1.0  0.00742  0.29819  0.39678  1.0000
  S   S30       1.0  0.23664  0.99744  0.42768  1.0000
  S   S31       1.0  0.00279  0.14798  0.47345  1.0000
  H   H150      1.0  0.23111  0.99371  0.46293  1.0000
  S   S32       1.0  0.03710  0.13954  0.45358  1.0000
  H   H151      1.0  0.29875  0.00305  0.35630  1.0000
  S   S33       1.0  0.12362  0.05143  0.48824  1.0000
  H   H152      1.0  0.13161  0.08070  0.44830  1.0000
  C   C80       1.0  0.48474  0.00105  0.28753  1.0000
  Fe  Fe15      1.0  0.41469  0.00528  0.29871  1.0000
  S   S34       1.0  0.39186  0.01619  0.29370  1.0000
  H   H153      1.0  0.37907  0.01738  0.33120  1.0000
  S   S35       1.0  0.11382  0.02392  0.44219  1.0000
  C   C81       1.0  0.37333  0.01499  0.35980  1.0000
  H   H154      1.0  0.26956  0.03817  0.43565  1.0000
  C   C82       1.0  0.03043  0.28506  0.46500  1.0000
  H   H155      1.0  0.34946  0.01634  0.36448  1.0000
  H   H156      1.0  0.03172  0.18563  0.34520  1.0000
  H   H157      1.0  0.03335  0.20819  0.37584  1.0000
  H   H158      1.0  0.29763  0.03376  0.43495  1.0000
  C   C83       1.0  0.24410  0.00685  0.35099  1.0000
  S   S36       1.0  0.03243  0.25101  0.40561  1.0000
  N   N5        1.0  0.29346  0.01365  0.43249  1.0000
  C   C84       1.0  0.02287  0.18222  0.38698  1.0000
  S   S37       1.0  0.03553  0.25824  0.36962  1.0000
  H   H159      1.0  0.15353  0.99367  0.39718  1.0000
  Fe  Fe16      1.0  0.03654  0.23802  0.38827  1.0000
  S   S38       1.0  0.05151  0.21503  0.39136  1.0000
  Fe  Fe17      1.0  0.02900  0.27122  0.38761  1.0000
  S   S39       1.0  0.03949  0.29020  0.38530  1.0000
  C   C85       1.0  0.39211  0.08008  0.24222  1.0000
  H   H160      1.0  0.32712  0.99842  0.47340  1.0000
  H   H161      1.0  0.32260  0.03063  0.34509  1.0000
  H   H162      1.0  0.02119  0.09432  0.42316  1.0000
  C   C86       1.0  0.23869  0.06198  0.43902  1.0000
  H   H163      1.0  0.20118  0.00671  0.45641  1.0000
  S   S40       1.0  0.24951  0.02672  0.47149  1.0000
  H   H164      1.0  0.47448  0.04354  0.26267  1.0000
  C   C87       1.0  0.05422  0.19745  0.47923  1.0000
  H   H165      1.0  0.14389  0.01896  0.41409  1.0000
  H   H166      1.0  0.01268  0.12718  0.40777  1.0000
  C   C88       1.0  0.28002  0.99452  0.47410  1.0000
  C   C89       1.0  0.02715  0.30697  0.38870  1.0000
  N   N6        1.0  0.43172  0.06201  0.25155  1.0000
  C   C90       1.0  0.00986  0.24606  0.46978  1.0000
  C   C91       1.0  0.03210  0.19577  0.33640  1.0000
  H   H167      1.0  0.15670  0.01973  0.39630  1.0000
  H   H168      1.0  0.13730  0.01624  0.38553  1.0000
  H   H169      1.0  0.49872  0.05996  0.26000  1.0000
  H   H170      1.0  0.32086  0.06199  0.34822  1.0000
  Fe  Fe18      1.0  0.12721  0.01188  0.45959  1.0000
  H   H171      1.0  0.28515  0.01931  0.45418  1.0000
  C   C92       1.0  0.39050  0.02563  0.27557  1.0000
  C   C93       1.0  0.37650  0.03365  0.27272  1.0000
  C   C94       1.0  0.37511  0.04149  0.25839  1.0000
  C   C95       1.0  0.38770  0.04134  0.24678  1.0000
  C   C96       1.0  0.40169  0.03315  0.24958  1.0000
  C   C97       1.0  0.40308  0.02526  0.26399  1.0000
  H   H172      1.0  0.36670  0.03390  0.28164  1.0000
  H   H173      1.0  0.36424  0.04776  0.25631  1.0000
  C   C98       1.0  0.31931  0.01027  0.43824  1.0000
  H   H174      1.0  0.41381  0.01889  0.26623  1.0000
  S   S41       1.0  0.42607  0.01574  0.30939  1.0000
  C   C99       1.0  0.08900  0.00007  0.46447  1.0000
  H   H175      1.0  0.06048  0.20870  0.36178  1.0000
  H   H176      1.0  0.02896  0.19173  0.48042  1.0000
  C   C100      1.0  0.43396  0.05178  0.29321  1.0000
  C   C101      1.0  0.02243  0.18715  0.42733  1.0000
  C   C102      1.0  0.03620  0.17994  0.41979  1.0000
  C   C103      1.0  0.04565  0.18839  0.40901  1.0000
  C   C104      1.0  0.04148  0.20393  0.40625  1.0000
  C   C105      1.0  0.02843  0.21081  0.41487  1.0000
  C   C106      1.0  0.01870  0.20256  0.42489  1.0000
  H   H177      1.0  0.03918  0.16798  0.42171  1.0000
  H   H178      1.0  0.05587  0.18294  0.40254  1.0000
  H   H179      1.0  0.02567  0.22261  0.41386  1.0000
  C   C107      1.0  0.38437  0.99567  0.46030  1.0000
  C   C108      1.0  0.06515  0.05890  0.45662  1.0000
  C   C109      1.0  0.07324  0.06589  0.44344  1.0000
  C   C110      1.0  0.06721  0.08043  0.43663  1.0000
  C   C111      1.0  0.05325  0.08821  0.44315  1.0000
  C   C112      1.0  0.04510  0.08121  0.45632  1.0000
  C   C113      1.0  0.05096  0.06651  0.46294  1.0000
  H   H180      1.0  0.08413  0.06007  0.43840  1.0000
  H   H181      1.0  0.07353  0.08573  0.42639  1.0000
  H   H182      1.0  0.03421  0.08699  0.46126  1.0000
  H   H183      1.0  0.04460  0.06109  0.47307  1.0000
  H   H184      1.0  0.39817  0.03111  0.32789  1.0000
  H   H185      1.0  0.01626  0.05487  0.42227  1.0000
  H   H186      1.0  0.04194  0.23297  0.34127  1.0000
  C   C114      1.0  0.03995  0.19065  0.32190  1.0000
  H   H187      1.0  0.24135  0.01970  0.44826  1.0000
  S   S42       1.0  0.01256  0.23790  0.39094  1.0000
  C   C115      1.0  0.01594  0.25357  0.45575  1.0000
  C   C116      1.0  0.44611  0.03405  0.25400  1.0000
  H   H188      1.0  0.31333  0.01205  0.44948  1.0000
  Fe  Fe19      1.0  0.23639  0.01560  0.40766  1.0000
  C   C117      1.0  0.36146  0.99679  0.34134  1.0000
  H   H189      1.0  0.02414  0.25983  0.45454  1.0000
  H   H190      1.0  0.01555  0.25944  0.43254  1.0000
  H   H191      1.0  0.01814  0.11152  0.39885  1.0000
  H   H192      1.0  0.05936  0.15685  0.45375  1.0000
  C   C118      1.0  0.48744  0.01129  0.24561  1.0000
  C   C119      1.0  0.19124  0.03024  0.45058  1.0000
  H   H193      1.0  0.34643  0.04854  0.33919  1.0000
  H   H194      1.0  0.39096  0.00618  0.25569  1.0000
  H   H195      1.0  0.02245  0.18685  0.39649  1.0000
  H   H196      1.0  0.20555  0.99710  0.37787  1.0000
  C   C120      1.0  0.24333  0.03803  0.45579  1.0000
  H   H197      1.0  0.01016  0.21429  0.35275  1.0000
  H   H198      1.0  0.37407  0.00439  0.46250  1.0000
  H   H199      1.0  0.03681  0.29208  0.46701  1.0000
  S   S43       1.0  0.25352  0.02924  0.39939  1.0000
  H   H200      1.0  0.41366  0.08085  0.25623  1.0000
  H   H201      1.0  0.23488  0.00234  0.35899  1.0000
  H   H202      1.0  0.37227  0.99684  0.33328  1.0000
  H   H203      1.0  0.16195  0.03760  0.42410  1.0000
  C   C121      1.0  0.00195  0.32166  0.39509  1.0000
  H   H204      1.0  0.31506  0.00624  0.41891  1.0000
  H   H205      1.0  0.35530  0.99368  0.46766  1.0000
  C   C122      1.0  0.03339  0.20248  0.36716  1.0000
  H   H206      1.0  0.19205  0.06418  0.39813  1.0000
  H   H207      1.0  0.34127  0.99872  0.42817  1.0000
  H   H208      1.0  0.30563  0.05300  0.35205  1.0000
  H   H209      1.0  0.21217  0.01843  0.45770  1.0000
  C   C123      1.0  0.17902  0.99214  0.43382  1.0000
  H   H210      1.0  0.39432  0.05063  0.31986  1.0000
  H   H211      1.0  0.00115  0.19899  0.45790  1.0000
  H   H212      1.0  0.24635  0.02763  0.33531  1.0000
  H   H213      1.0  0.00870  0.29630  0.43395  1.0000
  S   S44       1.0  0.46746  0.01390  0.28682  1.0000
  C   C124      1.0  0.41545  0.07009  0.25301  1.0000
  C   C125      1.0  0.35750  0.02271  0.35661  1.0000
  C   C126      1.0  0.27005  0.09134  0.48479  1.0000
  H   H214      1.0  0.35447  0.03348  0.36014  1.0000
  H   H215      1.0  0.04405  0.21343  0.32937  1.0000
  H   H216      1.0  0.36751  0.01896  0.38222  1.0000
  H   H217      1.0  0.46060  0.06920  0.24668  1.0000
  Fe  Fe20      1.0  0.00838  0.25173  0.40762  1.0000
  H   H218      1.0  0.00313  0.15468  0.41079  1.0000
  H   H219      1.0  0.22949  0.02173  0.33655  1.0000
  H   H220      1.0  0.13059  0.07824  0.48834  1.0000
  H   H221      1.0  0.36523  0.00560  0.25729  1.0000
  H   H222      1.0  0.23467  0.03470  0.42538  1.0000
  H   H223      1.0  0.42363  0.04484  0.27969  1.0000
  H   H224      1.0  0.43649  0.01744  0.25049  1.0000
  C   C127      1.0  0.35051  0.01211  0.33925  1.0000
  S   S45       1.0  0.21644  0.03446  0.40869  1.0000
  H   H225      1.0  0.18735  0.03030  0.40861  1.0000
  H   H226      1.0  0.47696  0.99433  0.26066  1.0000
  H   H227      1.0  0.23814  0.07375  0.43625  1.0000
  H   H228      1.0  0.26798  0.99768  0.41312  1.0000
  C   C128      1.0  0.49795  0.00598  0.28470  1.0000
  C   C129      1.0  0.24218  0.05336  0.45253  1.0000
  H   H229      1.0  0.44395  0.03079  0.26626  1.0000
  C   C130      1.0  0.29963  0.02853  0.38099  1.0000
  Fe  Fe21      1.0  0.44757  0.00342  0.29721  1.0000
  C   C131      1.0  0.07322  0.08288  0.47820  1.0000
  C   C132      1.0  0.08753  0.08876  0.47066  1.0000
  H   H230      1.0  0.16661  0.00842  0.47899  1.0000
  C   C133      1.0  0.08966  0.09236  0.45382  1.0000
  H   H231      1.0  0.23109  0.02930  0.35110  1.0000
  H   H232      1.0  0.03752  0.21614  0.48774  1.0000
  H   H233      1.0  0.01849  0.24395  0.33778  1.0000
  H   H234      1.0  0.01748  0.19026  0.36560  1.0000
  H   H235      1.0  0.06390  0.09143  0.47395  1.0000
  H   H236      1.0  0.34021  0.00251  0.44576  1.0000
  H   H237      1.0  0.36616  0.00092  0.38112  1.0000
  C   C134      1.0  0.15180  0.04888  0.40540  1.0000
  S   S46       1.0  0.23602  0.01355  0.38525  1.0000
  H   H238      1.0  0.42294  0.04277  0.25506  1.0000
  C   C135      1.0  0.31115  0.01598  0.37926  1.0000
  H   H239      1.0  0.08014  0.10115  0.45026  1.0000
  H   H240      1.0  0.10015  0.09630  0.44868  1.0000
  H   H241      1.0  0.09049  0.08241  0.44971  1.0000
  C   C136      1.0  0.29900  0.01017  0.36316  1.0000
  C   C137      1.0  0.18040  0.04066  0.38794  1.0000
  S   S47       1.0  0.01542  0.24673  0.48552  1.0000
  N   N7        1.0  0.18374  0.05909  0.44461  1.0000
  C   C138      1.0  0.18488  0.07195  0.45006  1.0000
  C   C139      1.0  0.16759  0.05794  0.44807  1.0000
  C   C140      1.0  0.19255  0.04514  0.45289  1.0000
  C   C141      1.0  0.19041  0.06016  0.42831  1.0000
  C   C142      1.0  0.18364  0.07406  0.41764  1.0000
  C   C143      1.0  0.20087  0.07396  0.44826  1.0000
  H   H242      1.0  0.05003  0.18897  0.48871  1.0000
  C   C144      1.0  0.15543  0.07266  0.44761  1.0000
  C   C145      1.0  0.14029  0.07026  0.44770  1.0000
  C   C146      1.0  0.19230  0.07416  0.40168  1.0000
  C   C147      1.0  0.20041  0.08773  0.45350  1.0000
  H   H243      1.0  0.31598  0.05735  0.33333  1.0000
  H   H244      1.0  0.17950  0.07083  0.46204  1.0000
  H   H245      1.0  0.17861  0.08260  0.44449  1.0000
  H   H246      1.0  0.16598  0.05169  0.44064  1.0000
  H   H247      1.0  0.16456  0.05138  0.45948  1.0000
  H   H248      1.0  0.18925  0.04486  0.46501  1.0000
  H   H249      1.0  0.20471  0.04498  0.44962  1.0000
  H   H250      1.0  0.20269  0.05915  0.42605  1.0000
  H   H251      1.0  0.18906  0.05071  0.42468  1.0000
  H   H252      1.0  0.18391  0.08438  0.42045  1.0000
  H   H253      1.0  0.17198  0.07398  0.41784  1.0000
  H   H254      1.0  0.20742  0.06441  0.45502  1.0000
  H   H255      1.0  0.20680  0.07527  0.43650  1.0000
  C   C148      1.0  0.34345  0.03872  0.33780  1.0000
  H   H256      1.0  0.01063  0.07750  0.47517  1.0000
  H   H257      1.0  0.15415  0.07711  0.45753  1.0000
  H   H258      1.0  0.15819  0.08131  0.43776  1.0000
  H   H259      1.0  0.45513  0.01075  0.25357  1.0000
  H   H260      1.0  0.14076  0.06675  0.43745  1.0000
  H   H261      1.0  0.13701  0.06166  0.45743  1.0000
  C   C149      1.0  0.04083  0.20537  0.33974  1.0000
  H   H262      1.0  0.18711  0.08410  0.39419  1.0000
  C   C150      1.0  0.16836  0.04861  0.38129  1.0000
  H   H263      1.0  0.19473  0.08683  0.46536  1.0000
  H   H264      1.0  0.21201  0.08876  0.45227  1.0000
  H   H265      1.0  0.19443  0.09784  0.44680  1.0000
  H   H266      1.0  0.38421  0.00479  0.37839  1.0000
  H   H267      1.0  0.02663  0.21112  0.47318  1.0000
  C   C151      1.0  0.23681  0.04007  0.43270  1.0000
  H   H268      1.0  0.27057  0.08571  0.47594  1.0000
  C   C152      1.0  0.28741  0.03149  0.37437  1.0000
  H   H269      1.0  0.08274  0.00091  0.47590  1.0000
  C   C153      1.0  0.28955  0.99557  0.45840  1.0000
  H   H270      1.0  0.08480  0.01041  0.45680  1.0000
  H   H271      1.0  0.36797  0.02723  0.31829  1.0000
  H   H272      1.0  0.34243  0.04108  0.32604  1.0000
  C   C154      1.0  0.31693  0.05368  0.34510  1.0000
  H   H273      1.0  0.20411  0.07448  0.40054  1.0000
  H   H274      1.0  0.39361  0.03770  0.30974  1.0000
  C   C155      1.0  0.39752  0.00165  0.46050  1.0000
  C   C156      1.0  0.23737  0.02230  0.34290  1.0000
  H   H275      1.0  0.02059  0.20187  0.33527  1.0000
  H   H276      1.0  0.41570  0.06340  0.28257  1.0000
  H   H277      1.0  0.00711  0.30279  0.36777  1.0000
  H   H278      1.0  0.12469  0.01492  0.40356  1.0000
  H   H279      1.0  0.06505  0.21335  0.34190  1.0000
  H   H280      1.0  0.37270  0.04405  0.33911  1.0000
  H   H281      1.0  0.05827  0.14592  0.47233  1.0000
  H   H282      1.0  0.39785  0.01212  0.45209  1.0000
  H   H283      1.0  0.04206  0.09702  0.48838  1.0000
  H   H284      1.0  0.19534  0.01603  0.47162  1.0000
  H   H285      1.0  0.26288  0.00185  0.33373  1.0000
  H   H286      1.0  0.31044  0.99312  0.43501  1.0000
  H   H287      1.0  0.10106  0.99904  0.46375  1.0000
  Fe  Fe22      1.0  0.12328  0.03945  0.47124  1.0000
  S   S48       1.0  0.23272  0.05004  0.37563  1.0000
  N   N8        1.0  0.35556  0.02495  0.34098  1.0000
  N   N9        1.0  0.03330  0.21327  0.35237  1.0000
  C   C157      1.0  0.28617  0.00986  0.42231  1.0000
  C   C158      1.0  0.43643  0.06138  0.26550  1.0000
  C   C159      1.0  0.27986  0.99158  0.41193  1.0000
  S   S49       1.0  0.00904  0.17774  0.43939  1.0000
  N   N10       1.0  0.04859  0.19822  0.46568  1.0000
  C   C160      1.0  0.05619  0.18400  0.46034  1.0000
  C   C161      1.0  0.05280  0.21135  0.45405  1.0000
  H   H288      1.0  0.00988  0.20296  0.37776  1.0000
  C   C162      1.0  0.03186  0.20015  0.47026  1.0000
  C   C163      1.0  0.02350  0.19960  0.45883  1.0000
  C   C164      1.0  0.05248  0.16964  0.47103  1.0000
  C   C165      1.0  0.04218  0.22430  0.35160  1.0000
  C   C166      1.0  0.05460  0.21091  0.43764  1.0000
  C   C167      1.0  0.05653  0.22579  0.42756  1.0000
  C   C168      1.0  0.14757  0.01460  0.40378  1.0000
  C   C169      1.0  0.06153  0.15601  0.46477  1.0000
  C   C170      1.0  0.06661  0.22962  0.35232  1.0000
  H   H289      1.0  0.06856  0.18272  0.45770  1.0000
  H   H290      1.0  0.05337  0.18422  0.44981  1.0000
  H   H291      1.0  0.04454  0.22177  0.45622  1.0000
  H   H292      1.0  0.06381  0.21274  0.45467  1.0000
  H   H293      1.0  0.29986  0.03567  0.38784  1.0000
  H   H294      1.0  0.01123  0.31285  0.48584  1.0000
  H   H295      1.0  0.32203  0.02091  0.43154  1.0000
  S   S50       1.0  0.32568  0.01151  0.38861  1.0000
  H   H296      1.0  0.02910  0.19029  0.45316  1.0000
  H   H297      1.0  0.02256  0.21021  0.45054  1.0000
  C   C171      1.0  0.01126  0.25315  0.44324  1.0000
  C   C172      1.0  0.27379  0.04643  0.47845  1.0000
  H   H298      1.0  0.03697  0.23030  0.36084  1.0000
  C   C173      1.0  0.42637  0.05512  0.28020  1.0000
  H   H299      1.0  0.06473  0.20245  0.43416  1.0000
  H   H300      1.0  0.04487  0.20821  0.43575  1.0000
  H   H301      1.0  0.05774  0.22525  0.41589  1.0000
  H   H302      1.0  0.04661  0.23467  0.43051  1.0000
  H   H303      1.0  0.06670  0.22860  0.42851  1.0000
  C   C174      1.0  0.47991  0.04996  0.26680  1.0000
  H   H304      1.0  0.00890  0.09144  0.45038  1.0000
  H   H305      1.0  0.39633  0.00398  0.47153  1.0000
  H   H306      1.0  0.36347  0.99341  0.35270  1.0000
  H   H307      1.0  0.01185  0.08210  0.41211  1.0000
  H   H308      1.0  0.28770  0.05946  0.41294  1.0000
  C   C175      1.0  0.17815  0.03674  0.40342  1.0000
  C   C176      1.0  0.01753  0.22181  0.35146  1.0000
  H   H309      1.0  0.36816  0.05078  0.32118  1.0000
  C   C177      1.0  0.01454  0.28748  0.47437  1.0000
  H   H310      1.0  0.03388  0.17450  0.38436  1.0000
  C   C178      1.0  0.23621  0.05524  0.42897  1.0000
  C   C179      1.0  0.33415  0.99908  0.43939  1.0000
  H   H311      1.0  0.17004  0.05160  0.36936  1.0000
  H   H312      1.0  0.26814  0.99572  0.47407  1.0000
  H   H313      1.0  0.27408  0.01545  0.42389  1.0000
  C   C180      1.0  0.05899  0.21778  0.35197  1.0000
  C   C181      1.0  0.15278  0.99747  0.40737  1.0000
  H   H314      1.0  0.03002  0.28808  0.45309  1.0000
  C   C182      1.0  0.00221  0.07721  0.41857  1.0000
  H   H315      1.0  0.04461  0.31900  0.38187  1.0000
  H   H316      1.0  0.27454  0.03934  0.41594  1.0000
  H   H317      1.0  0.05163  0.19777  0.34179  1.0000
  S   S51       1.0  0.23280  0.06535  0.41157  1.0000
  Fe  Fe23      1.0  0.09807  0.03538  0.45989  1.0000
  C   C183      1.0  0.32760  0.03848  0.34767  1.0000
  H   H318      1.0  0.18070  0.00713  0.39995  1.0000
  H   H319      1.0  0.30131  0.03190  0.41624  1.0000
  H   H320      1.0  0.17417  0.01104  0.44398  1.0000
  C   C184      1.0  0.39122  0.04007  0.32094  1.0000
  H   H321      1.0  0.48314  0.04326  0.27730  1.0000
  H   H322      1.0  0.05464  0.22090  0.47678  1.0000
  H   H323      1.0  0.37868  0.00536  0.35460  1.0000
  H   H324      1.0  0.38972  0.09061  0.24595  1.0000
  H   H325      1.0  0.06168  0.23388  0.36263  1.0000
  C   C185      1.0  0.02003  0.19481  0.37375  1.0000
  C   C186      1.0  0.16377  0.04076  0.41218  1.0000
  H   H326      1.0  0.15548  0.99611  0.43403  1.0000
  H   H327      1.0  0.18920  0.99553  0.42647  1.0000
  S   S52       1.0  0.19788  0.03528  0.37647  1.0000
  H   H328      1.0  0.32807  0.03528  0.35953  1.0000
  H   H329      1.0  0.08662  0.09930  0.47378  1.0000
  S   S53       1.0  0.00430  0.27322  0.39136  1.0000
  H   H330      1.0  0.07869  0.22473  0.35207  1.0000
  H   H331      1.0  0.42617  0.04824  0.30370  1.0000
  H   H332      1.0  0.27826  0.04095  0.37606  1.0000
  C   C187      1.0  0.14047  0.05512  0.48870  1.0000
  Fe  Fe24      1.0  0.23351  0.04830  0.39925  1.0000
  H   H333      1.0  0.26864  0.05421  0.46938  1.0000
  C   C188      1.0  0.27814  0.04056  0.42554  1.0000
  C   C189      1.0  0.01571  0.23374  0.33710  1.0000
  C   C190      1.0  0.37270  0.00962  0.37642  1.0000
  C   C191      1.0  0.29347  0.02994  0.42721  1.0000
  C   C192      1.0  0.36957  0.02698  0.32943  1.0000
  H   H334      1.0  0.02303  0.23000  0.32707  1.0000
  Fe  Fe25      1.0  0.12685  0.04116  0.43851  1.0000
  C   C193      1.0  0.37074  0.99106  0.27720  1.0000
  H   H335      1.0  0.27259  0.01269  0.44860  1.0000
  H   H336      1.0  0.28083  0.00329  0.47914  1.0000
  H   H337      1.0  0.00893  0.29922  0.47104  1.0000
  H   H338      1.0  0.34778  0.01449  0.32815  1.0000
  H   H339      1.0  0.43674  0.07270  0.26607  1.0000
  H   H340      1.0  0.04396  0.19375  0.36665  1.0000
  H   H341      1.0  0.26799  0.06403  0.42083  1.0000
  H   H342      1.0  0.06549  0.23896  0.34264  1.0000
  H   H343      1.0  0.01251  0.22754  0.36093  1.0000
  S   S54       1.0  0.11035  0.02178  0.47766  1.0000
  H   H344      1.0  0.44415  0.04269  0.29199  1.0000
  H   H345      1.0  0.47175  0.06026  0.26920  1.0000
  C   C194      1.0  0.20054  0.01710  0.45967  1.0000
  C   C195      1.0  0.37466  0.04133  0.32814  1.0000
  H   H346      1.0  0.00857  0.28069  0.47140  1.0000
  Fe  Fe26      1.0  0.01089  0.25930  0.37438  1.0000
  H   H347      1.0  0.03631  0.27323  0.46763  1.0000
  H   H348      1.0  0.31990  0.99721  0.36881  1.0000
  H   H349      1.0  0.43710  0.06177  0.29394  1.0000
  S   S55       1.0  0.43613  0.99484  0.28472  1.0000
  H   H350      1.0  0.07410  0.07308  0.47374  1.0000
  H   H351      1.0  0.34007  0.01053  0.34754  1.0000
  S   S56       1.0  0.13362  0.05412  0.41563  1.0000
  Fe  Fe27      1.0  0.21767  0.03401  0.38538  1.0000
  Fe  Fe28      1.0  0.25112  0.02947  0.37683  1.0000
  H   H352      1.0  0.28120  0.05896  0.43265  1.0000
  C   C196      1.0  0.30958  0.00520  0.43082  1.0000
  H   H353      1.0  0.38086  0.02281  0.35544  1.0000
  H   H354      1.0  0.05154  0.18419  0.32241  1.0000
  S   S57       1.0  0.14150  0.02842  0.45464  1.0000
  C   C197      1.0  0.24050  0.03148  0.44592  1.0000
  C   C198      1.0  0.31092  0.00685  0.37026  1.0000
  H   H355      1.0  0.03372  0.18346  0.31993  1.0000
  H   H356      1.0  0.28523  0.04072  0.47358  1.0000
  H   H357      1.0  0.24434  0.05846  0.46022  1.0000
  H   H358      1.0  0.09758  0.08048  0.47369  1.0000
  H   H359      1.0  0.07368  0.15481  0.46370  1.0000
  H   H360      1.0  0.16475  0.01003  0.42227  1.0000
  C   C199      1.0  0.00639  0.06099  0.41734  1.0000
  H   H361      1.0  0.04031  0.20030  0.31244  1.0000
  H   H362      1.0  0.13057  0.03192  0.39431  1.0000
  C   C200      1.0  0.27889  0.05673  0.42284  1.0000
  H   H363      1.0  0.40821  0.06360  0.26200  1.0000
  C   C201      1.0  0.28668  0.99337  0.42384  1.0000
  C   C202      1.0  0.13421  0.01965  0.39632  1.0000
  C   C203      1.0  0.44744  0.02035  0.24815  1.0000
  C   C204      1.0  0.37312  0.99488  0.26034  1.0000
  H   H364      1.0  0.14495  0.05918  0.38472  1.0000
  C   C205      1.0  0.43317  0.04680  0.24900  1.0000
  C   C206      1.0  0.03272  0.31970  0.38569  1.0000
  H   H365      1.0  0.44801  0.05472  0.26539  1.0000
  C   C207      1.0  0.28471  0.01096  0.44834  1.0000
  C   C208      1.0  0.15418  0.05291  0.38999  1.0000
  H   H366      1.0  0.29133  0.01410  0.41058  1.0000
  C   C209      1.0  0.00758  0.19774  0.46635  1.0000
  H   H367      1.0  0.24656  0.99791  0.33186  1.0000
  C   C210      1.0  0.49365  0.05380  0.25532  1.0000
  H   H368      1.0  0.01404  0.17586  0.39019  1.0000
  H   H369      1.0  0.26807  0.11413  0.48606  1.0000
  Fe  Fe29      1.0  0.42679  0.99487  0.32682  1.0000
  H   H370      1.0  0.48440  0.01767  0.25444  1.0000
  Fe  Fe30      1.0  0.02456  0.13232  0.47663  1.0000
  C   C211      1.0  0.20762  0.99329  0.38927  1.0000
  N   N11       1.0  0.16733  0.99131  0.41263  1.0000
  H   H371      1.0  0.49925  0.03660  0.24339  1.0000
  C   C212      1.0  0.04980  0.21203  0.48505  1.0000
  C   C213      1.0  0.48772  0.99501  0.25261  1.0000
  H   H372      1.0  0.41147  0.03304  0.24073  1.0000
  H   H373      1.0  0.49732  0.01762  0.28317  1.0000
  H   H374      1.0  0.03126  0.11555  0.40676  1.0000
  C   C214      1.0  0.17558  0.99885  0.44737  1.0000
  H   H375      1.0  0.04045  0.16986  0.47261  1.0000
  C   C215      1.0  0.00062  0.24510  0.44476  1.0000
  H   H376      1.0  0.24562  0.99971  0.46678  1.0000
  H   H377      1.0  0.37364  0.99948  0.28121  1.0000
  H   H378      1.0  0.30126  0.99345  0.45953  1.0000
  H   H379      1.0  0.25782  0.11230  0.47356  1.0000
  H   H380      1.0  0.00156  0.20625  0.47301  1.0000
  C   C216      1.0  0.38946  0.99620  0.25306  1.0000
  H   H381      1.0  0.00926  0.06029  0.40550  1.0000
  H   H382      1.0  0.26712  0.03795  0.48398  1.0000
  H   H383      1.0  0.25157  0.00817  0.35730  1.0000
  H   H384      1.0  0.38610  0.07221  0.25082  1.0000
  S   S58       1.0  0.42264  0.99557  0.35080  1.0000
  H   H385      1.0  0.05507  0.16811  0.48198  1.0000
  H   H386      1.0  0.27607  0.99408  0.35556  1.0000
  H   H387      1.0  0.06666  0.19389  0.47704  1.0000
  H   H388      1.0  0.48979  0.06148  0.24548  1.0000
  H   H389      1.0  0.28613  0.99581  0.40070  1.0000
  H   H390      1.0  0.08786  0.05065  0.48523  1.0000
  H   H391      1.0  0.27789  0.10955  0.46844  1.0000
  C   C217      1.0  0.16589  0.99787  0.42570  1.0000
  H   H392      1.0  0.28172  0.06260  0.48382  1.0000
  H   H393      1.0  0.20768  0.00298  0.39338  1.0000
  H   H394      1.0  0.38590  0.99397  0.44897  1.0000
  H   H395      1.0  0.45705  0.03706  0.25021  1.0000
  H   H396      1.0  0.00828  0.20826  0.43086  1.0000
  H   H397      1.0  0.26688  0.99201  0.38238  1.0000
  C   C218      1.0  0.26829  0.10785  0.47783  1.0000
  H   H398      1.0  0.42036  0.99153  0.25082  1.0000
  H   H399      1.0  0.00783  0.18658  0.47364  1.0000
  H   H400      1.0  0.14357  0.99315  0.41574  1.0000
  H   H401      1.0  0.49454  0.99349  0.31678  1.0000
  C   C219      1.0  0.01410  0.10567  0.42295  1.0000
  C   C220      1.0  0.01928  0.11562  0.40814  1.0000
  S   S59       1.0  0.00845  0.13669  0.44230  1.0000
  H   H402      1.0  0.01615  0.10983  0.43171  1.0000
  H   H403      1.0  0.18495  0.99415  0.45324  1.0000
  H   H404      1.0  0.40827  0.99356  0.45784  1.0000
  H   H405      1.0  0.00940  0.07369  0.43875  1.0000
  H   H406      1.0  0.16526  0.99621  0.45514  1.0000
  H   H407      1.0  0.12423  0.99302  0.43914  1.0000
  C   C221      1.0  0.17982  0.99581  0.40007  1.0000
  H   H408      1.0  0.17726  0.99686  0.38914  1.0000
  C   C222      1.0  0.25331  0.99669  0.34010  1.0000
  C   C223      1.0  0.14056  0.06949  0.48913  1.0000
  H   H409      1.0  0.25214  0.06799  0.48833  1.0000
  C   C224      1.0  0.27455  0.05468  0.48965  1.0000
  C   C225      1.0  0.16638  0.00060  0.48989  1.0000
  C   C226      1.0  0.42069  0.07467  0.60275  1.0000
  S   S60       1.0  0.49262  0.03394  0.60685  1.0000
  H   H410      1.0  0.46397  0.08277  0.58901  1.0000
  H   H411      1.0  0.01351  0.15887  0.54548  1.0000
  H   H412      1.0  0.24681  0.09217  0.49237  1.0000
  H   H413      1.0  0.42351  0.08986  0.62490  1.0000
  H   H414      1.0  0.25146  0.99286  0.56139  1.0000
  C   C227      1.0  0.47657  0.09055  0.59952  1.0000
  C   C228      1.0  0.04067  0.08921  0.49921  1.0000
  C   C229      1.0  0.42497  0.00503  0.65611  1.0000
  H   H415      1.0  0.40322  0.08003  0.59040  1.0000
  C   C230      1.0  0.27888  0.00941  0.53777  1.0000
  H   H416      1.0  0.09396  0.10795  0.50978  1.0000
  H   H417      1.0  0.47284  0.09554  0.69517  1.0000
  H   H418      1.0  0.42627  0.06022  0.62833  1.0000
  H   H419      1.0  0.44534  0.00647  0.64022  1.0000
  H   H420      1.0  0.42771  0.08297  0.71253  1.0000
  H   H421      1.0  0.21445  0.07862  0.53549  1.0000
  H   H422      1.0  0.40785  0.08882  0.65021  1.0000
  C   C231      1.0  0.21538  0.07480  0.52529  1.0000
  H   H423      1.0  0.19922  0.00801  0.57061  1.0000
  C   C232      1.0  0.43486  0.06609  0.62794  1.0000
  H   H424      1.0  0.08047  0.11684  0.49827  1.0000
  C   C233      1.0  0.08437  0.09275  0.50427  1.0000
  C   C234      1.0  0.41253  0.10215  0.70380  1.0000
  H   H425      1.0  0.40455  0.07596  0.64153  1.0000
  C   C235      1.0  0.04484  0.15283  0.51791  1.0000
  C   C236      1.0  0.41294  0.07848  0.64596  1.0000
  C   C237      1.0  0.08057  0.06549  0.50083  1.0000
  H   H426      1.0  0.44586  0.02294  0.73194  1.0000
  H   H427      1.0  0.46612  0.01945  0.71105  1.0000
  S   S61       1.0  0.01365  0.22167  0.52639  1.0000
  H   H428      1.0  0.45874  0.07669  0.70239  1.0000
  S   S62       1.0  0.39924  0.02196  0.72691  1.0000
  S   S63       1.0  0.18210  0.06568  0.49459  1.0000
  H   H429      1.0  0.17584  0.03798  0.49342  1.0000
  C   C238      1.0  0.25864  0.06232  0.49714  1.0000
  H   H430      1.0  0.44814  0.07396  0.72048  1.0000
  H   H431      1.0  0.26909  0.04543  0.52219  1.0000
  C   C239      1.0  0.44137  0.99778  0.64952  1.0000
  H   H432      1.0  0.43331  0.04921  0.73175  1.0000
  H   H433      1.0  0.01033  0.17952  0.55728  1.0000
  Fe  Fe31      1.0  0.42149  0.03383  0.68772  1.0000
  S   S64       1.0  0.39868  0.04686  0.69627  1.0000
  S   S65       1.0  0.43468  0.04018  0.66477  1.0000
  C   C240      1.0  0.46850  0.07904  0.59921  1.0000
  Fe  Fe32      1.0  0.39317  0.02449  0.70522  1.0000
  S   S66       1.0  0.37160  0.01902  0.70554  1.0000
  S   S67       1.0  0.41540  0.01183  0.69509  1.0000
  S   S68       1.0  0.43054  0.03157  0.70775  1.0000
  Fe  Fe33      1.0  0.42192  0.01082  0.71611  1.0000
  H   H434      1.0  0.29563  0.04523  0.51995  1.0000
  H   H435      1.0  0.48111  0.12530  0.69458  1.0000
  H   H436      1.0  0.44284  0.09934  0.69304  1.0000
  C   C241      1.0  0.36421  0.00104  0.66913  1.0000
  C   C242      1.0  0.37889  0.00068  0.66962  1.0000
  C   C243      1.0  0.38148  0.00648  0.68051  1.0000
  C   C244      1.0  0.36938  0.01264  0.69084  1.0000
  C   C245      1.0  0.35481  0.01315  0.69006  1.0000
  C   C246      1.0  0.35225  0.00744  0.67929  1.0000
  H   H437      1.0  0.47992  0.05525  0.70546  1.0000
  H   H438      1.0  0.39278  0.00598  0.68106  1.0000
  H   H439      1.0  0.34541  0.01792  0.69792  1.0000
  H   H440      1.0  0.34090  0.00785  0.67894  1.0000
  H   H441      1.0  0.28610  0.00466  0.54562  1.0000
  H   H442      1.0  0.09221  0.06706  0.49711  1.0000
  C   C247      1.0  0.41493  0.08111  0.58843  1.0000
  H   H443      1.0  0.41587  0.06937  0.65535  1.0000
  H   H444      1.0  0.47246  0.10302  0.71023  1.0000
  S   S69       1.0  0.40121  0.06011  0.73094  1.0000
  H   H445      1.0  0.06170  0.09149  0.51241  1.0000
  H   H446      1.0  0.45485  0.02034  0.68532  1.0000
  H   H447      1.0  0.49814  0.09596  0.69910  1.0000
  H   H448      1.0  0.47701  0.06854  0.59847  1.0000
  N   N12       1.0  0.44513  0.06819  0.61287  1.0000
  H   H449      1.0  0.03574  0.11517  0.52983  1.0000
  H   H450      1.0  0.41513  0.09303  0.58455  1.0000
  H   H451      1.0  0.25348  0.02737  0.50931  1.0000
  C   C248      1.0  0.28459  0.00880  0.52283  1.0000
  H   H452      1.0  0.46052  0.99392  0.68636  1.0000
  C   C249      1.0  0.25466  0.02307  0.53222  1.0000
  C   C250      1.0  0.00509  0.15348  0.55412  1.0000
  C   C251      1.0  0.44548  0.04208  0.60970  1.0000
  H   H453      1.0  0.21675  0.06259  0.52800  1.0000
  C   C252      1.0  0.45890  0.07203  0.67006  1.0000
  C   C253      1.0  0.44453  0.07138  0.67842  1.0000
  C   C254      1.0  0.43712  0.06163  0.67663  1.0000
  C   C255      1.0  0.44391  0.05278  0.66621  1.0000
  C   C256      1.0  0.45813  0.05369  0.65748  1.0000
  C   C257      1.0  0.47515  0.99439  0.63873  1.0000
  H   H454      1.0  0.43921  0.07819  0.68650  1.0000
  H   H455      1.0  0.42609  0.06102  0.68332  1.0000
  S   S70       1.0  0.30361  0.00150  0.51638  1.0000
  H   H456      1.0  0.46839  0.00018  0.63033  1.0000
  H   H457      1.0  0.47593  0.99537  0.67045  1.0000
  H   H458      1.0  0.46898  0.02303  0.66868  1.0000
  H   H459      1.0  0.02821  0.12829  0.55078  1.0000
  H   H460      1.0  0.05306  0.06877  0.49286  1.0000
  C   C258      1.0  0.08110  0.05084  0.49662  1.0000
  H   H461      1.0  0.48631  0.09093  0.59003  1.0000
  H   H462      1.0  0.22893  0.07538  0.50332  1.0000
  C   C259      1.0  0.45595  0.07683  0.61330  1.0000
  H   H463      1.0  0.02445  0.07613  0.51254  1.0000
  C   C260      1.0  0.46537  0.10265  0.70291  1.0000
  C   C261      1.0  0.20828  0.00658  0.56066  1.0000
  H   H464      1.0  0.48074  0.08766  0.60989  1.0000
  N   N13       1.0  0.25766  0.07292  0.50666  1.0000
  C   C262      1.0  0.00964  0.13522  0.53919  1.0000
  H   H465      1.0  0.07432  0.10937  0.51779  1.0000
  Fe  Fe34      1.0  0.20004  0.04625  0.50187  1.0000
  S   S71       1.0  0.49118  0.02874  0.56827  1.0000
  C   C263      1.0  0.43917  0.10157  0.70442  1.0000
  H   H466      1.0  0.46279  0.02317  0.73648  1.0000
  C   C264      1.0  0.47130  0.07140  0.71959  1.0000
  H   H467      1.0  0.28150  0.06787  0.50611  1.0000
  H   H468      1.0  0.47472  0.99371  0.59858  1.0000
  C   C265      1.0  0.03375  0.16586  0.51617  1.0000
  C   C266      1.0  0.26396  0.01675  0.54241  1.0000
  H   H469      1.0  0.42002  0.01700  0.63456  1.0000
  C   C267      1.0  0.43688  0.07648  0.60059  1.0000
  C   C268      1.0  0.49520  0.05439  0.62021  1.0000
  H   H470      1.0  0.24331  0.07918  0.52687  1.0000
  H   H471      1.0  0.38818  0.99575  0.66179  1.0000
  N   N14       1.0  0.45225  0.09598  0.71203  1.0000
  C   C269      1.0  0.04571  0.14143  0.51105  1.0000
  H   H472      1.0  0.00027  0.29748  0.69225  1.0000
  C   C270      1.0  0.27068  0.06870  0.51422  1.0000
  H   H473      1.0  0.01521  0.30285  0.69631  1.0000
  H   H474      1.0  0.43252  0.12079  0.72340  1.0000
  H   H475      1.0  0.41620  0.10035  0.69229  1.0000
  H   H476      1.0  0.02639  0.07906  0.49272  1.0000
  H   H477      1.0  0.46026  0.00228  0.71847  1.0000
  H   H478      1.0  0.08169  0.03725  0.51880  1.0000
  C   C271      1.0  0.02471  0.15619  0.50017  1.0000
  C   C272      1.0  0.42517  0.09501  0.71217  1.0000
  C   C273      1.0  0.45706  0.07943  0.71329  1.0000
  H   H479      1.0  0.45719  0.11775  0.68370  1.0000
  C   C274      1.0  0.24354  0.07286  0.51863  1.0000
  H   H480      1.0  0.05260  0.06921  0.51143  1.0000
  C   C275      1.0  0.08815  0.03738  0.50727  1.0000
  H   H481      1.0  0.41982  0.06298  0.60638  1.0000
  H   H482      1.0  0.27977  0.01490  0.50110  1.0000
  H   H483      1.0  0.02368  0.26422  0.51582  1.0000
  H   H484      1.0  0.49703  0.07051  0.63093  1.0000
  H   H485      1.0  0.01907  0.27058  0.49309  1.0000
  H   H486      1.0  0.01675  0.15743  0.49353  1.0000
  H   H487      1.0  0.09396  0.09103  0.49490  1.0000
  H   H488      1.0  0.40886  0.11421  0.70358  1.0000
  C   C276      1.0  0.22855  0.07924  0.51330  1.0000
  H   H489      1.0  0.46374  0.02860  0.59637  1.0000
  H   H490      1.0  0.49030  0.02061  0.69550  1.0000
  H   H491      1.0  0.44246  0.00948  0.67189  1.0000
  H   H492      1.0  0.25966  0.01759  0.55387  1.0000
  H   H493      1.0  0.45773  0.09453  0.73287  1.0000
  H   H494      1.0  0.08718  0.08402  0.51400  1.0000
  C   C277      1.0  0.26039  0.02219  0.51736  1.0000
  Fe  Fe35      1.0  0.40725  0.04292  0.71702  1.0000
  H   H495      1.0  0.49764  0.02987  0.64413  1.0000
  H   H496      1.0  0.40383  0.01527  0.64928  1.0000
  S   S72       1.0  0.35987  0.99306  0.65675  1.0000
  H   H497      1.0  0.23621  0.99744  0.54613  1.0000
  H   H498      1.0  0.40610  0.99174  0.72061  1.0000
  H   H499      1.0  0.09989  0.03747  0.50673  1.0000
  H   H500      1.0  0.25312  0.05315  0.50372  1.0000
  S   S73       1.0  0.46797  0.08395  0.67306  1.0000
  H   H501      1.0  0.05258  0.15141  0.52485  1.0000
  H   H502      1.0  0.41450  0.99946  0.64142  1.0000
  H   H503      1.0  0.45373  0.12638  0.69911  1.0000
  H   H504      1.0  0.48074  0.07690  0.71419  1.0000
  H   H505      1.0  0.43721  0.03985  0.62019  1.0000
  S   S74       1.0  0.23125  0.01261  0.51233  1.0000
  H   H506      1.0  0.42187  0.07502  0.57967  1.0000
  H   H507      1.0  0.07808  0.06363  0.51314  1.0000
  C   C278      1.0  0.44799  0.09892  0.72742  1.0000
  S   S75       1.0  0.22346  0.04862  0.49915  1.0000
  H   H508      1.0  0.47339  0.13515  0.67854  1.0000
  H   H509      1.0  0.01734  0.28043  0.52360  1.0000
  H   H510      1.0  0.48446  0.11652  0.67918  1.0000
  C   C279      1.0  0.28707  0.04817  0.52980  1.0000
  Fe  Fe36      1.0  0.20711  0.01373  0.51466  1.0000
  H   H511      1.0  0.49470  0.01947  0.66287  1.0000
  C   C280      1.0  0.08314  0.10767  0.50773  1.0000
  H   H512      1.0  0.25476  0.09631  0.50510  1.0000
  C   C281      1.0  0.01137  0.26087  0.53825  1.0000
  H   H513      1.0  0.42081  0.09688  0.72361  1.0000
  H   H514      1.0  0.44987  0.08810  0.61512  1.0000
  H   H515      1.0  0.43466  0.08349  0.63873  1.0000
  H   H516      1.0  0.35012  0.99367  0.56922  1.0000
  H   H517      1.0  0.43978  0.04626  0.60026  1.0000
  C   C282      1.0  0.46188  0.11828  0.69290  1.0000
  H   H518      1.0  0.46341  0.04675  0.64946  1.0000
  S   S76       1.0  0.20682  0.02656  0.49138  1.0000
  H   H519      1.0  0.27023  0.07757  0.51986  1.0000
  H   H520      1.0  0.47681  0.06381  0.65299  1.0000
  C   C283      1.0  0.42689  0.08046  0.63387  1.0000
  Fe  Fe37      1.0  0.49284  0.07764  0.66682  1.0000
  H   H521      1.0  0.02141  0.10485  0.53887  1.0000
  H   H522      1.0  0.22620  0.09153  0.51056  1.0000
  C   C284      1.0  0.45609  0.02728  0.60743  1.0000
  H   H523      1.0  0.05045  0.20127  0.50804  1.0000
  H   H524      1.0  0.05210  0.22022  0.50303  1.0000
  H   H525      1.0  0.44348  0.07340  0.58992  1.0000
  H   H526      1.0  0.40283  0.09700  0.70944  1.0000
  C   C285      1.0  0.44220  0.11530  0.72871  1.0000
  C   C286      1.0  0.27159  0.05406  0.52607  1.0000
  H   H527      1.0  0.00804  0.25079  0.53802  1.0000
  H   H528      1.0  0.41296  0.08065  0.61127  1.0000
  S   S77       1.0  0.38883  0.99131  0.61856  1.0000
  H   H529      1.0  0.05409  0.13126  0.51277  1.0000
  H   H530      1.0  0.26329  0.05584  0.53645  1.0000
  Fe  Fe38      1.0  0.22322  0.03319  0.52128  1.0000
  H   H531      1.0  0.46148  0.07142  0.62289  1.0000
  S   S78       1.0  0.19915  0.99317  0.52697  1.0000
  C   C287      1.0  0.47609  0.12413  0.68592  1.0000
  C   C288      1.0  0.02377  0.16761  0.50715  1.0000
  C   C289      1.0  0.46558  0.01006  0.72074  1.0000
  H   H532      1.0  0.03925  0.09531  0.50795  1.0000
  C   C290      1.0  0.46455  0.00093  0.67557  1.0000
  H   H533      1.0  0.46228  0.05435  0.59922  1.0000
  H   H534      1.0  0.28705  0.03799  0.53866  1.0000
  H   H535      1.0  0.48641  0.04980  0.72249  1.0000
  C   C291      1.0  0.16615  0.04685  0.49196  1.0000
  H   H536      1.0  0.17634  0.00026  0.49396  1.0000
  H   H537      1.0  0.43591  0.08862  0.59869  1.0000
  H   H538      1.0  0.44128  0.05860  0.63621  1.0000
  H   H539      1.0  0.24333  0.06137  0.52499  1.0000
  H   H540      1.0  0.01651  0.09392  0.50225  1.0000
  H   H541      1.0  0.45617  0.01360  0.65585  1.0000
  H   H542      1.0  0.44957  0.01911  0.60817  1.0000
  C   C292      1.0  0.41529  0.00944  0.64460  1.0000
  H   H543      1.0  0.00580  0.30090  0.51208  1.0000
  H   H544      1.0  0.46290  0.02297  0.61601  1.0000
  Fe  Fe39      1.0  0.00591  0.23065  0.50495  1.0000
  H   H545      1.0  0.42448  0.01526  0.65959  1.0000
  H   H546      1.0  0.29010  0.05651  0.53377  1.0000
  C   C293      1.0  0.05544  0.20966  0.49914  1.0000
  C   C294      1.0  0.46574  0.06322  0.65954  1.0000
  H   H547      1.0  0.43523  0.11376  0.70286  1.0000
  H   H548      1.0  0.06782  0.20596  0.49702  1.0000
  Fe  Fe40      1.0  0.49561  0.00418  0.57043  1.0000
  C   C295      1.0  0.45338  0.00453  0.66539  1.0000
  H   H549      1.0  0.01350  0.11839  0.55946  1.0000
  H   H550      1.0  0.46117  0.04781  0.61859  1.0000
  S   S79       1.0  0.19889  0.03335  0.52528  1.0000
  S   S80       1.0  0.23618  0.03276  0.53776  1.0000
  C   C296      1.0  0.06938  0.09193  0.50133  1.0000
  H   H551      1.0  0.46759  0.04929  0.72276  1.0000
  H   H552      1.0  0.20396  0.99573  0.49552  1.0000
  C   C297      1.0  0.45424  0.05321  0.61007  1.0000
  H   H553      1.0  0.01500  0.17749  0.50592  1.0000
  C   C298      1.0  0.47658  0.05544  0.71744  1.0000
  H   H554      1.0  0.49418  0.08872  0.72659  1.0000
  S   S81       1.0  0.03222  0.17923  0.52616  1.0000
  H   H555      1.0  0.20304  0.00914  0.55100  1.0000
  Fe  Fe41      1.0  0.01368  0.19946  0.52312  1.0000
  H   H556      1.0  0.35185  0.99318  0.71873  1.0000
  C   C299      1.0  0.27533  0.01521  0.51267  1.0000
  H   H557      1.0  0.03671  0.10271  0.54748  1.0000
  C   C300      1.0  0.00390  0.17338  0.56737  1.0000
  H   H558      1.0  0.20482  0.07987  0.52126  1.0000
  C   C301      1.0  0.03556  0.14299  0.50233  1.0000
  H   H559      1.0  0.35894  0.00970  0.73839  1.0000
  C   C302      1.0  0.25663  0.08855  0.49767  1.0000
  H   H560      1.0  0.06473  0.10264  0.49427  1.0000
  H   H561      1.0  0.15609  0.00482  0.49775  1.0000
  H   H562      1.0  0.02178  0.25738  0.54258  1.0000
  H   H563      1.0  0.48485  0.05247  0.62767  1.0000
  H   H564      1.0  0.45129  0.12132  0.72360  1.0000
  C   C303      1.0  0.46571  0.01506  0.67901  1.0000
  H   H565      1.0  0.06997  0.04928  0.49696  1.0000
  C   C304      1.0  0.02614  0.08421  0.50185  1.0000
  C   C305      1.0  0.01405  0.27062  0.52272  1.0000
  H   H566      1.0  0.47420  0.01239  0.68578  1.0000
  H   H567      1.0  0.28033  0.04640  0.49801  1.0000
  S   S82       1.0  0.03586  0.12766  0.49565  1.0000
  S   S83       1.0  0.00822  0.20834  0.50095  1.0000
  C   C306      1.0  0.05424  0.07573  0.49983  1.0000
  H   H568      1.0  0.47712  0.00440  0.72201  1.0000
  H   H569      1.0  0.41980  0.99744  0.66579  1.0000
  H   H570      1.0  0.21539  0.01449  0.55895  1.0000
  H   H571      1.0  0.46893  0.10170  0.59869  1.0000
  H   H572      1.0  0.01145  0.14514  0.56202  1.0000
  H   H573      1.0  0.08803  0.02707  0.50429  1.0000
  C   C307      1.0  0.45659  0.01597  0.73452  1.0000
  H   H574      1.0  0.47811  0.00272  0.64276  1.0000
  H   H575      1.0  0.49907  0.01010  0.64777  1.0000
  H   H576      1.0  0.00559  0.28973  0.70986  1.0000
  N   N15       1.0  0.06963  0.07912  0.49490  1.0000
  H   H577      1.0  0.01697  0.14115  0.52983  1.0000
  C   C308      1.0  0.15333  0.04381  0.48995  1.0000
  H   H578      1.0  0.01182  0.16565  0.57413  1.0000
  C   C309      1.0  0.00417  0.29991  0.70104  1.0000
  H   H579      1.0  0.00241  0.26706  0.54593  1.0000
  C   C310      1.0  0.02000  0.12330  0.54869  1.0000
  C   C311      1.0  0.02899  0.11076  0.54070  1.0000
  H   H580      1.0  0.46882  0.07107  0.73163  1.0000
  H   H581      1.0  0.43947  0.09276  0.73448  1.0000
  Fe  Fe42      1.0  0.23007  0.02795  0.49052  1.0000
  C   C312      1.0  0.15348  0.07261  0.49066  1.0000
  H   H582      1.0  0.15346  0.08376  0.49093  1.0000
  C   C313      1.0  0.16625  0.06128  0.49232  1.0000
  H   H583      1.0  0.00465  0.12912  0.53420  1.0000
  H   H584      1.0  0.02320  0.28718  0.49337  1.0000
  H   H585      1.0  0.15318  0.03265  0.48994  1.0000
  H   H586      1.0  0.49638  0.99334  0.62308  1.0000
  S   S84       1.0  0.47940  0.99250  0.56777  1.0000
  N   N16       1.0  0.45192  0.99177  0.66010  1.0000
  C   C314      1.0  0.99987  0.27491  0.51608  1.0000
  N   N17       1.0  0.99983  0.28653  0.50187  1.0000
  H   H587      1.0  0.49155  0.00959  0.73875  1.0000
  C   C315      1.0  0.42812  0.05673  0.73921  1.0000
  C   C316      1.0  0.01460  0.28274  0.49120  1.0000
  H   H588      1.0  0.46206  0.28453  0.95973  1.0000
  H   H589      1.0  0.48763  0.04919  0.81377  1.0000
  H   H590      1.0  0.39790  0.01095  0.76130  1.0000
  H   H591      1.0  0.44954  0.28389  0.93115  1.0000
  H   H592      1.0  0.46470  0.09095  0.95793  1.0000
  H   H593      1.0  0.47468  0.16939  0.78111  1.0000
  H   H594      1.0  0.46587  0.13055  0.93092  1.0000
  H   H595      1.0  0.39988  0.28350  0.96441  1.0000
  H   H596      1.0  0.41564  0.21663  0.91361  1.0000
  C   C317      1.0  0.45573  0.30100  0.86493  1.0000
  C   C318      1.0  0.47971  0.28917  0.88119  1.0000
  H   H597      1.0  0.46169  0.00130  0.81263  1.0000
  H   H598      1.0  0.47660  0.31244  0.93406  1.0000
  C   C319      1.0  0.46988  0.14177  0.82395  1.0000
  H   H599      1.0  0.46979  0.24936  0.93963  1.0000
  H   H600      1.0  0.45554  0.99194  0.77668  1.0000
  S   S85       1.0  0.46808  0.05575  0.79107  1.0000
  H   H601      1.0  0.47726  0.29175  0.85263  1.0000
  H   H602      1.0  0.48343  0.17406  0.94128  1.0000
  S   S86       1.0  0.47219  0.08885  0.77250  1.0000
  H   H603      1.0  0.49247  0.15444  0.79123  1.0000
  Fe  Fe43      1.0  0.47836  0.07333  0.79303  1.0000
  S   S87       1.0  0.47311  0.08119  0.81456  1.0000
  Fe  Fe44      1.0  0.46383  0.07048  0.76937  1.0000
  S   S88       1.0  0.44040  0.07706  0.76499  1.0000
  H   H604      1.0  0.43684  0.16958  0.98451  1.0000
  S   S89       1.0  0.48585  0.06068  0.75568  1.0000
  C   C320      1.0  0.46113  0.01901  0.76836  1.0000
  S   S90       1.0  0.48574  0.13534  0.85614  1.0000
  H   H605      1.0  0.48820  0.32405  0.90097  1.0000
  C   C321      1.0  0.44563  0.02126  0.76486  1.0000
  H   H606      1.0  0.49117  0.03698  0.84611  1.0000
  C   C322      1.0  0.39930  0.30251  0.97301  1.0000
  H   H607      1.0  0.47396  0.24874  0.83672  1.0000
  H   H608      1.0  0.46112  0.01245  0.77977  1.0000
  S   S91       1.0  0.48144  0.17485  0.83405  1.0000
  C   C323      1.0  0.45458  0.13736  0.83051  1.0000
  Fe  Fe45      1.0  0.44453  0.23926  0.87433  1.0000
  S   S92       1.0  0.46643  0.22908  0.88122  1.0000
  S   S93       1.0  0.43633  0.22768  0.86173  1.0000
  S   S94       1.0  0.46044  0.25820  0.89502  1.0000
  Fe  Fe46      1.0  0.47014  0.25209  0.87300  1.0000
  H   H609      1.0  0.48111  0.27885  0.87741  1.0000
  Fe  Fe47      1.0  0.45418  0.23623  0.90244  1.0000
  S   S95       1.0  0.45686  0.22110  0.92444  1.0000
  S   S96       1.0  0.44916  0.26192  0.86448  1.0000
  S   S97       1.0  0.43178  0.24509  0.89620  1.0000
  S   S98       1.0  0.43105  0.26451  0.96866  1.0000
  C   C324      1.0  0.44862  0.23208  0.93774  1.0000
  C   C325      1.0  0.45130  0.22735  0.95213  1.0000
  C   C326      1.0  0.44604  0.23719  0.96191  1.0000
  C   C327      1.0  0.43776  0.25150  0.95736  1.0000
  C   C328      1.0  0.43463  0.25587  0.94328  1.0000
  C   C329      1.0  0.44007  0.24625  0.93348  1.0000
  H   H610      1.0  0.45774  0.21631  0.95559  1.0000
  H   H611      1.0  0.44845  0.23378  0.97285  1.0000
  H   H612      1.0  0.42829  0.26692  0.93983  1.0000
  H   H613      1.0  0.43778  0.24990  0.92253  1.0000
  C   C330      1.0  0.46914  0.18930  0.84219  1.0000
  C   C331      1.0  0.47118  0.19244  0.85480  1.0000
  C   C332      1.0  0.46126  0.20430  0.86082  1.0000
  C   C333      1.0  0.44918  0.21290  0.85440  1.0000
  C   C334      1.0  0.44713  0.20960  0.84188  1.0000
  C   C335      1.0  0.45718  0.19800  0.83569  1.0000
  H   H614      1.0  0.48045  0.18584  0.85983  1.0000
  H   H615      1.0  0.46284  0.20663  0.87054  1.0000
  H   H616      1.0  0.43783  0.21617  0.83686  1.0000
  H   H617      1.0  0.45558  0.19567  0.82590  1.0000
  C   C336      1.0  0.48496  0.08979  0.81896  1.0000
  H   H618      1.0  0.47424  0.31302  0.90916  1.0000
  H   H619      1.0  0.38478  0.99886  0.74227  1.0000
  C   C337      1.0  0.41492  0.07710  0.75757  1.0000
  C   C338      1.0  0.47936  0.32130  0.91081  1.0000
  C   C339      1.0  0.48047  0.09489  0.83223  1.0000
  H   H620      1.0  0.43692  0.99916  0.78507  1.0000
  H   H621      1.0  0.41358  0.00501  0.78007  1.0000
  H   H622      1.0  0.48661  0.10448  0.84700  1.0000
  H   H623      1.0  0.46964  0.09400  0.83926  1.0000
  H   H624      1.0  0.39856  0.03024  0.75766  1.0000
  H   H625      1.0  0.44630  0.20809  0.98312  1.0000
  C   C340      1.0  0.49584  0.18859  0.94380  1.0000
  C   C341      1.0  0.42732  0.01240  0.75809  1.0000
  H   H626      1.0  0.39452  0.07875  0.75113  1.0000
  C   C342      1.0  0.43966  0.28652  0.91271  1.0000
  H   H627      1.0  0.44868  0.05591  0.74521  1.0000
  H   H628      1.0  0.48661  0.05563  0.83636  1.0000
  Fe  Fe48      1.0  0.47967  0.15706  0.98562  1.0000
  N   N18       1.0  0.48816  0.08069  0.95693  1.0000
  H   H629      1.0  0.49656  0.29454  0.91750  1.0000
  C   C343      1.0  0.36183  0.00952  0.74890  1.0000
  H   H630      1.0  0.44607  0.31605  0.84671  1.0000
  Fe  Fe49      1.0  0.43896  0.26669  0.88720  1.0000
  C   C344      1.0  0.48268  0.18612  0.93937  1.0000
  H   H631      1.0  0.47663  0.10353  0.95060  1.0000
  H   H632      1.0  0.48014  0.10374  0.97435  1.0000
  C   C345      1.0  0.49145  0.09133  0.92859  1.0000
  H   H633      1.0  0.47909  0.12967  0.95032  1.0000
  H   H634      1.0  0.47514  0.28129  0.91266  1.0000
  C   C346      1.0  0.41280  0.06335  0.74072  1.0000
  C   C347      1.0  0.43020  0.07064  0.75611  1.0000
  C   C348      1.0  0.45959  0.31393  0.98862  1.0000
  H   H635      1.0  0.41440  0.02417  0.77603  1.0000
  H   H636      1.0  0.43731  0.02474  0.77461  1.0000
  H   H637      1.0  0.40970  0.08515  0.76449  1.0000
  C   C349      1.0  0.35425  0.29691  0.96587  1.0000
  C   C350      1.0  0.48839  0.15154  0.80336  1.0000
  H   H638      1.0  0.38962  0.02145  0.77565  1.0000
  H   H639      1.0  0.38799  0.30992  0.97452  1.0000
  H   H640      1.0  0.48140  0.22815  0.95741  1.0000
  N   N19       1.0  0.48147  0.30193  0.86811  1.0000
  H   H641      1.0  0.44128  0.27481  0.91388  1.0000
  C   C351      1.0  0.42928  0.31164  0.90135  1.0000
  C   C352      1.0  0.48577  0.12965  0.91361  1.0000
  H   H642      1.0  0.46448  0.04776  0.83307  1.0000
  H   H643      1.0  0.46130  0.12101  0.84963  1.0000
  C   C353      1.0  0.48095  0.24251  0.93573  1.0000
  H   H644      1.0  0.47191  0.19116  0.94613  1.0000
  C   C354      1.0  0.47983  0.01091  0.79835  1.0000
  H   H645      1.0  0.49649  0.27987  0.95815  1.0000
  H   H646      1.0  0.47952  0.12249  0.80840  1.0000
  H   H647      1.0  0.49226  0.05565  0.85824  1.0000
  H   H648      1.0  0.44401  0.03095  0.75564  1.0000
  H   H649      1.0  0.47481  0.02179  0.80074  1.0000
  C   C355      1.0  0.37534  0.99688  0.75173  1.0000
  Fe  Fe50      1.0  0.43945  0.26028  0.98932  1.0000
  S   S99       1.0  0.47275  0.14034  0.97824  1.0000
  H   H650      1.0  0.41241  0.20504  0.90326  1.0000
  C   C356      1.0  0.45252  0.13116  0.84718  1.0000
  H   H651      1.0  0.46692  0.03968  0.75565  1.0000
  H   H652      1.0  0.48408  0.06819  0.97959  1.0000
  C   C357      1.0  0.47053  0.27470  0.95653  1.0000
  H   H653      1.0  0.46698  0.29771  0.97494  1.0000
  H   H654      1.0  0.46792  0.31508  0.88430  1.0000
  H   H655      1.0  0.45187  0.18838  0.78824  1.0000
  H   H656      1.0  0.45523  0.28965  0.87145  1.0000
  S   S100      1.0  0.49806  0.15543  0.87101  1.0000
  H   H657      1.0  0.48526  0.14276  0.77748  1.0000
  H   H658      1.0  0.47037  0.31586  0.96539  1.0000
  H   H659      1.0  0.45309  0.18450  0.77057  1.0000
  H   H660      1.0  0.46815  0.29115  0.88810  1.0000
  H   H661      1.0  0.48641  0.20139  0.97114  1.0000
  H   H662      1.0  0.42565  0.00397  0.75315  1.0000
  H   H663      1.0  0.45172  0.31262  0.96997  1.0000
  H   H664      1.0  0.43478  0.30356  0.85868  1.0000
  H   H665      1.0  0.46436  0.13243  0.79991  1.0000
  C   C358      1.0  0.39950  0.31771  0.94183  1.0000
  H   H666      1.0  0.47215  0.02832  0.83995  1.0000
  H   H667      1.0  0.48632  0.16202  0.80721  1.0000
  H   H668      1.0  0.48491  0.10966  0.78642  1.0000
  H   H669      1.0  0.40008  0.32364  0.91790  1.0000
  H   H670      1.0  0.48412  0.21002  0.94754  1.0000
  H   H671      1.0  0.45115  0.29666  0.84567  1.0000
  C   C359      1.0  0.47774  0.13014  0.92811  1.0000
  C   C360      1.0  0.46239  0.30981  0.97376  1.0000
  C   C361      1.0  0.41963  0.21225  0.90330  1.0000
  H   H672      1.0  0.48368  0.26547  0.90422  1.0000
  C   C362      1.0  0.48812  0.04009  0.82372  1.0000
  H   H673      1.0  0.45054  0.30880  0.87250  1.0000
  S   S101      1.0  0.47689  0.12869  0.90025  1.0000
  H   H674      1.0  0.44145  0.12825  0.85156  1.0000
  C   C363      1.0  0.48863  0.23471  0.94872  1.0000
  H   H675      1.0  0.48281  0.19114  0.92751  1.0000
  H   H676      1.0  0.42611  0.02276  0.74945  1.0000
  C   C364      1.0  0.47240  0.99929  0.80505  1.0000
  H   H677      1.0  0.37637  0.28302  0.96362  1.0000
  C   C365      1.0  0.49367  0.00843  0.78852  1.0000
  H   H678      1.0  0.49524  0.31232  0.83790  1.0000
  H   H679      1.0  0.34961  0.28873  0.97533  1.0000
  C   C366      1.0  0.43681  0.06042  0.74691  1.0000
  C   C367      1.0  0.44642  0.30456  0.85322  1.0000
  H   H680      1.0  0.48926  0.24349  0.95387  1.0000
  H   H681      1.0  0.45442  0.11392  0.98620  1.0000
  H   H682      1.0  0.48044  0.09921  0.92824  1.0000
  C   C368      1.0  0.47515  0.23872  0.83250  1.0000
  H   H683      1.0  0.36462  0.02026  0.74779  1.0000
  H   H684      1.0  0.45500  0.04086  0.77380  1.0000
  C   C369      1.0  0.48392  0.12063  0.77871  1.0000
  H   H685      1.0  0.44520  0.14716  0.82894  1.0000
  H   H686      1.0  0.48390  0.16924  0.91447  1.0000
  S   S102      1.0  0.44650  0.31262  0.93532  1.0000
  H   H687      1.0  0.41861  0.22170  0.89370  1.0000
  C   C370      1.0  0.47125  0.09854  0.97403  1.0000
  H   H688      1.0  0.48146  0.22360  0.85171  1.0000
  H   H689      1.0  0.43324  0.12838  0.74568  1.0000
  C   C371      1.0  0.44132  0.30689  0.92199  1.0000
  H   H690      1.0  0.46469  0.26821  0.95303  1.0000
  C   C372      1.0  0.48084  0.17470  0.90362  1.0000
  C   C373      1.0  0.47669  0.31607  0.87389  1.0000
  C   C374      1.0  0.48296  0.27952  0.94375  1.0000
  H   H691      1.0  0.47900  0.24108  0.82028  1.0000
  H   H692      1.0  0.46397  0.23611  0.83524  1.0000
  H   H693      1.0  0.48306  0.03839  0.98361  1.0000
  N   N20       1.0  0.45210  0.17837  0.91338  1.0000
  C   C375      1.0  0.46518  0.18544  0.90551  1.0000
  C   C376      1.0  0.43770  0.19012  0.91499  1.0000
  C   C377      1.0  0.45461  0.17057  0.92872  1.0000
  C   C378      1.0  0.45105  0.16700  0.90577  1.0000
  C   C379      1.0  0.44927  0.17258  0.88952  1.0000
  C   C380      1.0  0.44143  0.16440  0.93974  1.0000
  C   C381      1.0  0.43595  0.20372  0.90196  1.0000
  H   H694      1.0  0.45299  0.13953  0.85294  1.0000
  C   C382      1.0  0.45148  0.15983  0.88198  1.0000
  C   C383      1.0  0.44541  0.15711  0.95481  1.0000
  H   H695      1.0  0.46545  0.19378  0.91147  1.0000
  H   H696      1.0  0.46390  0.19189  0.89434  1.0000
  H   H697      1.0  0.42796  0.18501  0.91737  1.0000
  H   H698      1.0  0.43630  0.19502  0.92471  1.0000
  H   H699      1.0  0.45734  0.17823  0.93396  1.0000
  H   H700      1.0  0.46440  0.16099  0.92820  1.0000
  H   H701      1.0  0.46086  0.15747  0.90629  1.0000
  H   H702      1.0  0.44128  0.16209  0.91173  1.0000
  H   H703      1.0  0.45754  0.17910  0.88285  1.0000
  H   H704      1.0  0.43778  0.17938  0.88916  1.0000
  H   H705      1.0  0.48121  0.16604  0.89789  1.0000
  H   H706      1.0  0.43875  0.15590  0.93573  1.0000
  H   H707      1.0  0.43122  0.17332  0.94152  1.0000
  H   H708      1.0  0.44272  0.21132  0.90212  1.0000
  H   H709      1.0  0.43974  0.20078  0.89100  1.0000
  C   C384      1.0  0.40066  0.29148  0.98766  1.0000
  H   H710      1.0  0.47952  0.23446  0.93021  1.0000
  H   H711      1.0  0.35196  0.00846  0.75809  1.0000
  H   H712      1.0  0.44416  0.15215  0.88858  1.0000
  H   H713      1.0  0.44875  0.16430  0.87085  1.0000
  H   H714      1.0  0.46333  0.15365  0.88044  1.0000
  H   H715      1.0  0.43572  0.15319  0.96271  1.0000
  H   H716      1.0  0.45501  0.14746  0.95382  1.0000
  H   H717      1.0  0.44839  0.16512  0.95931  1.0000
  N   N21       1.0  0.39468  0.30317  0.94748  1.0000
  C   C385      1.0  0.40244  0.29459  0.95997  1.0000
  C   C386      1.0  0.40021  0.29486  0.93504  1.0000
  H   H718      1.0  0.47038  0.01311  0.76078  1.0000
  C   C387      1.0  0.37780  0.30623  0.95217  1.0000
  C   C388      1.0  0.37100  0.29452  0.96489  1.0000
  C   C389      1.0  0.45652  0.11017  0.97570  1.0000
  H   H719      1.0  0.47229  0.31127  0.84833  1.0000
  C   C390      1.0  0.39599  0.27977  0.93808  1.0000
  C   C391      1.0  0.40228  0.27265  0.92457  1.0000
  C   C392      1.0  0.48578  0.31532  0.92476  1.0000
  H   H720      1.0  0.48149  0.31699  0.98578  1.0000
  H   H721      1.0  0.44034  0.17706  0.78664  1.0000
  H   H722      1.0  0.41481  0.29218  0.95573  1.0000
  H   H723      1.0  0.47008  0.08924  0.98367  1.0000
  H   H724      1.0  0.39582  0.30148  0.92509  1.0000
  H   H725      1.0  0.41259  0.29297  0.93162  1.0000
  H   H726      1.0  0.47988  0.07407  0.94137  1.0000
  C   C393      1.0  0.46389  0.16598  0.78565  1.0000
  C   C394      1.0  0.43710  0.11655  0.74494  1.0000
  C   C395      1.0  0.48476  0.06708  0.96822  1.0000
  C   C396      1.0  0.48643  0.13210  0.78555  1.0000
  C   C397      1.0  0.48611  0.22562  0.83968  1.0000
  H   H727      1.0  0.45994  0.16793  0.80846  1.0000
  H   H728      1.0  0.46985  0.15087  0.82908  1.0000
  C   C398      1.0  0.48972  0.07792  0.94175  1.0000
  H   H729      1.0  0.47343  0.06581  0.96846  1.0000
  H   H730      1.0  0.40039  0.27189  0.94753  1.0000
  H   H731      1.0  0.38368  0.28132  0.94030  1.0000
  H   H732      1.0  0.41461  0.27103  0.92131  1.0000
  H   H733      1.0  0.39953  0.26165  0.92718  1.0000
  H   H734      1.0  0.39742  0.27968  0.91501  1.0000
  Fe  Fe51      1.0  0.49174  0.13352  0.87769  1.0000
  C   C399      1.0  0.48516  0.12970  0.93906  1.0000
  H   H735      1.0  0.49079  0.18832  0.88325  1.0000
  C   C400      1.0  0.45402  0.00334  0.74829  1.0000
  H   H736      1.0  0.47265  0.12412  0.77604  1.0000
  C   C401      1.0  0.47491  0.09351  0.95921  1.0000
  H   H737      1.0  0.35225  0.29536  0.95558  1.0000
  C   C402      1.0  0.43403  0.31693  0.91120  1.0000
  H   H738      1.0  0.34828  0.30821  0.96763  1.0000
  H   H739      1.0  0.46837  0.03453  0.82164  1.0000
  C   C403      1.0  0.39910  0.01970  0.76610  1.0000
  H   H740      1.0  0.48646  0.21582  0.83554  1.0000
  H   H741      1.0  0.41236  0.28499  0.98718  1.0000
  N   N22       1.0  0.44272  0.00807  0.76155  1.0000
  H   H742      1.0  0.47840  0.13207  0.82811  1.0000
  C   C404      1.0  0.48562  0.27550  0.90621  1.0000
  N   N23       1.0  0.47409  0.14620  0.80726  1.0000
  H   H743      1.0  0.45361  0.12882  0.82527  1.0000
  C   C405      1.0  0.40630  0.07348  0.74997  1.0000
  H   H744      1.0  0.48872  0.23980  0.88903  1.0000
  H   H745      1.0  0.37327  0.31691  0.95594  1.0000
  C   C406      1.0  0.41390  0.01514  0.77122  1.0000
  H   H746      1.0  0.37236  0.29539  0.97569  1.0000
  C   C407      1.0  0.43207  0.29636  0.90215  1.0000
  H   H747      1.0  0.44645  0.11135  0.75083  1.0000
  H   H748      1.0  0.44705  0.10542  0.97609  1.0000
  H   H749      1.0  0.47514  0.26773  0.96626  1.0000
  H   H750      1.0  0.47745  0.28681  0.93474  1.0000
  C   C408      1.0  0.46450  0.03382  0.76737  1.0000
  S   S103      1.0  0.42555  0.28955  0.89041  1.0000
  C   C409      1.0  0.47223  0.30163  0.85776  1.0000
  C   C410      1.0  0.44420  0.29172  0.92262  1.0000
  H   H751      1.0  0.40750  0.30951  0.97064  1.0000
  Fe  Fe52      1.0  0.49060  0.04689  0.77769  1.0000
  H   H752      1.0  0.45063  0.99488  0.74486  1.0000
  C   C411      1.0  0.45151  0.17982  0.78265  1.0000
  C   C412      1.0  0.49898  0.09104  0.80992  1.0000
  S   S104      1.0  0.46657  0.18038  0.98041  1.0000
  H   H753      1.0  0.48416  0.29694  0.95328  1.0000
  C   C413      1.0  0.47232  0.03752  0.83006  1.0000
  H   H754      1.0  0.42339  0.31935  0.89320  1.0000
  H   H755      1.0  0.37877  0.99751  0.76163  1.0000
  H   H756      1.0  0.41194  0.31573  0.93915  1.0000
  H   H757      1.0  0.47455  0.03196  0.77182  1.0000
  C   C414      1.0  0.46178  0.15897  0.80239  1.0000
  H   H758      1.0  0.45696  0.11993  0.96639  1.0000
  H   H759      1.0  0.46317  0.15805  0.77952  1.0000
  C   C415      1.0  0.47557  0.13305  0.80079  1.0000
  H   H760      1.0  0.37286  0.30783  0.94244  1.0000
  H   H761      1.0  0.45102  0.15546  0.80527  1.0000
  H   H762      1.0  0.42769  0.11099  0.75056  1.0000
  C   C416      1.0  0.49703  0.08655  0.91374  1.0000
  H   H763      1.0  0.48624  0.31798  0.87710  1.0000
  H   H764      1.0  0.48772  0.24987  0.92755  1.0000
  H   H765      1.0  0.48919  0.08081  0.91212  1.0000
  C   C417      1.0  0.49003  0.10088  0.83661  1.0000
  H   H766      1.0  0.49775  0.04313  0.98874  1.0000
  Fe  Fe53      1.0  0.49738  0.13158  0.97085  1.0000
  H   H767      1.0  0.49033  0.26950  0.93994  1.0000
  H   H768      1.0  0.49243  0.11944  0.76833  1.0000
  C   C418      1.0  0.49068  0.28565  0.89162  1.0000
  S   S105      1.0  0.49173  0.25784  0.85981  1.0000
  C   C419      1.0  0.49464  0.04013  0.97978  1.0000
  C   C420      1.0  0.49207  0.28769  0.94862  1.0000
  H   H769      1.0  0.49329  0.04842  0.95696  1.0000
  C   C421      1.0  0.49295  0.18297  0.89449  1.0000
  C   C422      1.0  0.49586  0.05224  0.96572  1.0000
  H   H770      1.0  0.49173  0.29588  0.89400  1.0000
  H   H771      1.0  0.49325  0.19151  0.90009  1.0000
  Fe  Fe54      1.0  0.49428  0.15614  0.84881  1.0000
  H   H772      1.0  0.46505  0.99751  0.75112  1.0000
  H   H773      1.0  0.49519  0.03075  0.74535  1.0000
  C   C423      1.0  0.49391  0.04450  0.83519  1.0000
  C   C424      1.0  0.44390  0.99547  0.77480  1.0000
  H   H774      1.0  0.49374  0.21472  0.97524  1.0000
  H   H775      1.0  0.49770  0.09649  0.90464  1.0000
  C   C425      1.0  0.49645  0.20336  0.97327  1.0000
  H   H776      1.0  0.49943  0.09729  0.92954  1.0000
  H   H777      1.0  0.49534  0.03003  0.81996  1.0000
  Fe  Fe55      1.0  0.49452  0.07775  0.76072  1.0000
  H   H778      1.0  0.49450  0.27196  0.91269  1.0000
  H   H779      1.0  0.49474  0.21045  0.92937  1.0000
  C   C426      1.0  0.49520  0.20538  0.94118  1.0000
  H   H780      1.0  0.49526  0.18320  0.95564  1.0000
  H   H781      1.0  0.49804  0.08451  0.98130  1.0000
  H   H782      1.0  0.49820  0.12866  0.78689  1.0000
  H   H783      1.0  0.49966  0.06884  0.93932  1.0000
  H   H784      1.0  0.49946  0.14040  0.82194  1.0000
  C   C427      1.0  0.49774  0.29924  0.86029  1.0000
  C   C428      1.0  0.49868  0.24396  0.88650  1.0000
  C   C429      1.0  0.49953  0.24618  0.98463  1.0000
  H   H785      1.0  0.49855  0.21237  0.86432  1.0000
  C   C430      1.0  0.49929  0.30192  0.92294  1.0000
  H   H786      1.0  0.48988  0.24156  0.98984  1.0000
  S   S106      1.0  0.24462  0.47354  0.02083  1.0000
  S   S107      1.0  0.20493  0.46835  0.01967  1.0000
  S   S108      1.0  0.28227  0.44238  0.01665  1.0000
  C   C431      1.0  0.21512  0.42986  0.00675  1.0000
  H   H787      1.0  0.04073  0.52136  0.10662  1.0000
  H   H788      1.0  0.03747  0.58761  0.21748  1.0000
  C   C432      1.0  0.01135  0.49924  0.00290  1.0000
  H   H789      1.0  0.07765  0.50605  0.99946  1.0000
  Fe  Fe56      1.0  0.04602  0.50957  0.20420  1.0000
  S   S109      1.0  0.05771  0.52683  0.18884  1.0000
  S   S110      1.0  0.05807  0.48976  0.21853  1.0000
  H   H790      1.0  0.02195  0.50182  0.03738  1.0000
  H   H791      1.0  0.07315  0.55968  0.99082  1.0000
  C   C433      1.0  0.00172  0.57210  0.23436  1.0000
  C   C434      1.0  0.01104  0.49930  0.03835  1.0000
  C   C435      1.0  0.03688  0.43840  0.13663  1.0000
  S   S111      1.0  0.17088  0.55911  0.99460  1.0000
  H   H792      1.0  0.04950  0.53213  0.06571  1.0000
  C   C436      1.0  0.08240  0.48991  0.01900  1.0000
  H   H793      1.0  0.02287  0.46340  0.03422  1.0000
  H   H794      1.0  0.10199  0.51340  0.04958  1.0000
  H   H795      1.0  0.08381  0.47544  0.04029  1.0000
  S   S112      1.0  0.07267  0.43328  0.19146  1.0000
  C   C437      1.0  0.01359  0.56502  0.22444  1.0000
  C   C438      1.0  0.06187  0.47397  0.21122  1.0000
  C   C439      1.0  0.05113  0.47127  0.20551  1.0000
  C   C440      1.0  0.05438  0.45869  0.19951  1.0000
  C   C441      1.0  0.06843  0.44892  0.19907  1.0000
  C   C442      1.0  0.07914  0.45161  0.20483  1.0000
  C   C443      1.0  0.07579  0.46403  0.21108  1.0000
  H   H796      1.0  0.28116  0.48416  0.04550  1.0000
  N   N24       1.0  0.01317  0.48701  0.03051  1.0000
  H   H797      1.0  0.09000  0.44407  0.20451  1.0000
  H   H798      1.0  0.08412  0.46615  0.21544  1.0000
  S   S113      1.0  0.01453  0.41930  0.18982  1.0000
  H   H799      1.0  0.00357  0.43106  0.15381  1.0000
  C   C444      1.0  0.10916  0.50555  0.02900  1.0000
  H   H800      1.0  0.49610  0.64633  0.00710  1.0000
  C   C445      1.0  0.21986  0.56577  0.00903  1.0000
  C   C446      1.0  0.16917  0.44610  0.99974  1.0000
  S   S114      1.0  0.05690  0.45986  0.09702  1.0000
  H   H801      1.0  0.11645  0.53763  0.01416  1.0000
  C   C447      1.0  0.05145  0.44604  0.11206  1.0000
  C   C448      1.0  0.09944  0.54057  0.03472  1.0000
  H   H802      1.0  0.07308  0.43110  0.15648  1.0000
  S   S115      1.0  0.05031  0.40594  0.18983  1.0000
  H   H803      1.0  0.02949  0.49737  0.01351  1.0000
  H   H804      1.0  0.08825  0.49034  0.16620  1.0000
  H   H805      1.0  0.05715  0.53193  0.08099  1.0000
  H   H806      1.0  0.03252  0.46139  0.23606  1.0000
  Fe  Fe57      1.0  0.03148  0.50542  0.06665  1.0000
  H   H807      1.0  0.03282  0.49738  0.14327  1.0000
  H   H808      1.0  0.35454  0.42444  0.99518  1.0000
  H   H809      1.0  0.19771  0.41810  0.01365  1.0000
  C   C449      1.0  0.08844  0.53235  0.01843  1.0000
  H   H810      1.0  0.30202  0.51072  0.01716  1.0000
  C   C450      1.0  0.00823  0.58595  0.18891  1.0000
  N   N25       1.0  0.09037  0.53037  0.03398  1.0000
  C   C451      1.0  0.06435  0.49350  0.04187  1.0000
  C   C452      1.0  0.05611  0.50626  0.03414  1.0000
  C   C453      1.0  0.19892  0.42946  0.00790  1.0000
  C   C454      1.0  0.27776  0.51536  0.02187  1.0000
  H   H811      1.0  0.05537  0.54819  0.06636  1.0000
  H   H812      1.0  0.10745  0.48378  0.04284  1.0000
  C   C455      1.0  0.02114  0.52555  0.12377  1.0000
  H   H813      1.0  0.17371  0.48249  0.01956  1.0000
  H   H814      1.0  0.01445  0.59276  0.17925  1.0000
  H   H815      1.0  0.31147  0.43916  0.02159  1.0000
  S   S116      1.0  0.02622  0.39166  0.22673  1.0000
  H   H816      1.0  0.17379  0.45609  0.99635  1.0000
  H   H817      1.0  0.08932  0.43464  0.14207  1.0000
  H   H818      1.0  0.01509  0.48319  0.16140  1.0000
  H   H819      1.0  0.42134  0.34404  0.01698  1.0000
  Fe  Fe58      1.0  0.03620  0.41752  0.17309  1.0000
  H   H820      1.0  0.02155  0.48585  0.17638  1.0000
  S   S117      1.0  0.02452  0.54615  0.18248  1.0000
  N   N26       1.0  0.10469  0.39551  0.17786  1.0000
  C   C456      1.0  0.10429  0.41118  0.16912  1.0000
  C   C457      1.0  0.10108  0.38692  0.16879  1.0000
  C   C458      1.0  0.09335  0.39610  0.19226  1.0000
  C   C459      1.0  0.11992  0.38800  0.18119  1.0000
  C   C460      1.0  0.13310  0.38734  0.16751  1.0000
  C   C461      1.0  0.11098  0.42089  0.17496  1.0000
  C   C462      1.0  0.09155  0.38097  0.20263  1.0000
  C   C463      1.0  0.08468  0.39123  0.16680  1.0000
  C   C464      1.0  0.08296  0.38424  0.15504  1.0000
  C   C465      1.0  0.14811  0.38110  0.17224  1.0000
  C   C466      1.0  0.10897  0.43670  0.16571  1.0000
  C   C467      1.0  0.07876  0.38307  0.21608  1.0000
  H   H821      1.0  0.09256  0.41720  0.16875  1.0000
  H   H822      1.0  0.11002  0.41133  0.15733  1.0000
  H   H823      1.0  0.10835  0.38824  0.15749  1.0000
  H   H824      1.0  0.10374  0.37482  0.17357  1.0000
  H   H825      1.0  0.08215  0.40244  0.19014  1.0000
  H   H826      1.0  0.09617  0.40238  0.19886  1.0000
  H   H827      1.0  0.12236  0.39325  0.18900  1.0000
  H   H828      1.0  0.12020  0.37630  0.18706  1.0000
  H   H829      1.0  0.13340  0.39840  0.16025  1.0000
  H   H830      1.0  0.13215  0.38000  0.16085  1.0000
  H   H831      1.0  0.10548  0.42154  0.18659  1.0000
  H   H832      1.0  0.12313  0.41642  0.17442  1.0000
  H   H833      1.0  0.10187  0.37520  0.20688  1.0000
  H   H834      1.0  0.08913  0.37366  0.19689  1.0000
  H   H835      1.0  0.07724  0.38720  0.17731  1.0000
  H   H836      1.0  0.08067  0.40336  0.16346  1.0000
  H   H837      1.0  0.07101  0.38718  0.15428  1.0000
  H   H838      1.0  0.08960  0.38847  0.14403  1.0000
  H   H839      1.0  0.08659  0.37199  0.15798  1.0000
  H   H840      1.0  0.14987  0.38835  0.17853  1.0000
  H   H841      1.0  0.14858  0.36976  0.17921  1.0000
  H   H842      1.0  0.15733  0.38050  0.16229  1.0000
  H   H843      1.0  0.11480  0.43676  0.15400  1.0000
  H   H844      1.0  0.09692  0.44196  0.16620  1.0000
  H   H845      1.0  0.11373  0.44344  0.17016  1.0000
  H   H846      1.0  0.03316  0.53924  0.23871  1.0000
  H   H847      1.0  0.06693  0.54285  0.00018  1.0000
  C   C468      1.0  0.48677  0.65558  0.01038  1.0000
  Fe  Fe59      1.0  0.03847  0.54328  0.19883  1.0000
  C   C469      1.0  0.04437  0.42363  0.13662  1.0000
  H   H848      1.0  0.10027  0.53939  0.04631  1.0000
  H   H849      1.0  0.00737  0.52676  0.04475  1.0000
  H   H850      1.0  0.06100  0.40865  0.12417  1.0000
  Fe  Fe60      1.0  0.26238  0.45786  0.00809  1.0000
  H   H851      1.0  0.21746  0.42720  0.01800  1.0000
  C   C470      1.0  0.42112  0.33510  0.01231  1.0000
  C   C471      1.0  0.07493  0.53440  0.04357  1.0000
  C   C472      1.0  0.07371  0.52973  0.06061  1.0000
  H   H852      1.0  0.08140  0.52494  0.01845  1.0000
  H   H853      1.0  0.06761  0.42850  0.10269  1.0000
  H   H854      1.0  0.33556  0.46712  0.04178  1.0000
  H   H855      1.0  0.09921  0.52879  0.01085  1.0000
  C   C473      1.0  0.00239  0.43635  0.12541  1.0000
  C   C474      1.0  0.05796  0.53590  0.06888  1.0000
  C   C475      1.0  0.32536  0.44539  0.00012  1.0000
  H   H856      1.0  0.06006  0.45995  0.04250  1.0000
  H   H857      1.0  0.08168  0.53381  0.06411  1.0000
  H   H858      1.0  0.06001  0.53746  0.22251  1.0000
  H   H859      1.0  0.00092  0.39115  0.16836  1.0000
  C   C476      1.0  0.09716  0.51432  0.03995  1.0000
  H   H860      1.0  0.19169  0.43751  0.01470  1.0000
  H   H861      1.0  0.03917  0.43813  0.23214  1.0000
  H   H862      1.0  0.01266  0.55537  0.22139  1.0000
  H   H863      1.0  0.09363  0.55233  0.03130  1.0000
  H   H864      1.0  0.08829  0.50785  0.04415  1.0000
  H   H865      1.0  0.06553  0.51777  0.22944  1.0000
  C   C477      1.0  0.01547  0.44373  0.09865  1.0000
  C   C478      1.0  0.11573  0.53840  0.02563  1.0000
  S   S118      1.0  0.03936  0.43988  0.17218  1.0000
  H   H866      1.0  0.12274  0.52821  0.03116  1.0000
  N   N27       1.0  0.29626  0.49117  0.01564  1.0000
  C   C479      1.0  0.02658  0.57055  0.21844  1.0000
  H   H867      1.0  0.07510  0.42802  0.13833  1.0000
  H   H868      1.0  0.10390  0.50398  0.02075  1.0000
  H   H869      1.0  0.07035  0.54656  0.04118  1.0000
  C   C480      1.0  0.02294  0.47329  0.03807  1.0000
  C   C481      1.0  0.03963  0.47365  0.03588  1.0000
  H   H870      1.0  0.04028  0.47881  0.20577  1.0000
  C   C482      1.0  0.17929  0.48064  0.00858  1.0000
  C   C483      1.0  0.04627  0.47686  0.15423  1.0000
  C   C484      1.0  0.31166  0.48153  0.01680  1.0000
  H   H871      1.0  0.04609  0.45675  0.19495  1.0000
  C   C485      1.0  0.02530  0.53013  0.14583  1.0000
  C   C486      1.0  0.33144  0.46768  0.03185  1.0000
  H   H872      1.0  0.07552  0.53011  0.23162  1.0000
  H   H873      1.0  0.28472  0.53440  0.02366  1.0000
  S   S119      1.0  0.03260  0.50927  0.18846  1.0000
  H   H874      1.0  0.04117  0.47045  0.14973  1.0000
  H   H875      1.0  0.31236  0.47021  0.01545  1.0000
  H   H876      1.0  0.28695  0.47261  0.01710  1.0000
  S   S120      1.0  0.03112  0.43173  0.20852  1.0000
  C   C487      1.0  0.28440  0.48228  0.02230  1.0000
  H   H877      1.0  0.26843  0.50976  0.02764  1.0000
  C   C488      1.0  0.19465  0.47417  0.00564  1.0000
  H   H878      1.0  0.02769  0.48061  0.01047  1.0000
  C   C489      1.0  0.31733  0.48005  0.03094  1.0000
  S   S121      1.0  0.02989  0.48181  0.07169  1.0000
  Fe  Fe61      1.0  0.22893  0.46943  0.00940  1.0000
  H   H879      1.0  0.12217  0.49100  0.04502  1.0000
  H   H880      1.0  0.46375  0.32817  0.02314  1.0000
  Fe  Fe62      1.0  0.01821  0.50850  0.09824  1.0000
  H   H881      1.0  0.02844  0.44119  0.14615  1.0000
  H   H882      1.0  0.07015  0.48293  0.09931  1.0000
  S   S122      1.0  0.05312  0.52883  0.14972  1.0000
  H   H883      1.0  0.16565  0.53247  0.99115  1.0000
  H   H884      1.0  0.16129  0.39715  0.03099  1.0000
  Fe  Fe63      1.0  0.01571  0.52732  0.19845  1.0000
  H   H885      1.0  0.08602  0.49104  0.09524  1.0000
  H   H886      1.0  0.13449  0.54897  0.01881  1.0000
  H   H887      1.0  0.00669  0.51977  0.02187  1.0000
  H   H888      1.0  0.07511  0.49047  0.18367  1.0000
  C   C490      1.0  0.06082  0.51064  0.01882  1.0000
  Fe  Fe64      1.0  0.02896  0.40984  0.20664  1.0000
  H   H889      1.0  0.29184  0.46640  0.04135  1.0000
  H   H890      1.0  0.00443  0.59183  0.19822  1.0000
  H   H891      1.0  0.48205  0.33965  0.00385  1.0000
  H   H892      1.0  0.05622  0.48559  0.17390  1.0000
  H   H893      1.0  0.06075  0.49003  0.05371  1.0000
  H   H894      1.0  0.17817  0.39202  0.01764  1.0000
  H   H895      1.0  0.12431  0.48403  0.02876  1.0000
  H   H896      1.0  0.02100  0.53236  0.15683  1.0000
  S   S123      1.0  0.04193  0.50283  0.08572  1.0000
  H   H897      1.0  0.05440  0.52044  0.01280  1.0000
  C   C491      1.0  0.05893  0.43127  0.11209  1.0000
  H   H898      1.0  0.32899  0.45683  0.03274  1.0000
  H   H899      1.0  0.34041  0.46979  0.02188  1.0000
  C   C492      1.0  0.04061  0.52828  0.13960  1.0000
  H   H900      1.0  0.30894  0.47769  0.04122  1.0000
  C   C493      1.0  0.06431  0.52886  0.23161  1.0000
  H   H901      1.0  0.26481  0.53583  0.02852  1.0000
  S   S124      1.0  0.04181  0.56206  0.20618  1.0000
  H   H902      1.0  0.00497  0.47975  0.22426  1.0000
  Fe  Fe65      1.0  0.05140  0.42856  0.19047  1.0000
  H   H903      1.0  0.07790  0.37216  0.22353  1.0000
  S   S125      1.0  0.25346  0.51277  0.99902  1.0000
  H   H904      1.0  0.00279  0.50883  0.00634  1.0000
  H   H905      1.0  0.04539  0.47531  0.02405  1.0000
  H   H906      1.0  0.32034  0.48587  0.00755  1.0000
  H   H907      1.0  0.47880  0.65100  0.02017  1.0000
  S   S126      1.0  0.24621  0.45172  0.99891  1.0000
  C   C494      1.0  0.05519  0.42005  0.12422  1.0000
  H   H908      1.0  0.07174  0.55391  0.01791  1.0000
  S   S127      1.0  0.04066  0.40955  0.15212  1.0000
  C   C495      1.0  0.08165  0.54828  0.01071  1.0000
  H   H909      1.0  0.32020  0.49055  0.03063  1.0000
  H   H910      1.0  0.21909  0.55652  0.00464  1.0000
  C   C496      1.0  0.05686  0.41895  0.23553  1.0000
  C   C497      1.0  0.02752  0.58325  0.22216  1.0000
  H   H911      1.0  0.07328  0.47157  0.17160  1.0000
  H   H912      1.0  0.22386  0.56120  0.01954  1.0000
  H   H913      1.0  0.07130  0.50474  0.16781  1.0000
  H   H914      1.0  0.27519  0.56319  0.99198  1.0000
  S   S128      1.0  0.04002  0.51700  0.04343  1.0000
  H   H915      1.0  0.06752  0.50168  0.10141  1.0000
  C   C498      1.0  0.07740  0.48526  0.03427  1.0000
  C   C499      1.0  0.26816  0.46964  0.04512  1.0000
  H   H916      1.0  0.14843  0.44163  0.99756  1.0000
  C   C500      1.0  0.11617  0.49016  0.03698  1.0000
  H   H917      1.0  0.26868  0.46090  0.03936  1.0000
  H   H918      1.0  0.06791  0.38822  0.21262  1.0000
  H   H919      1.0  0.33504  0.44418  0.00451  1.0000
  S   S129      1.0  0.00791  0.51320  0.07859  1.0000
  H   H920      1.0  0.27661  0.52032  0.01029  1.0000
  H   H921      1.0  0.01446  0.45179  0.08805  1.0000
  H   H922      1.0  0.01845  0.47100  0.05024  1.0000
  C   C501      1.0  0.03643  0.52376  0.11753  1.0000
  C   C502      1.0  0.14242  0.45944  0.00913  1.0000
  S   S130      1.0  0.01568  0.48500  0.10596  1.0000
  H   H923      1.0  0.16874  0.44268  0.01180  1.0000
  C   C503      1.0  0.17121  0.48491  0.99725  1.0000
  H   H924      1.0  0.14172  0.45207  0.02029  1.0000
  H   H925      1.0  0.16012  0.39711  0.01259  1.0000
  H   H926      1.0  0.15644  0.42258  0.01656  1.0000
  H   H927      1.0  0.17429  0.41761  0.02134  1.0000
  H   H928      1.0  0.27630  0.52394  0.04115  1.0000
  C   C504      1.0  0.00276  0.58485  0.23801  1.0000
  C   C505      1.0  0.16796  0.41567  0.01424  1.0000
  C   C506      1.0  0.16685  0.39948  0.01910  1.0000
  H   H929      1.0  0.14638  0.46923  0.00909  1.0000
  H   H930      1.0  0.47475  0.65506  0.99481  1.0000
  C   C507      1.0  0.28225  0.47578  0.03913  1.0000
  H   H931      1.0  0.00371  0.53031  0.14268  1.0000
  H   H932      1.0  0.01286  0.43625  0.12843  1.0000
  H   H933      1.0  0.00061  0.47377  0.02619  1.0000
  H   H934      1.0  0.02548  0.44443  0.10199  1.0000
  H   H935      1.0  0.07595  0.51750  0.06434  1.0000
  N   N28       1.0  0.06198  0.47728  0.14551  1.0000
  C   C508      1.0  0.06146  0.48366  0.12944  1.0000
  C   C509      1.0  0.02112  0.49088  0.01450  1.0000
  C   C510      1.0  0.06869  0.48681  0.15080  1.0000
  C   C511      1.0  0.07155  0.46173  0.14765  1.0000
  C   C512      1.0  0.06856  0.45111  0.13979  1.0000
  C   C513      1.0  0.07678  0.48452  0.11870  1.0000
  C   C514      1.0  0.06797  0.48331  0.16767  1.0000
  H   H936      1.0  0.06694  0.52939  0.04105  1.0000
  H   H937      1.0  0.11826  0.51123  0.02291  1.0000
  C   C515      1.0  0.07712  0.43524  0.14448  1.0000
  C   C516      1.0  0.07495  0.49041  0.10270  1.0000
  C   C517      1.0  0.07618  0.49280  0.17151  1.0000
  H   H938      1.0  0.05464  0.49517  0.12807  1.0000
  H   H939      1.0  0.05559  0.47753  0.12539  1.0000
  H   H940      1.0  0.29379  0.50093  0.03437  1.0000
  Fe  Fe66      1.0  0.00715  0.48925  0.08530  1.0000
  H   H941      1.0  0.06344  0.49872  0.14737  1.0000
  H   H942      1.0  0.08072  0.48579  0.14537  1.0000
  H   H943      1.0  0.08365  0.46181  0.14392  1.0000
  H   H944      1.0  0.06998  0.45645  0.15965  1.0000
  H   H945      1.0  0.07198  0.45445  0.12758  1.0000
  H   H946      1.0  0.05658  0.45106  0.14261  1.0000
  H   H947      1.0  0.08195  0.49224  0.12127  1.0000
  H   H948      1.0  0.08466  0.47353  0.11936  1.0000
  S   S131      1.0  0.09933  0.48001  0.00990  1.0000
  C   C518      1.0  0.07401  0.50254  0.01126  1.0000
  C   C519      1.0  0.04023  0.44960  0.12423  1.0000
  H   H949      1.0  0.04636  0.47086  0.16589  1.0000
  C   C520      1.0  0.29315  0.50436  0.02255  1.0000
  C   C521      1.0  0.29929  0.44456  0.00428  1.0000
  H   H950      1.0  0.05797  0.52395  0.12054  1.0000
  Fe  Fe67      1.0  0.03850  0.47966  0.09177  1.0000
  H   H951      1.0  0.12212  0.55265  0.03592  1.0000
  H   H952      1.0  0.26719  0.46465  0.05710  1.0000
  C   C522      1.0  0.04836  0.45913  0.04381  1.0000
  C   C523      1.0  0.12258  0.55125  0.02469  1.0000
  C   C524      1.0  0.03510  0.49209  0.15444  1.0000
  H   H953      1.0  0.03941  0.49963  0.15823  1.0000
  H   H954      1.0  0.25805  0.47863  0.04368  1.0000
  H   H955      1.0  0.27341  0.48888  0.01973  1.0000
  Fe  Fe68      1.0  0.04281  0.52804  0.17384  1.0000
  H   H956      1.0  0.03460  0.46102  0.12436  1.0000
  C   C525      1.0  0.31203  0.44255  0.00980  1.0000
  H   H957      1.0  0.09021  0.55504  0.00723  1.0000
  H   H958      1.0  0.21706  0.44107  0.00124  1.0000
  S   S132      1.0  0.00315  0.46306  0.18896  1.0000
  H   H959      1.0  0.30299  0.50553  0.99459  1.0000
  S   S133      1.0  0.02821  0.52593  0.21543  1.0000
  H   H960      1.0  0.01225  0.50151  0.16442  1.0000
  C   C526      1.0  0.04614  0.52532  0.12537  1.0000
  C   C527      1.0  0.01555  0.52893  0.13783  1.0000
  C   C528      1.0  0.02011  0.49049  0.16481  1.0000
  C   C529      1.0  0.00138  0.44746  0.11046  1.0000
  H   H961      1.0  0.45906  0.35619  0.01498  1.0000
  H   H962      1.0  0.01640  0.60036  0.23448  1.0000
  H   H963      1.0  0.04056  0.48271  0.04033  1.0000
  H   H964      1.0  0.20847  0.57295  0.01136  1.0000
  H   H965      1.0  0.13103  0.46335  0.00675  1.0000
  Fe  Fe69      1.0  0.01877  0.44094  0.19013  1.0000
  H   H966      1.0  0.15941  0.48998  0.99954  1.0000
  H   H967      1.0  0.08074  0.39020  0.22237  1.0000
  C   C530      1.0  0.00080  0.51427  0.03270  1.0000
  S   S134      1.0  0.00877  0.52370  0.11420  1.0000
  H   H968      1.0  0.04862  0.44978  0.03900  1.0000
  H   H969      1.0  0.23028  0.58423  0.00238  1.0000
  H   H970      1.0  0.00692  0.49573  0.05048  1.0000
  C   C531      1.0  0.27586  0.52814  0.02927  1.0000
  H   H971      1.0  0.04329  0.45679  0.05582  1.0000
  H   H972      1.0  0.11662  0.56169  0.01841  1.0000
  H   H973      1.0  0.01704  0.43244  0.09685  1.0000
  C   C532      1.0  0.15288  0.45116  0.99736  1.0000
  C   C533      1.0  0.46088  0.35492  0.00342  1.0000
  H   H974      1.0  0.45273  0.32918  0.01066  1.0000
  C   C534      1.0  0.04886  0.43466  0.23755  1.0000
  Fe  Fe70      1.0  0.24924  0.49076  0.00033  1.0000
  C   C535      1.0  0.29610  0.49709  0.99940  1.0000
  H   H975      1.0  0.01016  0.41984  0.23440  1.0000
  H   H976      1.0  0.25112  0.56257  0.00424  1.0000
  H   H977      1.0  0.00760  0.45885  0.13324  1.0000
  H   H978      1.0  0.28457  0.50276  0.99788  1.0000
  H   H979      1.0  0.06022  0.41879  0.22355  1.0000
  H   H980      1.0  0.22402  0.52708  0.99392  1.0000
  C   C536      1.0  0.01560  0.59047  0.23176  1.0000
  H   H981      1.0  0.22305  0.42170  0.00040  1.0000
  H   H982      1.0  0.05651  0.44217  0.23172  1.0000
  H   H983      1.0  0.40354  0.40382  0.99691  1.0000
  H   H984      1.0  0.44992  0.35593  0.00086  1.0000
  H   H985      1.0  0.01600  0.57524  0.19209  1.0000
  H   H986      1.0  0.00548  0.49159  0.00116  1.0000
  H   H987      1.0  0.00031  0.45891  0.11150  1.0000
  H   H988      1.0  0.00666  0.40871  0.14434  1.0000
  H   H989      1.0  0.29334  0.53780  0.99289  1.0000
  H   H990      1.0  0.00121  0.48159  0.14296  1.0000
  H   H991      1.0  0.00427  0.42515  0.12319  1.0000
  H   H992      1.0  0.01907  0.48348  0.23979  1.0000
  H   H993      1.0  0.00009  0.45550  0.15285  1.0000
  H   H994      1.0  0.25360  0.58565  0.00419  1.0000
  H   H995      1.0  0.29565  0.47669  0.99362  1.0000
  H   H996      1.0  0.01009  0.40456  0.16948  1.0000
  H   H997      1.0  0.18516  0.41047  0.99505  1.0000
  C   C537      1.0  0.07660  0.54816  0.99695  1.0000
  C   C538      1.0  0.46453  0.32710  0.01172  1.0000
  C   C539      1.0  0.17519  0.41953  0.99751  1.0000
  H   H998      1.0  0.27172  0.58741  0.99297  1.0000
  C   C540      1.0  0.47129  0.33999  0.00129  1.0000
  H   H999      1.0  0.25849  0.61004  0.00238  1.0000
  C   C541      1.0  0.23036  0.57484  0.99773  1.0000
  C   C542      1.0  0.42335  0.33698  0.99696  1.0000
  H   H1000     1.0  0.35264  0.40638  0.00643  1.0000
  C   C543      1.0  0.24645  0.56528  0.99415  1.0000
  H   H1001     1.0  0.24543  0.55444  0.99294  1.0000
  C   C544      1.0  0.19535  0.43317  0.99235  1.0000
  S   S135      1.0  0.12920  0.50361  0.99314  1.0000
  H   H1002     1.0  0.34115  0.41567  0.99302  1.0000
  C   C545      1.0  0.25950  0.59125  0.99345  1.0000
  H   H1003     1.0  0.24295  0.61213  0.99413  1.0000
  H   H1004     1.0  0.46592  0.36402  0.99582  1.0000
  H   H1005     1.0  0.41815  0.37859  0.00705  1.0000
  C   C546      1.0  0.35245  0.41365  0.99529  1.0000
  C   C547      1.0  0.20184  0.47197  0.99142  1.0000
  C   C548      1.0  0.25523  0.60787  0.99306  1.0000
  H   H1006     1.0  0.42795  0.39302  0.00391  1.0000
  H   H1007     1.0  0.38031  0.39573  0.99705  1.0000
  C   C549      1.0  0.42364  0.38683  0.99841  1.0000
  Fe  Fe71      1.0  0.11191  0.49367  0.99008  1.0000
  H   H1008     1.0  0.16698  0.41867  0.99163  1.0000
  H   H1009     1.0  0.40289  0.37973  0.99026  1.0000
  C   C550      1.0  0.42295  0.32542  0.99098  1.0000
  N   N29       1.0  0.17941  0.43436  0.99163  1.0000
  H   H1010     1.0  0.43326  0.38090  0.99108  1.0000
  H   H1011     1.0  0.02184  0.35243  0.35856  1.0000
  C   C551      1.0  0.04327  0.43535  0.25413  1.0000
  C   C552      1.0  0.00807  0.51799  0.25412  1.0000
  H   H1012     1.0  0.04354  0.51052  0.27214  1.0000
  C   C553      1.0  0.02035  0.38062  0.31841  1.0000
  H   H1013     1.0  0.02991  0.40003  0.31249  1.0000
  H   H1014     1.0  0.04803  0.46684  0.26086  1.0000
  H   H1015     1.0  0.04421  0.42889  0.28352  1.0000
  C   C554      1.0  0.07753  0.45821  0.25392  1.0000
  C   C555      1.0  0.02619  0.33357  0.34905  1.0000
  N   N30       1.0  0.00106  0.37383  0.34252  1.0000
  H   H1016     1.0  0.03107  0.61371  0.38112  1.0000
  H   H1017     1.0  0.01216  0.38603  0.31118  1.0000
  H   H1018     1.0  0.03854  0.48804  0.29285  1.0000
  H   H1019     1.0  0.02149  0.64151  0.44599  1.0000
  H   H1020     1.0  0.02656  0.33074  0.33848  1.0000
  H   H1021     1.0  0.03615  0.43289  0.30902  1.0000
  H   H1022     1.0  0.00593  0.50882  0.26371  1.0000
  H   H1023     1.0  0.00527  0.37186  0.36407  1.0000
  C   C556      1.0  0.05085  0.45847  0.25393  1.0000
  H   H1024     1.0  0.04489  0.65187  0.47585  1.0000
  C   C557      1.0  0.02490  0.39382  0.26845  1.0000
  H   H1025     1.0  0.03133  0.35481  0.33950  1.0000
  H   H1026     1.0  0.02036  0.43354  0.30187  1.0000
  H   H1027     1.0  0.00915  0.54081  0.25077  1.0000
  H   H1028     1.0  0.06645  0.44069  0.26615  1.0000
  H   H1029     1.0  0.02407  0.45051  0.30315  1.0000
  H   H1030     1.0  0.02914  0.38658  0.27787  1.0000
  C   C558      1.0  0.01916  0.47566  0.25069  1.0000
  H   H1031     1.0  0.03845  0.53669  0.27269  1.0000
  C   C559      1.0  0.06661  0.44868  0.25543  1.0000
  C   C560      1.0  0.02479  0.56556  0.27080  1.0000
  C   C561      1.0  0.01155  0.53041  0.25917  1.0000
  H   H1032     1.0  0.00799  0.35492  0.33201  1.0000
  C   C562      1.0  0.02697  0.45975  0.24801  1.0000
  N   N31       1.0  0.03818  0.45070  0.25739  1.0000
  C   C563      1.0  0.01655  0.40817  0.26935  1.0000
  H   H1033     1.0  0.02932  0.55766  0.25086  1.0000
  H   H1034     1.0  0.01834  0.45356  0.24904  1.0000
  H   H1035     1.0  0.02447  0.36887  0.31751  1.0000
  H   H1036     1.0  0.02358  0.51409  0.29354  1.0000
  C   C564      1.0  0.05375  0.53055  0.24651  1.0000
  C   C565      1.0  0.00291  0.47681  0.25916  1.0000
  H   H1037     1.0  0.02075  0.61889  0.36663  1.0000
  H   H1038     1.0  0.07124  0.44226  0.24655  1.0000
  C   C566      1.0  0.03004  0.44960  0.27337  1.0000
  C   C567      1.0  0.03360  0.38805  0.31224  1.0000
  H   H1039     1.0  0.02570  0.46073  0.27610  1.0000
  H   H1040     1.0  0.00300  0.53252  0.26933  1.0000
  C   C568      1.0  0.00744  0.33443  0.39181  1.0000
  H   H1041     1.0  0.03677  0.56363  0.27106  1.0000
  C   C569      1.0  0.02270  0.55527  0.26230  1.0000
  H   H1042     1.0  0.00317  0.58499  0.41228  1.0000
  C   C570      1.0  0.02929  0.43932  0.30072  1.0000
  C   C571      1.0  0.03920  0.44036  0.28517  1.0000
  C   C572      1.0  0.02730  0.53878  0.27000  1.0000
  S   S136      1.0  0.01352  0.41445  0.28565  1.0000
  H   H1043     1.0  0.04008  0.65299  0.45259  1.0000
  H   H1044     1.0  0.02724  0.34317  0.38499  1.0000
  H   H1045     1.0  0.08887  0.45106  0.25435  1.0000
  H   H1046     1.0  0.02191  0.37946  0.34104  1.0000
  C   C573      1.0  0.02289  0.33338  0.38738  1.0000
  H   H1047     1.0  0.01068  0.55819  0.26188  1.0000
  H   H1048     1.0  0.03393  0.42954  0.25849  1.0000
  C   C574      1.0  0.02654  0.49150  0.29223  1.0000
  H   H1049     1.0  0.05232  0.46497  0.24234  1.0000
  C   C575      1.0  0.03213  0.51225  0.27027  1.0000
  H   H1050     1.0  0.03309  0.50390  0.26380  1.0000
  H   H1051     1.0  0.03840  0.38703  0.30055  1.0000
  H   H1052     1.0  0.00832  0.39441  0.33382  1.0000
  H   H1053     1.0  0.01437  0.62826  0.38201  1.0000
  H   H1054     1.0  0.05214  0.42833  0.26006  1.0000
  H   H1055     1.0  0.01804  0.56384  0.28229  1.0000
  H   H1056     1.0  0.01796  0.32838  0.35804  1.0000
  C   C576      1.0  0.02225  0.50809  0.28578  1.0000
  H   H1057     1.0  0.07817  0.46633  0.24317  1.0000
  H   H1058     1.0  0.01970  0.48896  0.30359  1.0000
  N   N32       1.0  0.02718  0.52770  0.26159  1.0000
  C   C577      1.0  0.01303  0.38233  0.33458  1.0000
  H   H1059     1.0  0.03737  0.32887  0.35190  1.0000
  H   H1060     1.0  0.04811  0.44578  0.28489  1.0000
  H   H1061     1.0  0.05877  0.52192  0.25513  1.0000
  H   H1062     1.0  0.04245  0.38270  0.31872  1.0000
  H   H1063     1.0  0.01683  0.59525  0.38448  1.0000
  H   H1064     1.0  0.00397  0.63101  0.41518  1.0000
  H   H1065     1.0  0.02523  0.47989  0.25637  1.0000
  H   H1066     1.0  0.01928  0.53750  0.28087  1.0000
  H   H1067     1.0  0.05339  0.54153  0.24839  1.0000
  H   H1068     1.0  0.00217  0.47048  0.27073  1.0000
  C   C578      1.0  0.02214  0.35034  0.34770  1.0000
  C   C579      1.0  0.02755  0.38871  0.25542  1.0000
  H   H1069     1.0  0.03386  0.37755  0.25480  1.0000
  C   C580      1.0  0.01115  0.41753  0.25708  1.0000
  H   H1070     1.0  0.02094  0.57725  0.26522  1.0000
  C   C581      1.0  0.01049  0.60598  0.38743  1.0000
  C   C582      1.0  0.01967  0.61745  0.37872  1.0000
  C   C583      1.0  0.01423  0.41257  0.24389  1.0000
  H   H1071     1.0  0.02004  0.44494  0.27530  1.0000
  C   C584      1.0  0.02233  0.39811  0.24309  1.0000
  H   H1072     1.0  0.02436  0.48507  0.28535  1.0000
  H   H1073     1.0  0.00497  0.42873  0.25759  1.0000
  C   C585      1.0  0.03781  0.52936  0.24668  1.0000
  C   C586      1.0  0.00691  0.35743  0.34295  1.0000
  H   H1074     1.0  0.00963  0.60538  0.39931  1.0000
  H   H1075     1.0  0.01036  0.51089  0.28530  1.0000
  H   H1076     1.0  0.07394  0.46428  0.26307  1.0000
  H   H1077     1.0  0.01749  0.64843  0.47014  1.0000
  H   H1078     1.0  0.01745  0.51331  0.24578  1.0000
  H   H1079     1.0  0.00264  0.57946  0.39081  1.0000
  H   H1080     1.0  0.00761  0.57725  0.36734  1.0000
  H   H1081     1.0  0.00188  0.64763  0.45351  1.0000
  C   C587      1.0  0.01259  0.65122  0.44885  1.0000
  H   H1082     1.0  0.03921  0.51979  0.24167  1.0000
  C   C588      1.0  0.01628  0.65740  0.46017  1.0000
  H   H1083     1.0  0.06707  0.41510  0.24021  1.0000
  H   H1084     1.0  0.04929  0.41124  0.24099  1.0000
  H   H1085     1.0  0.00635  0.46073  0.62305  1.0000
  C   C589      1.0  0.13403  0.53495  0.71803  1.0000
  H   H1086     1.0  0.00111  0.35035  0.67547  1.0000
  H   H1087     1.0  0.05530  0.37044  0.65193  1.0000
  C   C590      1.0  0.09718  0.47004  0.69728  1.0000
  H   H1088     1.0  0.05668  0.44972  0.71179  1.0000
  H   H1089     1.0  0.04488  0.57649  0.72054  1.0000
  C   C591      1.0  0.06171  0.36915  0.66044  1.0000
  C   C592      1.0  0.03399  0.54743  0.55632  1.0000
  C   C593      1.0  0.09032  0.37985  0.64254  1.0000
  H   H1090     1.0  0.02089  0.58079  0.58069  1.0000
  C   C594      1.0  0.02448  0.41545  0.63142  1.0000
  H   H1091     1.0  0.00837  0.61733  0.53493  1.0000
  Fe  Fe72      1.0  0.04243  0.54818  0.63713  1.0000
  S   S137      1.0  0.02615  0.53555  0.65318  1.0000
  S   S138      1.0  0.04424  0.55042  0.61271  1.0000
  Fe  Fe73      1.0  0.05420  0.55256  0.66215  1.0000
  S   S139      1.0  0.03881  0.54014  0.67954  1.0000
  S   S140      1.0  0.06956  0.56100  0.67040  1.0000
  Fe  Fe74      1.0  0.04520  0.52432  0.66455  1.0000
  S   S141      1.0  0.05393  0.50023  0.67264  1.0000
  Fe  Fe75      1.0  0.02180  0.55311  0.66613  1.0000
  C   C595      1.0  0.09624  0.48906  0.71006  1.0000
  S   S142      1.0  0.06189  0.53578  0.64782  1.0000
  S   S143      1.0  0.03677  0.56663  0.64928  1.0000
  H   H1092     1.0  0.07006  0.38132  0.62906  1.0000
  H   H1093     1.0  0.06498  0.51109  0.69403  1.0000
  C   C596      1.0  0.06607  0.38375  0.65967  1.0000
  H   H1094     1.0  0.09520  0.46260  0.70842  1.0000
  C   C597      1.0  0.04100  0.57584  0.56457  1.0000
  H   H1095     1.0  0.02726  0.53941  0.71306  1.0000
  H   H1096     1.0  0.02070  0.56413  0.72998  1.0000
  C   C598      1.0  0.06595  0.44468  0.71718  1.0000
  S   S144      1.0  0.02105  0.38868  0.72167  1.0000
  H   H1097     1.0  0.03383  0.51645  0.58913  1.0000
  Fe  Fe76      1.0  0.02900  0.40798  0.70574  1.0000
  S   S145      1.0  0.04973  0.40597  0.68781  1.0000
  H   H1098     1.0  0.01716  0.40655  0.61694  1.0000
  Fe  Fe77      1.0  0.02087  0.44118  0.69737  1.0000
  S   S146      1.0  0.04093  0.44198  0.67870  1.0000
  H   H1099     1.0  0.04600  0.49397  0.72069  1.0000
  Fe  Fe78      1.0  0.03526  0.42329  0.67346  1.0000
  H   H1100     1.0  0.00186  0.33030  0.69296  1.0000
  Fe  Fe79      1.0  0.05320  0.42498  0.69491  1.0000
  S   S147      1.0  0.07573  0.42527  0.69789  1.0000
  C   C599      1.0  0.07165  0.46210  0.65836  1.0000
  S   S148      1.0  0.03356  0.42553  0.71393  1.0000
  C   C600      1.0  0.10172  0.38501  0.62851  1.0000
  C   C601      1.0  0.07651  0.43234  0.71277  1.0000
  H   H1101     1.0  0.05550  0.56272  0.57977  1.0000
  H   H1102     1.0  0.11595  0.50548  0.71192  1.0000
  C   C602      1.0  0.06872  0.40477  0.61937  1.0000
  H   H1103     1.0  0.14462  0.52635  0.71685  1.0000
  C   C603      1.0  0.01516  0.52326  0.60621  1.0000
  H   H1104     1.0  0.09545  0.37722  0.65234  1.0000
  N   N33       1.0  0.01535  0.56974  0.56663  1.0000
  H   H1105     1.0  0.08705  0.52257  0.66303  1.0000
  H   H1106     1.0  0.03680  0.55461  0.54530  1.0000
  H   H1107     1.0  0.12505  0.37831  0.61792  1.0000
  C   C604      1.0  0.00960  0.53203  0.61685  1.0000
  H   H1108     1.0  0.09208  0.50080  0.71105  1.0000
  C   C605      1.0  0.01842  0.55385  0.56523  1.0000
  H   H1109     1.0  0.06223  0.57808  0.56690  1.0000
  H   H1110     1.0  0.00337  0.59774  0.66530  1.0000
  C   C606      1.0  0.00151  0.50418  0.65454  1.0000
  C   C607      1.0  0.07634  0.40525  0.64625  1.0000
  C   C608      1.0  0.02788  0.41300  0.64532  1.0000
  C   C609      1.0  0.02660  0.39970  0.65541  1.0000
  C   C610      1.0  0.02270  0.38857  0.65138  1.0000
  H   H1111     1.0  0.02902  0.39787  0.66618  1.0000
  H   H1112     1.0  0.03482  0.65396  0.50765  1.0000
  C   C611      1.0  0.01794  0.47430  0.69571  1.0000
  C   C612      1.0  0.03282  0.46809  0.69666  1.0000
  C   C613      1.0  0.04375  0.47621  0.68973  1.0000
  C   C614      1.0  0.03975  0.49083  0.68224  1.0000
  C   C615      1.0  0.02470  0.49747  0.68208  1.0000
  C   C616      1.0  0.02140  0.56988  0.70585  1.0000
  H   H1113     1.0  0.03595  0.45676  0.70234  1.0000
  H   H1114     1.0  0.05531  0.47098  0.68989  1.0000
  H   H1115     1.0  0.02150  0.50885  0.67646  1.0000
  H   H1116     1.0  0.00418  0.32838  0.50440  1.0000
  C   C617      1.0  0.07421  0.55056  0.68737  1.0000
  C   C618      1.0  0.06386  0.54400  0.69880  1.0000
  C   C619      1.0  0.06790  0.53560  0.71215  1.0000
  C   C620      1.0  0.08242  0.53357  0.71403  1.0000
  C   C621      1.0  0.09259  0.54058  0.70286  1.0000
  C   C622      1.0  0.08848  0.54912  0.68964  1.0000
  H   H1117     1.0  0.05265  0.54564  0.69754  1.0000
  H   H1118     1.0  0.05983  0.53061  0.72093  1.0000
  C   C623      1.0  0.01437  0.59288  0.71597  1.0000
  H   H1119     1.0  0.09647  0.55435  0.68101  1.0000
  H   H1120     1.0  0.06870  0.57415  0.70177  1.0000
  H   H1121     1.0  0.05549  0.39196  0.66267  1.0000
  H   H1122     1.0  0.11911  0.48776  0.69612  1.0000
  C   C624      1.0  0.00603  0.47260  0.59451  1.0000
  H   H1123     1.0  0.04265  0.54590  0.56267  1.0000
  H   H1124     1.0  0.02230  0.37808  0.65906  1.0000
  C   C625      1.0  0.03472  0.53224  0.55374  1.0000
  H   H1125     1.0  0.04893  0.35379  0.67586  1.0000
  H   H1126     1.0  0.02725  0.53328  0.54627  1.0000
  H   H1127     1.0  0.01018  0.42133  0.56901  1.0000
  H   H1128     1.0  0.09898  0.53187  0.66690  1.0000
  S   S149      1.0  0.99972  0.54596  0.53570  1.0000
  H   H1129     1.0  0.06294  0.41292  0.59778  1.0000
  H   H1130     1.0  0.02034  0.39145  0.69170  1.0000
  C   C626      1.0  0.07366  0.48768  0.70341  1.0000
  C   C627      1.0  0.09164  0.46421  0.68665  1.0000
  H   H1131     1.0  0.01759  0.54629  0.57624  1.0000
  S   S150      1.0  0.00549  0.46259  0.70154  1.0000
  C   C628      1.0  0.06702  0.39186  0.63303  1.0000
  C   C629      1.0  0.11716  0.37455  0.62824  1.0000
  H   H1132     1.0  0.09734  0.44533  0.67632  1.0000
  C   C630      1.0  0.11876  0.49336  0.71643  1.0000
  C   C631      1.0  0.05190  0.36423  0.67553  1.0000
  C   C632      1.0  0.01837  0.54062  0.61868  1.0000
  C   C633      1.0  0.03267  0.54063  0.60976  1.0000
  C   C634      1.0  0.03790  0.53248  0.59859  1.0000
  C   C635      1.0  0.02930  0.52355  0.59703  1.0000
  H   H1133     1.0  0.08055  0.46166  0.69202  1.0000
  H   H1134     1.0  0.00981  0.56931  0.70614  1.0000
  H   H1135     1.0  0.04887  0.53257  0.59155  1.0000
  H   H1136     1.0  0.03596  0.45300  0.73288  1.0000
  H   H1137     1.0  0.01387  0.60014  0.55830  1.0000
  H   H1138     1.0  0.04190  0.59627  0.71566  1.0000
  H   H1139     1.0  0.08947  0.42727  0.64727  1.0000
  H   H1140     1.0  0.03129  0.52460  0.56431  1.0000
  C   C636      1.0  0.01191  0.41386  0.56137  1.0000
  C   C637      1.0  0.02319  0.59029  0.67487  1.0000
  H   H1141     1.0  0.05986  0.46061  0.73124  1.0000
  C   C638      1.0  0.04767  0.50354  0.71141  1.0000
  C   C639      1.0  0.11354  0.48513  0.70795  1.0000
  H   H1142     1.0  0.03481  0.59188  0.67135  1.0000
  C   C640      1.0  0.01912  0.39104  0.63756  1.0000
  H   H1143     1.0  0.00974  0.55242  0.56029  1.0000
  C   C641      1.0  0.12325  0.53030  0.73250  1.0000
  C   C642      1.0  0.05207  0.57443  0.57403  1.0000
  H   H1144     1.0  0.09125  0.42083  0.66630  1.0000
  H   H1145     1.0  0.07295  0.42700  0.66206  1.0000
  S   S151      1.0  0.03487  0.42611  0.64943  1.0000
  C   C643      1.0  0.03883  0.58679  0.69864  1.0000
  H   H1146     1.0  0.06460  0.45729  0.66877  1.0000
  C   C644      1.0  0.01559  0.57954  0.55138  1.0000
  H   H1147     1.0  0.04700  0.58139  0.58245  1.0000
  H   H1148     1.0  0.11334  0.49106  0.72834  1.0000
  H   H1149     1.0  0.02564  0.60383  0.53121  1.0000
  C   C645      1.0  0.99971  0.57343  0.57589  1.0000
  N   N34       1.0  0.07520  0.39028  0.64508  1.0000
  N   N35       1.0  0.04213  0.48636  0.63515  1.0000
  C   C646      1.0  0.05279  0.49484  0.62373  1.0000
  C   C647      1.0  0.03733  0.47659  0.62823  1.0000
  C   C648      1.0  0.02843  0.49768  0.64048  1.0000
  C   C649      1.0  0.04861  0.47741  0.64838  1.0000
  C   C650      1.0  0.06379  0.46618  0.64542  1.0000
  C   C651      1.0  0.05817  0.50582  0.62917  1.0000
  C   C652      1.0  0.01472  0.49161  0.65030  1.0000
  C   C653      1.0  0.04935  0.46888  0.61647  1.0000
  C   C654      1.0  0.04395  0.45706  0.61285  1.0000
  C   C655      1.0  0.07048  0.51208  0.61736  1.0000
  H   H1150     1.0  0.02670  0.53705  0.73247  1.0000
  H   H1151     1.0  0.04743  0.50130  0.61427  1.0000
  H   H1152     1.0  0.06291  0.48738  0.61872  1.0000
  H   H1153     1.0  0.03257  0.46789  0.63701  1.0000
  H   H1154     1.0  0.02812  0.48322  0.62240  1.0000
  H   H1155     1.0  0.02456  0.50582  0.63089  1.0000
  H   H1156     1.0  0.03112  0.50416  0.64700  1.0000
  H   H1157     1.0  0.04976  0.48491  0.65464  1.0000
  H   H1158     1.0  0.04069  0.47098  0.65637  1.0000
  H   H1159     1.0  0.07171  0.47052  0.63555  1.0000
  H   H1160     1.0  0.06184  0.45586  0.64400  1.0000
  H   H1161     1.0  0.04880  0.51532  0.63168  1.0000
  H   H1162     1.0  0.06280  0.50039  0.63920  1.0000
  H   H1163     1.0  0.01754  0.48410  0.66062  1.0000
  H   H1164     1.0  0.06238  0.41545  0.62260  1.0000
  H   H1165     1.0  0.05167  0.47719  0.60606  1.0000
  H   H1166     1.0  0.05999  0.46350  0.62011  1.0000
  H   H1167     1.0  0.03324  0.46200  0.60917  1.0000
  H   H1168     1.0  0.05236  0.45228  0.60384  1.0000
  H   H1169     1.0  0.04232  0.44801  0.62271  1.0000
  H   H1170     1.0  0.08059  0.50314  0.61515  1.0000
  H   H1171     1.0  0.06656  0.51760  0.60693  1.0000
  H   H1172     1.0  0.07358  0.52043  0.62124  1.0000
  H   H1173     1.0  0.10712  0.51538  0.65949  1.0000
  H   H1174     1.0  0.01800  0.40269  0.56623  1.0000
  C   C656      1.0  0.02623  0.57182  0.57436  1.0000
  H   H1175     1.0  0.10377  0.53922  0.70432  1.0000
  C   C657      1.0  0.08467  0.42108  0.65828  1.0000
  C   C658      1.0  0.10230  0.44997  0.68274  1.0000
  H   H1176     1.0  0.12888  0.53633  0.70853  1.0000
  C   C659      1.0  0.02626  0.55952  0.71996  1.0000
  C   C660      1.0  0.01333  0.60539  0.53511  1.0000
  H   H1177     1.0  0.06567  0.59408  0.69632  1.0000
  C   C661      1.0  0.00941  0.59637  0.55080  1.0000
  H   H1178     1.0  0.09056  0.47243  0.67618  1.0000
  H   H1179     1.0  0.00904  0.45790  0.64624  1.0000
  H   H1180     1.0  0.07207  0.38132  0.66878  1.0000
  C   C662      1.0  0.01977  0.40462  0.62767  1.0000
  C   C663      1.0  0.08871  0.42607  0.71959  1.0000
  H   H1181     1.0  0.09809  0.38494  0.61850  1.0000
  C   C664      1.0  0.01719  0.47119  0.73410  1.0000
  H   H1182     1.0  0.10423  0.44156  0.69292  1.0000
  H   H1183     1.0  0.06910  0.48450  0.69561  1.0000
  H   H1184     1.0  0.04204  0.50336  0.70285  1.0000
  H   H1185     1.0  0.10301  0.39625  0.62788  1.0000
  C   C665      1.0  0.06783  0.45091  0.72809  1.0000
  H   H1186     1.0  0.04008  0.59755  0.69093  1.0000
  C   C666      1.0  0.02230  0.54459  0.72283  1.0000
  H   H1187     1.0  0.03871  0.58746  0.55830  1.0000
  H   H1188     1.0  0.08172  0.41139  0.63555  1.0000
  H   H1189     1.0  0.09992  0.42701  0.73582  1.0000
  C   C667      1.0  0.06238  0.40313  0.60705  1.0000
  H   H1190     1.0  0.07420  0.47208  0.65990  1.0000
  C   C668      1.0  0.01378  0.48910  0.68870  1.0000
  C   C669      1.0  0.01472  0.59991  0.66289  1.0000
  H   H1191     1.0  0.09712  0.39964  0.65447  1.0000
  H   H1192     1.0  0.04660  0.56871  0.55645  1.0000
  H   H1193     1.0  0.10604  0.51091  0.68669  1.0000
  H   H1194     1.0  0.08918  0.36902  0.64153  1.0000
  H   H1195     1.0  0.02357  0.57859  0.67534  1.0000
  H   H1196     1.0  0.01402  0.54729  0.62699  1.0000
  H   H1197     1.0  0.00998  0.54607  0.72535  1.0000
  H   H1198     1.0  0.02839  0.56465  0.69649  1.0000
  H   H1199     1.0  0.02700  0.57797  0.54434  1.0000
  H   H1200     1.0  0.02553  0.42570  0.62352  1.0000
  H   H1201     1.0  0.11318  0.45223  0.67595  1.0000
  H   H1202     1.0  0.04212  0.51390  0.71548  1.0000
  C   C670      1.0  0.09591  0.51153  0.68281  1.0000
  C   C671      1.0  0.09429  0.49581  0.68326  1.0000
  C   C672      1.0  0.04653  0.58598  0.71125  1.0000
  H   H1203     1.0  0.07107  0.47997  0.71422  1.0000
  H   H1204     1.0  0.10954  0.46823  0.69347  1.0000
  H   H1205     1.0  0.08052  0.40546  0.61470  1.0000
  H   H1206     1.0  0.02081  0.59725  0.65198  1.0000
  C   C673      1.0  0.01526  0.59436  0.69009  1.0000
  C   C674      1.0  0.09738  0.52085  0.66707  1.0000
  H   H1207     1.0  0.05475  0.39373  0.63750  1.0000
  H   H1208     1.0  0.02916  0.56170  0.58289  1.0000
  H   H1209     1.0  0.08056  0.39968  0.66895  1.0000
  H   H1210     1.0  0.04631  0.52733  0.54846  1.0000
  H   H1211     1.0  0.08624  0.51754  0.68988  1.0000
  N   N36       1.0  0.09038  0.48602  0.69835  1.0000
  H   H1212     1.0  0.10509  0.49047  0.67674  1.0000
  S   S152      1.0  0.01423  0.42385  0.69092  1.0000
  H   H1213     1.0  0.04577  0.57814  0.69230  1.0000
  H   H1214     1.0  0.00373  0.47438  0.58338  1.0000
  C   C675      1.0  0.06427  0.50336  0.70498  1.0000
  C   C676      1.0  0.00991  0.50875  0.73494  1.0000
  H   H1215     1.0  0.08232  0.45384  0.65607  1.0000
  H   H1216     1.0  0.06823  0.50755  0.71245  1.0000
  H   H1217     1.0  0.08582  0.49715  0.67669  1.0000
  H   H1218     1.0  0.06493  0.41230  0.64900  1.0000
  H   H1219     1.0  0.09178  0.48268  0.72119  1.0000
  H   H1220     1.0  0.00480  0.51139  0.65976  1.0000
  C   C677      1.0  0.08519  0.40526  0.65762  1.0000
  H   H1221     1.0  0.11744  0.47306  0.71219  1.0000
  H   H1222     1.0  0.01187  0.46723  0.72749  1.0000
  C   C678      1.0  0.06336  0.58467  0.70561  1.0000
  H   H1223     1.0  0.01534  0.60463  0.71324  1.0000
  H   H1224     1.0  0.03853  0.55737  0.71860  1.0000
  H   H1225     1.0  0.00898  0.57623  0.54542  1.0000
  H   H1226     1.0  0.13106  0.48965  0.71534  1.0000
  H   H1227     1.0  0.00368  0.59281  0.69219  1.0000
  N   N37       1.0  0.02258  0.58574  0.70294  1.0000
  H   H1228     1.0  0.01080  0.48548  0.64442  1.0000
  H   H1229     1.0  0.00007  0.44330  0.65764  1.0000
  H   H1230     1.0  0.01887  0.41803  0.55054  1.0000
  H   H1231     1.0  0.06894  0.39305  0.60279  1.0000
  H   H1232     1.0  0.00491  0.56475  0.59812  1.0000
  H   H1233     1.0  0.11660  0.36311  0.62854  1.0000
  H   H1234     1.0  0.04137  0.37274  0.67757  1.0000
  S   S153      1.0  0.01503  0.37662  0.63245  1.0000
  H   H1235     1.0  0.00954  0.53503  0.69384  1.0000
  H   H1236     1.0  0.13652  0.54565  0.71763  1.0000
  H   H1237     1.0  0.00872  0.60203  0.52739  1.0000
  H   H1238     1.0  0.01425  0.60645  0.68872  1.0000
  H   H1239     1.0  0.07178  0.36005  0.65889  1.0000
  C   C679      1.0  0.00969  0.38959  0.69843  1.0000
  H   H1240     1.0  0.11268  0.53896  0.73282  1.0000
  H   H1241     1.0  0.05051  0.40235  0.61117  1.0000
  H   H1242     1.0  0.09697  0.41659  0.71624  1.0000
  S   S154      1.0  0.08844  0.52231  0.73002  1.0000
  C   C680      1.0  0.08013  0.44457  0.73482  1.0000
  C   C681      1.0  0.00749  0.38659  0.71383  1.0000
  H   H1243     1.0  0.02349  0.47931  0.72641  1.0000
  H   H1244     1.0  0.05792  0.36225  0.68454  1.0000
  H   H1245     1.0  0.12066  0.51997  0.73207  1.0000
  C   C682      1.0  0.09041  0.43202  0.73065  1.0000
  S   S155      1.0  0.00258  0.50994  0.56638  1.0000
  H   H1246     1.0  0.00227  0.49384  0.68778  1.0000
  H   H1247     1.0  0.01375  0.61183  0.66214  1.0000
  H   H1248     1.0  0.01956  0.58761  0.72569  1.0000
  H   H1249     1.0  0.05962  0.40583  0.73329  1.0000
  S   S156      1.0  0.00575  0.50998  0.60630  1.0000
  H   H1250     1.0  0.01230  0.50469  0.72458  1.0000
  H   H1251     1.0  0.01908  0.51386  0.73459  1.0000
  H   H1252     1.0  0.00046  0.56849  0.50904  1.0000
  H   H1253     1.0  0.01662  0.46414  0.59501  1.0000
  H   H1254     1.0  0.00976  0.45563  0.67172  1.0000
  H   H1255     1.0  0.12159  0.37449  0.63782  1.0000
  H   H1256     1.0  0.00728  0.48323  0.59588  1.0000
  H   H1257     1.0  0.06848  0.58469  0.71468  1.0000
  H   H1258     1.0  0.05441  0.64948  0.49879  1.0000
  H   H1259     1.0  0.18497  0.62505  0.88999  1.0000
  H   H1260     1.0  0.14354  0.59190  0.85309  1.0000
  S   S157      1.0  0.06042  0.47573  0.77809  1.0000
  S   S158      1.0  0.02220  0.50510  0.77033  1.0000
  C   C683      1.0  0.43949  0.62425  0.89955  1.0000
  H   H1261     1.0  0.38092  0.41662  0.95018  1.0000
  H   H1262     1.0  0.38995  0.58184  0.94111  1.0000
  C   C684      1.0  0.10874  0.56694  0.93504  1.0000
  Fe  Fe80      1.0  0.07629  0.48922  0.77804  1.0000
  S   S159      1.0  0.09064  0.48367  0.79507  1.0000
  C   C685      1.0  0.18871  0.42910  0.96506  1.0000
  H   H1263     1.0  0.18022  0.56816  0.84517  1.0000
  Fe  Fe81      1.0  0.12949  0.52280  0.82967  1.0000
  S   S160      1.0  0.13007  0.51081  0.85314  1.0000
  S   S161      1.0  0.10850  0.52911  0.82042  1.0000
  Fe  Fe82      1.0  0.16142  0.52711  0.82356  1.0000
  S   S162      1.0  0.16476  0.51527  0.84635  1.0000
  S   S163      1.0  0.17834  0.53699  0.80487  1.0000
  Fe  Fe83      1.0  0.15326  0.49919  0.84364  1.0000
  S   S164      1.0  0.15913  0.47453  0.85095  1.0000
  Fe  Fe84      1.0  0.14137  0.52792  0.85399  1.0000
  S   S165      1.0  0.13677  0.53931  0.87292  1.0000
  S   S166      1.0  0.15185  0.50978  0.82005  1.0000
  S   S167      1.0  0.13888  0.54108  0.83130  1.0000
  H   H1264     1.0  0.14176  0.52215  0.74385  1.0000
  H   H1265     1.0  0.38924  0.41768  0.87667  1.0000
  Fe  Fe85      1.0  0.30802  0.58861  0.92752  1.0000
  S   S168      1.0  0.32065  0.59340  0.90409  1.0000
  S   S169      1.0  0.31161  0.56659  0.94369  1.0000
  H   H1266     1.0  0.32678  0.42696  0.91840  1.0000
  H   H1267     1.0  0.32800  0.43955  0.89232  1.0000
  H   H1268     1.0  0.39172  0.42571  0.85704  1.0000
  S   S170      1.0  0.30842  0.61024  0.93191  1.0000
  S   S171      1.0  0.28553  0.59690  0.92171  1.0000
  Fe  Fe86      1.0  0.20505  0.58244  0.86135  1.0000
  S   S172      1.0  0.21129  0.59789  0.83987  1.0000
  S   S173      1.0  0.18089  0.58748  0.87221  1.0000
  Fe  Fe87      1.0  0.23639  0.56326  0.85935  1.0000
  S   S174      1.0  0.24500  0.57691  0.83748  1.0000
  S   S175      1.0  0.25238  0.54362  0.86954  1.0000
  Fe  Fe88      1.0  0.23178  0.59612  0.84803  1.0000
  H   H1269     1.0  0.33790  0.41036  0.91193  1.0000
  Fe  Fe89      1.0  0.22357  0.57700  0.83183  1.0000
  S   S176      1.0  0.22202  0.57352  0.81006  1.0000
  S   S177      1.0  0.22438  0.58239  0.87032  1.0000
  S   S178      1.0  0.21606  0.56169  0.85282  1.0000
  Fe  Fe90      1.0  0.20325  0.59546  0.96561  1.0000
  S   S179      1.0  0.20854  0.59363  0.94194  1.0000
  H   H1270     1.0  0.36396  0.41514  0.87715  1.0000
  C   C686      1.0  0.30189  0.48553  0.98944  1.0000
  S   S180      1.0  0.18725  0.56929  0.95254  1.0000
  H   H1271     1.0  0.30825  0.57301  0.78460  1.0000
  Fe  Fe91      1.0  0.21115  0.56923  0.95095  1.0000
  S   S181      1.0  0.23113  0.55265  0.94206  1.0000
  Fe  Fe92      1.0  0.18416  0.59399  0.94610  1.0000
  S   S182      1.0  0.16906  0.60884  0.93132  1.0000
  C   C687      1.0  0.23094  0.62891  0.96607  1.0000
  S   S183      1.0  0.17857  0.59755  0.96920  1.0000
  Fe  Fe93      1.0  0.44027  0.33649  0.93690  1.0000
  S   S184      1.0  0.41859  0.34601  0.95087  1.0000
  H   H1272     1.0  0.48915  0.64403  0.94595  1.0000
  Fe  Fe94      1.0  0.45258  0.36352  0.93147  1.0000
  S   S185      1.0  0.43179  0.37566  0.94484  1.0000
  S   S186      1.0  0.47351  0.37236  0.92293  1.0000
  Fe  Fe95      1.0  0.43240  0.35396  0.96108  1.0000
  H   H1273     1.0  0.09627  0.54408  0.77348  1.0000
  Fe  Fe96      1.0  0.41948  0.36692  0.93352  1.0000
  S   S187      1.0  0.39647  0.37849  0.92919  1.0000
  S   S188      1.0  0.45415  0.34264  0.94871  1.0000
  S   S189      1.0  0.44023  0.35661  0.91846  1.0000
  Fe  Fe97      1.0  0.35000  0.49105  0.92559  1.0000
  S   S190      1.0  0.34682  0.48249  0.90757  1.0000
  S   S191      1.0  0.35707  0.51276  0.91818  1.0000
  Fe  Fe98      1.0  0.34216  0.46433  0.94895  1.0000
  S   S192      1.0  0.33795  0.45373  0.93268  1.0000
  H   H1274     1.0  0.31464  0.57707  0.80647  1.0000
  Fe  Fe99      1.0  0.35888  0.46034  0.91822  1.0000
  S   S193      1.0  0.37729  0.44703  0.90349  1.0000
  Fe  Fe100     1.0  0.32622  0.47693  0.92330  1.0000
  S   S194      1.0  0.30539  0.48645  0.91391  1.0000
  S   S195      1.0  0.36396  0.46935  0.93499  1.0000
  S   S196      1.0  0.32855  0.48697  0.94089  1.0000
  H   H1275     1.0  0.13339  0.49852  0.74308  1.0000
  H   H1276     1.0  0.45649  0.64473  0.92803  1.0000
  Fe  Fe101     1.0  0.22479  0.47513  0.89155  1.0000
  S   S197      1.0  0.24097  0.46686  0.87221  1.0000
  S   S198      1.0  0.21145  0.49820  0.89137  1.0000
  Fe  Fe102     1.0  0.22948  0.44517  0.91233  1.0000
  S   S199      1.0  0.24543  0.43403  0.89468  1.0000
  S   S200      1.0  0.22403  0.43340  0.93615  1.0000
  Fe  Fe103     1.0  0.25545  0.45386  0.88845  1.0000
  S   S201      1.0  0.28054  0.44908  0.88532  1.0000
  Fe  Fe104     1.0  0.22952  0.44801  0.88016  1.0000
  S   S202      1.0  0.22272  0.43987  0.86386  1.0000
  S   S203      1.0  0.24034  0.46444  0.90680  1.0000
  S   S204      1.0  0.21241  0.45706  0.89858  1.0000
  C   C688      1.0  0.14351  0.56725  0.98719  1.0000
  H   H1277     1.0  0.11899  0.58726  0.93984  1.0000
  H   H1278     1.0  0.31086  0.59252  0.82228  1.0000
  C   C689      1.0  0.00947  0.46591  0.78572  1.0000
  S   S205      1.0  0.25637  0.46941  0.95666  1.0000
  H   H1279     1.0  0.39993  0.43909  0.94551  1.0000
  H   H1280     1.0  0.44924  0.58154  0.96042  1.0000
  H   H1281     1.0  0.08686  0.49577  0.83380  1.0000
  Fe  Fe105     1.0  0.18375  0.57282  0.97547  1.0000
  H   H1282     1.0  0.12743  0.47399  0.75215  1.0000
  H   H1283     1.0  0.43608  0.65687  0.95193  1.0000
  H   H1284     1.0  0.11389  0.49986  0.75183  1.0000
  H   H1285     1.0  0.46425  0.61325  0.91103  1.0000
  S   S206      1.0  0.13598  0.51563  0.95681  1.0000
  H   H1286     1.0  0.47733  0.33231  0.85245  1.0000
  Fe  Fe106     1.0  0.11844  0.50448  0.95657  1.0000
  S   S207      1.0  0.11208  0.50281  0.93615  1.0000
  Fe  Fe107     1.0  0.14373  0.49521  0.97321  1.0000
  S   S208      1.0  0.16848  0.48506  0.96927  1.0000
  C   C690      1.0  0.18577  0.43460  0.94941  1.0000
  H   H1287     1.0  0.28775  0.58782  0.80023  1.0000
  H   H1288     1.0  0.07028  0.47164  0.89787  1.0000
  H   H1289     1.0  0.48412  0.39808  0.92927  1.0000
  C   C691      1.0  0.15594  0.55576  0.98972  1.0000
  C   C692      1.0  0.14383  0.53849  0.98588  1.0000
  H   H1290     1.0  0.01382  0.51042  0.97977  1.0000
  H   H1291     1.0  0.31879  0.46189  0.86956  1.0000
  C   C693      1.0  0.08416  0.50678  0.86357  1.0000
  H   H1292     1.0  0.44704  0.65212  0.96581  1.0000
  H   H1293     1.0  0.20318  0.42444  0.98666  1.0000
  H   H1294     1.0  0.37997  0.39411  0.96143  1.0000
  H   H1295     1.0  0.23830  0.54207  0.79036  1.0000
  C   C694      1.0  0.04529  0.42785  0.78063  1.0000
  C   C695      1.0  0.23473  0.43970  0.94417  1.0000
  C   C696      1.0  0.24799  0.44328  0.93539  1.0000
  C   C697      1.0  0.25424  0.45287  0.93909  1.0000
  C   C698      1.0  0.24839  0.45725  0.95259  1.0000
  C   C699      1.0  0.23619  0.45215  0.96234  1.0000
  C   C700      1.0  0.22905  0.44367  0.95795  1.0000
  H   H1296     1.0  0.25279  0.43958  0.92509  1.0000
  H   H1297     1.0  0.26345  0.45707  0.93135  1.0000
  C   C701      1.0  0.38963  0.38834  0.96671  1.0000
  H   H1298     1.0  0.21875  0.44099  0.96475  1.0000
  C   C702      1.0  0.29812  0.47560  0.90683  1.0000
  C   C703      1.0  0.28590  0.48237  0.90001  1.0000
  C   C704      1.0  0.28001  0.47413  0.89396  1.0000
  C   C705      1.0  0.28646  0.45910  0.89453  1.0000
  C   C706      1.0  0.29845  0.45222  0.90163  1.0000
  C   C707      1.0  0.30435  0.46047  0.90773  1.0000
  H   H1299     1.0  0.28107  0.49407  0.89918  1.0000
  H   H1300     1.0  0.27074  0.47949  0.88850  1.0000
  H   H1301     1.0  0.30311  0.44050  0.90238  1.0000
  H   H1302     1.0  0.31370  0.45520  0.91306  1.0000
  H   H1303     1.0  0.10968  0.57573  0.92484  1.0000
  H   H1304     1.0  0.24427  0.59468  0.97893  1.0000
  C   C708      1.0  0.25757  0.52565  0.96960  1.0000
  H   H1305     1.0  0.06839  0.43023  0.77381  1.0000
  H   H1306     1.0  0.27142  0.61548  0.82665  1.0000
  H   H1307     1.0  0.26303  0.58738  0.94978  1.0000
  H   H1308     1.0  0.31856  0.59455  0.79607  1.0000
  H   H1309     1.0  0.31405  0.45577  0.96759  1.0000
  C   C709      1.0  0.39200  0.39774  0.92284  1.0000
  C   C710      1.0  0.40200  0.40506  0.91182  1.0000
  C   C711      1.0  0.39744  0.42025  0.90590  1.0000
  C   C712      1.0  0.38315  0.42824  0.91145  1.0000
  C   C713      1.0  0.37345  0.42103  0.92292  1.0000
  C   C714      1.0  0.37767  0.40572  0.92826  1.0000
  H   H1310     1.0  0.41302  0.39891  0.90749  1.0000
  H   H1311     1.0  0.40502  0.42582  0.89705  1.0000
  H   H1312     1.0  0.36257  0.42720  0.92745  1.0000
  H   H1313     1.0  0.36988  0.40007  0.93673  1.0000
  H   H1314     1.0  0.21521  0.54178  0.97125  1.0000
  H   H1315     1.0  0.31395  0.48037  0.98891  1.0000
  H   H1316     1.0  0.03528  0.44899  0.76937  1.0000
  H   H1317     1.0  0.19074  0.63474  0.90748  1.0000
  C   C715      1.0  0.06980  0.47643  0.87445  1.0000
  H   H1318     1.0  0.00833  0.47662  0.74238  1.0000
  H   H1319     1.0  0.43961  0.59602  0.97067  1.0000
  H   H1320     1.0  0.26686  0.60739  0.79948  1.0000
  H   H1321     1.0  0.25365  0.41511  0.98485  1.0000
  H   H1322     1.0  0.47308  0.33962  0.98949  1.0000
  C   C716      1.0  0.23731  0.54032  0.95745  1.0000
  C   C717      1.0  0.25255  0.53392  0.95673  1.0000
  C   C718      1.0  0.19371  0.62861  0.88041  1.0000
  C   C719      1.0  0.29462  0.59469  0.80180  1.0000
  H   H1323     1.0  0.27411  0.58351  0.82368  1.0000
  H   H1324     1.0  0.08579  0.54200  0.98947  1.0000
  H   H1325     1.0  0.26047  0.53561  0.94636  1.0000
  H   H1326     1.0  0.39241  0.35055  0.91536  1.0000
  H   H1327     1.0  0.49676  0.35795  0.93948  1.0000
  H   H1328     1.0  0.08068  0.54336  0.74968  1.0000
  Fe  Fe108     1.0  0.25049  0.47078  0.98027  1.0000
  H   H1329     1.0  0.47855  0.34526  0.87130  1.0000
  H   H1330     1.0  0.47146  0.59292  0.95131  1.0000
  S   S209      1.0  0.34284  0.45360  0.97291  1.0000
  C   C720      1.0  0.19275  0.62334  0.86714  1.0000
  C   C721      1.0  0.48573  0.64972  0.96728  1.0000
  H   H1331     1.0  0.49654  0.40800  0.93146  1.0000
  C   C722      1.0  0.05858  0.43209  0.78306  1.0000
  H   H1332     1.0  0.27430  0.39971  0.96001  1.0000
  C   C723      1.0  0.17770  0.59291  0.88889  1.0000
  C   C724      1.0  0.18837  0.58760  0.89770  1.0000
  C   C725      1.0  0.18568  0.59230  0.91096  1.0000
  C   C726      1.0  0.17244  0.60249  0.91516  1.0000
  C   C727      1.0  0.16179  0.60777  0.90635  1.0000
  C   C728      1.0  0.16435  0.60284  0.89329  1.0000
  H   H1333     1.0  0.19857  0.57971  0.89443  1.0000
  H   H1334     1.0  0.19388  0.58815  0.91783  1.0000
  H   H1335     1.0  0.15156  0.61565  0.90966  1.0000
  H   H1336     1.0  0.35878  0.42339  0.89951  1.0000
  C   C729      1.0  0.24150  0.53061  0.87821  1.0000
  C   C730      1.0  0.22599  0.53554  0.88191  1.0000
  C   C731      1.0  0.21679  0.52547  0.88634  1.0000
  C   C732      1.0  0.22315  0.51040  0.88723  1.0000
  C   C733      1.0  0.23872  0.50529  0.88454  1.0000
  C   C734      1.0  0.24795  0.51544  0.88005  1.0000
  H   H1337     1.0  0.22104  0.54722  0.88111  1.0000
  H   H1338     1.0  0.20475  0.52940  0.88872  1.0000
  H   H1339     1.0  0.24365  0.49359  0.88544  1.0000
  H   H1340     1.0  0.25999  0.51158  0.87733  1.0000
  C   C735      1.0  0.32406  0.55163  0.93638  1.0000
  C   C736      1.0  0.32502  0.53720  0.94490  1.0000
  C   C737      1.0  0.33488  0.52514  0.93927  1.0000
  C   C738      1.0  0.34408  0.52752  0.92518  1.0000
  C   C739      1.0  0.34332  0.54194  0.91675  1.0000
  C   C740      1.0  0.33324  0.55393  0.92227  1.0000
  H   H1341     1.0  0.31810  0.53527  0.95585  1.0000
  H   H1342     1.0  0.33561  0.51405  0.94593  1.0000
  H   H1343     1.0  0.35054  0.54383  0.90590  1.0000
  H   H1344     1.0  0.33283  0.56493  0.91570  1.0000
  C   C741      1.0  0.33833  0.42052  0.91500  1.0000
  C   C742      1.0  0.27070  0.58980  0.87251  1.0000
  C   C743      1.0  0.25907  0.59460  0.86485  1.0000
  C   C744      1.0  0.03680  0.42369  0.74997  1.0000
  C   C745      1.0  0.38596  0.41811  0.86628  1.0000
  H   H1345     1.0  0.28134  0.49318  0.85743  1.0000
  H   H1346     1.0  0.27478  0.57810  0.87639  1.0000
  H   H1347     1.0  0.25438  0.58652  0.86287  1.0000
  H   H1348     1.0  0.38974  0.40683  0.86388  1.0000
  H   H1349     1.0  0.34380  0.41712  0.92458  1.0000
  H   H1350     1.0  0.34523  0.45267  0.85216  1.0000
  H   H1351     1.0  0.36621  0.42294  0.85763  1.0000
  H   H1352     1.0  0.23299  0.60301  0.94721  1.0000
  H   H1353     1.0  0.25550  0.61247  0.93243  1.0000
  C   C746      1.0  0.12943  0.52952  0.89050  1.0000
  C   C747      1.0  0.13290  0.53133  0.90306  1.0000
  C   C748      1.0  0.12763  0.52324  0.91717  1.0000
  C   C749      1.0  0.11848  0.51362  0.91880  1.0000
  C   C750      1.0  0.11462  0.51218  0.90626  1.0000
  C   C751      1.0  0.12028  0.51991  0.89212  1.0000
  H   H1354     1.0  0.14009  0.53862  0.90176  1.0000
  H   H1355     1.0  0.13070  0.52440  0.92674  1.0000
  H   H1356     1.0  0.10733  0.50496  0.90751  1.0000
  H   H1357     1.0  0.11738  0.51862  0.88253  1.0000
  C   C752      1.0  0.17748  0.46593  0.85323  1.0000
  C   C753      1.0  0.18302  0.45118  0.85189  1.0000
  C   C754      1.0  0.19713  0.44349  0.85468  1.0000
  C   C755      1.0  0.20558  0.45031  0.85942  1.0000
  C   C756      1.0  0.20009  0.46512  0.86081  1.0000
  C   C757      1.0  0.18617  0.47306  0.85736  1.0000
  H   H1358     1.0  0.17635  0.44562  0.84873  1.0000
  H   H1359     1.0  0.20132  0.43207  0.85362  1.0000
  H   H1360     1.0  0.20655  0.47042  0.86456  1.0000
  H   H1361     1.0  0.18189  0.48443  0.85854  1.0000
  C   C758      1.0  0.19077  0.54630  0.80719  1.0000
  C   C759      1.0  0.19242  0.54666  0.82112  1.0000
  C   C760      1.0  0.20209  0.55483  0.82227  1.0000
  C   C761      1.0  0.21007  0.56268  0.80949  1.0000
  C   C762      1.0  0.20861  0.56195  0.79564  1.0000
  C   C763      1.0  0.19906  0.55381  0.79449  1.0000
  H   H1362     1.0  0.18620  0.54072  0.83095  1.0000
  H   H1363     1.0  0.20336  0.55500  0.83301  1.0000
  H   H1364     1.0  0.36828  0.44654  0.86079  1.0000
  C   C764      1.0  0.27645  0.54724  0.97951  1.0000
  C   C765      1.0  0.09586  0.49691  0.80103  1.0000
  C   C766      1.0  0.08665  0.51099  0.80163  1.0000
  C   C767      1.0  0.09070  0.52082  0.80750  1.0000
  C   C768      1.0  0.10399  0.51666  0.81276  1.0000
  C   C769      1.0  0.11338  0.50273  0.81181  1.0000
  C   C770      1.0  0.10923  0.49284  0.80613  1.0000
  H   H1365     1.0  0.07626  0.51418  0.79785  1.0000
  H   H1366     1.0  0.08343  0.53163  0.80813  1.0000
  H   H1367     1.0  0.12372  0.49948  0.81568  1.0000
  H   H1368     1.0  0.11638  0.48193  0.80573  1.0000
  S   S210      1.0  0.20788  0.57105  0.97440  1.0000
  H   H1369     1.0  0.07446  0.53746  0.76947  1.0000
  C   C771      1.0  0.36346  0.43919  0.87098  1.0000
  H   H1370     1.0  0.28959  0.39744  0.92167  1.0000
  H   H1371     1.0  0.33970  0.42411  0.88540  1.0000
  S   S211      1.0  0.40895  0.65448  0.93782  1.0000
  C   C772      1.0  0.30014  0.44893  0.98900  1.0000
  H   H1372     1.0  0.01129  0.45338  0.76151  1.0000
  C   C773      1.0  0.45688  0.62263  0.91612  1.0000
  N   N38       1.0  0.28888  0.59858  0.81694  1.0000
  C   C774      1.0  0.36899  0.42328  0.86800  1.0000
  H   H1373     1.0  0.10228  0.57227  0.94449  1.0000
  H   H1374     1.0  0.24625  0.52336  0.82740  1.0000
  C   C775      1.0  0.19270  0.63358  0.93475  1.0000
  H   H1375     1.0  0.28026  0.56565  0.85498  1.0000
  H   H1376     1.0  0.21425  0.64673  0.86404  1.0000
  C   C776      1.0  0.01815  0.47657  0.78089  1.0000
  H   H1377     1.0  0.08917  0.47232  0.82856  1.0000
  C   C777      1.0  0.33990  0.43441  0.88844  1.0000
  H   H1378     1.0  0.26878  0.54086  0.98793  1.0000
  H   H1379     1.0  0.02992  0.47328  0.78102  1.0000
  C   C778      1.0  0.12860  0.47986  0.76011  1.0000
  H   H1380     1.0  0.21367  0.46715  0.98910  1.0000
  C   C779      1.0  0.06553  0.46811  0.89040  1.0000
  H   H1381     1.0  0.48305  0.63160  0.90805  1.0000
  H   H1382     1.0  0.32416  0.40647  0.94604  1.0000
  C   C780      1.0  0.26314  0.57548  0.95207  1.0000
  C   C781      1.0  0.27650  0.61244  0.81569  1.0000
  C   C782      1.0  0.38662  0.37333  0.97658  1.0000
  H   H1383     1.0  0.05568  0.44391  0.78380  1.0000
  C   C783      1.0  0.25832  0.57282  0.93933  1.0000
  H   H1384     1.0  0.24119  0.57810  0.96622  1.0000
  H   H1385     1.0  0.04401  0.39688  0.74070  1.0000
  H   H1386     1.0  0.27568  0.59041  0.83822  1.0000
  H   H1387     1.0  0.07958  0.50170  0.87515  1.0000
  C   C784      1.0  0.24357  0.63425  0.95771  1.0000
  H   H1388     1.0  0.19944  0.49986  0.95935  1.0000
  H   H1389     1.0  0.09870  0.54775  0.94360  1.0000
  H   H1390     1.0  0.02857  0.42124  0.74527  1.0000
  H   H1391     1.0  0.27486  0.56916  0.95182  1.0000
  H   H1392     1.0  0.45899  0.33015  0.86226  1.0000
  H   H1393     1.0  0.04863  0.41599  0.78019  1.0000
  H   H1394     1.0  0.27413  0.47755  0.85834  1.0000
  C   C785      1.0  0.13107  0.56426  0.98443  1.0000
  H   H1395     1.0  0.08842  0.56317  0.93214  1.0000
  C   C786      1.0  0.44750  0.65204  0.95416  1.0000
  C   C787      1.0  0.19369  0.47558  0.98034  1.0000
  S   S212      1.0  0.42763  0.35346  0.98545  1.0000
  H   H1396     1.0  0.26557  0.57682  0.92867  1.0000
  H   H1397     1.0  0.25951  0.56085  0.94045  1.0000
  H   H1398     1.0  0.24650  0.57865  0.93913  1.0000
  H   H1399     1.0  0.36892  0.43977  0.87962  1.0000
  H   H1400     1.0  0.42766  0.62540  0.89920  1.0000
  N   N39       1.0  0.22368  0.51003  0.93489  1.0000
  C   C788      1.0  0.24007  0.50263  0.93107  1.0000
  C   C789      1.0  0.21502  0.50193  0.93007  1.0000
  C   C790      1.0  0.22197  0.52564  0.92567  1.0000
  C   C791      1.0  0.21906  0.50982  0.95130  1.0000
  C   C792      1.0  0.20227  0.51043  0.95859  1.0000
  C   C793      1.0  0.25091  0.50775  0.93711  1.0000
  C   C794      1.0  0.20636  0.53613  0.92840  1.0000
  C   C795      1.0  0.21700  0.48510  0.93705  1.0000
  C   C796      1.0  0.20437  0.47903  0.93571  1.0000
  H   H1401     1.0  0.12231  0.60959  0.94508  1.0000
  C   C797      1.0  0.26713  0.50121  0.93049  1.0000
  C   C798      1.0  0.20576  0.55103  0.91748  1.0000
  H   H1402     1.0  0.24398  0.50381  0.91884  1.0000
  H   H1403     1.0  0.24198  0.49056  0.93560  1.0000
  H   H1404     1.0  0.20290  0.50714  0.93216  1.0000
  H   H1405     1.0  0.21835  0.50289  0.91788  1.0000
  H   H1406     1.0  0.22531  0.52536  0.91368  1.0000
  H   H1407     1.0  0.22964  0.53142  0.92740  1.0000
  H   H1408     1.0  0.22529  0.49950  0.95760  1.0000
  H   H1409     1.0  0.22229  0.51907  0.95362  1.0000
  C   C799      1.0  0.13124  0.54989  0.98373  1.0000
  H   H1410     1.0  0.19487  0.51902  0.95217  1.0000
  H   H1411     1.0  0.24947  0.51990  0.93455  1.0000
  H   H1412     1.0  0.24916  0.50395  0.94933  1.0000
  H   H1413     1.0  0.20371  0.53852  0.93962  1.0000
  H   H1414     1.0  0.19768  0.53132  0.92708  1.0000
  H   H1415     1.0  0.22760  0.47886  0.93120  1.0000
  H   H1416     1.0  0.21761  0.48259  0.94884  1.0000
  H   H1417     1.0  0.19345  0.48451  0.94184  1.0000
  H   H1418     1.0  0.20392  0.48082  0.92391  1.0000
  H   H1419     1.0  0.20636  0.46695  0.94049  1.0000
  H   H1420     1.0  0.27558  0.54671  0.96841  1.0000
  C   C800      1.0  0.37817  0.36642  0.96984  1.0000
  H   H1421     1.0  0.06421  0.47299  0.86764  1.0000
  H   H1422     1.0  0.26994  0.50672  0.91871  1.0000
  H   H1423     1.0  0.27471  0.50283  0.93654  1.0000
  H   H1424     1.0  0.26904  0.48916  0.93117  1.0000
  H   H1425     1.0  0.20765  0.54958  0.90601  1.0000
  H   H1426     1.0  0.19454  0.55839  0.92017  1.0000
  H   H1427     1.0  0.21427  0.55649  0.91819  1.0000
  N   N40       1.0  0.15871  0.47893  0.90313  1.0000
  C   C801      1.0  0.14311  0.47688  0.90516  1.0000
  C   C802      1.0  0.16161  0.47910  0.91782  1.0000
  C   C803      1.0  0.15966  0.49385  0.89307  1.0000
  C   C804      1.0  0.17042  0.46730  0.89594  1.0000
  C   C805      1.0  0.17158  0.45109  0.90463  1.0000
  C   C806      1.0  0.13788  0.47792  0.89088  1.0000
  C   C807      1.0  0.17448  0.49878  0.89065  1.0000
  C   C808      1.0  0.15396  0.46941  0.93195  1.0000
  C   C809      1.0  0.15874  0.47039  0.94550  1.0000
  C   C810      1.0  0.18159  0.44023  0.89502  1.0000
  C   C811      1.0  0.12271  0.47389  0.89461  1.0000
  C   C812      1.0  0.17239  0.51548  0.88499  1.0000
  H   H1428     1.0  0.13489  0.48533  0.91101  1.0000
  H   H1429     1.0  0.14166  0.46610  0.91250  1.0000
  H   H1430     1.0  0.17387  0.47587  0.91752  1.0000
  H   H1431     1.0  0.15776  0.49056  0.91996  1.0000
  H   H1432     1.0  0.15021  0.50249  0.89744  1.0000
  H   H1433     1.0  0.15838  0.49418  0.88181  1.0000
  H   H1434     1.0  0.16882  0.46800  0.88475  1.0000
  H   H1435     1.0  0.18171  0.46947  0.89394  1.0000
  H   H1436     1.0  0.16056  0.44814  0.90852  1.0000
  H   H1437     1.0  0.17665  0.44935  0.91427  1.0000
  H   H1438     1.0  0.13657  0.48937  0.88413  1.0000
  H   H1439     1.0  0.14584  0.47026  0.88405  1.0000
  H   H1440     1.0  0.18326  0.49323  0.88237  1.0000
  H   H1441     1.0  0.17881  0.49605  0.90088  1.0000
  H   H1442     1.0  0.14160  0.47345  0.93393  1.0000
  H   H1443     1.0  0.15676  0.45765  0.93121  1.0000
  H   H1444     1.0  0.15469  0.48190  0.94729  1.0000
  H   H1445     1.0  0.15385  0.46286  0.95545  1.0000
  H   H1446     1.0  0.17108  0.46735  0.94405  1.0000
  H   H1447     1.0  0.17677  0.44116  0.88542  1.0000
  H   H1448     1.0  0.19299  0.44239  0.89090  1.0000
  H   H1449     1.0  0.18258  0.42872  0.90161  1.0000
  H   H1450     1.0  0.11884  0.47561  0.88426  1.0000
  H   H1451     1.0  0.12364  0.46209  0.90033  1.0000
  H   H1452     1.0  0.11425  0.48096  0.90180  1.0000
  H   H1453     1.0  0.16442  0.52141  0.89342  1.0000
  H   H1454     1.0  0.18322  0.51864  0.88282  1.0000
  H   H1455     1.0  0.16816  0.51902  0.87463  1.0000
  H   H1456     1.0  0.36290  0.41368  0.97257  1.0000
  H   H1457     1.0  0.23190  0.64342  0.86898  1.0000
  C   C813      1.0  0.36422  0.63602  0.92828  1.0000
  H   H1458     1.0  0.01325  0.43320  0.78205  1.0000
  H   H1459     1.0  0.19873  0.44376  0.98633  1.0000
  H   H1460     1.0  0.30118  0.64779  0.92310  1.0000
  H   H1461     1.0  0.36151  0.39584  0.98387  1.0000
  C   C814      1.0  0.32984  0.40785  0.96568  1.0000
  C   C815      1.0  0.38685  0.42216  0.95462  1.0000
  H   H1462     1.0  0.03606  0.42920  0.79049  1.0000
  H   H1463     1.0  0.05715  0.41104  0.75784  1.0000
  H   H1464     1.0  0.02954  0.49554  0.98381  1.0000
  C   C816      1.0  0.29999  0.49270  0.97365  1.0000
  H   H1465     1.0  0.39902  0.38566  0.95729  1.0000
  C   C817      1.0  0.39382  0.32796  0.92799  1.0000
  C   C818      1.0  0.49219  0.63892  0.95688  1.0000
  H   H1466     1.0  0.12133  0.57309  0.98287  1.0000
  H   H1467     1.0  0.43637  0.61369  0.92242  1.0000
  H   H1468     1.0  0.14335  0.57835  0.98778  1.0000
  H   H1469     1.0  0.27651  0.55843  0.84119  1.0000
  H   H1470     1.0  0.49269  0.41014  0.91342  1.0000
  C   C819      1.0  0.25564  0.58802  0.98015  1.0000
  C   C820      1.0  0.02098  0.50487  0.98798  1.0000
  H   H1471     1.0  0.16448  0.54859  0.87235  1.0000
  H   H1472     1.0  0.14495  0.55368  0.95434  1.0000
  H   H1473     1.0  0.25723  0.63157  0.85661  1.0000
  H   H1474     1.0  0.38655  0.59019  0.91383  1.0000
  C   C821      1.0  0.25259  0.62817  0.94570  1.0000
  C   C822      1.0  0.25429  0.60962  0.85893  1.0000
  H   H1475     1.0  0.14305  0.57110  0.82332  1.0000
  H   H1476     1.0  0.15612  0.60699  0.88646  1.0000
  C   C823      1.0  0.16998  0.56602  0.85332  1.0000
  C   C824      1.0  0.48979  0.35838  0.91982  1.0000
  H   H1477     1.0  0.37311  0.59656  0.89556  1.0000
  H   H1478     1.0  0.31747  0.56531  0.89622  1.0000
  C   C825      1.0  0.34714  0.42997  0.90203  1.0000
  H   H1479     1.0  0.29329  0.60489  0.79291  1.0000
  C   C826      1.0  0.17411  0.55081  0.86321  1.0000
  H   H1480     1.0  0.17752  0.54207  0.85671  1.0000
  H   H1481     1.0  0.18356  0.55036  0.86810  1.0000
  C   C827      1.0  0.37745  0.59310  0.92337  1.0000
  H   H1482     1.0  0.38701  0.56594  0.92335  1.0000
  H   H1483     1.0  0.30542  0.61124  0.81336  1.0000
  N   N41       1.0  0.34673  0.44477  0.87520  1.0000
  H   H1484     1.0  0.35088  0.45926  0.88665  1.0000
  H   H1485     1.0  0.34209  0.43473  0.85986  1.0000
  H   H1486     1.0  0.34732  0.43991  0.90561  1.0000
  H   H1487     1.0  0.48928  0.32445  0.92689  1.0000
  H   H1488     1.0  0.30674  0.61195  0.85194  1.0000
  C   C828      1.0  0.30110  0.60205  0.82175  1.0000
  H   H1489     1.0  0.16617  0.57414  0.86054  1.0000
  H   H1490     1.0  0.37824  0.57666  0.89982  1.0000
  H   H1491     1.0  0.31783  0.56697  0.87690  1.0000
  S   S213      1.0  0.24096  0.61534  0.84779  1.0000
  C   C829      1.0  0.36863  0.58638  0.89968  1.0000
  H   H1492     1.0  0.36768  0.58570  0.87759  1.0000
  C   C830      1.0  0.32099  0.55928  0.88705  1.0000
  C   C831      1.0  0.49449  0.40220  0.92392  1.0000
  H   H1493     1.0  0.37735  0.56353  0.94201  1.0000
  H   H1494     1.0  0.29844  0.56620  0.82314  1.0000
  C   C832      1.0  0.34372  0.45971  0.87903  1.0000
  C   C833      1.0  0.33986  0.44582  0.86246  1.0000
  Fe  Fe109     1.0  0.29806  0.60294  0.89845  1.0000
  N   N42       1.0  0.36673  0.58293  0.92773  1.0000
  C   C834      1.0  0.37554  0.56704  0.93048  1.0000
  C   C835      1.0  0.35999  0.58616  0.88854  1.0000
  H   H1495     1.0  0.15981  0.55717  0.84092  1.0000
  H   H1496     1.0  0.31845  0.53804  0.90028  1.0000
  H   H1497     1.0  0.30573  0.51851  0.94655  1.0000
  H   H1498     1.0  0.33335  0.55535  0.88489  1.0000
  C   C836      1.0  0.28539  0.56095  0.84491  1.0000
  C   C837      1.0  0.01844  0.42592  0.77388  1.0000
  H   H1499     1.0  0.19794  0.55352  0.78368  1.0000
  H   H1500     1.0  0.35730  0.47009  0.85823  1.0000
  H   H1501     1.0  0.21479  0.56784  0.78570  1.0000
  C   C838      1.0  0.35851  0.58650  0.91536  1.0000
  H   H1502     1.0  0.33502  0.48927  0.87920  1.0000
  H   H1503     1.0  0.35529  0.48519  0.87553  1.0000
  H   H1504     1.0  0.37275  0.53138  0.93088  1.0000
  H   H1505     1.0  0.35103  0.59641  0.88723  1.0000
  C   C839      1.0  0.31371  0.54610  0.89118  1.0000
  H   H1506     1.0  0.30664  0.53647  0.92294  1.0000
  H   H1507     1.0  0.43279  0.63349  0.91887  1.0000
  H   H1508     1.0  0.25648  0.60420  0.81826  1.0000
  C   C840      1.0  0.34623  0.47278  0.86569  1.0000
  H   H1509     1.0  0.33206  0.46286  0.88540  1.0000
  H   H1510     1.0  0.14750  0.56578  0.85531  1.0000
  C   C841      1.0  0.35574  0.58649  0.94164  1.0000
  H   H1511     1.0  0.35499  0.57632  0.89214  1.0000
  H   H1512     1.0  0.31730  0.54076  0.88151  1.0000
  H   H1513     1.0  0.06966  0.45597  0.89123  1.0000
  C   C842      1.0  0.32258  0.45166  0.86510  1.0000
  H   H1514     1.0  0.31696  0.44316  0.87313  1.0000
  H   H1515     1.0  0.33747  0.47553  0.85917  1.0000
  H   H1516     1.0  0.32163  0.46403  0.84259  1.0000
  C   C843      1.0  0.24753  0.51481  0.82102  1.0000
  C   C844      1.0  0.15715  0.56706  0.84589  1.0000
  H   H1517     1.0  0.35103  0.57890  0.91739  1.0000
  H   H1518     1.0  0.36146  0.58345  0.95105  1.0000
  C   C845      1.0  0.29977  0.52822  0.92530  1.0000
  C   C846      1.0  0.29545  0.52355  0.94211  1.0000
  H   H1519     1.0  0.30661  0.51821  0.92111  1.0000
  H   H1520     1.0  0.28921  0.53330  0.94708  1.0000
  H   H1521     1.0  0.30457  0.45862  0.85328  1.0000
  C   C847      1.0  0.24732  0.52355  0.98309  1.0000
  H   H1522     1.0  0.12753  0.56640  0.84833  1.0000
  C   C848      1.0  0.13306  0.45584  0.84755  1.0000
  C   C849      1.0  0.36898  0.55521  0.92774  1.0000
  C   C850      1.0  0.37748  0.53952  0.93336  1.0000
  S   S214      1.0  0.08343  0.45165  0.74846  1.0000
  H   H1523     1.0  0.38951  0.53788  0.92781  1.0000
  H   H1524     1.0  0.29325  0.55905  0.90257  1.0000
  H   H1525     1.0  0.16931  0.57077  0.81754  1.0000
  C   C851      1.0  0.31698  0.45501  0.85083  1.0000
  C   C852      1.0  0.34544  0.48671  0.87078  1.0000
  C   C853      1.0  0.34234  0.57896  0.94727  1.0000
  H   H1526     1.0  0.36980  0.55649  0.91574  1.0000
  C   C854      1.0  0.29634  0.55099  0.89522  1.0000
  H   H1527     1.0  0.30711  0.52063  0.89794  1.0000
  H   H1528     1.0  0.28856  0.51519  0.94537  1.0000
  H   H1529     1.0  0.30527  0.50263  0.88026  1.0000
  H   H1530     1.0  0.17630  0.58219  0.82417  1.0000
  H   H1531     1.0  0.34556  0.49625  0.86121  1.0000
  H   H1532     1.0  0.41884  0.40542  0.98105  1.0000
  C   C855      1.0  0.12577  0.57791  0.84173  1.0000
  H   H1533     1.0  0.12296  0.58564  0.84930  1.0000
  H   H1534     1.0  0.35709  0.55606  0.93323  1.0000
  H   H1535     1.0  0.34620  0.56691  0.95137  1.0000
  C   C856      1.0  0.28566  0.53525  0.91868  1.0000
  H   H1536     1.0  0.28039  0.54547  0.92316  1.0000
  H   H1537     1.0  0.29298  0.55768  0.88475  1.0000
  H   H1538     1.0  0.32018  0.44496  0.84610  1.0000
  C   C857      1.0  0.26315  0.61160  0.80984  1.0000
  N   N43       1.0  0.15322  0.58107  0.83456  1.0000
  H   H1539     1.0  0.17186  0.59400  0.84366  1.0000
  H   H1540     1.0  0.14759  0.62268  0.84574  1.0000
  H   H1541     1.0  0.11450  0.57264  0.82753  1.0000
  C   C858      1.0  0.06550  0.48115  0.83125  1.0000
  N   N44       1.0  0.28788  0.53881  0.90204  1.0000
  C   C859      1.0  0.29549  0.52486  0.89623  1.0000
  C   C860      1.0  0.27739  0.59999  0.87469  1.0000
  C   C861      1.0  0.11221  0.58034  0.83507  1.0000
  H   H1542     1.0  0.37637  0.53731  0.94552  1.0000
  C   C862      1.0  0.30738  0.51349  0.87354  1.0000
  H   H1543     1.0  0.27776  0.52778  0.92357  1.0000
  H   H1544     1.0  0.29836  0.53676  0.87285  1.0000
  H   H1545     1.0  0.06619  0.49140  0.82258  1.0000
  C   C863      1.0  0.13989  0.58020  0.82947  1.0000
  C   C864      1.0  0.14912  0.59462  0.84120  1.0000
  H   H1546     1.0  0.12545  0.47646  0.85453  1.0000
  C   C865      1.0  0.29579  0.52615  0.87970  1.0000
  H   H1547     1.0  0.28978  0.51580  0.90267  1.0000
  H   H1548     1.0  0.26670  0.56608  0.90359  1.0000
  H   H1549     1.0  0.31880  0.51415  0.87360  1.0000
  H   H1550     1.0  0.30673  0.51429  0.86198  1.0000
  C   C866      1.0  0.12974  0.60197  0.95240  1.0000
  H   H1551     1.0  0.10200  0.52213  0.75351  1.0000
  C   C867      1.0  0.16609  0.58142  0.82131  1.0000
  C   C868      1.0  0.16201  0.60204  0.84011  1.0000
  C   C869      1.0  0.15683  0.61371  0.84959  1.0000
  C   C870      1.0  0.49357  0.35278  0.90697  1.0000
  C   C871      1.0  0.27701  0.48792  0.85102  1.0000
  H   H1552     1.0  0.14757  0.55443  0.91051  1.0000
  H   H1553     1.0  0.21676  0.47888  0.82057  1.0000
  C   C872      1.0  0.08704  0.47283  0.86864  1.0000
  C   C873      1.0  0.39849  0.41094  0.96302  1.0000
  H   H1554     1.0  0.32158  0.42493  0.94855  1.0000
  C   C874      1.0  0.39436  0.43265  0.94160  1.0000
  C   C875      1.0  0.31998  0.41367  0.95425  1.0000
  H   H1555     1.0  0.13552  0.53156  0.79515  1.0000
  C   C876      1.0  0.27252  0.54400  0.89835  1.0000
  C   C877      1.0  0.26150  0.55658  0.90564  1.0000
  H   H1556     1.0  0.27343  0.54802  0.88619  1.0000
  H   H1557     1.0  0.25810  0.55253  0.91774  1.0000
  S   S215      1.0  0.37418  0.63871  0.93997  1.0000
  C   C878      1.0  0.23586  0.61177  0.95009  1.0000
  H   H1558     1.0  0.10931  0.59193  0.82886  1.0000
  H   H1559     1.0  0.19634  0.61111  0.86890  1.0000
  H   H1560     1.0  0.27751  0.62305  0.87079  1.0000
  N   N45       1.0  0.13559  0.56731  0.93579  1.0000
  H   H1561     1.0  0.00278  0.40371  0.78908  1.0000
  H   H1562     1.0  0.28467  0.52569  0.87850  1.0000
  H   H1563     1.0  0.09440  0.52569  0.85299  1.0000
  H   H1564     1.0  0.32644  0.41516  0.97378  1.0000
  S   S216      1.0  0.10162  0.51398  0.97505  1.0000
  H   H1565     1.0  0.14342  0.58513  0.88988  1.0000
  H   H1566     1.0  0.16489  0.54768  0.92457  1.0000
  H   H1567     1.0  0.27255  0.41576  0.93634  1.0000
  C   C879      1.0  0.41257  0.39760  0.98936  1.0000
  H   H1568     1.0  0.14366  0.51141  0.78098  1.0000
  H   H1569     1.0  0.26687  0.53457  0.90151  1.0000
  C   C880      1.0  0.26076  0.61993  0.86131  1.0000
  C   C881      1.0  0.25269  0.62684  0.80669  1.0000
  H   H1570     1.0  0.14063  0.60351  0.83593  1.0000
  H   H1571     1.0  0.16591  0.60769  0.82856  1.0000
  H   H1572     1.0  0.38009  0.37459  0.98781  1.0000
  S   S217      1.0  0.29388  0.59318  0.88151  1.0000
  C   C882      1.0  0.36421  0.40643  0.98345  1.0000
  H   H1573     1.0  0.18105  0.62675  0.86558  1.0000
  H   H1574     1.0  0.14171  0.54439  0.77845  1.0000
  C   C883      1.0  0.35192  0.62944  0.93460  1.0000
  H   H1575     1.0  0.37798  0.64496  0.90789  1.0000
  H   H1576     1.0  0.22569  0.57961  0.98770  1.0000
  H   H1577     1.0  0.17432  0.52385  0.94037  1.0000
  H   H1578     1.0  0.13627  0.59052  0.82144  1.0000
  C   C884      1.0  0.40617  0.38927  0.98164  1.0000
  C   C885      1.0  0.24867  0.61700  0.94182  1.0000
  C   C886      1.0  0.23867  0.49222  0.82301  1.0000
  H   H1579     1.0  0.37852  0.42904  0.96209  1.0000
  C   C887      1.0  0.14341  0.53257  0.78422  1.0000
  C   C888      1.0  0.24715  0.56191  0.89965  1.0000
  H   H1580     1.0  0.24202  0.55248  0.90100  1.0000
  H   H1581     1.0  0.23888  0.57000  0.90584  1.0000
  H   H1582     1.0  0.19926  0.47311  0.96959  1.0000
  S   S218      1.0  0.06223  0.51098  0.76867  1.0000
  C   C889      1.0  0.48486  0.62920  0.91945  1.0000
  S   S219      1.0  0.12731  0.48333  0.97157  1.0000
  Fe  Fe110     1.0  0.31925  0.61580  0.90788  1.0000
  H   H1583     1.0  0.33602  0.58093  0.93856  1.0000
  H   H1584     1.0  0.05542  0.48345  0.84010  1.0000
  H   H1585     1.0  0.35084  0.59767  0.91493  1.0000
  H   H1586     1.0  0.21781  0.65009  0.89392  1.0000
  C   C890      1.0  0.46771  0.34398  0.87020  1.0000
  C   C891      1.0  0.20337  0.51409  0.85510  1.0000
  H   H1587     1.0  0.15298  0.60859  0.86137  1.0000
  H   H1588     1.0  0.09798  0.51649  0.87122  1.0000
  C   C892      1.0  0.14104  0.52312  0.77496  1.0000
  H   H1589     1.0  0.31547  0.61690  0.83271  1.0000
  Fe  Fe111     1.0  0.28696  0.61898  0.92381  1.0000
  C   C893      1.0  0.16302  0.59381  0.80758  1.0000
  H   H1590     1.0  0.10244  0.57813  0.84406  1.0000
  H   H1591     1.0  0.18484  0.59937  0.80202  1.0000
  C   C894      1.0  0.47640  0.61746  0.93002  1.0000
  C   C895      1.0  0.10743  0.47294  0.84652  1.0000
  H   H1592     1.0  0.14543  0.59240  0.93486  1.0000
  H   H1593     1.0  0.40682  0.59577  0.92127  1.0000
  H   H1594     1.0  0.13948  0.50193  0.76423  1.0000
  H   H1595     1.0  0.14912  0.52444  0.76419  1.0000
  H   H1596     1.0  0.31206  0.59073  0.77411  1.0000
  H   H1597     1.0  0.15501  0.52877  0.78610  1.0000
  H   H1598     1.0  0.24957  0.56729  0.88776  1.0000
  H   H1599     1.0  0.10289  0.50139  0.84566  1.0000
  H   H1600     1.0  0.24859  0.63166  0.81673  1.0000
  H   H1601     1.0  0.15631  0.59060  0.80165  1.0000
  H   H1602     1.0  0.17500  0.60528  0.78708  1.0000
  H   H1603     1.0  0.32187  0.57948  0.96416  1.0000
  C   C896      1.0  0.19819  0.51341  0.97417  1.0000
  H   H1604     1.0  0.47928  0.61570  0.94088  1.0000
  H   H1605     1.0  0.12051  0.47718  0.77067  1.0000
  S   S220      1.0  0.05955  0.49444  0.74359  1.0000
  H   H1606     1.0  0.12174  0.50037  0.77588  1.0000
  H   H1607     1.0  0.06172  0.42519  0.79352  1.0000
  H   H1608     1.0  0.07161  0.49402  0.84870  1.0000
  C   C897      1.0  0.25659  0.49144  0.83719  1.0000
  Fe  Fe112     1.0  0.04746  0.49723  0.76665  1.0000
  C   C898      1.0  0.33138  0.58506  0.96029  1.0000
  H   H1609     1.0  0.33695  0.58301  0.96964  1.0000
  H   H1610     1.0  0.24396  0.60368  0.91896  1.0000
  C   C899      1.0  0.17755  0.59625  0.79667  1.0000
  H   H1611     1.0  0.20587  0.52091  0.86136  1.0000
  H   H1612     1.0  0.11750  0.52394  0.78373  1.0000
  H   H1613     1.0  0.23174  0.45551  0.97280  1.0000
  H   H1614     1.0  0.15663  0.60446  0.81072  1.0000
  H   H1615     1.0  0.25567  0.60335  0.90070  1.0000
  H   H1616     1.0  0.16107  0.52908  0.95643  1.0000
  C   C900      1.0  0.12729  0.50505  0.76444  1.0000
  C   C901      1.0  0.28231  0.58643  0.82804  1.0000
  H   H1617     1.0  0.29649  0.40072  0.94438  1.0000
  C   C902      1.0  0.22722  0.47122  0.82340  1.0000
  H   H1618     1.0  0.18677  0.41773  0.96918  1.0000
  C   C903      1.0  0.38516  0.59326  0.93559  1.0000
  C   C904      1.0  0.24600  0.59954  0.90873  1.0000
  H   H1619     1.0  0.24878  0.58731  0.91158  1.0000
  H   H1620     1.0  0.20290  0.50291  0.86211  1.0000
  H   H1621     1.0  0.22717  0.52508  0.81167  1.0000
  H   H1622     1.0  0.25656  0.53442  0.79464  1.0000
  N   N46       1.0  0.45966  0.62105  0.93132  1.0000
  S   S221      1.0  0.11577  0.54642  0.97986  1.0000
  C   C905      1.0  0.22705  0.53754  0.97079  1.0000
  H   H1623     1.0  0.41562  0.38439  0.97334  1.0000
  H   H1624     1.0  0.24876  0.41421  0.96824  1.0000
  C   C906      1.0  0.12467  0.52756  0.77281  1.0000
  H   H1625     1.0  0.19103  0.64085  0.87766  1.0000
  H   H1626     1.0  0.16632  0.61860  0.84883  1.0000
  H   H1627     1.0  0.35108  0.59862  0.94005  1.0000
  H   H1628     1.0  0.18368  0.58602  0.79252  1.0000
  H   H1629     1.0  0.14637  0.58176  0.95332  1.0000
  H   H1630     1.0  0.12304  0.57432  0.95614  1.0000
  H   H1631     1.0  0.23539  0.46898  0.81310  1.0000
  N   N47       1.0  0.24303  0.50106  0.83132  1.0000
  H   H1632     1.0  0.28114  0.62201  0.80845  1.0000
  H   H1633     1.0  0.32683  0.59714  0.95688  1.0000
  C   C907      1.0  0.20596  0.63212  0.92162  1.0000
  C   C908      1.0  0.26319  0.49853  0.84592  1.0000
  C   C909      1.0  0.45305  0.60849  0.94171  1.0000
  H   H1634     1.0  0.00967  0.41448  0.76215  1.0000
  H   H1635     1.0  0.28597  0.48515  0.84138  1.0000
  H   H1636     1.0  0.38582  0.44052  0.93569  1.0000
  H   H1637     1.0  0.44005  0.63834  0.93620  1.0000
  H   H1638     1.0  0.37697  0.59909  0.94403  1.0000
  H   H1639     1.0  0.45637  0.58322  0.97528  1.0000
  H   H1640     1.0  0.46905  0.65730  0.88936  1.0000
  C   C910      1.0  0.08256  0.48766  0.84361  1.0000
  H   H1641     1.0  0.25400  0.48115  0.84476  1.0000
  N   N48       1.0  0.39321  0.39822  0.97445  1.0000
  H   H1642     1.0  0.12891  0.44620  0.84750  1.0000
  H   H1643     1.0  0.28835  0.61708  0.83691  1.0000
  H   H1644     1.0  0.45397  0.59980  0.93565  1.0000
  C   C911      1.0  0.20199  0.62782  0.90894  1.0000
  H   H1645     1.0  0.25494  0.50110  0.85600  1.0000
  H   H1646     1.0  0.12293  0.59849  0.96357  1.0000
  H   H1647     1.0  0.06504  0.48836  0.87411  1.0000
  H   H1648     1.0  0.26644  0.50889  0.83913  1.0000
  C   C912      1.0  0.49964  0.35360  0.92956  1.0000
  H   H1649     1.0  0.44084  0.61260  0.94591  1.0000
  H   H1650     1.0  0.20480  0.50459  0.98147  1.0000
  H   H1651     1.0  0.15256  0.45888  0.98644  1.0000
  C   C913      1.0  0.31032  0.60835  0.84122  1.0000
  H   H1652     1.0  0.44336  0.63399  0.89188  1.0000
  H   H1653     1.0  0.04148  0.40213  0.76541  1.0000
  H   H1654     1.0  0.22445  0.46061  0.83012  1.0000
  H   H1655     1.0  0.33420  0.62219  0.93061  1.0000
  H   H1656     1.0  0.37160  0.60475  0.91945  1.0000
  C   C914      1.0  0.23200  0.60496  0.90228  1.0000
  H   H1657     1.0  0.23380  0.59930  0.89306  1.0000
  C   C915      1.0  0.45075  0.58954  0.96601  1.0000
  C   C916      1.0  0.45216  0.63550  0.93616  1.0000
  C   C917      1.0  0.46028  0.59987  0.95517  1.0000
  N   N49       1.0  0.12171  0.52167  0.76106  1.0000
  C   C918      1.0  0.17853  0.43954  0.97547  1.0000
  C   C919      1.0  0.09720  0.49536  0.85641  1.0000
  H   H1658     1.0  0.13757  0.60805  0.95346  1.0000
  C   C920      1.0  0.24437  0.53671  0.79948  1.0000
  H   H1659     1.0  0.14215  0.45178  0.85382  1.0000
  C   C921      1.0  0.14113  0.56596  0.90805  1.0000
  H   H1660     1.0  0.22264  0.60147  0.91098  1.0000
  H   H1661     1.0  0.25129  0.55956  0.96792  1.0000
  C   C922      1.0  0.13868  0.58847  0.94587  1.0000
  S   S222      1.0  0.33900  0.62677  0.89858  1.0000
  H   H1662     1.0  0.23701  0.62367  0.88573  1.0000
  H   H1663     1.0  0.23216  0.62726  0.90356  1.0000
  H   H1664     1.0  0.29249  0.46939  0.95489  1.0000
  C   C923      1.0  0.09979  0.55673  0.93354  1.0000
  C   C924      1.0  0.29340  0.57170  0.83265  1.0000
  H   H1665     1.0  0.38136  0.41418  0.98815  1.0000
  H   H1666     1.0  0.32687  0.57603  0.78053  1.0000
  H   H1667     1.0  0.09965  0.51842  0.77272  1.0000
  C   C925      1.0  0.31478  0.58132  0.78336  1.0000
  H   H1668     1.0  0.07845  0.46546  0.84633  1.0000
  C   C926      1.0  0.22885  0.62194  0.89638  1.0000
  C   C927      1.0  0.31134  0.58673  0.79775  1.0000
  H   H1669     1.0  0.00970  0.49940  0.74465  1.0000
  H   H1670     1.0  0.19225  0.51934  0.85238  1.0000
  H   H1671     1.0  0.18864  0.62320  0.93900  1.0000
  H   H1672     1.0  0.12149  0.53987  0.77039  1.0000
  H   H1673     1.0  0.26569  0.48775  0.82795  1.0000
  C   C928      1.0  0.39622  0.34353  0.92548  1.0000
  H   H1674     1.0  0.05316  0.47055  0.89414  1.0000
  C   C929      1.0  0.34380  0.62701  0.92562  1.0000
  H   H1675     1.0  0.34856  0.62637  0.94651  1.0000
  C   C930      1.0  0.27218  0.61514  0.86939  1.0000
  N   N50       1.0  0.09321  0.48219  0.85405  1.0000
  H   H1676     1.0  0.09012  0.46092  0.86802  1.0000
  C   C931      1.0  0.21513  0.51294  0.84085  1.0000
  H   H1677     1.0  0.24285  0.62579  0.80331  1.0000
  C   C932      1.0  0.27267  0.56352  0.98124  1.0000
  C   C933      1.0  0.25248  0.57095  0.96706  1.0000
  H   H1678     1.0  0.20010  0.62820  0.85693  1.0000
  S   S223      1.0  0.29771  0.62595  0.89989  1.0000
  N   N51       1.0  0.02889  0.43337  0.76105  1.0000
  H   H1679     1.0  0.07515  0.51114  0.85725  1.0000
  C   C934      1.0  0.45311  0.63621  0.95172  1.0000
  H   H1680     1.0  0.46183  0.60726  0.96137  1.0000
  C   C935      1.0  0.36066  0.63704  0.90390  1.0000
  C   C936      1.0  0.10498  0.52527  0.76241  1.0000
  H   H1681     1.0  0.06435  0.47263  0.82609  1.0000
  H   H1682     1.0  0.13782  0.46097  0.83601  1.0000
  H   H1683     1.0  0.30233  0.57343  0.83690  1.0000
  Fe  Fe113     1.0  0.07326  0.47379  0.75507  1.0000
  H   H1684     1.0  0.14670  0.56785  0.88434  1.0000
  H   H1685     1.0  0.21811  0.62164  0.87395  1.0000
  H   H1686     1.0  0.39342  0.61304  0.92340  1.0000
  H   H1687     1.0  0.21533  0.62351  0.92569  1.0000
  H   H1688     1.0  0.46265  0.35415  0.86286  1.0000
  H   H1689     1.0  0.07992  0.52816  0.86922  1.0000
  H   H1690     1.0  0.26105  0.61397  0.98250  1.0000
  H   H1691     1.0  0.05013  0.43925  0.75750  1.0000
  C   C937      1.0  0.23380  0.47777  0.83231  1.0000
  H   H1692     1.0  0.24349  0.46920  0.83574  1.0000
  S   S224      1.0  0.09001  0.48553  0.75593  1.0000
  H   H1693     1.0  0.24815  0.48913  0.81381  1.0000
  H   H1694     1.0  0.18617  0.51351  0.97894  1.0000
  H   H1695     1.0  0.16056  0.57117  0.89175  1.0000
  H   H1696     1.0  0.20948  0.61005  0.88948  1.0000
  C   C938      1.0  0.29675  0.60642  0.83700  1.0000
  C   C939      1.0  0.12051  0.46722  0.85482  1.0000
  H   H1697     1.0  0.18919  0.44526  0.94424  1.0000
  H   H1698     1.0  0.22514  0.47979  0.84235  1.0000
  C   C940      1.0  0.08951  0.52006  0.86426  1.0000
  H   H1699     1.0  0.30347  0.48407  0.96696  1.0000
  N   N52       1.0  0.21312  0.62927  0.89433  1.0000
  C   C941      1.0  0.20933  0.62191  0.88431  1.0000
  C   C942      1.0  0.44054  0.62349  0.91534  1.0000
  H   H1700     1.0  0.44587  0.62943  0.96025  1.0000
  S   S225      1.0  0.21177  0.61061  0.97378  1.0000
  H   H1701     1.0  0.40837  0.40655  0.95474  1.0000
  C   C943      1.0  0.32609  0.45004  0.98486  1.0000
  C   C944      1.0  0.14838  0.57307  0.89256  1.0000
  H   H1702     1.0  0.29908  0.41174  0.90995  1.0000
  H   H1703     1.0  0.20017  0.61636  0.91300  1.0000
  H   H1704     1.0  0.21525  0.52436  0.83448  1.0000
  H   H1705     1.0  0.24177  0.54453  0.80694  1.0000
  H   H1706     1.0  0.09239  0.47329  0.87742  1.0000
  C   C945      1.0  0.39776  0.60156  0.92917  1.0000
  C   C946      1.0  0.31348  0.45185  0.97933  1.0000
  C   C947      1.0  0.28836  0.40953  0.91724  1.0000
  H   H1707     1.0  0.30629  0.41381  0.93219  1.0000
  H   H1708     1.0  0.28206  0.42980  0.92468  1.0000
  H   H1709     1.0  0.30610  0.46190  0.94011  1.0000
  H   H1710     1.0  0.32902  0.39640  0.97165  1.0000
  C   C948      1.0  0.07962  0.47556  0.83761  1.0000
  H   H1711     1.0  0.26331  0.59281  0.97018  1.0000
  C   C949      1.0  0.12828  0.57924  0.94466  1.0000
  H   H1712     1.0  0.21138  0.50695  0.83471  1.0000
  H   H1713     1.0  0.22935  0.49896  0.81754  1.0000
  H   H1714     1.0  0.22961  0.49516  0.85326  1.0000
  H   H1715     1.0  0.45462  0.32599  0.98727  1.0000
  H   H1716     1.0  0.48123  0.63965  0.92355  1.0000
  C   C950      1.0  0.28357  0.41785  0.92983  1.0000
  H   H1717     1.0  0.30396  0.43716  0.93590  1.0000
  H   H1718     1.0  0.29352  0.55041  0.84788  1.0000
  H   H1719     1.0  0.02458  0.41553  0.77999  1.0000
  H   H1720     1.0  0.28656  0.46704  0.93962  1.0000
  H   H1721     1.0  0.27970  0.41341  0.91043  1.0000
  H   H1722     1.0  0.40272  0.42637  0.93361  1.0000
  C   C951      1.0  0.29531  0.41279  0.93972  1.0000
  C   C952      1.0  0.29363  0.43686  0.94468  1.0000
  C   C953      1.0  0.29469  0.46214  0.94694  1.0000
  H   H1723     1.0  0.28444  0.44278  0.93881  1.0000
  S   S226      1.0  0.26865  0.63477  0.93581  1.0000
  C   C954      1.0  0.23074  0.50511  0.84426  1.0000
  H   H1724     1.0  0.29221  0.59773  0.84578  1.0000
  H   H1725     1.0  0.17545  0.53922  0.94729  1.0000
  N   N53       1.0  0.29226  0.42116  0.95182  1.0000
  C   C955      1.0  0.29317  0.44656  0.95530  1.0000
  H   H1726     1.0  0.25965  0.51228  0.81568  1.0000
  H   H1727     1.0  0.15194  0.57675  0.91791  1.0000
  H   H1728     1.0  0.12966  0.56577  0.90770  1.0000
  H   H1729     1.0  0.36717  0.37388  0.96845  1.0000
  C   C956      1.0  0.30334  0.41358  0.96165  1.0000
  H   H1730     1.0  0.30247  0.44167  0.96114  1.0000
  H   H1731     1.0  0.20008  0.52431  0.97397  1.0000
  C   C957      1.0  0.34829  0.63058  0.91023  1.0000
  H   H1732     1.0  0.40252  0.60222  0.93826  1.0000
  C   C958      1.0  0.22706  0.61766  0.96231  1.0000
  C   C959      1.0  0.15766  0.54403  0.93544  1.0000
  C   C960      1.0  0.16777  0.53341  0.94549  1.0000
  N   N54       1.0  0.25684  0.57196  0.98066  1.0000
  H   H1733     1.0  0.28251  0.44759  0.96360  1.0000
  H   H1734     1.0  0.13321  0.58563  0.91686  1.0000
  H   H1735     1.0  0.10537  0.55170  0.92372  1.0000
  H   H1736     1.0  0.31876  0.59770  0.84254  1.0000
  H   H1737     1.0  0.43182  0.32869  0.91064  1.0000
  C   C961      1.0  0.14064  0.57452  0.91977  1.0000
  H   H1738     1.0  0.15045  0.53766  0.93388  1.0000
  C   C962      1.0  0.04731  0.40888  0.75544  1.0000
  H   H1739     1.0  0.12862  0.54968  0.93110  1.0000
  C   C963      1.0  0.27668  0.42155  0.96118  1.0000
  H   H1740     1.0  0.26822  0.42836  0.95466  1.0000
  C   C964      1.0  0.04005  0.43791  0.76651  1.0000
  H   H1741     1.0  0.15723  0.56401  0.94101  1.0000
  H   H1742     1.0  0.47339  0.65181  0.96930  1.0000
  C   C965      1.0  0.23949  0.52239  0.80794  1.0000
  H   H1743     1.0  0.38971  0.34871  0.93500  1.0000
  H   H1744     1.0  0.23363  0.51270  0.84941  1.0000
  H   H1745     1.0  0.24245  0.51504  0.79994  1.0000
  C   C966      1.0  0.14876  0.55762  0.94222  1.0000
  Fe  Fe114     1.0  0.12011  0.52319  0.97669  1.0000
  H   H1746     1.0  0.10534  0.49173  0.86375  1.0000
  H   H1747     1.0  0.38482  0.36415  0.95894  1.0000
  H   H1748     1.0  0.44636  0.61403  0.89573  1.0000
  C   C967      1.0  0.09688  0.54165  0.76263  1.0000
  H   H1749     1.0  0.27936  0.39995  0.97668  1.0000
  H   H1750     1.0  0.01460  0.45449  0.78971  1.0000
  C   C968      1.0  0.12437  0.55814  0.93797  1.0000
  H   H1751     1.0  0.33826  0.65085  0.95598  1.0000
  H   H1752     1.0  0.11670  0.46189  0.86652  1.0000
  H   H1753     1.0  0.16696  0.44090  0.97417  1.0000
  H   H1754     1.0  0.10517  0.46296  0.84463  1.0000
  H   H1755     1.0  0.11177  0.47922  0.83537  1.0000
  H   H1756     1.0  0.12255  0.55156  0.94948  1.0000
  H   H1757     1.0  0.29547  0.52862  0.97808  1.0000
  H   H1758     1.0  0.25853  0.63448  0.79760  1.0000
  H   H1759     1.0  0.48770  0.62881  0.96171  1.0000
  H   H1760     1.0  0.27481  0.42717  0.97044  1.0000
  H   H1761     1.0  0.39569  0.32428  0.95062  1.0000
  H   H1762     1.0  0.45980  0.63289  0.90857  1.0000
  H   H1763     1.0  0.17379  0.43600  0.94948  1.0000
  H   H1764     1.0  0.19257  0.42646  0.94251  1.0000
  H   H1765     1.0  0.26935  0.52087  0.96912  1.0000
  C   C969      1.0  0.12536  0.49654  0.75382  1.0000
  C   C970      1.0  0.05332  0.39968  0.74348  1.0000
  H   H1766     1.0  0.46471  0.63229  0.95340  1.0000
  H   H1767     1.0  0.42470  0.32674  0.97915  1.0000
  C   C971      1.0  0.36847  0.63997  0.91288  1.0000
  H   H1768     1.0  0.28081  0.56935  0.97269  1.0000
  H   H1769     1.0  0.48153  0.60678  0.92631  1.0000
  H   H1770     1.0  0.14417  0.52741  0.98517  1.0000
  H   H1771     1.0  0.28810  0.49820  0.97343  1.0000
  H   H1772     1.0  0.48610  0.35655  0.89935  1.0000
  H   H1773     1.0  0.02669  0.51301  0.98901  1.0000
  H   H1774     1.0  0.40825  0.34321  0.92402  1.0000
  H   H1775     1.0  0.22419  0.63347  0.97553  1.0000
  H   H1776     1.0  0.40232  0.41782  0.96815  1.0000
  H   H1777     1.0  0.34169  0.40775  0.96004  1.0000
  C   C972      1.0  0.01944  0.44717  0.75328  1.0000
  H   H1778     1.0  0.48957  0.64402  0.97771  1.0000
  H   H1779     1.0  0.30291  0.40174  0.96599  1.0000
  H   H1780     1.0  0.24650  0.64294  0.96072  1.0000
  C   C973      1.0  0.17839  0.48214  0.98316  1.0000
  H   H1781     1.0  0.25342  0.39753  0.98176  1.0000
  C   C974      1.0  0.01152  0.49147  0.77625  1.0000
  H   H1782     1.0  0.14016  0.47577  0.76209  1.0000
  H   H1783     1.0  0.30022  0.41840  0.97170  1.0000
  C   C975      1.0  0.27255  0.40637  0.96835  1.0000
  Fe  Fe115     1.0  0.07521  0.50649  0.74645  1.0000
  H   H1784     1.0  0.30706  0.50089  0.96862  1.0000
  H   H1785     1.0  0.20937  0.64283  0.91788  1.0000
  H   H1786     1.0  0.36421  0.63979  0.89198  1.0000
  H   H1787     1.0  0.01267  0.44414  0.74729  1.0000
  H   H1788     1.0  0.46004  0.34284  0.88127  1.0000
  H   H1789     1.0  0.03408  0.46306  0.74684  1.0000
  H   H1790     1.0  0.47049  0.33150  0.91207  1.0000
  C   C976      1.0  0.21245  0.64552  0.88777  1.0000
  H   H1791     1.0  0.06103  0.38920  0.74752  1.0000
  C   C977      1.0  0.47006  0.33051  0.86360  1.0000
  C   C978      1.0  0.29240  0.53952  0.98126  1.0000
  H   H1792     1.0  0.39742  0.36535  0.97780  1.0000
  H   H1793     1.0  0.13074  0.53990  0.74599  1.0000
  C   C979      1.0  0.02796  0.45831  0.74167  1.0000
  S   S227      1.0  0.26789  0.47557  0.98848  1.0000
  C   C980      1.0  0.22005  0.64948  0.87115  1.0000
  H   H1794     1.0  0.19619  0.63588  0.94387  1.0000
  C   C981      1.0  0.12995  0.52856  0.74609  1.0000
  H   H1795     1.0  0.18116  0.45071  0.97097  1.0000
  H   H1796     1.0  0.18334  0.64278  0.93151  1.0000
  C   C982      1.0  0.25608  0.40848  0.97629  1.0000
  C   C983      1.0  0.38019  0.40371  0.98621  1.0000
  C   C984      1.0  0.23204  0.52917  0.98361  1.0000
  H   H1797     1.0  0.32102  0.65458  0.92990  1.0000
  Fe  Fe116     1.0  0.38644  0.65738  0.93296  1.0000
  H   H1798     1.0  0.20069  0.42849  0.96410  1.0000
  H   H1799     1.0  0.30036  0.54626  0.97396  1.0000
  C   C985      1.0  0.08082  0.54490  0.76067  1.0000
  H   H1800     1.0  0.37628  0.35576  0.97724  1.0000
  H   H1801     1.0  0.29042  0.45022  0.98470  1.0000
  C   C986      1.0  0.15607  0.54138  0.98911  1.0000
  H   H1802     1.0  0.20067  0.65206  0.88915  1.0000
  H   H1803     1.0  0.10289  0.54931  0.75378  1.0000
  C   C987      1.0  0.00540  0.42201  0.77005  1.0000
  H   H1804     1.0  0.38173  0.32889  0.92911  1.0000
  H   H1805     1.0  0.07518  0.55653  0.76144  1.0000
  H   H1806     1.0  0.04393  0.42962  0.74037  1.0000
  S   S228      1.0  0.23226  0.48806  0.98982  1.0000
  H   H1807     1.0  0.47355  0.98131  0.13227  1.0000
  H   H1808     1.0  0.45325  0.74631  0.08964  1.0000
  Fe  Fe117     1.0  0.45780  0.84023  0.02126  1.0000
  S   S229      1.0  0.47951  0.84572  0.02031  1.0000
  S   S230      1.0  0.43808  0.85454  0.01163  1.0000
  Fe  Fe118     1.0  0.46645  0.80856  0.03801  1.0000
  S   S231      1.0  0.48902  0.81124  0.03828  1.0000
  S   S232      1.0  0.45991  0.78680  0.04994  1.0000
  Fe  Fe119     1.0  0.47707  0.83332  0.04412  1.0000
  S   S233      1.0  0.48258  0.83686  0.06439  1.0000
  Fe  Fe120     1.0  0.48975  0.82323  0.01475  1.0000
  H   H1809     1.0  0.47250  0.85977  0.20813  1.0000
  S   S234      1.0  0.45436  0.82971  0.04554  1.0000
  S   S235      1.0  0.46819  0.81873  0.01393  1.0000
  Fe  Fe121     1.0  0.47920  0.89734  0.12731  1.0000
  C   C988      1.0  0.40036  0.79738  0.01408  1.0000
  S   S236      1.0  0.45709  0.89255  0.14042  1.0000
  C   C989      1.0  0.49892  0.91211  0.23822  1.0000
  H   H1810     1.0  0.44751  0.92361  0.07495  1.0000
  Fe  Fe122     1.0  0.43617  0.93280  0.23513  1.0000
  Fe  Fe123     1.0  0.49818  0.89639  0.09644  1.0000
  H   H1811     1.0  0.44853  0.86083  0.12952  1.0000
  H   H1812     1.0  0.48519  0.95039  0.21424  1.0000
  H   H1813     1.0  0.42803  0.96473  0.13778  1.0000
  C   C990      1.0  0.48317  0.98484  0.10176  1.0000
  S   S237      1.0  0.48023  0.91427  0.10605  1.0000
  H   H1814     1.0  0.47918  0.99005  0.23668  1.0000
  H   H1815     1.0  0.42675  0.92191  0.16836  1.0000
  C   C991      1.0  0.43753  0.98899  0.23128  1.0000
  Fe  Fe124     1.0  0.41564  0.74713  0.02067  1.0000
  S   S238      1.0  0.43540  0.74693  0.00158  1.0000
  S   S239      1.0  0.41411  0.75546  0.04104  1.0000
  Fe  Fe125     1.0  0.39899  0.73315  0.00658  1.0000
  C   C992      1.0  0.46891  0.98481  0.10057  1.0000
  H   H1816     1.0  0.49436  0.72418  0.99242  1.0000
  Fe  Fe126     1.0  0.43276  0.72424  0.00251  1.0000
  H   H1817     1.0  0.44843  0.98755  0.12859  1.0000
  H   H1818     1.0  0.42937  0.97500  0.15811  1.0000
  C   C993      1.0  0.49122  0.85220  0.07957  1.0000
  S   S240      1.0  0.41421  0.72369  0.02263  1.0000
  S   S241      1.0  0.39825  0.75662  0.00678  1.0000
  H   H1819     1.0  0.40807  0.70378  0.00117  1.0000
  C   C994      1.0  0.45584  0.73733  0.07044  1.0000
  H   H1820     1.0  0.47987  0.77806  0.09226  1.0000
  C   C995      1.0  0.43880  0.96112  0.14150  1.0000
  H   H1821     1.0  0.38566  0.77674  0.03510  1.0000
  H   H1822     1.0  0.45530  0.85064  0.11496  1.0000
  H   H1823     1.0  0.48947  0.95087  0.23926  1.0000
  C   C996      1.0  0.42610  0.93042  0.17445  1.0000
  C   C997      1.0  0.46914  0.94168  0.14530  1.0000
  H   H1824     1.0  0.48870  0.98207  0.16328  1.0000
  H   H1825     1.0  0.47399  0.97394  0.15149  1.0000
  H   H1826     1.0  0.40034  0.95524  0.22544  1.0000
  C   C998      1.0  0.40041  0.96487  0.21594  1.0000
  H   H1827     1.0  0.45868  0.75845  0.07224  1.0000
  S   S242      1.0  0.37983  0.72492  0.00467  1.0000
  C   C999      1.0  0.43919  0.97343  0.14887  1.0000
  H   H1828     1.0  0.46919  0.95315  0.13900  1.0000
  H   H1829     1.0  0.43076  0.86658  0.11566  1.0000
  H   H1830     1.0  0.46104  0.86975  0.99244  1.0000
  C   C1000     1.0  0.47545  0.95783  0.10577  1.0000
  H   H1831     1.0  0.49311  0.68575  0.07210  1.0000
  H   H1832     1.0  0.49460  0.75186  0.06654  1.0000
  H   H1833     1.0  0.41708  0.88099  0.09477  1.0000
  C   C1001     1.0  0.45946  0.98295  0.18501  1.0000
  H   H1834     1.0  0.47247  0.94743  0.10729  1.0000
  H   H1835     1.0  0.45372  0.94741  0.16528  1.0000
  N   N55       1.0  0.44503  0.88070  0.10045  1.0000
  S   S243      1.0  0.46975  0.95293  0.18779  1.0000
  C   C1002     1.0  0.45292  0.89240  0.15941  1.0000
  C   C1003     1.0  0.46061  0.89893  0.16543  1.0000
  C   C1004     1.0  0.45620  0.89957  0.18050  1.0000
  H   H1836     1.0  0.45241  0.92370  0.09186  1.0000
  C   C1005     1.0  0.43699  0.88649  0.18359  1.0000
  C   C1006     1.0  0.44110  0.88623  0.16852  1.0000
  H   H1837     1.0  0.46964  0.90385  0.15843  1.0000
  H   H1838     1.0  0.46182  0.90502  0.18503  1.0000
  H   H1839     1.0  0.43804  0.92573  0.11826  1.0000
  H   H1840     1.0  0.43509  0.88120  0.16391  1.0000
  C   C1007     1.0  0.45604  0.91885  0.08187  1.0000
  C   C1008     1.0  0.44511  0.85559  0.07457  1.0000
  C   C1009     1.0  0.48708  0.85273  0.06644  1.0000
  C   C1010     1.0  0.48699  0.96319  0.23637  1.0000
  C   C1011     1.0  0.40152  0.70233  0.99430  1.0000
  H   H1841     1.0  0.40201  0.82497  0.01056  1.0000
  H   H1842     1.0  0.49224  0.97918  0.21536  1.0000
  C   C1012     1.0  0.48632  0.86583  0.05561  1.0000
  H   H1843     1.0  0.48230  0.94374  0.15966  1.0000
  C   C1013     1.0  0.48972  0.95795  0.10694  1.0000
  H   H1844     1.0  0.48465  0.77936  0.06548  1.0000
  H   H1845     1.0  0.48316  0.86638  0.04546  1.0000
  C   C1014     1.0  0.44540  0.78135  0.04616  1.0000
  C   C1015     1.0  0.44639  0.77878  0.03222  1.0000
  C   C1016     1.0  0.43678  0.77096  0.03039  1.0000
  C   C1017     1.0  0.42581  0.76616  0.04235  1.0000
  C   C1018     1.0  0.42445  0.76933  0.05609  1.0000
  C   C1019     1.0  0.43432  0.77666  0.05804  1.0000
  H   H1846     1.0  0.45512  0.78206  0.02311  1.0000
  H   H1847     1.0  0.43835  0.76796  0.01999  1.0000
  H   H1848     1.0  0.41606  0.76562  0.06544  1.0000
  H   H1849     1.0  0.43361  0.77835  0.06892  1.0000
  H   H1850     1.0  0.49194  0.68493  0.02649  1.0000
  C   C1020     1.0  0.43859  0.98827  0.13791  1.0000
  C   C1021     1.0  0.49353  0.77267  0.07155  1.0000
  H   H1851     1.0  0.47205  0.96822  0.21354  1.0000
  C   C1022     1.0  0.47370  0.69315  0.01516  1.0000
  C   C1023     1.0  0.48727  0.69334  0.01790  1.0000
  C   C1024     1.0  0.47158  0.86355  0.22933  1.0000
  H   H1852     1.0  0.38922  0.96869  0.21307  1.0000
  H   H1853     1.0  0.49300  0.93593  0.14392  1.0000
  C   C1025     1.0  0.48406  0.96255  0.21116  1.0000
  H   H1854     1.0  0.45572  0.92935  0.16326  1.0000
  S   S244      1.0  0.49582  0.90423  0.13503  1.0000
  H   H1855     1.0  0.45401  0.97124  0.10167  1.0000
  Fe  Fe127     1.0  0.44606  0.90996  0.21608  1.0000
  C   C1026     1.0  0.42210  0.80421  0.99625  1.0000
  C   C1027     1.0  0.41149  0.93139  0.18607  1.0000
  C   C1028     1.0  0.43058  0.98192  0.18468  1.0000
  C   C1029     1.0  0.49794  0.76867  0.03969  1.0000
  H   H1856     1.0  0.39232  0.88608  0.11144  1.0000
  H   H1857     1.0  0.38677  0.82613  0.00295  1.0000
  H   H1858     1.0  0.46868  0.87218  0.09991  1.0000
  H   H1859     1.0  0.47454  0.96691  0.23879  1.0000
  H   H1860     1.0  0.45832  0.72574  0.07662  1.0000
  H   H1861     1.0  0.47057  0.98333  0.18534  1.0000
  H   H1862     1.0  0.41809  0.92727  0.12322  1.0000
  N   N56       1.0  0.40518  0.80727  0.99934  1.0000
  H   H1863     1.0  0.44562  0.98100  0.23770  1.0000
  C   C1030     1.0  0.38341  0.79807  0.01955  1.0000
  H   H1864     1.0  0.40092  0.88510  0.12633  1.0000
  C   C1031     1.0  0.48615  0.87570  0.20495  1.0000
  S   S245      1.0  0.43845  0.89385  0.20844  1.0000
  H   H1865     1.0  0.39315  0.85403  0.99700  1.0000
  C   C1032     1.0  0.49354  0.97146  0.10493  1.0000
  C   C1033     1.0  0.49180  0.86779  0.18164  1.0000
  H   H1866     1.0  0.44951  0.97079  0.15315  1.0000
  C   C1034     1.0  0.45800  0.87381  0.10818  1.0000
  H   H1867     1.0  0.41144  0.92040  0.19367  1.0000
  H   H1868     1.0  0.40509  0.98643  0.20979  1.0000
  C   C1035     1.0  0.47489  0.71537  0.99603  1.0000
  S   S246      1.0  0.45056  0.70348  0.00118  1.0000
  H   H1869     1.0  0.40554  0.78555  0.01385  1.0000
  H   H1870     1.0  0.49001  0.87986  0.21260  1.0000
  H   H1871     1.0  0.48907  0.88835  0.04954  1.0000
  C   C1036     1.0  0.45439  0.94098  0.15701  1.0000
  H   H1872     1.0  0.49135  0.66339  0.01353  1.0000
  H   H1873     1.0  0.47217  0.74236  0.07914  1.0000
  H   H1874     1.0  0.45883  0.87569  0.07961  1.0000
  H   H1875     1.0  0.40377  0.86879  0.11903  1.0000
  C   C1037     1.0  0.49694  0.98467  0.15278  1.0000
  H   H1876     1.0  0.49031  0.79100  0.01476  1.0000
  H   H1877     1.0  0.46791  0.68455  0.02160  1.0000
  C   C1038     1.0  0.39916  0.82322  0.00074  1.0000
  H   H1878     1.0  0.37686  0.80950  0.01999  1.0000
  H   H1879     1.0  0.37946  0.79354  0.01223  1.0000
  S   S247      1.0  0.49759  0.89368  0.07381  1.0000
  H   H1880     1.0  0.49189  0.84210  0.08797  1.0000
  S   S248      1.0  0.45893  0.93745  0.22982  1.0000
  C   C1039     1.0  0.43054  0.87848  0.11108  1.0000
  H   H1881     1.0  0.43533  0.92656  0.18051  1.0000
  H   H1882     1.0  0.43962  0.88198  0.07960  1.0000
  C   C1040     1.0  0.44089  0.93514  0.14175  1.0000
  N   N57       1.0  0.44026  0.94574  0.15107  1.0000
  H   H1883     1.0  0.48859  0.96556  0.19912  1.0000
  H   H1884     1.0  0.49805  0.86393  0.09191  1.0000
  C   C1041     1.0  0.45748  0.85895  0.11958  1.0000
  C   C1042     1.0  0.48862  0.71548  0.99869  1.0000
  H   H1885     1.0  0.49224  0.78012  0.04110  1.0000
  H   H1886     1.0  0.48093  0.71222  0.06878  1.0000
  H   H1887     1.0  0.38398  0.79230  0.04305  1.0000
  H   H1888     1.0  0.49027  0.68509  0.05452  1.0000
  H   H1889     1.0  0.47159  0.84156  0.13271  1.0000
  H   H1890     1.0  0.43524  0.90272  0.08924  1.0000
  C   C1043     1.0  0.48093  0.97720  0.14034  1.0000
  C   C1044     1.0  0.44166  0.96889  0.18608  1.0000
  H   H1891     1.0  0.43393  0.86157  0.07222  1.0000
  C   C1045     1.0  0.44403  0.89720  0.09579  1.0000
  S   S249      1.0  0.43586  0.93432  0.21148  1.0000
  H   H1892     1.0  0.49539  0.91703  0.21603  1.0000
  H   H1893     1.0  0.49516  0.77841  0.00250  1.0000
  H   H1894     1.0  0.45906  0.88148  0.11448  1.0000
  H   H1895     1.0  0.44442  0.92349  0.14755  1.0000
  H   H1896     1.0  0.38196  0.98304  0.23258  1.0000
  H   H1897     1.0  0.44623  0.84354  0.07580  1.0000
  H   H1898     1.0  0.46672  0.92187  0.07535  1.0000
  H   H1899     1.0  0.48956  0.85168  0.21473  1.0000
  H   H1900     1.0  0.43442  0.69914  0.06292  1.0000
  C   C1046     1.0  0.44758  0.87487  0.08665  1.0000
  C   C1047     1.0  0.44440  0.89328  0.18960  1.0000
  H   H1901     1.0  0.41637  0.95066  0.16011  1.0000
  H   H1902     1.0  0.44353  0.74094  0.07127  1.0000
  H   H1903     1.0  0.43754  0.85536  0.09762  1.0000
  H   H1904     1.0  0.46767  0.89774  0.09230  1.0000
  H   H1905     1.0  0.41043  0.93956  0.19274  1.0000
  H   H1906     1.0  0.40176  0.93458  0.18073  1.0000
  H   H1907     1.0  0.45100  0.78842  0.99900  1.0000
  C   C1048     1.0  0.41616  0.88515  0.10476  1.0000
  H   H1908     1.0  0.47084  0.93456  0.13738  1.0000
  C   C1049     1.0  0.42704  0.94570  0.16398  1.0000
  C   C1050     1.0  0.40249  0.88100  0.11613  1.0000
  C   C1051     1.0  0.44694  0.85854  0.08876  1.0000
  C   C1052     1.0  0.49288  0.96717  0.21945  1.0000
  H   H1909     1.0  0.42756  0.77970  0.00156  1.0000
  H   H1910     1.0  0.49450  0.76151  0.09440  1.0000
  C   C1053     1.0  0.42628  0.93672  0.13671  1.0000
  H   H1911     1.0  0.42984  0.91391  0.13479  1.0000
  H   H1912     1.0  0.44968  0.93650  0.13145  1.0000
  C   C1054     1.0  0.46742  0.70424  0.00438  1.0000
  H   H1913     1.0  0.42907  0.88324  0.12089  1.0000
  C   C1055     1.0  0.46029  0.74672  0.07829  1.0000
  H   H1914     1.0  0.44758  0.96124  0.13114  1.0000
  Fe  Fe128     1.0  0.45954  0.93670  0.20661  1.0000
  C   C1056     1.0  0.46503  0.97128  0.10263  1.0000
  H   H1915     1.0  0.42785  0.88164  0.19058  1.0000
  Fe  Fe129     1.0  0.49856  0.91949  0.11273  1.0000
  H   H1916     1.0  0.47613  0.88427  0.20217  1.0000
  H   H1917     1.0  0.43945  0.98575  0.22054  1.0000
  C   C1057     1.0  0.38007  0.78855  0.03510  1.0000
  H   H1918     1.0  0.42724  0.95291  0.17115  1.0000
  C   C1058     1.0  0.40460  0.97739  0.21970  1.0000
  C   C1059     1.0  0.45613  0.96939  0.18607  1.0000
  H   H1919     1.0  0.46713  0.85357  0.23527  1.0000
  Fe  Fe130     1.0  0.46701  0.91287  0.23303  1.0000
  H   H1920     1.0  0.48066  0.77621  0.01897  1.0000
  H   H1921     1.0  0.46199  0.87333  0.22870  1.0000
  H   H1922     1.0  0.42309  0.94779  0.12963  1.0000
  H   H1923     1.0  0.42588  0.80555  0.00573  1.0000
  H   H1924     1.0  0.49017  0.85648  0.18730  1.0000
  H   H1925     1.0  0.46223  0.89787  0.07575  1.0000
  H   H1926     1.0  0.48053  0.87463  0.18017  1.0000
  H   H1927     1.0  0.41394  0.89741  0.10185  1.0000
  H   H1928     1.0  0.37582  0.81256  0.99363  1.0000
  H   H1929     1.0  0.47894  0.86505  0.23574  1.0000
  H   H1930     1.0  0.44072  0.90220  0.10574  1.0000
  C   C1060     1.0  0.45850  0.90199  0.08618  1.0000
  C   C1061     1.0  0.49506  0.85827  0.15848  1.0000
  C   C1062     1.0  0.47216  0.85234  0.12488  1.0000
  H   H1931     1.0  0.43909  0.95847  0.18695  1.0000
  H   H1932     1.0  0.41611  0.97315  0.22176  1.0000
  H   H1933     1.0  0.36783  0.78938  0.03889  1.0000
  C   C1063     1.0  0.44132  0.86295  0.99269  1.0000
  N   N58       1.0  0.46381  0.72787  0.04568  1.0000
  C   C1064     1.0  0.44941  0.72257  0.05151  1.0000
  C   C1065     1.0  0.46394  0.73921  0.05388  1.0000
  C   C1066     1.0  0.46435  0.73526  0.02958  1.0000
  C   C1067     1.0  0.47743  0.71533  0.04648  1.0000
  C   C1068     1.0  0.47882  0.70569  0.06197  1.0000
  C   C1069     1.0  0.44720  0.71156  0.04355  1.0000
  C   C1070     1.0  0.47749  0.74304  0.02165  1.0000
  H   H1934     1.0  0.48361  0.86446  0.15704  1.0000
  C   C1071     1.0  0.43321  0.70568  0.05169  1.0000
  C   C1072     1.0  0.47520  0.75239  0.00647  1.0000
  H   H1935     1.0  0.43968  0.73227  0.05090  1.0000
  H   H1936     1.0  0.44807  0.71717  0.06337  1.0000
  H   H1937     1.0  0.45840  0.75049  0.04860  1.0000
  H   H1938     1.0  0.45367  0.74349  0.02836  1.0000
  H   H1939     1.0  0.46527  0.72708  0.02296  1.0000
  H   H1940     1.0  0.47815  0.70796  0.03916  1.0000
  H   H1941     1.0  0.48781  0.71958  0.04201  1.0000
  H   H1942     1.0  0.46866  0.70140  0.06770  1.0000
  H   H1943     1.0  0.44575  0.71707  0.03212  1.0000
  H   H1944     1.0  0.45679  0.70187  0.04309  1.0000
  H   H1945     1.0  0.48822  0.73472  0.01991  1.0000
  H   H1946     1.0  0.47863  0.75049  0.02804  1.0000
  H   H1947     1.0  0.48961  0.89629  0.17983  1.0000
  C   C1073     1.0  0.49467  0.86457  0.08185  1.0000
  H   H1948     1.0  0.49472  0.84690  0.16502  1.0000
  H   H1949     1.0  0.42318  0.71497  0.05267  1.0000
  H   H1950     1.0  0.43148  0.69838  0.04541  1.0000
  H   H1951     1.0  0.46553  0.76189  0.00778  1.0000
  H   H1952     1.0  0.48530  0.75673  0.00043  1.0000
  H   H1953     1.0  0.47318  0.74574  0.99973  1.0000
  S   S250      1.0  0.46969  0.91247  0.20929  1.0000
  C   C1074     1.0  0.48968  0.87826  0.05796  1.0000
  H   H1954     1.0  0.46861  0.67160  0.00175  1.0000
  H   H1955     1.0  0.49850  0.98977  0.23107  1.0000
  C   C1075     1.0  0.47872  0.66343  0.99766  1.0000
  H   H1956     1.0  0.47563  0.73980  0.05303  1.0000
  H   H1957     1.0  0.40443  0.79973  0.02286  1.0000
  H   H1958     1.0  0.41688  0.93507  0.14629  1.0000
  H   H1959     1.0  0.45762  0.85116  0.09133  1.0000
  H   H1960     1.0  0.48943  0.96734  0.13731  1.0000
  C   C1076     1.0  0.48261  0.93620  0.15261  1.0000
  C   C1077     1.0  0.42824  0.92520  0.12767  1.0000
  H   H1961     1.0  0.41943  0.98152  0.18443  1.0000
  C   C1078     1.0  0.49458  0.70466  0.00990  1.0000
  H   H1962     1.0  0.45385  0.85917  0.06499  1.0000
  C   C1079     1.0  0.48030  0.86168  0.21379  1.0000
  C   C1080     1.0  0.43060  0.78890  0.99258  1.0000
  H   H1963     1.0  0.40876  0.96123  0.20630  1.0000
  H   H1964     1.0  0.48886  0.76250  0.04384  1.0000
  C   C1081     1.0  0.49202  0.69232  0.06085  1.0000
  C   C1082     1.0  0.48846  0.98934  0.14002  1.0000
  H   H1965     1.0  0.48291  0.92484  0.15943  1.0000
  H   H1966     1.0  0.47786  0.76138  0.08880  1.0000
  N   N59       1.0  0.49796  0.87393  0.19104  1.0000
  H   H1967     1.0  0.49398  0.91973  0.18295  1.0000
  H   H1968     1.0  0.48171  0.85043  0.11541  1.0000
  C   C1083     1.0  0.49156  0.77933  0.01429  1.0000
  C   C1084     1.0  0.39349  0.98251  0.23352  1.0000
  H   H1969     1.0  0.47413  0.85985  0.13075  1.0000
  C   C1085     1.0  0.49379  0.87772  0.07112  1.0000
  C   C1086     1.0  0.38698  0.71085  0.99440  1.0000
  C   C1087     1.0  0.48602  0.76802  0.08775  1.0000
  S   S251      1.0  0.49588  0.87915  0.11739  1.0000
  S   S252      1.0  0.08132  0.85690  0.42442  1.0000
  C   C1088     1.0  0.08015  0.72561  0.32171  1.0000
  H   H1970     1.0  0.24644  0.93592  0.47149  1.0000
  H   H1971     1.0  0.01589  0.79955  0.40277  1.0000
  H   H1972     1.0  0.00840  0.70571  0.38993  1.0000
  C   C1089     1.0  0.33059  0.94300  0.48076  1.0000
  H   H1973     1.0  0.19458  0.87722  0.45471  1.0000
  H   H1974     1.0  0.31233  0.88719  0.39448  1.0000
  H   H1975     1.0  0.03080  0.66938  0.44215  1.0000
  H   H1976     1.0  0.01093  0.71904  0.39778  1.0000
  Fe  Fe131     1.0  0.05031  0.82255  0.42406  1.0000
  S   S253      1.0  0.07429  0.81936  0.42497  1.0000
  S   S254      1.0  0.04191  0.82077  0.40494  1.0000
  C   C1090     1.0  0.02045  0.73769  0.44263  1.0000
  S   S255      1.0  0.04303  0.84446  0.43099  1.0000
  S   S256      1.0  0.04409  0.80912  0.44687  1.0000
  S   S257      1.0  0.13608  0.89989  0.43411  1.0000
  H   H1977     1.0  0.39678  0.98669  0.25900  1.0000
  Fe  Fe132     1.0  0.15761  0.88967  0.44204  1.0000
  S   S258      1.0  0.17496  0.87213  0.43154  1.0000
  C   C1091     1.0  0.11277  0.75641  0.44294  1.0000
  Fe  Fe133     1.0  0.32742  0.96001  0.41738  1.0000
  S   S259      1.0  0.34558  0.94419  0.40511  1.0000
  C   C1092     1.0  0.00112  0.83538  0.47071  1.0000
  C   C1093     1.0  0.09398  0.97201  0.46963  1.0000
  S   S260      1.0  0.35137  0.97382  0.37902  1.0000
  C   C1094     1.0  0.24125  0.98996  0.46773  1.0000
  Fe  Fe134     1.0  0.33662  0.95777  0.38508  1.0000
  S   S261      1.0  0.33679  0.94807  0.36627  1.0000
  Fe  Fe135     1.0  0.35907  0.96132  0.39978  1.0000
  S   S262      1.0  0.38337  0.95571  0.40054  1.0000
  S   S263      1.0  0.31729  0.97212  0.39764  1.0000
  S   S264      1.0  0.13699  0.98732  0.46501  1.0000
  C   C1095     1.0  0.35655  0.98325  0.47617  1.0000
  H   H1978     1.0  0.07692  0.68155  0.44889  1.0000
  C   C1096     1.0  0.27078  0.89842  0.44870  1.0000
  Fe  Fe136     1.0  0.24550  0.90149  0.39567  1.0000
  S   S265      1.0  0.24295  0.90399  0.41868  1.0000
  S   S266      1.0  0.23723  0.88344  0.39216  1.0000
  Fe  Fe137     1.0  0.26356  0.92528  0.38233  1.0000
  S   S267      1.0  0.26221  0.92974  0.40439  1.0000
  S   S268      1.0  0.27663  0.93647  0.36120  1.0000
  Fe  Fe138     1.0  0.26714  0.90501  0.41182  1.0000
  C   C1097     1.0  0.00255  0.74242  0.28495  1.0000
  Fe  Fe139     1.0  0.23826  0.92826  0.40860  1.0000
  S   S269      1.0  0.21807  0.94343  0.41907  1.0000
  S   S270      1.0  0.26999  0.90070  0.38944  1.0000
  S   S271      1.0  0.23920  0.92570  0.38591  1.0000
  H   H1979     1.0  0.20755  0.86106  0.44915  1.0000
  H   H1980     1.0  0.42020  0.97715  0.24237  1.0000
  S   S272      1.0  0.41774  0.94536  0.25033  1.0000
  H   H1981     1.0  0.20458  0.92027  0.44664  1.0000
  H   H1982     1.0  0.47928  0.94398  0.26365  1.0000
  H   H1983     1.0  0.34385  0.98452  0.34710  1.0000
  H   H1984     1.0  0.04643  0.68396  0.44259  1.0000
  H   H1985     1.0  0.09466  0.70782  0.47407  1.0000
  H   H1986     1.0  0.20379  0.87024  0.47877  1.0000
  C   C1098     1.0  0.03659  0.66242  0.47730  1.0000
  C   C1099     1.0  0.41435  0.97952  0.37844  1.0000
  H   H1987     1.0  0.31560  0.89388  0.35748  1.0000
  C   C1100     1.0  0.33016  0.87472  0.41449  1.0000
  H   H1988     1.0  0.49073  0.96836  0.26881  1.0000
  H   H1989     1.0  0.15569  0.87542  0.40614  1.0000
  C   C1101     1.0  0.06288  0.66614  0.45192  1.0000
  H   H1990     1.0  0.48291  0.93181  0.28796  1.0000
  Fe  Fe140     1.0  0.02392  0.75058  0.38232  1.0000
  S   S273      1.0  0.04735  0.73773  0.38303  1.0000
  H   H1991     1.0  0.09213  0.97363  0.48103  1.0000
  Fe  Fe141     1.0  0.03190  0.76122  0.34903  1.0000
  S   S274      1.0  0.05584  0.74898  0.34770  1.0000
  S   S275      1.0  0.02661  0.77397  0.32709  1.0000
  Fe  Fe142     1.0  0.04609  0.73037  0.36331  1.0000
  S   S276      1.0  0.05401  0.70649  0.36088  1.0000
  Fe  Fe143     1.0  0.05405  0.75786  0.36764  1.0000
  S   S277      1.0  0.07118  0.76668  0.37291  1.0000
  S   S278      1.0  0.02223  0.74213  0.36344  1.0000
  S   S279      1.0  0.03060  0.77129  0.36795  1.0000
  H   H1992     1.0  0.24834  0.98042  0.40496  1.0000
  H   H1993     1.0  0.36759  0.94654  0.43891  1.0000
  S   S280      1.0  0.01219  0.68215  0.33752  1.0000
  H   H1994     1.0  0.05164  0.67385  0.48168  1.0000
  H   H1995     1.0  0.05844  0.72961  0.28803  1.0000
  H   H1996     1.0  0.35533  0.98676  0.48663  1.0000
  C   C1102     1.0  0.48627  0.96441  0.26149  1.0000
  H   H1997     1.0  0.00179  0.82777  0.39060  1.0000
  H   H1998     1.0  0.01508  0.78026  0.30102  1.0000
  H   H1999     1.0  0.18192  0.86154  0.47682  1.0000
  N   N60       1.0  0.08899  0.95853  0.46948  1.0000
  C   C1103     1.0  0.01668  0.69680  0.35642  1.0000
  C   C1104     1.0  0.02614  0.70298  0.36077  1.0000
  C   C1105     1.0  0.04169  0.69792  0.35716  1.0000
  H   H2000     1.0  0.01628  0.70150  0.41974  1.0000
  H   H2001     1.0  0.08313  0.96748  0.44801  1.0000
  C   C1106     1.0  0.49270  0.98420  0.32636  1.0000
  H   H2002     1.0  0.02150  0.71205  0.36638  1.0000
  C   C1107     1.0  0.15781  0.82170  0.42846  1.0000
  H   H2003     1.0  0.03612  0.78484  0.43688  1.0000
  C   C1108     1.0  0.22269  0.95920  0.42041  1.0000
  C   C1109     1.0  0.21442  0.96638  0.43188  1.0000
  C   C1110     1.0  0.21871  0.97820  0.43407  1.0000
  C   C1111     1.0  0.23096  0.98320  0.42440  1.0000
  C   C1112     1.0  0.23888  0.97649  0.41245  1.0000
  C   C1113     1.0  0.23487  0.96430  0.41058  1.0000
  H   H2004     1.0  0.20501  0.96245  0.43938  1.0000
  C   C1114     1.0  0.48551  0.98587  0.29052  1.0000
  S   S281      1.0  0.15174  0.91056  0.48742  1.0000
  H   H2005     1.0  0.24111  0.95893  0.40151  1.0000
  Fe  Fe144     1.0  0.33304  0.98683  0.39360  1.0000
  C   C1115     1.0  0.42335  0.95977  0.28373  1.0000
  C   C1116     1.0  0.41721  0.95770  0.27296  1.0000
  C   C1117     1.0  0.42480  0.94673  0.26485  1.0000
  C   C1118     1.0  0.43814  0.93722  0.26814  1.0000
  C   C1119     1.0  0.44387  0.93878  0.27948  1.0000
  H   H2006     1.0  0.31856  0.98315  0.48349  1.0000
  H   H2007     1.0  0.36848  0.98026  0.44960  1.0000
  H   H2008     1.0  0.44396  0.92856  0.26208  1.0000
  H   H2009     1.0  0.01195  0.68166  0.47379  1.0000
  C   C1120     1.0  0.39419  0.96656  0.38627  1.0000
  C   C1121     1.0  0.39167  0.97098  0.37184  1.0000
  H   H2010     1.0  0.07795  0.70946  0.31151  1.0000
  H   H2011     1.0  0.23647  0.85395  0.45473  1.0000
  H   H2012     1.0  0.05334  0.78324  0.46739  1.0000
  C   C1122     1.0  0.40571  0.97067  0.38946  1.0000
  H   H2013     1.0  0.38295  0.96769  0.36925  1.0000
  H   H2014     1.0  0.26607  0.96547  0.32166  1.0000
  H   H2015     1.0  0.24466  0.97381  0.33662  1.0000
  C   C1123     1.0  0.31948  0.94615  0.36494  1.0000
  C   C1124     1.0  0.31823  0.94350  0.35177  1.0000
  C   C1125     1.0  0.30488  0.94095  0.35065  1.0000
  C   C1126     1.0  0.29285  0.94060  0.36282  1.0000
  C   C1127     1.0  0.29400  0.94348  0.37595  1.0000
  C   C1128     1.0  0.30727  0.94640  0.37697  1.0000
  H   H2016     1.0  0.32764  0.94330  0.34245  1.0000
  H   H2017     1.0  0.30404  0.93878  0.34046  1.0000
  H   H2018     1.0  0.28464  0.94361  0.38524  1.0000
  H   H2019     1.0  0.30817  0.94851  0.38715  1.0000
  H   H2020     1.0  0.24007  0.91858  0.45200  1.0000
  C   C1129     1.0  0.31719  0.90725  0.47970  1.0000
  H   H2021     1.0  0.36963  0.90721  0.36264  1.0000
  C   C1130     1.0  0.01490  0.69683  0.41097  1.0000
  C   C1131     1.0  0.13772  0.84615  0.48235  1.0000
  H   H2022     1.0  0.15148  0.86037  0.40147  1.0000
  C   C1132     1.0  0.27989  0.88869  0.47151  1.0000
  C   C1133     1.0  0.49936  0.97574  0.29049  1.0000
  H   H2023     1.0  0.06432  0.70414  0.29914  1.0000
  C   C1134     1.0  0.04791  0.67786  0.45390  1.0000
  H   H2024     1.0  0.10630  0.97037  0.46550  1.0000
  C   C1135     1.0  0.01520  0.69452  0.45140  1.0000
  H   H2025     1.0  0.03639  0.78006  0.41154  1.0000
  H   H2026     1.0  0.06565  0.66003  0.46275  1.0000
  C   C1136     1.0  0.00959  0.77267  0.32466  1.0000
  H   H2027     1.0  0.05480  0.69675  0.31718  1.0000
  H   H2028     1.0  0.19851  0.98159  0.41054  1.0000
  H   H2029     1.0  0.03825  0.76914  0.28064  1.0000
  C   C1137     1.0  0.19222  0.87584  0.42105  1.0000
  C   C1138     1.0  0.20185  0.86536  0.41311  1.0000
  C   C1139     1.0  0.21561  0.86785  0.40436  1.0000
  C   C1140     1.0  0.21999  0.88073  0.40364  1.0000
  C   C1141     1.0  0.21054  0.89115  0.41185  1.0000
  C   C1142     1.0  0.19656  0.88874  0.42050  1.0000
  H   H2030     1.0  0.19856  0.85538  0.41353  1.0000
  H   H2031     1.0  0.22287  0.85980  0.39805  1.0000
  H   H2032     1.0  0.21383  0.90119  0.41124  1.0000
  H   H2033     1.0  0.18915  0.89688  0.42659  1.0000
  C   C1143     1.0  0.10227  0.87981  0.43906  1.0000
  C   C1144     1.0  0.09671  0.87429  0.43000  1.0000
  H   H2034     1.0  0.10957  0.88742  0.43412  1.0000
  H   H2035     1.0  0.09981  0.87770  0.41810  1.0000
  C   C1145     1.0  0.05025  0.80557  0.39635  1.0000
  C   C1146     1.0  0.04531  0.80507  0.38407  1.0000
  C   C1147     1.0  0.05176  0.79321  0.37682  1.0000
  C   C1148     1.0  0.06323  0.78177  0.38178  1.0000
  C   C1149     1.0  0.06843  0.78244  0.39387  1.0000
  C   C1150     1.0  0.06182  0.79424  0.40127  1.0000
  H   H2036     1.0  0.03636  0.81382  0.38023  1.0000
  H   H2037     1.0  0.04788  0.79293  0.36736  1.0000
  H   H2038     1.0  0.07740  0.77370  0.39763  1.0000
  H   H2039     1.0  0.06557  0.79454  0.41080  1.0000
  H   H2040     1.0  0.28027  0.97977  0.41300  1.0000
  C   C1151     1.0  0.07576  0.67354  0.44308  1.0000
  C   C1152     1.0  0.13516  0.97564  0.45471  1.0000
  C   C1153     1.0  0.14042  0.96034  0.45903  1.0000
  C   C1154     1.0  0.13916  0.95067  0.45109  1.0000
  C   C1155     1.0  0.13274  0.95624  0.43867  1.0000
  C   C1156     1.0  0.12741  0.97156  0.43435  1.0000
  C   C1157     1.0  0.12849  0.98125  0.44244  1.0000
  H   H2041     1.0  0.22663  0.92597  0.46702  1.0000
  H   H2042     1.0  0.05698  0.76613  0.42615  1.0000
  C   C1158     1.0  0.00667  0.77672  0.31044  1.0000
  C   C1159     1.0  0.23868  0.94181  0.45121  1.0000
  C   C1160     1.0  0.26483  0.94702  0.48237  1.0000
  H   H2043     1.0  0.00653  0.66623  0.46341  1.0000
  H   H2044     1.0  0.36650  0.90208  0.34724  1.0000
  H   H2045     1.0  0.17534  0.80491  0.41878  1.0000
  C   C1161     1.0  0.03294  0.72614  0.43990  1.0000
  H   H2046     1.0  0.03674  0.69936  0.39711  1.0000
  C   C1162     1.0  0.01178  0.74458  0.43187  1.0000
  C   C1163     1.0  0.01586  0.74011  0.41834  1.0000
  C   C1164     1.0  0.02775  0.72800  0.41613  1.0000
  C   C1165     1.0  0.03651  0.72125  0.42670  1.0000
  H   H2047     1.0  0.12229  0.97591  0.42483  1.0000
  H   H2048     1.0  0.03020  0.72372  0.40629  1.0000
  H   H2049     1.0  0.04595  0.71211  0.42470  1.0000
  H   H2050     1.0  0.11994  0.83117  0.42795  1.0000
  C   C1166     1.0  0.48765  0.94747  0.26725  1.0000
  C   C1167     1.0  0.03038  0.72074  0.31797  1.0000
  N   N61       1.0  0.22320  0.87434  0.46169  1.0000
  H   H2051     1.0  0.00764  0.71440  0.46044  1.0000
  H   H2052     1.0  0.04946  0.68623  0.45901  1.0000
  C   C1168     1.0  0.29296  0.88062  0.46392  1.0000
  H   H2053     1.0  0.00074  0.71570  0.44467  1.0000
  H   H2054     1.0  0.27032  0.86691  0.42841  1.0000
  H   H2055     1.0  0.02278  0.72309  0.31023  1.0000
  H   H2056     1.0  0.32310  0.86964  0.41079  1.0000
  H   H2057     1.0  0.25665  0.86497  0.45423  1.0000
  H   H2058     1.0  0.34727  0.86671  0.42770  1.0000
  C   C1169     1.0  0.13589  0.84959  0.43019  1.0000
  H   H2059     1.0  0.32744  0.88377  0.37951  1.0000
  C   C1170     1.0  0.24720  0.96512  0.46083  1.0000
  C   C1171     1.0  0.07283  0.95884  0.47718  1.0000
  C   C1172     1.0  0.23269  0.97433  0.35883  1.0000
  N   N62       1.0  0.49350  0.96928  0.24548  1.0000
  S   S282      1.0  0.00688  0.75023  0.40378  1.0000
  C   C1173     1.0  0.02368  0.73155  0.32868  1.0000
  H   H2060     1.0  0.22607  0.89607  0.44920  1.0000
  C   C1174     1.0  0.28377  0.89025  0.44119  1.0000
  S   S283      1.0  0.34189  0.97577  0.41405  1.0000
  C   C1175     1.0  0.04685  0.73096  0.29479  1.0000
  H   H2061     1.0  0.14922  0.81634  0.45221  1.0000
  C   C1176     1.0  0.38457  0.96960  0.31223  1.0000
  H   H2062     1.0  0.08613  0.72726  0.40430  1.0000
  H   H2063     1.0  0.00084  0.74004  0.32550  1.0000
  H   H2064     1.0  0.07790  0.71924  0.33330  1.0000
  C   C1177     1.0  0.27322  0.97459  0.33655  1.0000
  S   S284      1.0  0.01895  0.83575  0.47240  1.0000
  H   H2065     1.0  0.25682  0.86735  0.48375  1.0000
  C   C1178     1.0  0.27070  0.94695  0.46559  1.0000
  H   H2066     1.0  0.02816  0.74960  0.29958  1.0000
  C   C1179     1.0  0.22318  0.96376  0.35936  1.0000
  H   H2067     1.0  0.23888  0.96907  0.45369  1.0000
  S   S285      1.0  0.12446  0.91408  0.46370  1.0000
  H   H2068     1.0  0.01439  0.73745  0.28570  1.0000
  H   H2069     1.0  0.05339  0.74455  0.44852  1.0000
  H   H2070     1.0  0.07048  0.72326  0.42998  1.0000
  H   H2071     1.0  0.21592  0.85421  0.47347  1.0000
  H   H2072     1.0  0.28155  0.98129  0.33488  1.0000
  H   H2073     1.0  0.34278  0.96676  0.48621  1.0000
  H   H2074     1.0  0.25608  0.98440  0.44773  1.0000
  N   N63       1.0  0.41009  0.93552  0.33350  1.0000
  C   C1180     1.0  0.40387  0.95109  0.32581  1.0000
  C   C1181     1.0  0.42396  0.93486  0.33873  1.0000
  C   C1182     1.0  0.41468  0.92591  0.32219  1.0000
  C   C1183     1.0  0.39856  0.92952  0.34617  1.0000
  C   C1184     1.0  0.39152  0.93863  0.35841  1.0000
  C   C1185     1.0  0.38949  0.95350  0.32002  1.0000
  C   C1186     1.0  0.42315  0.90968  0.32709  1.0000
  C   C1187     1.0  0.42464  0.94866  0.34369  1.0000
  C   C1188     1.0  0.43766  0.94544  0.35132  1.0000
  C   C1189     1.0  0.37859  0.93272  0.36949  1.0000
  H   H2075     1.0  0.22166  0.88150  0.48163  1.0000
  C   C1190     1.0  0.42834  0.90171  0.31418  1.0000
  H   H2076     1.0  0.41256  0.95489  0.31627  1.0000
  H   H2077     1.0  0.40116  0.95902  0.33313  1.0000
  H   H2078     1.0  0.42588  0.92507  0.34792  1.0000
  H   H2079     1.0  0.43413  0.93319  0.32972  1.0000
  H   H2080     1.0  0.42190  0.93102  0.31195  1.0000
  H   H2081     1.0  0.40477  0.92512  0.31874  1.0000
  H   H2082     1.0  0.38938  0.92809  0.34198  1.0000
  H   H2083     1.0  0.40355  0.91822  0.35187  1.0000
  H   H2084     1.0  0.38697  0.95039  0.35375  1.0000
  H   H2085     1.0  0.39996  0.93784  0.36473  1.0000
  H   H2086     1.0  0.39125  0.94665  0.31184  1.0000
  H   H2087     1.0  0.38012  0.95083  0.32931  1.0000
  H   H2088     1.0  0.41577  0.90345  0.33609  1.0000
  H   H2089     1.0  0.43325  0.90909  0.33102  1.0000
  H   H2090     1.0  0.42644  0.95766  0.33384  1.0000
  H   H2091     1.0  0.41428  0.95281  0.35134  1.0000
  H   H2092     1.0  0.43800  0.95572  0.35426  1.0000
  H   H2093     1.0  0.43621  0.93685  0.36165  1.0000
  H   H2094     1.0  0.44844  0.94170  0.34381  1.0000
  H   H2095     1.0  0.36945  0.93376  0.36393  1.0000
  H   H2096     1.0  0.38245  0.92096  0.37483  1.0000
  H   H2097     1.0  0.37404  0.93931  0.37825  1.0000
  H   H2098     1.0  0.05971  0.68222  0.34688  1.0000
  H   H2099     1.0  0.36245  0.97388  0.34169  1.0000
  H   H2100     1.0  0.01124  0.65983  0.43865  1.0000
  H   H2101     1.0  0.41863  0.90154  0.30999  1.0000
  H   H2102     1.0  0.43615  0.90731  0.30498  1.0000
  H   H2103     1.0  0.43430  0.89011  0.31788  1.0000
  C   C1191     1.0  0.32069  0.89252  0.38574  1.0000
  H   H2104     1.0  0.09199  0.73533  0.42407  1.0000
  Fe  Fe145     1.0  0.06666  0.84020  0.43385  1.0000
  C   C1192     1.0  0.01332  0.78873  0.40895  1.0000
  H   H2105     1.0  0.30479  0.87475  0.44308  1.0000
  H   H2106     1.0  0.08345  0.75656  0.45457  1.0000
  H   H2107     1.0  0.36516  0.95275  0.48438  1.0000
  H   H2108     1.0  0.13646  0.87512  0.40795  1.0000
  H   H2109     1.0  0.34264  0.97491  0.46693  1.0000
  H   H2110     1.0  0.06214  0.77497  0.43771  1.0000
  C   C1193     1.0  0.03927  0.77354  0.44355  1.0000
  H   H2111     1.0  0.27909  0.95394  0.46117  1.0000
  H   H2112     1.0  0.22273  0.93099  0.44891  1.0000
  H   H2113     1.0  0.28001  0.98901  0.43468  1.0000
  H   H2114     1.0  0.34198  0.89786  0.36105  1.0000
  H   H2115     1.0  0.00100  0.78201  0.45488  1.0000
  H   H2116     1.0  0.18127  0.97997  0.43777  1.0000
  H   H2117     1.0  0.17669  0.98179  0.47997  1.0000
  H   H2118     1.0  0.19491  0.84508  0.47155  1.0000
  H   H2119     1.0  0.00270  0.84246  0.39836  1.0000
  H   H2120     1.0  0.25964  0.92890  0.45715  1.0000
  H   H2121     1.0  0.01748  0.74133  0.45297  1.0000
  H   H2122     1.0  0.09594  0.82931  0.44585  1.0000
  H   H2123     1.0  0.14292  0.82693  0.47303  1.0000
  H   H2124     1.0  0.07777  0.95471  0.43182  1.0000
  H   H2125     1.0  0.04206  0.76451  0.48688  1.0000
  H   H2126     1.0  0.42300  0.98295  0.38110  1.0000
  H   H2127     1.0  0.07108  0.94734  0.48108  1.0000
  C   C1194     1.0  0.08880  0.86563  0.46070  1.0000
  C   C1195     1.0  0.37039  0.95676  0.43954  1.0000
  C   C1196     1.0  0.07831  0.72854  0.46931  1.0000
  H   H2128     1.0  0.28401  0.98359  0.48108  1.0000
  C   C1197     1.0  0.26196  0.97781  0.36190  1.0000
  H   H2129     1.0  0.15647  0.98634  0.48395  1.0000
  H   H2130     1.0  0.28626  0.96969  0.30005  1.0000
  C   C1198     1.0  0.21101  0.86599  0.46893  1.0000
  H   H2131     1.0  0.15873  0.85297  0.42606  1.0000
  H   H2132     1.0  0.10503  0.81196  0.45617  1.0000
  N   N64       1.0  0.13683  0.83850  0.44459  1.0000
  H   H2133     1.0  0.28681  0.98478  0.37869  1.0000
  C   C1199     1.0  0.40069  0.97947  0.36064  1.0000
  H   H2134     1.0  0.37779  0.97999  0.28090  1.0000
  N   N65       1.0  0.25881  0.98049  0.34668  1.0000
  H   H2135     1.0  0.22924  0.95207  0.36247  1.0000
  H   H2136     1.0  0.26378  0.96577  0.36705  1.0000
  H   H2137     1.0  0.29390  0.95941  0.31605  1.0000
  C   C1200     1.0  0.25318  0.97889  0.45952  1.0000
  H   H2138     1.0  0.25294  0.95956  0.35010  1.0000
  H   H2139     1.0  0.27845  0.96318  0.34171  1.0000
  H   H2140     1.0  0.12964  0.85705  0.48219  1.0000
  H   H2141     1.0  0.04563  0.75113  0.30237  1.0000
  H   H2142     1.0  0.00474  0.70126  0.35863  1.0000
  H   H2143     1.0  0.00611  0.83840  0.44694  1.0000
  H   H2144     1.0  0.45411  0.93132  0.28211  1.0000
  H   H2145     1.0  0.25218  0.98306  0.36958  1.0000
  C   C1201     1.0  0.00595  0.70921  0.40053  1.0000
  H   H2146     1.0  0.14409  0.86789  0.43214  1.0000
  H   H2147     1.0  0.15081  0.96472  0.48743  1.0000
  S   S286      1.0  0.44418  0.90813  0.24029  1.0000
  H   H2148     1.0  0.00904  0.68768  0.41638  1.0000
  H   H2149     1.0  0.09529  0.76447  0.48082  1.0000
  H   H2150     1.0  0.00835  0.81823  0.41543  1.0000
  H   H2151     1.0  0.08640  0.66501  0.44181  1.0000
  C   C1202     1.0  0.08265  0.71273  0.47801  1.0000
  C   C1203     1.0  0.04395  0.69855  0.29947  1.0000
  H   H2152     1.0  0.25471  0.94250  0.48696  1.0000
  S   S287      1.0  0.48508  0.90196  0.24573  1.0000
  H   H2153     1.0  0.07461  0.98790  0.46153  1.0000
  C   C1204     1.0  0.27595  0.98295  0.37835  1.0000
  H   H2154     1.0  0.41778  0.96866  0.28954  1.0000
  H   H2155     1.0  0.38140  0.98427  0.48301  1.0000
  H   H2156     1.0  0.00223  0.75358  0.43389  1.0000
  H   H2157     1.0  0.07981  0.80958  0.47764  1.0000
  C   C1205     1.0  0.16923  0.97474  0.41778  1.0000
  C   C1206     1.0  0.37386  0.95878  0.48332  1.0000
  N   N66       1.0  0.03421  0.67207  0.46254  1.0000
  H   H2158     1.0  0.49445  0.94366  0.28806  1.0000
  H   H2159     1.0  0.19513  0.89354  0.46934  1.0000
  C   C1207     1.0  0.16767  0.96652  0.40667  1.0000
  H   H2160     1.0  0.05432  0.71512  0.32963  1.0000
  H   H2161     1.0  0.01179  0.82713  0.30082  1.0000
  H   H2162     1.0  0.04324  0.70507  0.28814  1.0000
  H   H2163     1.0  0.16925  0.94582  0.47708  1.0000
  C   C1208     1.0  0.17329  0.94978  0.41138  1.0000
  H   H2164     1.0  0.13698  0.84416  0.42103  1.0000
  H   H2165     1.0  0.16080  0.97210  0.42813  1.0000
  H   H2166     1.0  0.18018  0.96940  0.42093  1.0000
  S   S288      1.0  0.44367  0.95216  0.30128  1.0000
  H   H2167     1.0  0.01501  0.80770  0.30939  1.0000
  C   C1209     1.0  0.41193  0.98391  0.36401  1.0000
  H   H2168     1.0  0.38162  0.95734  0.43240  1.0000
  C   C1210     1.0  0.48983  0.98602  0.24073  1.0000
  H   H2169     1.0  0.04477  0.67837  0.29302  1.0000
  H   H2170     1.0  0.19631  0.97545  0.39555  1.0000
  H   H2171     1.0  0.18220  0.85659  0.45999  1.0000
  H   H2172     1.0  0.15570  0.96860  0.40625  1.0000
  H   H2173     1.0  0.17400  0.97032  0.39537  1.0000
  C   C1211     1.0  0.04045  0.74752  0.29534  1.0000
  H   H2174     1.0  0.38354  0.97727  0.31940  1.0000
  H   H2175     1.0  0.03625  0.79293  0.48943  1.0000
  C   C1212     1.0  0.18929  0.85668  0.46737  1.0000
  H   H2176     1.0  0.49890  0.94100  0.26303  1.0000
  H   H2177     1.0  0.09628  0.93469  0.47605  1.0000
  H   H2178     1.0  0.07775  0.94101  0.45789  1.0000
  H   H2179     1.0  0.38469  0.95131  0.47935  1.0000
  H   H2180     1.0  0.02423  0.69827  0.44245  1.0000
  H   H2181     1.0  0.26339  0.97618  0.46396  1.0000
  H   H2182     1.0  0.16702  0.94558  0.42262  1.0000
  H   H2183     1.0  0.17157  0.94413  0.40354  1.0000
  H   H2184     1.0  0.18543  0.94694  0.41140  1.0000
  C   C1213     1.0  0.13648  0.84678  0.45606  1.0000
  C   C1214     1.0  0.27580  0.98286  0.36251  1.0000
  H   H2185     1.0  0.12711  0.85679  0.45588  1.0000
  H   H2186     1.0  0.35616  0.88685  0.37116  1.0000
  C   C1215     1.0  0.03094  0.66304  0.45370  1.0000
  C   C1216     1.0  0.31030  0.95579  0.46801  1.0000
  C   C1217     1.0  0.21711  0.88978  0.45364  1.0000
  C   C1218     1.0  0.05375  0.76422  0.48536  1.0000
  H   H2187     1.0  0.10852  0.74326  0.43044  1.0000
  C   C1219     1.0  0.08828  0.94379  0.45072  1.0000
  H   H2188     1.0  0.00597  0.78630  0.40326  1.0000
  H   H2189     1.0  0.23447  0.97248  0.37018  1.0000
  H   H2190     1.0  0.26067  0.85208  0.43359  1.0000
  H   H2191     1.0  0.08592  0.76374  0.43538  1.0000
  H   H2192     1.0  0.08618  0.93527  0.43286  1.0000
  H   H2193     1.0  0.05118  0.73411  0.32128  1.0000
  S   S289      1.0  0.44922  0.98339  0.31563  1.0000
  H   H2194     1.0  0.12344  0.82384  0.46022  1.0000
  H   H2195     1.0  0.35327  0.98721  0.32780  1.0000
  C   C1220     1.0  0.07250  0.72117  0.31208  1.0000
  C   C1221     1.0  0.07504  0.77517  0.47280  1.0000
  H   H2196     1.0  0.47461  0.95089  0.28905  1.0000
  H   H2197     1.0  0.02932  0.70972  0.32519  1.0000
  H   H2198     1.0  0.23868  0.88232  0.46873  1.0000
  C   C1222     1.0  0.00687  0.73281  0.33417  1.0000
  H   H2199     1.0  0.02981  0.68500  0.39414  1.0000
  C   C1223     1.0  0.00341  0.70819  0.45500  1.0000
  H   H2200     1.0  0.32276  0.88174  0.42222  1.0000
  H   H2201     1.0  0.47407  0.96969  0.26344  1.0000
  C   C1224     1.0  0.48470  0.94325  0.28412  1.0000
  C   C1225     1.0  0.02142  0.68516  0.46518  1.0000
  H   H2202     1.0  0.02608  0.65899  0.48382  1.0000
  C   C1226     1.0  0.12030  0.82404  0.43909  1.0000
  Fe  Fe146     1.0  0.43631  0.97564  0.30415  1.0000
  H   H2203     1.0  0.03779  0.75456  0.27244  1.0000
  H   H2204     1.0  0.40670  0.96467  0.27079  1.0000
  H   H2205     1.0  0.00163  0.80219  0.46645  1.0000
  H   H2206     1.0  0.02895  0.72732  0.33842  1.0000
  H   H2207     1.0  0.32250  0.89610  0.47726  1.0000
  H   H2208     1.0  0.02639  0.76600  0.41391  1.0000
  H   H2209     1.0  0.40777  0.96724  0.40055  1.0000
  H   H2210     1.0  0.26171  0.95844  0.48422  1.0000
  H   H2211     1.0  0.01408  0.79319  0.42924  1.0000
  H   H2212     1.0  0.21262  0.96572  0.36777  1.0000
  H   H2213     1.0  0.39474  0.97350  0.47075  1.0000
  C   C1227     1.0  0.16646  0.98525  0.48823  1.0000
  C   C1228     1.0  0.24771  0.97163  0.34750  1.0000
  H   H2214     1.0  0.24913  0.88210  0.44315  1.0000
  H   H2215     1.0  0.29374  0.97893  0.30939  1.0000
  H   H2216     1.0  0.06521  0.97890  0.48647  1.0000
  H   H2217     1.0  0.30792  0.91883  0.42789  1.0000
  C   C1229     1.0  0.19653  0.91327  0.45293  1.0000
  C   C1230     1.0  0.32821  0.98808  0.48203  1.0000
  H   H2218     1.0  0.00414  0.72179  0.33717  1.0000
  H   H2219     1.0  0.00293  0.73766  0.34415  1.0000
  C   C1231     1.0  0.00623  0.78912  0.42548  1.0000
  C   C1232     1.0  0.05548  0.72292  0.31869  1.0000
  H   H2220     1.0  0.35911  0.95534  0.46226  1.0000
  C   C1233     1.0  0.35482  0.98493  0.33932  1.0000
  C   C1234     1.0  0.28745  0.97032  0.31103  1.0000
  H   H2221     1.0  0.05910  0.75372  0.45883  1.0000
  H   H2222     1.0  0.34792  0.88673  0.40500  1.0000
  C   C1235     1.0  0.08735  0.86426  0.43623  1.0000
  H   H2223     1.0  0.21879  0.98563  0.38901  1.0000
  H   H2224     1.0  0.32376  0.92483  0.42902  1.0000
  H   H2225     1.0  0.05816  0.74107  0.42530  1.0000
  C   C1236     1.0  0.27612  0.94272  0.43336  1.0000
  C   C1237     1.0  0.28330  0.94816  0.41724  1.0000
  H   H2226     1.0  0.27275  0.96398  0.43866  1.0000
  C   C1238     1.0  0.23172  0.92844  0.45506  1.0000
  H   H2227     1.0  0.07599  0.85248  0.45660  1.0000
  H   H2228     1.0  0.07307  0.74473  0.39984  1.0000
  C   C1239     1.0  0.07994  0.72882  0.45272  1.0000
  N   N67       1.0  0.25877  0.95178  0.45658  1.0000
  H   H2229     1.0  0.29173  0.95437  0.41658  1.0000
  H   H2230     1.0  0.28899  0.93854  0.41195  1.0000
  H   H2231     1.0  0.27469  0.95534  0.41100  1.0000
  N   N68       1.0  0.08058  0.83732  0.37246  1.0000
  C   C1240     1.0  0.08540  0.82512  0.38503  1.0000
  C   C1241     1.0  0.07427  0.85158  0.37798  1.0000
  C   C1242     1.0  0.06908  0.83312  0.36731  1.0000
  C   C1243     1.0  0.09356  0.83947  0.35961  1.0000
  C   C1244     1.0  0.10746  0.84174  0.36339  1.0000
  C   C1245     1.0  0.09412  0.80998  0.38098  1.0000
  C   C1246     1.0  0.06180  0.84486  0.35518  1.0000
  C   C1247     1.0  0.05923  0.85249  0.38949  1.0000
  C   C1248     1.0  0.05420  0.86732  0.39432  1.0000
  C   C1249     1.0  0.11994  0.84352  0.34960  1.0000
  C   C1250     1.0  0.10008  0.79919  0.39410  1.0000
  C   C1251     1.0  0.04919  0.83995  0.35221  1.0000
  H   H2232     1.0  0.07543  0.82282  0.39371  1.0000
  H   H2233     1.0  0.09217  0.82867  0.39065  1.0000
  H   H2234     1.0  0.08232  0.85354  0.38334  1.0000
  H   H2235     1.0  0.07283  0.86126  0.36861  1.0000
  H   H2236     1.0  0.06001  0.83015  0.37681  1.0000
  H   H2237     1.0  0.07407  0.82289  0.36280  1.0000
  H   H2238     1.0  0.09716  0.83006  0.35382  1.0000
  H   H2239     1.0  0.09001  0.84937  0.35108  1.0000
  H   H2240     1.0  0.11205  0.83219  0.37162  1.0000
  H   H2241     1.0  0.10458  0.85187  0.36794  1.0000
  H   H2242     1.0  0.08669  0.80487  0.37783  1.0000
  H   H2243     1.0  0.10387  0.81105  0.37169  1.0000
  H   H2244     1.0  0.07019  0.84642  0.34465  1.0000
  H   H2245     1.0  0.05694  0.85570  0.35845  1.0000
  H   H2246     1.0  0.05018  0.85145  0.38490  1.0000
  H   H2247     1.0  0.06038  0.84362  0.39950  1.0000
  H   H2248     1.0  0.06239  0.86851  0.39997  1.0000
  H   H2249     1.0  0.05295  0.87667  0.38466  1.0000
  H   H2250     1.0  0.04320  0.86790  0.40220  1.0000
  H   H2251     1.0  0.12972  0.84518  0.35258  1.0000
  H   H2252     1.0  0.12358  0.83344  0.34484  1.0000
  H   H2253     1.0  0.11611  0.85329  0.34112  1.0000
  H   H2254     1.0  0.10831  0.80341  0.39710  1.0000
  H   H2255     1.0  0.09084  0.79755  0.40386  1.0000
  H   H2256     1.0  0.10570  0.78828  0.39111  1.0000
  H   H2257     1.0  0.04439  0.84828  0.34321  1.0000
  H   H2258     1.0  0.05345  0.82911  0.34879  1.0000
  H   H2259     1.0  0.04014  0.83892  0.36230  1.0000
  H   H2260     1.0  0.48440  0.97904  0.32472  1.0000
  H   H2261     1.0  0.28622  0.97508  0.35833  1.0000
  C   C1252     1.0  0.36093  0.90716  0.35701  1.0000
  C   C1253     1.0  0.15101  0.82642  0.44358  1.0000
  C   C1254     1.0  0.05138  0.68250  0.29827  1.0000
  N   N69       1.0  0.07715  0.74395  0.44275  1.0000
  S   S290      1.0  0.21915  0.94488  0.48861  1.0000
  H   H2262     1.0  0.34598  0.87600  0.39370  1.0000
  C   C1255     1.0  0.08100  0.80470  0.48922  1.0000
  H   H2263     1.0  0.22606  0.98569  0.35558  1.0000
  S   S291      1.0  0.04398  0.71726  0.45299  1.0000
  C   C1256     1.0  0.04770  0.68626  0.34968  1.0000
  H   H2264     1.0  0.29828  0.98661  0.42250  1.0000
  H   H2265     1.0  0.47549  0.98189  0.29255  1.0000
  S   S292      1.0  0.08346  0.78785  0.45843  1.0000
  C   C1257     1.0  0.33941  0.88379  0.40107  1.0000
  H   H2266     1.0  0.32609  0.91314  0.47823  1.0000
  H   H2267     1.0  0.31111  0.90312  0.40972  1.0000
  H   H2268     1.0  0.07468  0.72823  0.30086  1.0000
  C   C1258     1.0  0.08366  0.76448  0.48211  1.0000
  H   H2269     1.0  0.33224  0.98787  0.44506  1.0000
  H   H2270     1.0  0.37848  0.94635  0.45946  1.0000
  C   C1259     1.0  0.32866  0.91161  0.41253  1.0000
  C   C1260     1.0  0.03054  0.69046  0.40265  1.0000
  C   C1261     1.0  0.10533  0.81942  0.44507  1.0000
  C   C1262     1.0  0.25009  0.87004  0.44545  1.0000
  H   H2271     1.0  0.30154  0.87367  0.46978  1.0000
  H   H2272     1.0  0.12908  0.81374  0.43824  1.0000
  H   H2273     1.0  0.12335  0.83612  0.47672  1.0000
  C   C1263     1.0  0.19215  0.94610  0.46726  1.0000
  N   N70       1.0  0.04636  0.72018  0.30950  1.0000
  H   H2274     1.0  0.05534  0.75610  0.27515  1.0000
  H   H2275     1.0  0.03727  0.77440  0.45526  1.0000
  C   C1264     1.0  0.01055  0.81908  0.31156  1.0000
  H   H2276     1.0  0.39872  0.98286  0.34953  1.0000
  H   H2277     1.0  0.31533  0.91612  0.45680  1.0000
  C   C1265     1.0  0.08677  0.98679  0.46022  1.0000
  H   H2278     1.0  0.11098  0.94436  0.46972  1.0000
  C   C1266     1.0  0.09931  0.94491  0.47634  1.0000
  H   H2279     1.0  0.24299  0.94429  0.43908  1.0000
  C   C1267     1.0  0.09090  0.95792  0.45349  1.0000
  C   C1268     1.0  0.29484  0.88130  0.44880  1.0000
  Fe  Fe147     1.0  0.03859  0.83071  0.45391  1.0000
  H   H2280     1.0  0.10233  0.95898  0.44723  1.0000
  H   H2281     1.0  0.24378  0.85234  0.47585  1.0000
  H   H2282     1.0  0.33277  0.90168  0.42066  1.0000
  C   C1269     1.0  0.06006  0.77508  0.47452  1.0000
  C   C1270     1.0  0.34982  0.89828  0.36752  1.0000
  H   H2283     1.0  0.06291  0.68164  0.29141  1.0000
  C   C1271     1.0  0.43658  0.95020  0.28712  1.0000
  C   C1272     1.0  0.27197  0.97415  0.32093  1.0000
  H   H2284     1.0  0.24057  0.96214  0.47221  1.0000
  H   H2285     1.0  0.04322  0.67219  0.33818  1.0000
  H   H2286     1.0  0.25885  0.90402  0.46964  1.0000
  C   C1273     1.0  0.08748  0.94573  0.43462  1.0000
  H   H2287     1.0  0.31539  0.91828  0.39580  1.0000
  Fe  Fe148     1.0  0.06747  0.80781  0.44851  1.0000
  S   S293      1.0  0.10562  0.88155  0.46631  1.0000
  H   H2288     1.0  0.30313  0.92735  0.46939  1.0000
  H   H2289     1.0  0.02561  0.74278  0.32368  1.0000
  C   C1274     1.0  0.34130  0.90553  0.38093  1.0000
  C   C1275     1.0  0.23722  0.86045  0.48280  1.0000
  H   H2290     1.0  0.08551  0.73498  0.47087  1.0000
  C   C1276     1.0  0.04139  0.66968  0.48732  1.0000
  C   C1277     1.0  0.17042  0.80780  0.42980  1.0000
  H   H2291     1.0  0.35504  0.91876  0.35308  1.0000
  C   C1278     1.0  0.23451  0.86615  0.45051  1.0000
  H   H2292     1.0  0.09793  0.94837  0.42706  1.0000
  H   H2293     1.0  0.09773  0.93424  0.45290  1.0000
  N   N71       1.0  0.37178  0.97328  0.47217  1.0000
  H   H2294     1.0  0.11292  0.84107  0.45194  1.0000
  Fe  Fe149     1.0  0.03303  0.72364  0.47472  1.0000
  C   C1279     1.0  0.30800  0.91579  0.46800  1.0000
  H   H2295     1.0  0.33831  0.91634  0.40584  1.0000
  H   H2296     1.0  0.00983  0.80362  0.48794  1.0000
  C   C1280     1.0  0.23019  0.87546  0.47353  1.0000
  C   C1281     1.0  0.31614  0.95180  0.48083  1.0000
  H   H2297     1.0  0.06653  0.73314  0.47435  1.0000
  C   C1282     1.0  0.13490  0.83786  0.47228  1.0000
  H   H2298     1.0  0.23816  0.98494  0.47967  1.0000
  H   H2299     1.0  0.03213  0.76660  0.44270  1.0000
  C   C1283     1.0  0.05574  0.76699  0.43772  1.0000
  C   C1284     1.0  0.07437  0.73353  0.40708  1.0000
  H   H2300     1.0  0.39563  0.97315  0.24304  1.0000
  H   H2301     1.0  0.48800  0.98864  0.33661  1.0000
  C   C1285     1.0  0.08709  0.75317  0.44377  1.0000
  S   S294      1.0  0.13067  0.94412  0.42896  1.0000
  H   H2302     1.0  0.34990  0.90699  0.38592  1.0000
  C   C1286     1.0  0.14770  0.86810  0.40916  1.0000
  S   S295      1.0  0.14670  0.88151  0.46559  1.0000
  H   H2303     1.0  0.12490  0.75115  0.44111  1.0000
  C   C1287     1.0  0.03834  0.68046  0.34487  1.0000
  C   C1288     1.0  0.25130  0.93908  0.45957  1.0000
  H   H2304     1.0  0.09215  0.98727  0.44833  1.0000
  C   C1289     1.0  0.17722  0.95246  0.47668  1.0000
  H   H2305     1.0  0.16609  0.79831  0.43749  1.0000
  H   H2306     1.0  0.21151  0.97655  0.48045  1.0000
  H   H2307     1.0  0.31777  0.91314  0.36844  1.0000
  H   H2308     1.0  0.19215  0.91010  0.44494  1.0000
  C   C1290     1.0  0.08332  0.86005  0.45164  1.0000
  H   H2309     1.0  0.14541  0.95586  0.46860  1.0000
  H   H2310     1.0  0.37024  0.98616  0.25684  1.0000
  H   H2311     1.0  0.25340  0.86959  0.42216  1.0000
  H   H2312     1.0  0.39276  0.97237  0.30182  1.0000
  H   H2313     1.0  0.10911  0.75895  0.45417  1.0000
  S   S296      1.0  0.06155  0.82837  0.45747  1.0000
  H   H2314     1.0  0.07380  0.67947  0.43188  1.0000
  C   C1291     1.0  0.02280  0.68582  0.34801  1.0000
  H   H2315     1.0  0.26962  0.93483  0.43337  1.0000
  H   H2316     1.0  0.19676  0.93451  0.47258  1.0000
  H   H2317     1.0  0.14315  0.93888  0.45467  1.0000
  C   C1292     1.0  0.25913  0.86427  0.43156  1.0000
  C   C1293     1.0  0.12308  0.83211  0.44964  1.0000
  C   C1294     1.0  0.06108  0.75171  0.44754  1.0000
  S   S297      1.0  0.28644  0.89119  0.42227  1.0000
  H   H2318     1.0  0.34029  0.93929  0.44479  1.0000
  H   H2319     1.0  0.09117  0.72210  0.44858  1.0000
  H   H2320     1.0  0.36197  0.96643  0.43525  1.0000
  H   H2321     1.0  0.06240  0.65807  0.44584  1.0000
  C   C1295     1.0  0.20084  0.86588  0.45884  1.0000
  H   H2322     1.0  0.09243  0.72330  0.31734  1.0000
  Fe  Fe150     1.0  0.13722  0.92028  0.44059  1.0000
  C   C1296     1.0  0.09842  0.87542  0.45447  1.0000
  H   H2323     1.0  0.26236  0.90535  0.44269  1.0000
  Fe  Fe151     1.0  0.14706  0.90352  0.46894  1.0000
  H   H2324     1.0  0.20814  0.90315  0.47074  1.0000
  H   H2325     1.0  0.34778  0.85452  0.41604  1.0000
  N   N72       1.0  0.33050  0.89739  0.39255  1.0000
  H   H2326     1.0  0.33553  0.91703  0.37653  1.0000
  H   H2327     1.0  0.04036  0.72846  0.28816  1.0000
  C   C1297     1.0  0.37441  0.97048  0.45678  1.0000
  C   C1298     1.0  0.34035  0.86219  0.42320  1.0000
  H   H2328     1.0  0.29890  0.91038  0.46873  1.0000
  H   H2329     1.0  0.21263  0.98338  0.44331  1.0000
  H   H2330     1.0  0.37355  0.97136  0.30946  1.0000
  H   H2331     1.0  0.03242  0.69864  0.30609  1.0000
  H   H2332     1.0  0.17315  0.96401  0.47100  1.0000
  H   H2333     1.0  0.06530  0.96445  0.46925  1.0000
  H   H2334     1.0  0.25717  0.96153  0.43380  1.0000
  C   C1299     1.0  0.10405  0.74593  0.44157  1.0000
  S   S298      1.0  0.15990  0.91072  0.44602  1.0000
  H   H2335     1.0  0.26581  0.98499  0.31549  1.0000
  C   C1300     1.0  0.08049  0.74215  0.42698  1.0000
  S   S299      1.0  0.31119  0.95589  0.43928  1.0000
  H   H2336     1.0  0.27729  0.93558  0.46454  1.0000
  H   H2337     1.0  0.00989  0.68815  0.44713  1.0000
  H   H2338     1.0  0.03692  0.68212  0.41052  1.0000
  C   C1301     1.0  0.32069  0.90769  0.40250  1.0000
  H   H2339     1.0  0.28516  0.93667  0.43946  1.0000
  H   H2340     1.0  0.10637  0.73564  0.45003  1.0000
  S   S300      1.0  0.02960  0.74581  0.47973  1.0000
  H   H2341     1.0  0.14942  0.81946  0.42389  1.0000
  H   H2342     1.0  0.29998  0.88982  0.37228  1.0000
  H   H2343     1.0  0.31478  0.93362  0.41370  1.0000
  C   C1302     1.0  0.34283  0.97704  0.47762  1.0000
  H   H2344     1.0  0.08049  0.75302  0.41913  1.0000
  H   H2345     1.0  0.07194  0.72252  0.45250  1.0000
  H   H2346     1.0  0.20034  0.95287  0.46574  1.0000
  H   H2347     1.0  0.19054  0.94612  0.45624  1.0000
  H   H2348     1.0  0.00681  0.77749  0.43175  1.0000
  H   H2349     1.0  0.10368  0.81342  0.43749  1.0000
  S   S301      1.0  0.00975  0.72158  0.48542  1.0000
  H   H2350     1.0  0.23000  0.86806  0.44041  1.0000
  H   H2351     1.0  0.30142  0.91097  0.38268  1.0000
  C   C1303     1.0  0.33357  0.94285  0.45479  1.0000
  H   H2352     1.0  0.28868  0.98649  0.45394  1.0000
  C   C1304     1.0  0.06993  0.73467  0.42330  1.0000
  C   C1305     1.0  0.26880  0.89760  0.46390  1.0000
  C   C1306     1.0  0.31137  0.90498  0.37569  1.0000
  H   H2353     1.0  0.06699  0.72763  0.40492  1.0000
  H   H2354     1.0  0.07612  0.73763  0.32160  1.0000
  C   C1307     1.0  0.04316  0.75737  0.27990  1.0000
  H   H2355     1.0  0.07572  0.70575  0.47687  1.0000
  H   H2356     1.0  0.14685  0.85100  0.45338  1.0000
  H   H2357     1.0  0.02485  0.69282  0.46979  1.0000
  C   C1308     1.0  0.37025  0.95646  0.45554  1.0000
  H   H2358     1.0  0.22944  0.95110  0.45437  1.0000
  C   C1309     1.0  0.26589  0.95579  0.44042  1.0000
  H   H2359     1.0  0.27453  0.97219  0.38583  1.0000
  H   H2360     1.0  0.22034  0.96556  0.34844  1.0000
  H   H2361     1.0  0.08567  0.86227  0.47260  1.0000
  H   H2362     1.0  0.29898  0.96224  0.46824  1.0000
  H   H2363     1.0  0.16014  0.82977  0.44615  1.0000
  H   H2364     1.0  0.05178  0.67534  0.30944  1.0000
  H   H2365     1.0  0.14931  0.84788  0.47878  1.0000
  C   C1310     1.0  0.05307  0.70473  0.30661  1.0000
  C   C1311     1.0  0.31901  0.95141  0.45495  1.0000
  C   C1312     1.0  0.38344  0.98114  0.47217  1.0000
  H   H2366     1.0  0.33341  0.85583  0.43261  1.0000
  S   S302      1.0  0.41395  0.98526  0.31709  1.0000
  C   C1313     1.0  0.30598  0.89861  0.36567  1.0000
  C   C1314     1.0  0.02804  0.77706  0.40752  1.0000
  H   H2367     1.0  0.29823  0.90751  0.35955  1.0000
  H   H2368     1.0  0.11100  0.76695  0.43461  1.0000
  H   H2369     1.0  0.35035  0.93148  0.46768  1.0000
  C   C1315     1.0  0.33922  0.93842  0.46775  1.0000
  Fe  Fe152     1.0  0.12521  0.89282  0.45788  1.0000
  H   H2370     1.0  0.38650  0.96909  0.45129  1.0000
  H   H2371     1.0  0.21351  0.88938  0.44369  1.0000
  H   H2372     1.0  0.03253  0.77626  0.39581  1.0000
  H   H2373     1.0  0.12461  0.85710  0.43103  1.0000
  C   C1316     1.0  0.14731  0.85957  0.42512  1.0000
  C   C1317     1.0  0.20399  0.89949  0.46290  1.0000
  H   H2374     1.0  0.49668  0.99089  0.25890  1.0000
  C   C1318     1.0  0.31806  0.92290  0.42131  1.0000
  H   H2375     1.0  0.18697  0.91981  0.45977  1.0000
  H   H2376     1.0  0.17940  0.80972  0.43389  1.0000
  H   H2377     1.0  0.16265  0.83058  0.42019  1.0000
  C   C1319     1.0  0.19563  0.98543  0.39959  1.0000
  H   H2378     1.0  0.28682  0.94240  0.48738  1.0000
  H   H2379     1.0  0.01726  0.82089  0.31844  1.0000
  H   H2380     1.0  0.04874  0.81562  0.48854  1.0000
  H   H2381     1.0  0.00154  0.74347  0.27345  1.0000
  H   H2382     1.0  0.00053  0.80966  0.33993  1.0000
  H   H2383     1.0  0.99990  0.78904  0.35762  1.0000
  C   C1320     1.0  0.42158  0.98865  0.24003  1.0000
  H   H2384     1.0  0.00076  0.76551  0.34786  1.0000
  H   H2385     1.0  0.35884  0.99080  0.28219  1.0000
  H   H2386     1.0  0.43271  0.95841  0.65423  1.0000
  H   H2387     1.0  0.33160  0.91314  0.59590  1.0000
  C   C1321     1.0  0.39051  0.96295  0.68645  1.0000
  C   C1322     1.0  0.49937  0.89711  0.71160  1.0000
  H   H2388     1.0  0.38492  0.97068  0.67773  1.0000
  H   H2389     1.0  0.39136  0.94126  0.69977  1.0000
  C   C1323     1.0  0.17226  0.88543  0.49678  1.0000
  S   S303      1.0  0.38716  0.92547  0.63935  1.0000
  Fe  Fe153     1.0  0.38829  0.94962  0.63280  1.0000
  H   H2390     1.0  0.31248  0.98624  0.57334  1.0000
  Fe  Fe154     1.0  0.33336  0.95451  0.54302  1.0000
  S   S304      1.0  0.33527  0.96637  0.51927  1.0000
  S   S305      1.0  0.35206  0.94713  0.55572  1.0000
  Fe  Fe155     1.0  0.30283  0.94918  0.54455  1.0000
  S   S306      1.0  0.30208  0.96059  0.52100  1.0000
  S   S307      1.0  0.28530  0.93912  0.56192  1.0000
  Fe  Fe156     1.0  0.32624  0.94868  0.51595  1.0000
  H   H2391     1.0  0.29708  0.90326  0.49527  1.0000
  Fe  Fe157     1.0  0.31112  0.97738  0.52607  1.0000
  C   C1324     1.0  0.19321  0.88605  0.50636  1.0000
  S   S308      1.0  0.32620  0.93577  0.53921  1.0000
  S   S309      1.0  0.30984  0.96706  0.55015  1.0000
  S   S310      1.0  0.42383  0.91190  0.69876  1.0000
  S   S311      1.0  0.39769  0.88721  0.70238  1.0000
  Fe  Fe158     1.0  0.44472  0.89761  0.70551  1.0000
  S   S312      1.0  0.46546  0.89166  0.68863  1.0000
  Fe  Fe159     1.0  0.22291  0.89171  0.51448  1.0000
  C   C1325     1.0  0.35890  0.93529  0.61390  1.0000
  S   S313      1.0  0.20869  0.87663  0.51446  1.0000
  Fe  Fe160     1.0  0.23699  0.90594  0.53040  1.0000
  H   H2392     1.0  0.18249  0.93946  0.49712  1.0000
  S   S314      1.0  0.23898  0.90847  0.55233  1.0000
  Fe  Fe161     1.0  0.01870  0.70996  0.50578  1.0000
  C   C1326     1.0  0.44753  0.95925  0.69480  1.0000
  H   H2393     1.0  0.15612  0.95440  0.52670  1.0000
  H   H2394     1.0  0.36699  0.90475  0.71389  1.0000
  S   S315      1.0  0.21482  0.91236  0.52363  1.0000
  S   S316      1.0  0.24389  0.88405  0.52350  1.0000
  H   H2395     1.0  0.32282  0.96981  0.68119  1.0000
  H   H2396     1.0  0.22183  0.98837  0.57297  1.0000
  C   C1327     1.0  0.47813  0.93024  0.67915  1.0000
  C   C1328     1.0  0.34440  0.94479  0.60935  1.0000
  H   H2397     1.0  0.49108  0.89934  0.70462  1.0000
  Fe  Fe162     1.0  0.41327  0.89336  0.71250  1.0000
  H   H2398     1.0  0.31149  0.91621  0.60246  1.0000
  H   H2399     1.0  0.30861  0.91863  0.57693  1.0000
  H   H2400     1.0  0.41295  0.92420  0.61362  1.0000
  S   S317      1.0  0.05483  0.73926  0.50763  1.0000
  S   S318      1.0  0.43057  0.97391  0.62426  1.0000
  C   C1329     1.0  0.46585  0.98958  0.59731  1.0000
  H   H2401     1.0  0.18093  0.95688  0.52627  1.0000
  H   H2402     1.0  0.20968  0.98350  0.56430  1.0000
  H   H2403     1.0  0.23671  0.98019  0.52124  1.0000
  H   H2404     1.0  0.43321  0.93236  0.66870  1.0000
  H   H2405     1.0  0.03374  0.78999  0.53109  1.0000
  S   S319      1.0  0.40202  0.95816  0.61065  1.0000
  H   H2406     1.0  0.46449  0.97148  0.68405  1.0000
  H   H2407     1.0  0.18941  0.93382  0.54321  1.0000
  H   H2408     1.0  0.44113  0.96681  0.70237  1.0000
  C   C1330     1.0  0.43407  0.92545  0.61740  1.0000
  C   C1331     1.0  0.42477  0.97589  0.72844  1.0000
  C   C1332     1.0  0.17972  0.94647  0.52435  1.0000
  H   H2409     1.0  0.12293  0.96930  0.49213  1.0000
  C   C1333     1.0  0.48162  0.89681  0.62466  1.0000
  C   C1334     1.0  0.45799  0.91331  0.63623  1.0000
  C   C1335     1.0  0.33468  0.97054  0.67878  1.0000
  C   C1336     1.0  0.21103  0.97333  0.49224  1.0000
  H   H2410     1.0  0.17718  0.97340  0.50611  1.0000
  H   H2411     1.0  0.41101  0.97037  0.67562  1.0000
  H   H2412     1.0  0.33767  0.96005  0.70092  1.0000
  C   C1337     1.0  0.37308  0.94494  0.51006  1.0000
  C   C1338     1.0  0.31954  0.91332  0.58017  1.0000
  H   H2413     1.0  0.45547  0.95027  0.70060  1.0000
  H   H2414     1.0  0.46554  0.88942  0.64363  1.0000
  H   H2415     1.0  0.43505  0.90366  0.63108  1.0000
  C   C1339     1.0  0.11236  0.93055  0.49735  1.0000
  H   H2416     1.0  0.45942  0.89471  0.62626  1.0000
  H   H2417     1.0  0.17863  0.92440  0.53773  1.0000
  H   H2418     1.0  0.29614  0.96723  0.60080  1.0000
  H   H2419     1.0  0.44586  0.92365  0.61124  1.0000
  H   H2420     1.0  0.46045  0.92163  0.62588  1.0000
  C   C1340     1.0  0.34299  0.95838  0.68952  1.0000
  C   C1341     1.0  0.25865  0.98156  0.56159  1.0000
  H   H2421     1.0  0.35390  0.95340  0.71930  1.0000
  C   C1342     1.0  0.45367  0.98289  0.58187  1.0000
  H   H2422     1.0  0.29304  0.92379  0.63579  1.0000
  H   H2423     1.0  0.16330  0.93827  0.51898  1.0000
  C   C1343     1.0  0.35520  0.98198  0.57026  1.0000
  C   C1344     1.0  0.48655  0.92007  0.65709  1.0000
  H   H2424     1.0  0.43967  0.95430  0.69211  1.0000
  H   H2425     1.0  0.13572  0.97897  0.50593  1.0000
  C   C1345     1.0  0.41157  0.98022  0.72321  1.0000
  H   H2426     1.0  0.33495  0.98162  0.67993  1.0000
  S   S320      1.0  0.49842  0.98927  0.69666  1.0000
  H   H2427     1.0  0.00847  0.66163  0.51242  1.0000
  S   S321      1.0  0.04249  0.71060  0.49443  1.0000
  C   C1346     1.0  0.20891  0.96495  0.52283  1.0000
  C   C1347     1.0  0.21402  0.95419  0.51424  1.0000
  C   C1348     1.0  0.32045  0.95949  0.59281  1.0000
  H   H2428     1.0  0.36528  0.98024  0.69823  1.0000
  H   H2429     1.0  0.20758  0.96163  0.53471  1.0000
  H   H2430     1.0  0.21687  0.94265  0.51951  1.0000
  C   C1349     1.0  0.44172  0.93456  0.65836  1.0000
  H   H2431     1.0  0.34032  0.92500  0.60624  1.0000
  C   C1350     1.0  0.43684  0.93203  0.64523  1.0000
  H   H2432     1.0  0.38468  0.96226  0.49919  1.0000
  S   S322      1.0  0.01187  0.68847  0.51783  1.0000
  C   C1351     1.0  0.44329  0.98008  0.60824  1.0000
  H   H2433     1.0  0.30611  0.91529  0.64778  1.0000
  H   H2434     1.0  0.06688  0.78107  0.51575  1.0000
  H   H2435     1.0  0.40999  0.95387  0.67086  1.0000
  C   C1352     1.0  0.16533  0.94928  0.51844  1.0000
  C   C1353     1.0  0.27304  0.93064  0.55814  1.0000
  C   C1354     1.0  0.27192  0.93110  0.54375  1.0000
  C   C1355     1.0  0.26142  0.92447  0.54163  1.0000
  C   C1356     1.0  0.25221  0.91727  0.55389  1.0000
  C   C1357     1.0  0.25344  0.91695  0.56814  1.0000
  C   C1358     1.0  0.26373  0.92360  0.57025  1.0000
  H   H2436     1.0  0.27900  0.93663  0.53434  1.0000
  H   H2437     1.0  0.26047  0.92490  0.53059  1.0000
  H   H2438     1.0  0.24636  0.91149  0.57764  1.0000
  H   H2439     1.0  0.26447  0.92327  0.58137  1.0000
  H   H2440     1.0  0.34575  0.93727  0.58968  1.0000
  C   C1359     1.0  0.37357  0.92412  0.71537  1.0000
  H   H2441     1.0  0.42443  0.93603  0.64716  1.0000
  H   H2442     1.0  0.47091  0.90644  0.72347  1.0000
  H   H2443     1.0  0.00396  0.79241  0.50598  1.0000
  C   C1360     1.0  0.48768  0.87860  0.73163  1.0000
  H   H2444     1.0  0.32872  0.91556  0.57047  1.0000
  H   H2445     1.0  0.32509  0.92777  0.63048  1.0000
  H   H2446     1.0  0.02123  0.84645  0.52646  1.0000
  H   H2447     1.0  0.29890  0.93505  0.64452  1.0000
  C   C1361     1.0  0.36583  0.97534  0.57917  1.0000
  C   C1362     1.0  0.07732  0.75367  0.49302  1.0000
  C   C1363     1.0  0.35102  0.97357  0.56279  1.0000
  C   C1364     1.0  0.35756  0.95845  0.56406  1.0000
  C   C1365     1.0  0.36843  0.95189  0.57271  1.0000
  C   C1366     1.0  0.37247  0.96026  0.58032  1.0000
  N   N73       1.0  0.44147  0.91628  0.64302  1.0000
  H   H2448     1.0  0.04436  0.76306  0.53624  1.0000
  H   H2449     1.0  0.37361  0.94022  0.57369  1.0000
  H   H2450     1.0  0.38077  0.95507  0.58702  1.0000
  C   C1367     1.0  0.39474  0.89813  0.68490  1.0000
  C   C1368     1.0  0.38982  0.89234  0.67568  1.0000
  C   C1369     1.0  0.38755  0.90078  0.66171  1.0000
  C   C1370     1.0  0.39010  0.91511  0.65688  1.0000
  C   C1371     1.0  0.39503  0.92089  0.66602  1.0000
  C   C1372     1.0  0.39717  0.91250  0.68003  1.0000
  H   H2451     1.0  0.38783  0.88128  0.67931  1.0000
  H   H2452     1.0  0.38377  0.89620  0.65466  1.0000
  H   H2453     1.0  0.39721  0.93183  0.66224  1.0000
  H   H2454     1.0  0.40032  0.91736  0.68713  1.0000
  H   H2455     1.0  0.30935  0.95530  0.49082  1.0000
  H   H2456     1.0  0.36802  0.97927  0.72307  1.0000
  C   C1373     1.0  0.31906  0.88033  0.50475  1.0000
  H   H2457     1.0  0.37298  0.92969  0.72428  1.0000
  C   C1374     1.0  0.43820  0.90605  0.65798  1.0000
  H   H2458     1.0  0.05289  0.77596  0.51048  1.0000
  H   H2459     1.0  0.36826  0.92911  0.69371  1.0000
  C   C1375     1.0  0.48069  0.92079  0.72944  1.0000
  C   C1376     1.0  0.47365  0.86201  0.72705  1.0000
  H   H2460     1.0  0.13519  0.96247  0.52025  1.0000
  H   H2461     1.0  0.16927  0.93932  0.54750  1.0000
  H   H2462     1.0  0.48610  0.87607  0.70999  1.0000
  H   H2463     1.0  0.30013  0.94161  0.61266  1.0000
  H   H2464     1.0  0.06391  0.75623  0.52918  1.0000
  H   H2465     1.0  0.36746  0.93223  0.60411  1.0000
  H   H2466     1.0  0.43815  0.97560  0.66939  1.0000
  H   H2467     1.0  0.09066  0.80781  0.49091  1.0000
  H   H2468     1.0  0.41358  0.95290  0.68865  1.0000
  C   C1377     1.0  0.32672  0.85242  0.51334  1.0000
  C   C1378     1.0  0.44331  0.95035  0.65596  1.0000
  C   C1379     1.0  0.24760  0.86240  0.49139  1.0000
  C   C1380     1.0  0.47167  0.91819  0.68671  1.0000
  H   H2469     1.0  0.46705  0.95235  0.61237  1.0000
  C   C1381     1.0  0.04407  0.79334  0.52387  1.0000
  C   C1382     1.0  0.15100  0.95899  0.49906  1.0000
  H   H2470     1.0  0.43720  0.98679  0.68154  1.0000
  H   H2471     1.0  0.46570  0.91759  0.69809  1.0000
  C   C1383     1.0  0.35994  0.95816  0.68574  1.0000
  H   H2472     1.0  0.48216  0.90462  0.61373  1.0000
  Fe  Fe163     1.0  0.25432  0.89668  0.50174  1.0000
  H   H2473     1.0  0.42812  0.91157  0.66525  1.0000
  C   C1384     1.0  0.05545  0.76598  0.53261  1.0000
  H   H2474     1.0  0.11131  0.91995  0.49570  1.0000
  H   H2475     1.0  0.11226  0.97115  0.51040  1.0000
  C   C1385     1.0  0.41226  0.95465  0.72449  1.0000
  C   C1386     1.0  0.42515  0.95015  0.73033  1.0000
  H   H2476     1.0  0.04901  0.79674  0.53132  1.0000
  H   H2477     1.0  0.35319  0.93525  0.70790  1.0000
  C   C1387     1.0  0.43473  0.89113  0.65839  1.0000
  C   C1388     1.0  0.17914  0.93532  0.53911  1.0000
  H   H2478     1.0  0.48679  0.92495  0.71816  1.0000
  H   H2479     1.0  0.34148  0.94762  0.68870  1.0000
  C   C1389     1.0  0.38473  0.94856  0.69168  1.0000
  H   H2480     1.0  0.02280  0.81305  0.53842  1.0000
  H   H2481     1.0  0.30789  0.86646  0.52448  1.0000
  C   C1390     1.0  0.28782  0.89384  0.52310  1.0000
  H   H2482     1.0  0.44264  0.88528  0.64993  1.0000
  H   H2483     1.0  0.45250  0.92717  0.66036  1.0000
  H   H2484     1.0  0.25703  0.98404  0.53298  1.0000
  H   H2485     1.0  0.28599  0.87706  0.54354  1.0000
  H   H2486     1.0  0.44121  0.93968  0.63498  1.0000
  N   N74       1.0  0.32221  0.94314  0.59960  1.0000
  C   C1391     1.0  0.36531  0.93469  0.70324  1.0000
  C   C1392     1.0  0.13628  0.96691  0.50821  1.0000
  H   H2487     1.0  0.43364  0.97482  0.59305  1.0000
  C   C1393     1.0  0.25903  0.97662  0.50810  1.0000
  S   S323      1.0  0.40401  0.94197  0.72164  1.0000
  H   H2488     1.0  0.47742  0.93876  0.68480  1.0000
  H   H2489     1.0  0.26772  0.98169  0.55149  1.0000
  C   C1394     1.0  0.40538  0.96964  0.72115  1.0000
  H   H2490     1.0  0.36470  0.96836  0.50330  1.0000
  N   N75       1.0  0.49217  0.89323  0.72778  1.0000
  H   H2491     1.0  0.08900  0.94066  0.49995  1.0000
  H   H2492     1.0  0.30725  0.98950  0.59196  1.0000
  C   C1395     1.0  0.99999  0.68524  0.50849  1.0000
  H   H2493     1.0  0.30096  0.90805  0.52466  1.0000
  C   C1396     1.0  0.46534  0.98819  0.58336  1.0000
  H   H2494     1.0  0.46215  0.96015  0.67335  1.0000
  H   H2495     1.0  0.46555  0.86228  0.73782  1.0000
  H   H2496     1.0  0.07373  0.96301  0.49854  1.0000
  H   H2497     1.0  0.33034  0.89016  0.53103  1.0000
  H   H2498     1.0  0.04610  0.82153  0.52033  1.0000
  C   C1397     1.0  0.28002  0.88841  0.53903  1.0000
  H   H2499     1.0  0.48698  0.97914  0.62419  1.0000
  H   H2500     1.0  0.26991  0.96845  0.50814  1.0000
  H   H2501     1.0  0.46435  0.91493  0.64350  1.0000
  C   C1398     1.0  0.46674  0.98420  0.65177  1.0000
  H   H2502     1.0  0.33615  0.94752  0.61941  1.0000
  H   H2503     1.0  0.46513  0.97526  0.64744  1.0000
  H   H2504     1.0  0.22461  0.99025  0.53990  1.0000
  S   S324      1.0  0.39570  0.96186  0.64521  1.0000
  H   H2505     1.0  0.44614  0.95148  0.66592  1.0000
  H   H2506     1.0  0.49255  0.93885  0.60308  1.0000
  H   H2507     1.0  0.30723  0.94065  0.58742  1.0000
  H   H2508     1.0  0.15755  0.97865  0.51184  1.0000
  H   H2509     1.0  0.32556  0.86801  0.52609  1.0000
  H   H2510     1.0  0.43031  0.93851  0.73319  1.0000
  H   H2511     1.0  0.45243  0.95280  0.64630  1.0000
  H   H2512     1.0  0.44754  0.90365  0.66380  1.0000
  S   S325      1.0  0.43470  0.87836  0.71811  1.0000
  C   C1399     1.0  0.48961  0.98559  0.63072  1.0000
  H   H2513     1.0  0.38804  0.94312  0.68212  1.0000
  C   C1400     1.0  0.33724  0.89182  0.51965  1.0000
  C   C1401     1.0  0.05537  0.77920  0.51954  1.0000
  H   H2514     1.0  0.19585  0.90781  0.50526  1.0000
  H   H2515     1.0  0.12236  0.95308  0.50695  1.0000
  S   S326      1.0  0.24907  0.91786  0.50937  1.0000
  Fe  Fe164     1.0  0.40796  0.97189  0.62286  1.0000
  C   C1402     1.0  0.31135  0.94121  0.61435  1.0000
  C   C1403     1.0  0.43239  0.91507  0.63294  1.0000
  C   C1404     1.0  0.16654  0.97394  0.50311  1.0000
  H   H2516     1.0  0.35686  0.92506  0.62210  1.0000
  C   C1405     1.0  0.47329  0.90680  0.67958  1.0000
  C   C1406     1.0  0.00100  0.67090  0.50701  1.0000
  H   H2517     1.0  0.42028  0.91734  0.63837  1.0000
  H   H2518     1.0  0.24125  0.86959  0.49934  1.0000
  N   N76       1.0  0.36819  0.95011  0.69802  1.0000
  H   H2519     1.0  0.45321  0.98183  0.57108  1.0000
  H   H2520     1.0  0.36499  0.95312  0.67580  1.0000
  C   C1407     1.0  0.42496  0.92258  0.60805  1.0000
  H   H2521     1.0  0.38871  0.96828  0.69585  1.0000
  H   H2522     1.0  0.01141  0.83795  0.54414  1.0000
  H   H2523     1.0  0.34401  0.91029  0.52298  1.0000
  C   C1408     1.0  0.32067  0.91911  0.59305  1.0000
  H   H2524     1.0  0.38554  0.92002  0.71055  1.0000
  H   H2525     1.0  0.43153  0.87063  0.67395  1.0000
  S   S327      1.0  0.44091  0.90787  0.72491  1.0000
  C   C1409     1.0  0.30323  0.89680  0.52230  1.0000
  C   C1410     1.0  0.48510  0.93145  0.66418  1.0000
  S   S328      1.0  0.01454  0.73067  0.51424  1.0000
  H   H2526     1.0  0.28886  0.88547  0.51671  1.0000
  C   C1411     1.0  0.18464  0.87801  0.50330  1.0000
  C   C1412     1.0  0.49129  0.94827  0.60816  1.0000
  C   C1413     1.0  0.44514  0.98089  0.67298  1.0000
  C   C1414     1.0  0.36328  0.95764  0.71104  1.0000
  C   C1415     1.0  0.01304  0.79315  0.49591  1.0000
  H   H2527     1.0  0.36258  0.94176  0.51064  1.0000
  C   C1416     1.0  0.47828  0.90512  0.73108  1.0000
  C   C1417     1.0  0.47593  0.95013  0.61865  1.0000
  H   H2528     1.0  0.42911  0.91112  0.60612  1.0000
  H   H2529     1.0  0.27203  0.93892  0.50321  1.0000
  H   H2530     1.0  0.44679  0.87735  0.67546  1.0000
  H   H2531     1.0  0.42769  0.88618  0.68245  1.0000
  C   C1418     1.0  0.46537  0.89770  0.63305  1.0000
  C   C1419     1.0  0.33833  0.93690  0.60089  1.0000
  C   C1420     1.0  0.12265  0.96497  0.50413  1.0000
  C   C1421     1.0  0.45604  0.96785  0.68085  1.0000
  S   S329      1.0  0.36753  0.96723  0.62978  1.0000
  H   H2532     1.0  0.34313  0.88091  0.51680  1.0000
  H   H2533     1.0  0.42329  0.89319  0.65640  1.0000
  C   C1422     1.0  0.31893  0.93611  0.58890  1.0000
  H   H2534     1.0  0.32847  0.96114  0.58198  1.0000
  H   H2535     1.0  0.49125  0.95858  0.59945  1.0000
  C   C1423     1.0  0.40732  0.95978  0.68000  1.0000
  N   N77       1.0  0.16538  0.95868  0.50303  1.0000
  H   H2536     1.0  0.25257  0.85148  0.49775  1.0000
  H   H2537     1.0  0.43007  0.93723  0.61829  1.0000
  S   S330      1.0  0.37070  0.98631  0.58842  1.0000
  C   C1424     1.0  0.31942  0.86710  0.51827  1.0000
  N   N78       1.0  0.24118  0.97342  0.55039  1.0000
  C   C1425     1.0  0.24922  0.97040  0.56279  1.0000
  C   C1426     1.0  0.23341  0.96112  0.55240  1.0000
  C   C1427     1.0  0.25282  0.97371  0.53606  1.0000
  H   H2538     1.0  0.33857  0.85212  0.50756  1.0000
  H   H2539     1.0  0.49764  0.86919  0.73214  1.0000
  H   H2540     1.0  0.49204  0.92079  0.64564  1.0000
  C   C1428     1.0  0.24770  0.97269  0.52238  1.0000
  C   C1429     1.0  0.22669  0.95383  0.56846  1.0000
  C   C1430     1.0  0.21593  0.94467  0.56856  1.0000
  C   C1431     1.0  0.48109  0.90753  0.66493  1.0000
  C   C1432     1.0  0.35778  0.97477  0.70771  1.0000
  S   S331      1.0  0.49179  0.94720  0.65423  1.0000
  H   H2541     1.0  0.25681  0.95921  0.56354  1.0000
  H   H2542     1.0  0.24137  0.96998  0.57368  1.0000
  H   H2543     1.0  0.22447  0.96507  0.54592  1.0000
  H   H2544     1.0  0.24137  0.95169  0.54781  1.0000
  H   H2545     1.0  0.26277  0.96440  0.53745  1.0000
  S   S332      1.0  0.33813  0.93735  0.49675  1.0000
  H   H2546     1.0  0.46897  0.88558  0.72008  1.0000
  H   H2547     1.0  0.37365  0.90270  0.73031  1.0000
  H   H2548     1.0  0.04652  0.97012  0.50778  1.0000
  C   C1433     1.0  0.02169  0.83627  0.53535  1.0000
  C   C1434     1.0  0.20539  0.97992  0.51608  1.0000
  H   H2549     1.0  0.34653  0.97807  0.70504  1.0000
  H   H2550     1.0  0.34269  0.97877  0.55613  1.0000
  H   H2551     1.0  0.24666  0.96126  0.52328  1.0000
  H   H2552     1.0  0.23584  0.94630  0.57379  1.0000
  H   H2553     1.0  0.22056  0.96192  0.57550  1.0000
  H   H2554     1.0  0.20596  0.95197  0.56440  1.0000
  H   H2555     1.0  0.22152  0.93641  0.56151  1.0000
  H   H2556     1.0  0.21216  0.93866  0.58002  1.0000
  H   H2557     1.0  0.06525  0.82260  0.49830  1.0000
  C   C1435     1.0  0.43524  0.88071  0.67349  1.0000
  H   H2558     1.0  0.36343  0.94161  0.61905  1.0000
  C   C1436     1.0  0.36688  0.91055  0.72248  1.0000
  C   C1437     1.0  0.17664  0.90889  0.49697  1.0000
  C   C1438     1.0  0.46574  0.93191  0.73206  1.0000
  H   H2559     1.0  0.32328  0.96527  0.59988  1.0000
  C   C1439     1.0  0.05270  0.80693  0.49785  1.0000
  H   H2560     1.0  0.03236  0.67911  0.49059  1.0000
  H   H2561     1.0  0.30780  0.88920  0.53177  1.0000
  Fe  Fe165     1.0  0.41840  0.91951  0.71999  1.0000
  H   H2562     1.0  0.03153  0.83447  0.54022  1.0000
  H   H2563     1.0  0.42595  0.93044  0.59717  1.0000
  H   H2564     1.0  0.26838  0.88812  0.53933  1.0000
  C   C1440     1.0  0.03650  0.82054  0.51646  1.0000
  Fe  Fe166     1.0  0.22764  0.92265  0.50193  1.0000
  H   H2565     1.0  0.34691  0.95532  0.60213  1.0000
  H   H2566     1.0  0.37307  0.94599  0.52130  1.0000
  H   H2567     1.0  0.27965  0.89586  0.54620  1.0000
  H   H2568     1.0  0.32407  0.91268  0.50985  1.0000
  H   H2569     1.0  0.18989  0.94203  0.51656  1.0000
  N   N79       1.0  0.31445  0.89574  0.50789  1.0000
  H   H2570     1.0  0.11218  0.92929  0.50923  1.0000
  H   H2571     1.0  0.48246  0.89859  0.65953  1.0000
  H   H2572     1.0  0.32646  0.84313  0.52316  1.0000
  H   H2573     1.0  0.47514  0.93994  0.62737  1.0000
  N   N80       1.0  0.04010  0.80616  0.51135  1.0000
  H   H2574     1.0  0.47471  0.97857  0.65917  1.0000
  C   C1441     1.0  0.45493  0.98541  0.60971  1.0000
  H   H2575     1.0  0.31133  0.87889  0.49862  1.0000
  H   H2576     1.0  0.32047  0.90117  0.58349  1.0000
  C   C1442     1.0  0.20672  0.98416  0.50075  1.0000
  H   H2577     1.0  0.32616  0.93889  0.57773  1.0000
  C   C1443     1.0  0.05097  0.96406  0.49860  1.0000
  H   H2578     1.0  0.17334  0.92080  0.49476  1.0000
  H   H2579     1.0  0.04731  0.66436  0.50869  1.0000
  H   H2580     1.0  0.36128  0.96970  0.68175  1.0000
  H   H2581     1.0  0.06874  0.80545  0.51140  1.0000
  H   H2582     1.0  0.16558  0.87921  0.49458  1.0000
  H   H2583     1.0  0.39534  0.97315  0.71676  1.0000
  Fe  Fe167     1.0  0.37633  0.98042  0.64014  1.0000
  H   H2584     1.0  0.28047  0.90426  0.51831  1.0000
  H   H2585     1.0  0.27377  0.96632  0.57529  1.0000
  H   H2586     1.0  0.13624  0.83963  0.49390  1.0000
  H   H2587     1.0  0.45561  0.98619  0.62048  1.0000
  Fe  Fe168     1.0  0.38157  0.97663  0.60837  1.0000
  C   C1444     1.0  0.27650  0.93810  0.49144  1.0000
  H   H2588     1.0  0.46793  0.86059  0.71906  1.0000
  H   H2589     1.0  0.48680  0.88541  0.62279  1.0000
  C   C1445     1.0  0.47897  0.87647  0.72118  1.0000
  C   C1446     1.0  0.16814  0.90090  0.49382  1.0000
  H   H2590     1.0  0.01449  0.78368  0.49075  1.0000
  H   H2591     1.0  0.01694  0.80445  0.51693  1.0000
  H   H2592     1.0  0.12330  0.93287  0.49077  1.0000
  H   H2593     1.0  0.30960  0.95067  0.61970  1.0000
  C   C1447     1.0  0.44257  0.97895  0.59427  1.0000
  H   H2594     1.0  0.01216  0.82515  0.52508  1.0000
  H   H2595     1.0  0.49717  0.98632  0.72674  1.0000
  H   H2596     1.0  0.48817  0.89949  0.63113  1.0000
  H   H2597     1.0  0.34943  0.97579  0.73102  1.0000
  C   C1448     1.0  0.37406  0.95968  0.49914  1.0000
  C   C1449     1.0  0.02256  0.82292  0.52920  1.0000
  H   H2598     1.0  0.33986  0.96937  0.66717  1.0000
  C   C1450     1.0  0.31569  0.92706  0.62617  1.0000
  H   H2599     1.0  0.33028  0.87877  0.49718  1.0000
  C   C1451     1.0  0.30464  0.96823  0.59029  1.0000
  C   C1452     1.0  0.30259  0.92524  0.63935  1.0000
  H   H2600     1.0  0.25471  0.97657  0.49851  1.0000
  H   H2601     1.0  0.30121  0.96430  0.58220  1.0000
  Fe  Fe169     1.0  0.00718  0.74223  0.49295  1.0000
  H   H2602     1.0  0.25760  0.97760  0.58527  1.0000
  H   H2603     1.0  0.47390  0.95955  0.62406  1.0000
  H   H2604     1.0  0.35667  0.90138  0.50854  1.0000
  H   H2605     1.0  0.31928  0.91687  0.62173  1.0000
  H   H2606     1.0  0.15023  0.94746  0.49980  1.0000
  C   C1453     1.0  0.18931  0.90152  0.50297  1.0000
  H   H2607     1.0  0.48048  0.97000  0.72792  1.0000
  H   H2608     1.0  0.37254  0.95471  0.71705  1.0000
  C   C1454     1.0  0.17884  0.95151  0.49258  1.0000
  H   H2609     1.0  0.32056  0.85082  0.50582  1.0000
  H   H2610     1.0  0.18756  0.86604  0.50600  1.0000
  C   C1455     1.0  0.02627  0.80539  0.50708  1.0000
  H   H2611     1.0  0.05831  0.76845  0.54201  1.0000
  C   C1456     1.0  0.34925  0.89947  0.51969  1.0000
  H   H2612     1.0  0.38278  0.93603  0.50672  1.0000
  H   H2613     1.0  0.45881  0.93213  0.72438  1.0000
  H   H2614     1.0  0.35618  0.89246  0.52772  1.0000
  H   H2615     1.0  0.08405  0.74534  0.50012  1.0000
  H   H2616     1.0  0.46770  0.94317  0.73004  1.0000
  H   H2617     1.0  0.18859  0.95612  0.49153  1.0000
  C   C1457     1.0  0.21468  0.95837  0.49903  1.0000
  S   S333      1.0  0.23395  0.90264  0.49215  1.0000
  C   C1458     1.0  0.35668  0.98107  0.72102  1.0000
  S   S334      1.0  0.43334  0.98947  0.72896  1.0000
  C   C1459     1.0  0.30438  0.98468  0.58411  1.0000
  H   H2618     1.0  0.02229  0.81584  0.49935  1.0000
  H   H2619     1.0  0.10123  0.95335  0.49488  1.0000
  H   H2620     1.0  0.03476  0.83016  0.50702  1.0000
  H   H2621     1.0  0.49638  0.97796  0.63860  1.0000
  C   C1460     1.0  0.26613  0.97747  0.57478  1.0000
  C   C1461     1.0  0.30733  0.90634  0.49562  1.0000
  H   H2622     1.0  0.27282  0.98564  0.57352  1.0000
  C   C1462     1.0  0.02770  0.79244  0.49985  1.0000
  H   H2623     1.0  0.04308  0.96809  0.49098  1.0000
  C   C1463     1.0  0.43136  0.96083  0.73244  1.0000
  C   C1464     1.0  0.06682  0.81040  0.50005  1.0000
  C   C1465     1.0  0.32779  0.90110  0.50811  1.0000
  H   H2624     1.0  0.08338  0.79245  0.49100  1.0000
  S   S335      1.0  0.40679  0.90162  0.73363  1.0000
  H   H2625     1.0  0.30367  0.91775  0.49781  1.0000
  Fe  Fe170     1.0  0.03740  0.73272  0.50050  1.0000
  H   H2626     1.0  0.33584  0.90152  0.49728  1.0000
  H   H2627     1.0  0.44097  0.98877  0.64449  1.0000
  H   H2628     1.0  0.05621  0.79659  0.49359  1.0000
  H   H2629     1.0  0.35522  0.91381  0.72865  1.0000
  H   H2630     1.0  0.48326  0.85241  0.72841  1.0000
  H   H2631     1.0  0.03035  0.78169  0.50758  1.0000
  H   H2632     1.0  0.27907  0.92630  0.49079  1.0000
  H   H2633     1.0  0.05165  0.95207  0.50336  1.0000
  H   H2634     1.0  0.44141  0.95749  0.73679  1.0000
  H   H2635     1.0  0.26076  0.98788  0.50674  1.0000
  C   C1466     1.0  0.23026  0.98829  0.54915  1.0000
  C   C1467     1.0  0.09959  0.94327  0.49274  1.0000
  C   C1468     1.0  0.04468  0.65863  0.50145  1.0000
  C   C1469     1.0  0.06241  0.75333  0.49446  1.0000
  C   C1470     1.0  0.21750  0.99066  0.56280  1.0000
  H   H2636     1.0  0.48698  0.92081  0.73755  1.0000
  Fe  Fe171     1.0  0.42970  0.88925  0.73737  1.0000
  H   H2637     1.0  0.32773  0.99087  0.49265  1.0000
  H   H2638     1.0  0.29304  0.99077  0.58229  1.0000
  C   C1471     1.0  0.49849  0.96433  0.73987  1.0000
  C   C1472     1.0  0.48270  0.96431  0.73909  1.0000
  H   H2639     1.0  0.08070  0.71285  0.48993  1.0000
  S   S336      1.0  0.27779  0.88754  0.49045  1.0000
  H   H2640     1.0  0.22821  0.85555  0.49094  1.0000
  C   C1473     1.0  0.06644  0.96676  0.49043  1.0000
  H   H2641     1.0  0.42368  0.91361  0.87896  1.0000
  S   S337      1.0  0.48507  0.91130  0.79083  1.0000
  C   C1474     1.0  0.43991  0.98130  0.77385  1.0000
  Fe  Fe172     1.0  0.48103  0.91541  0.81360  1.0000
  S   S338      1.0  0.48507  0.89538  0.83193  1.0000
  Fe  Fe173     1.0  0.43624  0.86917  0.90311  1.0000
  S   S339      1.0  0.45709  0.86858  0.91015  1.0000
  S   S340      1.0  0.42964  0.88024  0.88124  1.0000
  Fe  Fe174     1.0  0.42287  0.85171  0.93242  1.0000
  S   S341      1.0  0.44234  0.84927  0.94234  1.0000
  S   S342      1.0  0.40208  0.84361  0.94522  1.0000
  Fe  Fe175     1.0  0.44161  0.87302  0.93150  1.0000
  S   S343      1.0  0.44693  0.88683  0.94397  1.0000
  Fe  Fe176     1.0  0.45650  0.84497  0.92055  1.0000
  S   S344      1.0  0.47657  0.82646  0.92270  1.0000
  S   S345      1.0  0.42074  0.87611  0.92348  1.0000
  S   S346      1.0  0.43718  0.84493  0.91155  1.0000
  H   H2642     1.0  0.48977  0.82817  0.83653  1.0000
  C   C1475     1.0  0.49128  0.66425  0.96080  1.0000
  H   H2643     1.0  0.42320  0.87584  0.79530  1.0000
  H   H2644     1.0  0.33278  0.66352  0.96829  1.0000
  H   H2645     1.0  0.41317  0.83911  0.80251  1.0000
  H   H2646     1.0  0.35987  0.98963  0.77888  1.0000
  H   H2647     1.0  0.46806  0.75038  0.93259  1.0000
  H   H2648     1.0  0.37948  0.73948  0.97074  1.0000
  H   H2649     1.0  0.37063  0.82713  0.87968  1.0000
  C   C1476     1.0  0.42748  0.75321  0.95043  1.0000
  C   C1477     1.0  0.46639  0.66357  0.89789  1.0000
  H   H2650     1.0  0.48948  0.82200  0.86949  1.0000
  S   S347      1.0  0.49633  0.93102  0.80733  1.0000
  H   H2651     1.0  0.44495  0.89798  0.89085  1.0000
  H   H2652     1.0  0.45036  0.86306  0.80803  1.0000
  H   H2653     1.0  0.35789  0.68272  0.87424  1.0000
  H   H2654     1.0  0.37080  0.92765  0.76703  1.0000
  H   H2655     1.0  0.43991  0.69334  0.95068  1.0000
  H   H2656     1.0  0.37002  0.81238  0.97010  1.0000
  H   H2657     1.0  0.44167  0.79119  0.95930  1.0000
  H   H2658     1.0  0.42628  0.85117  0.86295  1.0000
  N   N81       1.0  0.49390  0.84220  0.95474  1.0000
  H   H2659     1.0  0.38706  0.84767  0.90686  1.0000
  H   H2660     1.0  0.48907  0.90039  0.75658  1.0000
  H   H2661     1.0  0.33665  0.72676  0.96065  1.0000
  C   C1478     1.0  0.43911  0.83868  0.78502  1.0000
  S   S348      1.0  0.43694  0.87886  0.75903  1.0000
  H   H2662     1.0  0.38993  0.83180  0.81731  1.0000
  H   H2663     1.0  0.43113  0.97487  0.79757  1.0000
  H   H2664     1.0  0.46337  0.83155  0.77825  1.0000
  C   C1479     1.0  0.47453  0.90160  0.87972  1.0000
  Fe  Fe177     1.0  0.41434  0.66907  0.91551  1.0000
  N   N82       1.0  0.37742  0.74085  0.94189  1.0000
  H   H2665     1.0  0.38343  0.84998  0.98525  1.0000
  Fe  Fe178     1.0  0.38392  0.69004  0.92018  1.0000
  S   S349      1.0  0.37637  0.67741  0.94313  1.0000
  S   S350      1.0  0.36705  0.70940  0.91094  1.0000
  Fe  Fe179     1.0  0.39944  0.67576  0.94584  1.0000
  C   C1480     1.0  0.49878  0.88191  0.87773  1.0000
  C   C1481     1.0  0.49333  0.85022  0.96644  1.0000
  S   S351      1.0  0.40608  0.69028  0.92370  1.0000
  S   S352      1.0  0.39265  0.67011  0.90980  1.0000
  H   H2666     1.0  0.42962  0.84328  0.77938  1.0000
  C   C1482     1.0  0.41684  0.84081  0.81181  1.0000
  Fe  Fe180     1.0  0.39658  0.79866  0.89354  1.0000
  S   S353      1.0  0.42114  0.79821  0.88753  1.0000
  S   S354      1.0  0.37923  0.81111  0.90975  1.0000
  Fe  Fe181     1.0  0.40012  0.77666  0.87445  1.0000
  S   S355      1.0  0.42498  0.77411  0.86720  1.0000
  S   S356      1.0  0.38742  0.76520  0.86635  1.0000
  Fe  Fe182     1.0  0.42377  0.77370  0.89096  1.0000
  S   S357      1.0  0.43725  0.75681  0.90618  1.0000
  Fe  Fe183     1.0  0.41961  0.79886  0.86456  1.0000
  S   S358      1.0  0.42939  0.81463  0.84480  1.0000
  S   S359      1.0  0.39937  0.77414  0.89838  1.0000
  S   S360      1.0  0.39474  0.80148  0.87011  1.0000
  C   C1483     1.0  0.42935  0.76043  0.92391  1.0000
  H   H2667     1.0  0.40429  0.86028  0.90979  1.0000
  H   H2668     1.0  0.44006  0.73916  0.93513  1.0000
  S   S361      1.0  0.46875  0.97100  0.81006  1.0000
  H   H2669     1.0  0.40591  0.89137  0.77906  1.0000
  H   H2670     1.0  0.34767  0.96162  0.79344  1.0000
  C   C1484     1.0  0.46517  0.94215  0.85987  1.0000
  H   H2671     1.0  0.34369  0.66601  0.90379  1.0000
  C   C1485     1.0  0.40025  0.88238  0.84535  1.0000
  H   H2672     1.0  0.49779  0.79162  0.94351  1.0000
  C   C1486     1.0  0.39941  0.68975  0.97640  1.0000
  H   H2673     1.0  0.40708  0.85882  0.85248  1.0000
  N   N83       1.0  0.42551  0.85283  0.80665  1.0000
  H   H2674     1.0  0.37662  0.86418  0.89758  1.0000
  H   H2675     1.0  0.36732  0.84661  0.89322  1.0000
  Fe  Fe184     1.0  0.41790  0.75462  0.98782  1.0000
  H   H2676     1.0  0.35453  0.74401  0.95467  1.0000
  H   H2677     1.0  0.41285  0.83723  0.89492  1.0000
  H   H2678     1.0  0.42656  0.93073  0.76162  1.0000
  C   C1487     1.0  0.37394  0.72394  0.89787  1.0000
  C   C1488     1.0  0.38738  0.72717  0.89786  1.0000
  C   C1489     1.0  0.39164  0.73993  0.88831  1.0000
  C   C1490     1.0  0.38277  0.74904  0.87835  1.0000
  C   C1491     1.0  0.36973  0.74538  0.87798  1.0000
  C   C1492     1.0  0.36518  0.73305  0.88788  1.0000
  H   H2679     1.0  0.39408  0.72026  0.90568  1.0000
  H   H2680     1.0  0.40177  0.74269  0.88861  1.0000
  H   H2681     1.0  0.36287  0.75237  0.87029  1.0000
  H   H2682     1.0  0.35480  0.73062  0.88784  1.0000
  H   H2683     1.0  0.40172  0.96055  0.75523  1.0000
  H   H2684     1.0  0.48430  0.71874  0.85850  1.0000
  H   H2685     1.0  0.45187  0.83487  0.97727  1.0000
  C   C1493     1.0  0.43297  0.87061  0.96941  1.0000
  H   H2686     1.0  0.29536  0.66640  0.91312  1.0000
  C   C1494     1.0  0.47998  0.79865  0.83195  1.0000
  C   C1495     1.0  0.47265  0.79598  0.84682  1.0000
  C   C1496     1.0  0.45706  0.80076  0.85084  1.0000
  C   C1497     1.0  0.44886  0.80864  0.84000  1.0000
  C   C1498     1.0  0.45625  0.81173  0.82516  1.0000
  C   C1499     1.0  0.47177  0.80660  0.82112  1.0000
  H   H2687     1.0  0.47893  0.78996  0.85519  1.0000
  H   H2688     1.0  0.45140  0.79837  0.86233  1.0000
  H   H2689     1.0  0.44993  0.81759  0.81673  1.0000
  H   H2690     1.0  0.47739  0.80864  0.80960  1.0000
  C   C1500     1.0  0.47446  0.67533  0.91278  1.0000
  C   C1501     1.0  0.49029  0.68986  0.96100  1.0000
  C   C1502     1.0  0.45144  0.66801  0.90510  1.0000
  C   C1503     1.0  0.44809  0.67609  0.91609  1.0000
  C   C1504     1.0  0.45951  0.67994  0.91972  1.0000
  H   H2691     1.0  0.43671  0.67938  0.92188  1.0000
  C   C1505     1.0  0.39396  0.83124  0.82730  1.0000
  C   C1506     1.0  0.43284  0.74981  0.93637  1.0000
  H   H2692     1.0  0.44314  0.85870  0.78784  1.0000
  C   C1507     1.0  0.42002  0.77422  0.92562  1.0000
  H   H2693     1.0  0.39936  0.85816  0.97714  1.0000
  H   H2694     1.0  0.32301  0.65816  0.91011  1.0000
  C   C1508     1.0  0.48828  0.85495  0.81882  1.0000
  H   H2695     1.0  0.37974  0.79419  0.97810  1.0000
  S   S362      1.0  0.44728  0.93320  0.77663  1.0000
  C   C1509     1.0  0.34167  0.98036  0.80345  1.0000
  C   C1510     1.0  0.41943  0.72003  0.93575  1.0000
  H   H2696     1.0  0.36296  0.77027  0.92734  1.0000
  H   H2697     1.0  0.45516  0.65904  0.94678  1.0000
  H   H2698     1.0  0.48162  0.76587  0.86745  1.0000
  H   H2699     1.0  0.42503  0.87089  0.96311  1.0000
  C   C1511     1.0  0.49125  0.89740  0.88071  1.0000
  H   H2700     1.0  0.48426  0.69942  0.96643  1.0000
  C   C1512     1.0  0.39617  0.83322  0.93635  1.0000
  C   C1513     1.0  0.38097  0.83320  0.93927  1.0000
  C   C1514     1.0  0.37589  0.82594  0.93142  1.0000
  C   C1515     1.0  0.38602  0.81836  0.92089  1.0000
  C   C1516     1.0  0.40128  0.81768  0.91862  1.0000
  C   C1517     1.0  0.40633  0.82529  0.92612  1.0000
  H   H2701     1.0  0.37306  0.83920  0.94726  1.0000
  H   H2702     1.0  0.36406  0.82644  0.93332  1.0000
  H   H2703     1.0  0.40922  0.81163  0.91083  1.0000
  H   H2704     1.0  0.41809  0.82492  0.92398  1.0000
  H   H2705     1.0  0.48041  0.87702  0.74291  1.0000
  C   C1518     1.0  0.46129  0.68624  0.95737  1.0000
  H   H2706     1.0  0.34254  0.71064  0.95255  1.0000
  H   H2707     1.0  0.49589  0.84600  0.93113  1.0000
  C   C1519     1.0  0.43906  0.83282  0.87569  1.0000
  H   H2708     1.0  0.42980  0.72261  0.92803  1.0000
  C   C1520     1.0  0.47862  0.98519  0.80177  1.0000
  S   S363      1.0  0.49927  0.79168  0.82660  1.0000
  H   H2709     1.0  0.41979  0.83417  0.86775  1.0000
  C   C1521     1.0  0.38491  0.81247  0.98363  1.0000
  C   C1522     1.0  0.46939  0.89036  0.84466  1.0000
  C   C1523     1.0  0.47155  0.87880  0.85691  1.0000
  C   C1524     1.0  0.45934  0.87544  0.86808  1.0000
  C   C1525     1.0  0.44488  0.88345  0.86683  1.0000
  C   C1526     1.0  0.44261  0.89452  0.85423  1.0000
  C   C1527     1.0  0.45489  0.89807  0.84318  1.0000
  H   H2710     1.0  0.48275  0.87290  0.85812  1.0000
  H   H2711     1.0  0.46113  0.86678  0.87772  1.0000
  H   H2712     1.0  0.43139  0.90069  0.85325  1.0000
  H   H2713     1.0  0.39086  0.89173  0.84827  1.0000
  C   C1528     1.0  0.45259  0.90330  0.77723  1.0000
  C   C1529     1.0  0.45010  0.89120  0.77344  1.0000
  C   C1530     1.0  0.43924  0.89347  0.76523  1.0000
  C   C1531     1.0  0.43060  0.90771  0.76127  1.0000
  C   C1532     1.0  0.48475  0.84177  0.85242  1.0000
  H   H2714     1.0  0.46111  0.90169  0.78330  1.0000
  H   H2715     1.0  0.45686  0.88022  0.77644  1.0000
  H   H2716     1.0  0.42208  0.90956  0.75508  1.0000
  C   C1533     1.0  0.41283  0.96049  0.77184  1.0000
  C   C1534     1.0  0.46873  0.74265  0.95570  1.0000
  H   H2717     1.0  0.41698  0.78240  0.91618  1.0000
  H   H2718     1.0  0.41812  0.90713  0.89862  1.0000
  H   H2719     1.0  0.44037  0.67908  0.96715  1.0000
  S   S364      1.0  0.40800  0.67656  0.96522  1.0000
  H   H2720     1.0  0.34663  0.98902  0.80461  1.0000
  H   H2721     1.0  0.49743  0.97178  0.78966  1.0000
  C   C1535     1.0  0.37359  0.93469  0.75587  1.0000
  C   C1536     1.0  0.37927  0.94770  0.75673  1.0000
  C   C1537     1.0  0.44539  0.86490  0.83070  1.0000
  H   H2722     1.0  0.46906  0.89382  0.88898  1.0000
  H   H2723     1.0  0.39582  0.84110  0.86925  1.0000
  H   H2724     1.0  0.49058  0.78775  0.96322  1.0000
  H   H2725     1.0  0.41814  0.85443  0.88829  1.0000
  H   H2726     1.0  0.47118  0.75576  0.83554  1.0000
  C   C1538     1.0  0.45753  0.93542  0.89825  1.0000
  H   H2727     1.0  0.48307  0.76560  0.83879  1.0000
  H   H2728     1.0  0.42375  0.96084  0.76397  1.0000
  C   C1539     1.0  0.45328  0.86990  0.98600  1.0000
  H   H2729     1.0  0.49169  0.98513  0.74623  1.0000
  H   H2730     1.0  0.45751  0.94006  0.85417  1.0000
  H   H2731     1.0  0.49763  0.90522  0.87258  1.0000
  C   C1540     1.0  0.42463  0.91451  0.88993  1.0000
  H   H2732     1.0  0.47205  0.83466  0.87448  1.0000
  H   H2733     1.0  0.45761  0.73987  0.95903  1.0000
  H   H2734     1.0  0.48947  0.66367  0.89630  1.0000
  H   H2735     1.0  0.47971  0.88635  0.92024  1.0000
  C   C1541     1.0  0.44098  0.90984  0.89132  1.0000
  C   C1542     1.0  0.42402  0.84153  0.87188  1.0000
  H   H2736     1.0  0.45217  0.87325  0.82836  1.0000
  H   H2737     1.0  0.35363  0.73084  0.93588  1.0000
  H   H2738     1.0  0.41169  0.96682  0.78032  1.0000
  C   C1543     1.0  0.47912  0.83792  0.95788  1.0000
  N   N84       1.0  0.37106  0.97138  0.76779  1.0000
  C   C1544     1.0  0.47594  0.82581  0.97193  1.0000
  H   H2739     1.0  0.37819  0.69637  0.96989  1.0000
  C   C1545     1.0  0.45977  0.82427  0.97532  1.0000
  C   C1546     1.0  0.35853  0.72458  0.94563  1.0000
  H   H2740     1.0  0.36697  0.71460  0.98641  1.0000
  H   H2741     1.0  0.48625  0.84711  0.89556  1.0000
  H   H2742     1.0  0.47791  0.83424  0.94838  1.0000
  H   H2743     1.0  0.46972  0.84779  0.95914  1.0000
  H   H2744     1.0  0.47348  0.86439  0.93809  1.0000
  C   C1547     1.0  0.41294  0.84690  0.88547  1.0000
  C   C1548     1.0  0.49251  0.98267  0.79204  1.0000
  H   H2745     1.0  0.48818  0.69313  0.94962  1.0000
  C   C1549     1.0  0.49567  0.83507  0.83944  1.0000
  H   H2746     1.0  0.47586  0.86346  0.79373  1.0000
  C   C1550     1.0  0.45762  0.93613  0.91393  1.0000
  H   H2747     1.0  0.43813  0.82746  0.79165  1.0000
  H   H2748     1.0  0.38957  0.80574  0.96258  1.0000
  H   H2749     1.0  0.49936  0.87923  0.92031  1.0000
  H   H2750     1.0  0.45293  0.82954  0.76613  1.0000
  H   H2751     1.0  0.45836  0.94877  0.86817  1.0000
  C   C1551     1.0  0.36741  0.95743  0.76686  1.0000
  H   H2752     1.0  0.33822  0.97365  0.81464  1.0000
  C   C1552     1.0  0.43037  0.85415  0.81986  1.0000
  H   H2753     1.0  0.49890  0.81744  0.94272  1.0000
  H   H2754     1.0  0.36283  0.96510  0.79886  1.0000
  H   H2755     1.0  0.39741  0.74258  0.96016  1.0000
  C   C1553     1.0  0.46971  0.75465  0.94153  1.0000
  C   C1554     1.0  0.37926  0.75291  0.94806  1.0000
  H   H2756     1.0  0.47158  0.90186  0.74243  1.0000
  H   H2757     1.0  0.38958  0.94294  0.76119  1.0000
  C   C1555     1.0  0.38287  0.87360  0.91763  1.0000
  H   H2758     1.0  0.38246  0.92776  0.74880  1.0000
  H   H2759     1.0  0.36574  0.94996  0.77794  1.0000
  C   C1556     1.0  0.34638  0.71790  0.95725  1.0000
  H   H2760     1.0  0.45511  0.77007  0.95513  1.0000
  C   C1557     1.0  0.48118  0.76055  0.83056  1.0000
  H   H2761     1.0  0.35576  0.84266  0.87498  1.0000
  H   H2762     1.0  0.41455  0.86441  0.77953  1.0000
  H   H2763     1.0  0.42644  0.81232  0.98657  1.0000
  H   H2764     1.0  0.47067  0.74644  0.96482  1.0000
  C   C1558     1.0  0.47972  0.82963  0.86526  1.0000
  H   H2765     1.0  0.45230  0.85377  0.83448  1.0000
  H   H2766     1.0  0.38217  0.97625  0.74470  1.0000
  H   H2767     1.0  0.36278  0.98293  0.74797  1.0000
  H   H2768     1.0  0.40581  0.87385  0.87222  1.0000
  H   H2769     1.0  0.37883  0.86456  0.92639  1.0000
  H   H2770     1.0  0.46828  0.78272  0.95922  1.0000
  H   H2771     1.0  0.45092  0.94703  0.91631  1.0000
  H   H2772     1.0  0.43943  0.69795  0.96780  1.0000
  C   C1559     1.0  0.38471  0.69806  0.97664  1.0000
  H   H2773     1.0  0.43763  0.82311  0.88490  1.0000
  C   C1560     1.0  0.38295  0.76072  0.96977  1.0000
  C   C1561     1.0  0.35305  0.97038  0.79362  1.0000
  H   H2774     1.0  0.45490  0.84763  0.76587  1.0000
  C   C1562     1.0  0.44422  0.68934  0.96102  1.0000
  H   H2775     1.0  0.48976  0.66841  0.94920  1.0000
  C   C1563     1.0  0.40760  0.69168  0.98554  1.0000
  H   H2776     1.0  0.48162  0.94566  0.83916  1.0000
  H   H2777     1.0  0.44569  0.93716  0.89770  1.0000
  H   H2778     1.0  0.35665  0.96025  0.76313  1.0000
  H   H2779     1.0  0.34774  0.98288  0.77258  1.0000
  C   C1564     1.0  0.33856  0.66200  0.95692  1.0000
  C   C1565     1.0  0.49118  0.82440  0.90725  1.0000
  H   H2780     1.0  0.45080  0.91642  0.86809  1.0000
  C   C1566     1.0  0.48744  0.79177  0.95227  1.0000
  H   H2781     1.0  0.40873  0.78888  0.94065  1.0000
  H   H2782     1.0  0.34194  0.66082  0.92906  1.0000
  H   H2783     1.0  0.35590  0.75540  0.90631  1.0000
  H   H2784     1.0  0.48221  0.84752  0.81695  1.0000
  H   H2785     1.0  0.43563  0.86754  0.83976  1.0000
  N   N85       1.0  0.46648  0.91747  0.88009  1.0000
  H   H2786     1.0  0.38967  0.71944  0.93698  1.0000
  C   C1567     1.0  0.30058  0.65961  0.92254  1.0000
  H   H2787     1.0  0.47768  0.82850  0.98173  1.0000
  C   C1568     1.0  0.46706  0.92045  0.89453  1.0000
  H   H2788     1.0  0.38202  0.95404  0.74527  1.0000
  H   H2789     1.0  0.40079  0.88162  0.83389  1.0000
  H   H2790     1.0  0.39001  0.88790  0.79383  1.0000
  N   N86       1.0  0.48443  0.67627  0.96956  1.0000
  S   S365      1.0  0.48040  0.94756  0.77891  1.0000
  H   H2791     1.0  0.46385  0.91140  0.90393  1.0000
  Fe  Fe185     1.0  0.46598  0.93091  0.78775  1.0000
  H   H2792     1.0  0.48950  0.68140  0.98807  1.0000
  N   N87       1.0  0.39712  0.85440  0.88372  1.0000
  Fe  Fe186     1.0  0.49906  0.92807  0.78430  1.0000
  C   C1569     1.0  0.37840  0.70838  0.98591  1.0000
  H   H2793     1.0  0.35083  0.75758  0.93239  1.0000
  C   C1570     1.0  0.45349  0.83676  0.77312  1.0000
  H   H2794     1.0  0.49247  0.87364  0.88511  1.0000
  H   H2795     1.0  0.37414  0.73855  0.92137  1.0000
  H   H2796     1.0  0.46552  0.67786  0.95040  1.0000
  C   C1571     1.0  0.35854  0.76470  0.90909  1.0000
  N   N88       1.0  0.46140  0.78298  0.93286  1.0000
  C   C1572     1.0  0.39039  0.84359  0.88033  1.0000
  C   C1573     1.0  0.44825  0.79589  0.93507  1.0000
  C   C1574     1.0  0.46345  0.78068  0.91741  1.0000
  C   C1575     1.0  0.47536  0.78613  0.93449  1.0000
  C   C1576     1.0  0.47847  0.78189  0.95040  1.0000
  S   S366      1.0  0.41752  0.73195  0.98666  1.0000
  C   C1577     1.0  0.46629  0.79397  0.90447  1.0000
  C   C1578     1.0  0.44422  0.80045  0.95010  1.0000
  C   C1579     1.0  0.43052  0.81323  0.95094  1.0000
  C   C1580     1.0  0.36422  0.73487  0.95175  1.0000
  H   H2797     1.0  0.41282  0.94877  0.77735  1.0000
  C   C1581     1.0  0.46781  0.79004  0.88971  1.0000
  C   C1582     1.0  0.39784  0.86787  0.85605  1.0000
  H   H2798     1.0  0.49142  0.88089  0.75829  1.0000
  H   H2799     1.0  0.45045  0.80610  0.92698  1.0000
  H   H2800     1.0  0.43810  0.79374  0.93318  1.0000
  H   H2801     1.0  0.45346  0.77745  0.91641  1.0000
  H   H2802     1.0  0.47312  0.77129  0.91512  1.0000
  H   H2803     1.0  0.48537  0.78032  0.92752  1.0000
  H   H2804     1.0  0.47526  0.79796  0.92989  1.0000
  C   C1583     1.0  0.48854  0.70856  0.86631  1.0000
  H   H2805     1.0  0.43115  0.74534  0.95977  1.0000
  H   H2806     1.0  0.40798  0.87238  0.81002  1.0000
  H   H2807     1.0  0.36857  0.76771  0.90100  1.0000
  H   H2808     1.0  0.47669  0.79708  0.90435  1.0000
  H   H2809     1.0  0.45686  0.80378  0.90502  1.0000
  C   C1584     1.0  0.37496  0.74730  0.92639  1.0000
  H   H2810     1.0  0.46927  0.87843  0.80376  1.0000
  Fe  Fe187     1.0  0.47635  0.94912  0.80262  1.0000
  H   H2811     1.0  0.42050  0.80961  0.95079  1.0000
  H   H2812     1.0  0.42853  0.81723  0.96122  1.0000
  C   C1585     1.0  0.44416  0.91759  0.77289  1.0000
  H   H2813     1.0  0.41874  0.68496  0.98586  1.0000
  H   H2814     1.0  0.38412  0.83293  0.83654  1.0000
  H   H2815     1.0  0.45753  0.82109  0.96600  1.0000
  C   C1586     1.0  0.47794  0.66712  0.90182  1.0000
  H   H2816     1.0  0.41090  0.88470  0.84572  1.0000
  H   H2817     1.0  0.47721  0.78030  0.88816  1.0000
  H   H2818     1.0  0.45731  0.78745  0.88931  1.0000
  H   H2819     1.0  0.46993  0.79958  0.88056  1.0000
  H   H2820     1.0  0.38735  0.86585  0.85492  1.0000
  C   C1587     1.0  0.47459  0.92723  0.86699  1.0000
  C   C1588     1.0  0.38468  0.96776  0.77442  1.0000
  C   C1589     1.0  0.39673  0.86870  0.87222  1.0000
  H   H2821     1.0  0.41609  0.83584  0.98793  1.0000
  H   H2822     1.0  0.39269  0.72273  0.95297  1.0000
  C   C1590     1.0  0.41608  0.86768  0.80077  1.0000
  H   H2823     1.0  0.39886  0.86092  0.79435  1.0000
  H   H2824     1.0  0.40108  0.82004  0.83047  1.0000
  C   C1591     1.0  0.38823  0.85801  0.89845  1.0000
  H   H2825     1.0  0.43649  0.84311  0.82515  1.0000
  H   H2826     1.0  0.45347  0.80444  0.95147  1.0000
  H   H2827     1.0  0.38620  0.87705  0.87509  1.0000
  H   H2828     1.0  0.43390  0.87688  0.81318  1.0000
  H   H2829     1.0  0.44657  0.82874  0.86587  1.0000
  H   H2830     1.0  0.37359  0.84016  0.86215  1.0000
  H   H2831     1.0  0.36699  0.72850  0.96249  1.0000
  H   H2832     1.0  0.47891  0.76938  0.82072  1.0000
  S   S367      1.0  0.41645  0.77343  0.96829  1.0000
  H   H2833     1.0  0.45669  0.68655  0.92796  1.0000
  H   H2834     1.0  0.48261  0.85855  0.96821  1.0000
  C   C1592     1.0  0.49484  0.74847  0.82620  1.0000
  H   H2835     1.0  0.35082  0.71109  0.96713  1.0000
  H   H2836     1.0  0.48967  0.86994  0.91312  1.0000
  C   C1593     1.0  0.41928  0.76750  0.95190  1.0000
  H   H2837     1.0  0.48113  0.75656  0.93833  1.0000
  H   H2838     1.0  0.43233  0.82262  0.94153  1.0000
  H   H2839     1.0  0.38793  0.87955  0.92268  1.0000
  H   H2840     1.0  0.47386  0.82320  0.86168  1.0000
  S   S368      1.0  0.48817  0.68084  0.91769  1.0000
  C   C1594     1.0  0.40012  0.96716  0.76352  1.0000
  H   H2841     1.0  0.47745  0.73250  0.95386  1.0000
  H   H2842     1.0  0.39815  0.87676  0.89662  1.0000
  H   H2843     1.0  0.36971  0.86012  0.87618  1.0000
  C   C1595     1.0  0.45065  0.91922  0.87867  1.0000
  C   C1596     1.0  0.43306  0.91971  0.76507  1.0000
  H   H2844     1.0  0.45315  0.90692  0.83368  1.0000
  H   H2845     1.0  0.42042  0.71915  0.94724  1.0000
  H   H2846     1.0  0.22594  0.66929  0.87250  1.0000
  H   H2847     1.0  0.47455  0.84932  0.84900  1.0000
  C   C1597     1.0  0.36117  0.76038  0.92484  1.0000
  C   C1598     1.0  0.36805  0.83898  0.87405  1.0000
  C   C1599     1.0  0.38524  0.74772  0.96254  1.0000
  C   C1600     1.0  0.39111  0.72825  0.94153  1.0000
  C   C1601     1.0  0.43954  0.84862  0.79513  1.0000
  C   C1602     1.0  0.37323  0.84828  0.88140  1.0000
  C   C1603     1.0  0.41518  0.77785  0.93955  1.0000
  H   H2848     1.0  0.40731  0.74266  0.93381  1.0000
  C   C1604     1.0  0.48899  0.67156  0.98436  1.0000
  H   H2849     1.0  0.47389  0.89896  0.86938  1.0000
  H   H2850     1.0  0.38478  0.75153  0.91919  1.0000
  H   H2851     1.0  0.20798  0.67263  0.86772  1.0000
  H   H2852     1.0  0.44435  0.84003  0.87891  1.0000
  H   H2853     1.0  0.44742  0.76769  0.94181  1.0000
  H   H2854     1.0  0.48491  0.77025  0.95264  1.0000
  H   H2855     1.0  0.44434  0.93090  0.87790  1.0000
  C   C1605     1.0  0.45778  0.76916  0.94343  1.0000
  C   C1606     1.0  0.44469  0.87783  0.96278  1.0000
  H   H2856     1.0  0.41969  0.92607  0.89140  1.0000
  H   H2857     1.0  0.44122  0.91106  0.90239  1.0000
  H   H2858     1.0  0.36835  0.76096  0.95030  1.0000
  H   H2859     1.0  0.47992  0.86167  0.82642  1.0000
  H   H2860     1.0  0.38677  0.75966  0.93976  1.0000
  N   N89       1.0  0.46905  0.71945  0.88753  1.0000
  C   C1607     1.0  0.48483  0.71119  0.88226  1.0000
  C   C1608     1.0  0.46639  0.71907  0.90385  1.0000
  C   C1609     1.0  0.45854  0.71126  0.88560  1.0000
  C   C1610     1.0  0.46561  0.73517  0.87888  1.0000
  C   C1611     1.0  0.47836  0.74360  0.87410  1.0000
  H   H2861     1.0  0.42792  0.78756  0.98265  1.0000
  C   C1612     1.0  0.44175  0.71631  0.89275  1.0000
  C   C1613     1.0  0.47670  0.72573  0.90890  1.0000
  C   C1614     1.0  0.47556  0.72079  0.92558  1.0000
  C   C1615     1.0  0.47216  0.76029  0.87109  1.0000
  C   C1616     1.0  0.43111  0.86350  0.98439  1.0000
  C   C1617     1.0  0.43192  0.70969  0.88738  1.0000
  H   H2862     1.0  0.48720  0.70013  0.88971  1.0000
  H   H2863     1.0  0.49320  0.71679  0.88290  1.0000
  H   H2864     1.0  0.45486  0.72521  0.90798  1.0000
  H   H2865     1.0  0.46708  0.70747  0.91013  1.0000
  H   H2866     1.0  0.46199  0.69919  0.89024  1.0000
  H   H2867     1.0  0.45919  0.71223  0.87365  1.0000
  H   H2868     1.0  0.46215  0.73570  0.86855  1.0000
  H   H2869     1.0  0.45567  0.74173  0.88527  1.0000
  H   H2870     1.0  0.48611  0.74064  0.86386  1.0000
  H   H2871     1.0  0.48513  0.74102  0.88249  1.0000
  H   H2872     1.0  0.31908  0.67295  0.94808  1.0000
  C   C1618     1.0  0.47899  0.87246  0.79656  1.0000
  H   H2873     1.0  0.43786  0.72854  0.89013  1.0000
  H   H2874     1.0  0.43991  0.71243  0.90495  1.0000
  H   H2875     1.0  0.48866  0.72227  0.90379  1.0000
  H   H2876     1.0  0.47320  0.73802  0.90627  1.0000
  H   H2877     1.0  0.48269  0.72601  0.92897  1.0000
  H   H2878     1.0  0.46386  0.72397  0.93167  1.0000
  H   H2879     1.0  0.47963  0.70863  0.92856  1.0000
  H   H2880     1.0  0.46497  0.76366  0.88138  1.0000
  H   H2881     1.0  0.46544  0.76379  0.86244  1.0000
  C   C1619     1.0  0.40276  0.84312  0.82443  1.0000
  H   H2882     1.0  0.43681  0.96005  0.78777  1.0000
  S   S369      1.0  0.46058  0.93371  0.81120  1.0000
  H   H2883     1.0  0.43543  0.69741  0.88971  1.0000
  H   H2884     1.0  0.42012  0.71287  0.89323  1.0000
  H   H2885     1.0  0.43252  0.71392  0.87532  1.0000
  N   N90       1.0  0.33096  0.68188  0.91748  1.0000
  C   C1620     1.0  0.31600  0.67833  0.91941  1.0000
  C   C1621     1.0  0.32911  0.69823  0.91649  1.0000
  C   C1622     1.0  0.34051  0.67818  0.90298  1.0000
  C   C1623     1.0  0.33899  0.67266  0.92963  1.0000
  C   C1624     1.0  0.33080  0.67403  0.94565  1.0000
  S   S370      1.0  0.43708  0.66298  0.90070  1.0000
  C   C1625     1.0  0.35534  0.68361  0.89727  1.0000
  C   C1626     1.0  0.31485  0.70626  0.92612  1.0000
  C   C1627     1.0  0.31621  0.72163  0.92635  1.0000
  H   H2886     1.0  0.46810  0.96210  0.84330  1.0000
  H   H2887     1.0  0.41838  0.70920  0.93470  1.0000
  C   C1628     1.0  0.36441  0.67843  0.88309  1.0000
  H   H2888     1.0  0.31060  0.68519  0.91008  1.0000
  H   H2889     1.0  0.30809  0.68142  0.92949  1.0000
  H   H2890     1.0  0.33906  0.70013  0.91902  1.0000
  H   H2891     1.0  0.32874  0.70454  0.90495  1.0000
  H   H2892     1.0  0.33404  0.68287  0.89404  1.0000
  H   H2893     1.0  0.40135  0.97846  0.75744  1.0000
  H   H2894     1.0  0.38528  0.95699  0.78254  1.0000
  H   H2895     1.0  0.34992  0.67548  0.92804  1.0000
  H   H2896     1.0  0.46313  0.68966  0.97798  1.0000
  H   H2897     1.0  0.33103  0.68485  0.94748  1.0000
  H   H2898     1.0  0.46369  0.88339  0.96615  1.0000
  H   H2899     1.0  0.48330  0.69971  0.86608  1.0000
  H   H2900     1.0  0.36243  0.67932  0.90555  1.0000
  H   H2901     1.0  0.35316  0.69588  0.89469  1.0000
  H   H2902     1.0  0.30497  0.70771  0.92141  1.0000
  H   H2903     1.0  0.31254  0.70009  0.93769  1.0000
  H   H2904     1.0  0.31808  0.72845  0.91494  1.0000
  H   H2905     1.0  0.30576  0.72733  0.93298  1.0000
  H   H2906     1.0  0.32569  0.72072  0.93143  1.0000
  H   H2907     1.0  0.49618  0.73968  0.83626  1.0000
  H   H2908     1.0  0.44833  0.97595  0.76520  1.0000
  H   H2909     1.0  0.34897  0.77441  0.90812  1.0000
  H   H2910     1.0  0.40621  0.73379  0.92011  1.0000
  H   H2911     1.0  0.37323  0.88151  0.91338  1.0000
  H   H2912     1.0  0.38377  0.97602  0.78099  1.0000
  H   H2913     1.0  0.29338  0.66257  0.93302  1.0000
  H   H2914     1.0  0.45076  0.96689  0.79151  1.0000
  H   H2915     1.0  0.37481  0.68267  0.87923  1.0000
  H   H2916     1.0  0.42054  0.85766  0.82846  1.0000
  H   H2917     1.0  0.40596  0.84221  0.83497  1.0000
  C   C1629     1.0  0.44025  0.86542  0.81677  1.0000
  H   H2918     1.0  0.44911  0.84233  0.80054  1.0000
  H   H2919     1.0  0.42425  0.83003  0.81577  1.0000
  H   H2920     1.0  0.39517  0.85409  0.82170  1.0000
  H   H2921     1.0  0.46435  0.69675  0.95088  1.0000
  C   C1630     1.0  0.39455  0.86734  0.90509  1.0000
  H   H2922     1.0  0.39208  0.88376  0.77606  1.0000
  C   C1631     1.0  0.40595  0.73229  0.93205  1.0000
  C   C1632     1.0  0.39822  0.88375  0.78436  1.0000
  H   H2923     1.0  0.36765  0.71526  0.94228  1.0000
  H   H2924     1.0  0.45261  0.92732  0.92219  1.0000
  C   C1633     1.0  0.43963  0.97014  0.78859  1.0000
  H   H2925     1.0  0.39267  0.83269  0.88806  1.0000
  C   C1634     1.0  0.40703  0.86804  0.78948  1.0000
  C   C1635     1.0  0.49628  0.85189  0.93947  1.0000
  H   H2926     1.0  0.47994  0.92132  0.85767  1.0000
  C   C1636     1.0  0.38083  0.80576  0.97296  1.0000
  C   C1637     1.0  0.48450  0.86667  0.93714  1.0000
  H   H2927     1.0  0.49334  0.84243  0.97731  1.0000
  H   H2928     1.0  0.48206  0.88045  0.78617  1.0000
  H   H2929     1.0  0.48332  0.87332  0.94533  1.0000
  C   C1638     1.0  0.49351  0.83625  0.89534  1.0000
  H   H2930     1.0  0.48064  0.80328  0.95155  1.0000
  H   H2931     1.0  0.47010  0.72383  0.98756  1.0000
  H   H2932     1.0  0.49223  0.89737  0.89196  1.0000
  C   C1639     1.0  0.46759  0.68069  0.97166  1.0000
  H   H2933     1.0  0.36358  0.93873  0.75086  1.0000
  H   H2934     1.0  0.49924  0.80139  0.91633  1.0000
  H   H2935     1.0  0.49022  0.84793  0.85673  1.0000
  C   C1640     1.0  0.35773  0.97929  0.77769  1.0000
  H   H2936     1.0  0.45779  0.81566  0.98550  1.0000
  H   H2937     1.0  0.38855  0.75693  0.97929  1.0000
  H   H2938     1.0  0.48341  0.81491  0.97046  1.0000
  H   H2939     1.0  0.46227  0.94463  0.89055  1.0000
  C   C1641     1.0  0.49714  0.89019  0.75380  1.0000
  H   H2940     1.0  0.42879  0.98373  0.77114  1.0000
  H   H2941     1.0  0.46922  0.93477  0.91514  1.0000
  C   C1642     1.0  0.47515  0.95155  0.84822  1.0000
  H   H2942     1.0  0.49238  0.74377  0.81804  1.0000
  H   H2943     1.0  0.38778  0.76976  0.96179  1.0000
  H   H2944     1.0  0.48401  0.92968  0.86997  1.0000
  C   C1643     1.0  0.45474  0.87764  0.97115  1.0000
  H   H2945     1.0  0.35040  0.66256  0.95517  1.0000
  H   H2946     1.0  0.48157  0.95272  0.74131  1.0000
  C   C1644     1.0  0.49221  0.86623  0.80419  1.0000
  H   H2947     1.0  0.37086  0.76508  0.97392  1.0000
  H   H2948     1.0  0.22507  0.66855  0.85423  1.0000
  C   C1645     1.0  0.21970  0.66602  0.86616  1.0000
  H   H2949     1.0  0.47874  0.92018  0.89474  1.0000
  C   C1646     1.0  0.37270  0.98142  0.75266  1.0000
  C   C1647     1.0  0.48864  0.87610  0.92172  1.0000
  C   C1648     1.0  0.39453  0.85017  0.98670  1.0000
  H   H2950     1.0  0.45952  0.92907  0.74363  1.0000
  H   H2951     1.0  0.38514  0.82416  0.97818  1.0000
  H   H2952     1.0  0.45113  0.79550  0.97959  1.0000
  H   H2953     1.0  0.40846  0.80600  0.97647  1.0000
  H   H2954     1.0  0.48300  0.95422  0.85323  1.0000
  H   H2955     1.0  0.49498  0.87571  0.80653  1.0000
  H   H2956     1.0  0.40641  0.83159  0.97662  1.0000
  C   C1649     1.0  0.40040  0.80381  0.98714  1.0000
  H   H2957     1.0  0.49946  0.88187  0.86603  1.0000
  C   C1650     1.0  0.40499  0.83484  0.98722  1.0000
  H   H2958     1.0  0.49912  0.86408  0.83617  1.0000
  H   H2959     1.0  0.33155  0.98577  0.79872  1.0000
  H   H2960     1.0  0.49347  0.87360  0.97815  1.0000
  H   H2961     1.0  0.47419  0.96986  0.74753  1.0000
  H   H2962     1.0  0.36761  0.66617  0.88514  1.0000
  C   C1651     1.0  0.31631  0.66189  0.92038  1.0000
  H   H2963     1.0  0.46227  0.67154  0.97850  1.0000
  H   H2964     1.0  0.45322  0.77597  0.98708  1.0000
  H   H2965     1.0  0.42169  0.85844  0.98961  1.0000
  C   C1652     1.0  0.44752  0.78712  0.98941  1.0000
  H   H2966     1.0  0.40076  0.79175  0.98945  1.0000
  H   H2967     1.0  0.49964  0.82232  0.81509  1.0000
  C   C1653     1.0  0.61585  0.02812  0.12339  1.0000
  C   C1654     1.0  0.52561  0.08028  0.07059  1.0000
  C   C1655     1.0  0.50833  0.08974  0.02905  1.0000
  S   S371      1.0  0.51675  0.06101  0.14307  1.0000
  H   H2968     1.0  0.53740  0.02386  0.11277  1.0000
  Fe  Fe188     1.0  0.55977  0.02145  0.15932  1.0000
  C   C1656     1.0  0.60595  0.02654  0.11406  1.0000
  H   H2969     1.0  0.56503  0.06227  0.21565  1.0000
  H   H2970     1.0  0.52396  0.06235  0.09007  1.0000
  H   H2971     1.0  0.59166  0.01801  0.10046  1.0000
  H   H2972     1.0  0.57524  0.02929  0.08164  1.0000
  H   H2973     1.0  0.54669  0.06593  0.13003  1.0000
  C   C1657     1.0  0.52800  0.03263  0.11579  1.0000
  H   H2974     1.0  0.56689  0.29159  0.00103  1.0000
  H   H2975     1.0  0.55082  0.16616  0.01081  1.0000
  H   H2976     1.0  0.57807  0.05186  0.08154  1.0000
  H   H2977     1.0  0.51189  0.10029  0.02368  1.0000
  C   C1658     1.0  0.59846  0.00690  0.18587  1.0000
  H   H2978     1.0  0.54127  0.07204  0.11240  1.0000
  H   H2979     1.0  0.53142  0.24368  0.02196  1.0000
  S   S372      1.0  0.55540  0.04596  0.15655  1.0000
  C   C1659     1.0  0.56708  0.26847  0.00492  1.0000
  N   N91       1.0  0.50454  0.09316  0.05584  1.0000
  C   C1660     1.0  0.56632  0.05039  0.21898  1.0000
  H   H2980     1.0  0.50805  0.13781  0.04406  1.0000
  C   C1661     1.0  0.51633  0.05194  0.12974  1.0000
  H   H2981     1.0  0.56745  0.00262  0.10583  1.0000
  C   C1662     1.0  0.57093  0.02440  0.09336  1.0000
  S   S373      1.0  0.56746  0.23917  0.01015  1.0000
  C   C1663     1.0  0.50987  0.10741  0.05024  1.0000
  H   H2982     1.0  0.52513  0.00305  0.22678  1.0000
  H   H2983     1.0  0.56374  0.02117  0.20730  1.0000
  H   H2984     1.0  0.50955  0.25129  0.04257  1.0000
  H   H2985     1.0  0.50304  0.09080  0.07934  1.0000
  C   C1664     1.0  0.57107  0.00828  0.09420  1.0000
  H   H2986     1.0  0.61329  0.01783  0.16720  1.0000
  S   S374      1.0  0.55564  0.01633  0.18398  1.0000
  H   H2987     1.0  0.77701  0.31894  0.04988  1.0000
  N   N92       1.0  0.50478  0.23254  0.03781  1.0000
  C   C1665     1.0  0.52816  0.07268  0.08617  1.0000
  C   C1666     1.0  0.52048  0.25058  0.01970  1.0000
  C   C1667     1.0  0.54009  0.16360  0.01236  1.0000
  S   S375      1.0  0.51470  0.02470  0.09851  1.0000
  H   H2988     1.0  0.50442  0.30300  0.99325  1.0000
  H   H2989     1.0  0.57314  0.06523  0.11783  1.0000
  H   H2990     1.0  0.54030  0.06974  0.08607  1.0000
  H   H2991     1.0  0.56218  0.04283  0.12095  1.0000
  Fe  Fe189     1.0  0.53170  0.04549  0.15790  1.0000
  H   H2992     1.0  0.53848  0.03840  0.12988  1.0000
  H   H2993     1.0  0.51115  0.00543  0.13081  1.0000
  H   H2994     1.0  0.54892  0.08369  0.11878  1.0000
  H   H2995     1.0  0.50781  0.22865  0.01592  1.0000
  S   S376      1.0  0.55705  0.05287  0.19395  1.0000
  H   H2996     1.0  0.56806  0.07229  0.10004  1.0000
  H   H2997     1.0  0.52233  0.08010  0.09407  1.0000
  C   C1668     1.0  0.53457  0.00212  0.23191  1.0000
  H   H2998     1.0  0.58583  0.03912  0.12506  1.0000
  H   H2999     1.0  0.59497  0.04887  0.05751  1.0000
  Fe  Fe190     1.0  0.56386  0.22253  0.99985  1.0000
  H   H3000     1.0  0.51858  0.29806  0.01328  1.0000
  S   S377      1.0  0.52763  0.18979  0.02163  1.0000
  H   H3001     1.0  0.59185  0.99145  0.12347  1.0000
  C   C1669     1.0  0.52691  0.17343  0.01748  1.0000
  C   C1670     1.0  0.51356  0.07506  0.21107  1.0000
  C   C1671     1.0  0.51643  0.07887  0.01888  1.0000
  H   H3002     1.0  0.52450  0.08160  0.04265  1.0000
  S   S378      1.0  0.53663  0.02118  0.15871  1.0000
  H   H3003     1.0  0.56977  0.00797  0.23171  1.0000
  C   C1672     1.0  0.53939  0.15022  0.00968  1.0000
  C   C1673     1.0  0.56653  0.04907  0.10972  1.0000
  H   H3004     1.0  0.59950  0.03001  0.17819  1.0000
  S   S379      1.0  0.51755  0.00292  0.19735  1.0000
  C   C1674     1.0  0.51213  0.08354  0.04460  1.0000
  C   C1675     1.0  0.56380  0.04264  0.20988  1.0000
  C   C1676     1.0  0.56543  0.06507  0.11110  1.0000
  S   S380      1.0  0.52513  0.04309  0.18246  1.0000
  H   H3005     1.0  0.54922  0.21286  0.05664  1.0000
  C   C1677     1.0  0.52859  0.04081  0.12551  1.0000
  C   C1678     1.0  0.51648  0.99928  0.14036  1.0000
  H   H3006     1.0  0.52667  0.22042  0.02850  1.0000
  H   H3007     1.0  0.52874  0.07736  0.01699  1.0000
  C   C1679     1.0  0.56569  0.02722  0.21420  1.0000
  C   C1680     1.0  0.50870  0.08461  0.07039  1.0000
  Fe  Fe191     1.0  0.54593  0.19946  0.00539  1.0000
  Fe  Fe192     1.0  0.53186  0.01865  0.18322  1.0000
  H   H3008     1.0  0.52215  0.05204  0.21119  1.0000
  H   H3009     1.0  0.53076  0.26839  0.00576  1.0000
  H   H3010     1.0  0.50554  0.11403  0.04022  1.0000
  C   C1681     1.0  0.54961  0.07207  0.11849  1.0000
  C   C1682     1.0  0.60398  0.04948  0.06246  1.0000
  H   H3011     1.0  0.62027  0.03828  0.11844  1.0000
  H   H3012     1.0  0.54960  0.14249  0.00602  1.0000
  H   H3013     1.0  0.60392  0.06128  0.06135  1.0000
  H   H3014     1.0  0.53185  0.07231  0.06337  1.0000
  C   C1683     1.0  0.52792  0.22269  0.04998  1.0000
  C   C1684     1.0  0.54324  0.21191  0.04864  1.0000
  H   H3015     1.0  0.50344  0.01809  0.16940  1.0000
  H   H3016     1.0  0.51857  0.24793  0.00997  1.0000
  S   S381      1.0  0.49979  0.11564  0.99241  1.0000
  H   H3017     1.0  0.50286  0.17773  0.02334  1.0000
  H   H3018     1.0  0.51970  0.02988  0.22661  1.0000
  C   C1685     1.0  0.50542  0.11797  0.06109  1.0000
  H   H3019     1.0  0.55840  0.05015  0.10292  1.0000
  H   H3020     1.0  0.60107  0.22171  0.99552  1.0000
  C   C1686     1.0  0.52551  0.14697  0.01154  1.0000
  H   H3021     1.0  0.52990  0.23398  0.04748  1.0000
  S   S382      1.0  0.54074  0.22403  0.99798  1.0000
  C   C1687     1.0  0.52162  0.26673  0.01562  1.0000
  H   H3022     1.0  0.52179  0.22022  0.06165  1.0000
  C   C1688     1.0  0.56983  0.04296  0.23269  1.0000
  H   H3023     1.0  0.61489  0.04414  0.05618  1.0000
  H   H3024     1.0  0.61291  0.02538  0.10301  1.0000
  H   H3025     1.0  0.50940  0.07241  0.04886  1.0000
  H   H3026     1.0  0.58248  0.00223  0.08965  1.0000
  C   C1689     1.0  0.50157  0.31099  0.00060  1.0000
  H   H3027     1.0  0.54201  0.20032  0.05099  1.0000
  H   H3028     1.0  0.55013  0.21455  0.03730  1.0000
  C   C1690     1.0  0.52154  0.05551  0.23302  1.0000
  C   C1691     1.0  0.51903  0.22097  0.03946  1.0000
  H   H3029     1.0  0.50936  0.11247  0.07151  1.0000
  H   H3030     1.0  0.61142  0.04205  0.08281  1.0000
  H   H3031     1.0  0.50946  0.02885  0.20886  1.0000
  H   H3032     1.0  0.60232  0.01602  0.11935  1.0000
  C   C1692     1.0  0.60129  0.99280  0.17969  1.0000
  Fe  Fe193     1.0  0.54941  0.04095  0.18135  1.0000
  C   C1693     1.0  0.51479  0.05890  0.21915  1.0000
  H   H3033     1.0  0.60939  0.02862  0.13485  1.0000
  C   C1694     1.0  0.60151  0.02014  0.17342  1.0000
  C   C1695     1.0  0.58702  0.04903  0.08791  1.0000
  H   H3034     1.0  0.52462  0.12816  0.05134  1.0000
  H   H3035     1.0  0.58675  0.01002  0.19185  1.0000
  H   H3036     1.0  0.58875  0.05988  0.08820  1.0000
  C   C1696     1.0  0.60184  0.04147  0.07871  1.0000
  N   N93       1.0  0.58192  0.04066  0.10338  1.0000
  H   H3037     1.0  0.52227  0.10509  0.04644  1.0000
  C   C1697     1.0  0.59216  0.03981  0.11334  1.0000
  C   C1698     1.0  0.50004  0.01412  0.20296  1.0000
  H   H3038     1.0  0.51345  0.06796  0.02375  1.0000
  H   H3039     1.0  0.50459  0.07420  0.07404  1.0000
  S   S383      1.0  0.57971  0.00999  0.14486  1.0000
  H   H3040     1.0  0.59630  0.05017  0.11033  1.0000
  C   C1699     1.0  0.56468  0.28315  0.99699  1.0000
  H   H3041     1.0  0.53049  0.09017  0.06689  1.0000
  C   C1700     1.0  0.50752  0.24797  0.03320  1.0000
  C   C1701     1.0  0.51234  0.15707  0.01615  1.0000
  C   C1702     1.0  0.51305  0.17011  0.01946  1.0000
  H   H3042     1.0  0.51307  0.08327  0.00806  1.0000
  H   H3043     1.0  0.54573  0.99860  0.12456  1.0000
  H   H3044     1.0  0.57584  0.01998  0.11508  1.0000
  H   H3045     1.0  0.55912  0.03018  0.09662  1.0000
  H   H3046     1.0  0.59387  0.02275  0.16570  1.0000
  C   C1703     1.0  0.60713  0.22988  0.99587  1.0000
  Fe  Fe194     1.0  0.50486  0.13436  0.99822  1.0000
  C   C1704     1.0  0.58056  0.02535  0.10359  1.0000
  H   H3047     1.0  0.60229  0.02977  0.07909  1.0000
  C   C1705     1.0  0.57079  0.02772  0.23744  1.0000
  H   H3048     1.0  0.51670  0.20974  0.04368  1.0000
  H   H3049     1.0  0.51105  0.27409  0.01283  1.0000
  S   S384      1.0  0.52462  0.13025  0.00824  1.0000
  C   C1706     1.0  0.51517  0.03557  0.11020  1.0000
  C   C1707     1.0  0.51221  0.13151  0.05422  1.0000
  H   H3050     1.0  0.50895  0.13894  0.06217  1.0000
  H   H3051     1.0  0.52246  0.00694  0.14190  1.0000
  H   H3052     1.0  0.60585  0.00513  0.19363  1.0000
  H   H3053     1.0  0.50705  0.02618  0.14995  1.0000
  C   C1708     1.0  0.50296  0.04696  0.11409  1.0000
  H   H3054     1.0  0.62544  0.01838  0.12396  1.0000
  C   C1709     1.0  0.51549  0.30930  0.00643  1.0000
  H   H3055     1.0  0.51621  0.06476  0.23884  1.0000
  H   H3056     1.0  0.54434  0.00459  0.22304  1.0000
  C   C1710     1.0  0.56904  0.01975  0.22807  1.0000
  C   C1711     1.0  0.56408  0.25749  0.99995  1.0000
  H   H3057     1.0  0.52479  0.07771  0.20754  1.0000
  S   S385      1.0  0.56846  0.19804  0.00928  1.0000
  H   H3058     1.0  0.50353  0.05646  0.22213  1.0000
  H   H3059     1.0  0.50592  0.08257  0.21829  1.0000
  H   H3060     1.0  0.52415  0.26978  0.02486  1.0000
  H   H3061     1.0  0.57121  0.26563  0.01500  1.0000
  H   H3062     1.0  0.56327  0.00786  0.08768  1.0000
  H   H3063     1.0  0.50906  0.07697  0.20103  1.0000
  H   H3064     1.0  0.52119  0.99492  0.16633  1.0000
  H   H3065     1.0  0.53777  0.03098  0.22663  1.0000
  H   H3066     1.0  0.51355  0.31767  0.01314  1.0000
  H   H3067     1.0  0.50161  0.15465  0.01759  1.0000
  C   C1712     1.0  0.50359  0.05522  0.12383  1.0000
  H   H3068     1.0  0.59558  0.99612  0.17022  1.0000
  H   H3069     1.0  0.61633  0.22394  0.00179  1.0000
  H   H3070     1.0  0.53479  0.99704  0.11246  1.0000
  H   H3071     1.0  0.59933  0.23813  0.00219  1.0000
  N   N94       1.0  0.50478  0.99568  0.15409  1.0000
  H   H3072     1.0  0.50338  0.99333  0.17749  1.0000
  C   C1713     1.0  0.52708  0.02902  0.23407  1.0000
  H   H3073     1.0  0.53350  0.05622  0.22892  1.0000
  H   H3074     1.0  0.55917  0.99277  0.16427  1.0000
  C   C1714     1.0  0.54019  0.99118  0.12199  1.0000
  H   H3075     1.0  0.57478  0.99244  0.19987  1.0000
  C   C1715     1.0  0.57583  0.99367  0.14391  1.0000
  H   H3076     1.0  0.52506  0.31095  0.99698  1.0000
  H   H3077     1.0  0.57122  0.04914  0.23990  1.0000
  H   H3078     1.0  0.51004  0.19394  0.99004  1.0000
  C   C1716     1.0  0.63628  0.00730  0.40958  1.0000
  H   H3079     1.0  0.94598  0.09564  0.44364  1.0000
  H   H3080     1.0  0.83034  0.99445  0.39879  1.0000
  H   H3081     1.0  0.88700  0.32255  0.43867  1.0000
  H   H3082     1.0  0.99701  0.22853  0.33217  1.0000
  H   H3083     1.0  0.71084  0.09526  0.47701  1.0000
  S   S386      1.0  0.63830  0.01535  0.44819  1.0000
  C   C1717     1.0  0.81996  0.00477  0.42670  1.0000
  Fe  Fe195     1.0  0.69526  0.06566  0.47849  1.0000
  S   S387      1.0  0.99669  0.26403  0.35765  1.0000
  S   S388      1.0  0.68771  0.07725  0.45733  1.0000
  H   H3084     1.0  0.89419  0.23503  0.43931  1.0000
  H   H3085     1.0  0.89156  0.22310  0.45739  1.0000
  C   C1718     1.0  0.94502  0.18624  0.48939  1.0000
  C   C1719     1.0  0.88570  0.23079  0.44876  1.0000
  C   C1720     1.0  0.59382  0.00877  0.41266  1.0000
  H   H3086     1.0  0.70696  0.14139  0.34386  1.0000
  C   C1721     1.0  0.99539  0.30901  0.36760  1.0000
  S   S389      1.0  0.71946  0.06115  0.47936  1.0000
  Fe  Fe196     1.0  0.79292  0.09416  0.44533  1.0000
  S   S390      1.0  0.78523  0.08349  0.43177  1.0000
  S   S391      1.0  0.77754  0.10704  0.46202  1.0000
  Fe  Fe197     1.0  0.82544  0.08690  0.42948  1.0000
  S   S392      1.0  0.82060  0.07517  0.41449  1.0000
  S   S393      1.0  0.84852  0.09097  0.42640  1.0000
  Fe  Fe198     1.0  0.80062  0.09406  0.41246  1.0000
  S   S394      1.0  0.79428  0.10732  0.39099  1.0000
  Fe  Fe199     1.0  0.80556  0.06531  0.43499  1.0000
  S   S395      1.0  0.79988  0.04298  0.44054  1.0000
  S   S396      1.0  0.80661  0.10656  0.42575  1.0000
  S   S397      1.0  0.81217  0.07524  0.45027  1.0000
  Fe  Fe200     1.0  0.87526  0.17198  0.43781  1.0000
  S   S398      1.0  0.89441  0.17550  0.44482  1.0000
  S   S399      1.0  0.86039  0.18644  0.42240  1.0000
  Fe  Fe201     1.0  0.87521  0.14194  0.45841  1.0000
  S   S400      1.0  0.89467  0.14240  0.46710  1.0000
  S   S401      1.0  0.86031  0.12560  0.46821  1.0000
  Fe  Fe202     1.0  0.88324  0.16607  0.46788  1.0000
  C   C1722     1.0  0.79859  0.04555  0.48133  1.0000
  Fe  Fe203     1.0  0.90465  0.15163  0.44357  1.0000
  S   S402      1.0  0.92918  0.14615  0.43264  1.0000
  S   S403      1.0  0.86307  0.16498  0.46105  1.0000
  S   S404      1.0  0.88626  0.14886  0.43468  1.0000
  H   H3087     1.0  0.53960  0.01027  0.24808  1.0000
  C   C1723     1.0  0.58864  0.00490  0.40075  1.0000
  H   H3088     1.0  0.80188  0.01584  0.35099  1.0000
  H   H3089     1.0  0.63180  0.01911  0.29043  1.0000
  H   H3090     1.0  0.72794  0.11637  0.31701  1.0000
  H   H3091     1.0  0.58733  0.01778  0.31474  1.0000
  C   C1724     1.0  0.98771  0.28929  0.44039  1.0000
  H   H3092     1.0  0.87374  0.24220  0.42633  1.0000
  H   H3093     1.0  0.69716  0.09807  0.46612  1.0000
  C   C1725     1.0  0.97768  0.25485  0.38321  1.0000
  H   H3094     1.0  0.91479  0.19862  0.44377  1.0000
  Fe  Fe204     1.0  0.72927  0.05287  0.38635  1.0000
  S   S405      1.0  0.72012  0.07670  0.37708  1.0000
  S   S406      1.0  0.72862  0.04120  0.40987  1.0000
  Fe  Fe205     1.0  0.74351  0.04557  0.35679  1.0000
  S   S407      1.0  0.73611  0.06873  0.34444  1.0000
  S   S408      1.0  0.75560  0.02572  0.34705  1.0000
  Fe  Fe206     1.0  0.74267  0.07547  0.36201  1.0000
  S   S409      1.0  0.75239  0.09548  0.35637  1.0000
  Fe  Fe207     1.0  0.71408  0.06823  0.36040  1.0000
  S   S410      1.0  0.69270  0.07962  0.35237  1.0000
  S   S411      1.0  0.75239  0.05227  0.37262  1.0000
  S   S412      1.0  0.72084  0.04455  0.37131  1.0000
  Fe  Fe208     1.0  0.88802  0.26692  0.40421  1.0000
  S   S413      1.0  0.88051  0.27475  0.38274  1.0000
  S   S414      1.0  0.87278  0.27401  0.42457  1.0000
  Fe  Fe209     1.0  0.91888  0.25158  0.38984  1.0000
  S   S415      1.0  0.91412  0.25819  0.36714  1.0000
  S   S416      1.0  0.94083  0.23871  0.39491  1.0000
  Fe  Fe210     1.0  0.90299  0.28027  0.37325  1.0000
  S   S417      1.0  0.90670  0.30284  0.36099  1.0000
  Fe  Fe211     1.0  0.89231  0.25184  0.37917  1.0000
  S   S418      1.0  0.88093  0.23860  0.37167  1.0000
  S   S419      1.0  0.90956  0.27394  0.39513  1.0000
  S   S420      1.0  0.89806  0.24361  0.40151  1.0000
  C   C1726     1.0  0.94252  0.29418  0.37911  1.0000
  C   C1727     1.0  0.93240  0.29305  0.37154  1.0000
  C   C1728     1.0  0.92092  0.30521  0.36789  1.0000
  H   H3095     1.0  0.95110  0.28457  0.38229  1.0000
  H   H3096     1.0  0.93322  0.28256  0.36894  1.0000
  H   H3097     1.0  0.74470  0.02042  0.37847  1.0000
  C   C1729     1.0  0.65387  0.05831  0.35694  1.0000
  C   C1730     1.0  0.65243  0.07364  0.35292  1.0000
  C   C1731     1.0  0.66452  0.07981  0.35141  1.0000
  C   C1732     1.0  0.67823  0.07077  0.35412  1.0000
  C   C1733     1.0  0.67985  0.05534  0.35813  1.0000
  C   C1734     1.0  0.66763  0.04910  0.35957  1.0000
  H   H3098     1.0  0.64185  0.08083  0.35094  1.0000
  H   H3099     1.0  0.66315  0.09168  0.34825  1.0000
  H   H3100     1.0  0.69043  0.04828  0.36022  1.0000
  H   H3101     1.0  0.66871  0.03727  0.36292  1.0000
  H   H3102     1.0  0.63344  0.99255  0.29394  1.0000
  H   H3103     1.0  0.83528  0.26388  0.46842  1.0000
  H   H3104     1.0  0.65036  0.00204  0.30483  1.0000
  H   H3105     1.0  0.98274  0.19066  0.38826  1.0000
  C   C1735     1.0  0.89932  0.27131  0.45844  1.0000
  C   C1736     1.0  0.88432  0.27892  0.45997  1.0000
  C   C1737     1.0  0.87616  0.27956  0.44963  1.0000
  C   C1738     1.0  0.88304  0.27274  0.43760  1.0000
  C   C1739     1.0  0.89809  0.26528  0.43593  1.0000
  C   C1740     1.0  0.90627  0.26466  0.44629  1.0000
  H   H3106     1.0  0.98604  0.21790  0.37605  1.0000
  H   H3107     1.0  0.86452  0.28534  0.45094  1.0000
  H   H3108     1.0  0.90345  0.25990  0.42670  1.0000
  H   H3109     1.0  0.91791  0.25890  0.44492  1.0000
  H   H3110     1.0  0.86316  0.19381  0.37264  1.0000
  C   C1741     1.0  0.94200  0.13971  0.44440  1.0000
  C   C1742     1.0  0.95570  0.14398  0.43977  1.0000
  C   C1743     1.0  0.93893  0.13011  0.45809  1.0000
  H   H3111     1.0  0.95814  0.15121  0.42909  1.0000
  H   H3112     1.0  0.92850  0.12656  0.46163  1.0000
  C   C1744     1.0  0.86700  0.20028  0.40807  1.0000
  C   C1745     1.0  0.85794  0.20846  0.39802  1.0000
  C   C1746     1.0  0.86259  0.21981  0.38658  1.0000
  C   C1747     1.0  0.87613  0.22341  0.38538  1.0000
  C   C1748     1.0  0.88533  0.21513  0.39534  1.0000
  C   C1749     1.0  0.88080  0.20349  0.40665  1.0000
  H   H3113     1.0  0.84724  0.20606  0.39909  1.0000
  H   H3114     1.0  0.85548  0.22613  0.37890  1.0000
  H   H3115     1.0  0.89604  0.21751  0.39416  1.0000
  H   H3116     1.0  0.88792  0.19712  0.41431  1.0000
  H   H3117     1.0  0.93339  0.15157  0.47526  1.0000
  C   C1750     1.0  0.90015  0.99221  0.37446  1.0000
  H   H3118     1.0  0.96310  0.19840  0.38919  1.0000
  H   H3119     1.0  0.71499  0.03502  0.31107  1.0000
  C   C1751     1.0  0.71335  0.03238  0.32334  1.0000
  Fe  Fe212     1.0  0.61823  0.01150  0.35132  1.0000
  H   H3120     1.0  0.60290  0.01473  0.40698  1.0000
  H   H3121     1.0  0.72995  0.00282  0.39527  1.0000
  H   H3122     1.0  0.73577  0.04717  0.30669  1.0000
  H   H3123     1.0  0.52010  0.01014  0.25098  1.0000
  C   C1752     1.0  0.85153  0.10067  0.43811  1.0000
  C   C1753     1.0  0.86499  0.10531  0.43466  1.0000
  C   C1754     1.0  0.86772  0.11312  0.44371  1.0000
  C   C1755     1.0  0.85709  0.11611  0.45644  1.0000
  C   C1756     1.0  0.84368  0.11135  0.45997  1.0000
  C   C1757     1.0  0.84082  0.10382  0.45074  1.0000
  H   H3124     1.0  0.87334  0.10284  0.42494  1.0000
  H   H3125     1.0  0.87814  0.11660  0.44098  1.0000
  H   H3126     1.0  0.83542  0.11361  0.46980  1.0000
  H   H3127     1.0  0.83041  0.10030  0.45348  1.0000
  C   C1758     1.0  0.78225  0.10317  0.38241  1.0000
  C   C1759     1.0  0.77681  0.09017  0.38733  1.0000
  C   C1760     1.0  0.76750  0.08751  0.37956  1.0000
  C   C1761     1.0  0.76367  0.09789  0.36696  1.0000
  C   C1762     1.0  0.76898  0.11087  0.36234  1.0000
  C   C1763     1.0  0.77820  0.11347  0.36997  1.0000
  H   H3128     1.0  0.77995  0.08213  0.39691  1.0000
  H   H3129     1.0  0.76342  0.07745  0.38321  1.0000
  H   H3130     1.0  0.76610  0.11890  0.35264  1.0000
  H   H3131     1.0  0.78235  0.12349  0.36611  1.0000
  C   C1764     1.0  0.69884  0.06737  0.44402  1.0000
  C   C1765     1.0  0.69921  0.07352  0.42903  1.0000
  C   C1766     1.0  0.70859  0.06564  0.41841  1.0000
  C   C1767     1.0  0.71733  0.05155  0.42282  1.0000
  C   C1768     1.0  0.71683  0.04539  0.43783  1.0000
  C   C1769     1.0  0.70768  0.05338  0.44842  1.0000
  H   H3132     1.0  0.69235  0.08437  0.42569  1.0000
  H   H3133     1.0  0.70883  0.07034  0.40689  1.0000
  H   H3134     1.0  0.72358  0.03449  0.44129  1.0000
  H   H3135     1.0  0.70739  0.04869  0.45999  1.0000
  H   H3136     1.0  0.72351  0.01001  0.43556  1.0000
  C   C1770     1.0  0.92389  0.17622  0.48893  1.0000
  C   C1771     1.0  0.75811  0.08816  0.47194  1.0000
  C   C1772     1.0  0.76135  0.10118  0.47275  1.0000
  H   H3137     1.0  0.67358  0.12339  0.38163  1.0000
  C   C1773     1.0  0.59011  0.00776  0.44519  1.0000
  H   H3138     1.0  0.95591  0.30905  0.32148  1.0000
  H   H3139     1.0  0.76549  0.08158  0.46418  1.0000
  H   H3140     1.0  0.98935  0.16236  0.39949  1.0000
  H   H3141     1.0  0.99104  0.28406  0.43068  1.0000
  H   H3142     1.0  0.97181  0.10417  0.41830  1.0000
  H   H3143     1.0  0.96943  0.25380  0.48691  1.0000
  C   C1774     1.0  0.63575  0.00692  0.43519  1.0000
  C   C1775     1.0  0.94854  0.20257  0.41874  1.0000
  C   C1776     1.0  0.51192  0.99583  0.28427  1.0000
  C   C1777     1.0  0.63786  0.01398  0.42019  1.0000
  H   H3144     1.0  0.86495  0.30663  0.40815  1.0000
  C   C1778     1.0  0.73341  0.04650  0.31880  1.0000
  H   H3145     1.0  0.99165  0.24045  0.34522  1.0000
  H   H3146     1.0  0.82240  0.03509  0.47965  1.0000
  C   C1779     1.0  0.83135  0.00084  0.38722  1.0000
  H   H3147     1.0  0.97559  0.30577  0.31270  1.0000
  H   H3148     1.0  0.55052  0.00699  0.34263  1.0000
  H   H3149     1.0  0.63587  0.00136  0.32145  1.0000
  C   C1780     1.0  0.97377  0.20085  0.38920  1.0000
  C   C1781     1.0  0.95398  0.26239  0.42383  1.0000
  C   C1782     1.0  0.53826  0.04543  0.27354  1.0000
  C   C1783     1.0  0.80925  0.01703  0.43106  1.0000
  C   C1784     1.0  0.81369  0.02863  0.43356  1.0000
  C   C1785     1.0  0.82893  0.02815  0.43125  1.0000
  H   H3150     1.0  0.79748  0.01752  0.43252  1.0000
  H   H3151     1.0  0.69859  0.11315  0.47287  1.0000
  S   S421      1.0  0.97563  0.12348  0.47465  1.0000
  H   H3152     1.0  0.68413  0.15656  0.35475  1.0000
  H   H3153     1.0  0.92500  0.28791  0.43140  1.0000
  C   C1786     1.0  0.99653  0.30127  0.43682  1.0000
  C   C1787     1.0  0.79578  0.99537  0.46671  1.0000
  H   H3154     1.0  0.84269  0.99660  0.38090  1.0000
  H   H3155     1.0  0.98247  0.21501  0.44305  1.0000
  H   H3156     1.0  0.94639  0.27353  0.47973  1.0000
  H   H3157     1.0  0.83380  0.14604  0.48285  1.0000
  C   C1788     1.0  0.72947  0.00714  0.48550  1.0000
  C   C1789     1.0  0.67968  0.03127  0.32925  1.0000
  C   C1790     1.0  0.50461  0.03967  0.25072  1.0000
  H   H3158     1.0  0.91038  0.23273  0.46730  1.0000
  H   H3159     1.0  0.61727  0.01828  0.30712  1.0000
  N   N95       1.0  0.99191  0.09392  0.43822  1.0000
  H   H3160     1.0  0.54000  0.03383  0.27999  1.0000
  C   C1791     1.0  0.77006  0.02350  0.47280  1.0000
  C   C1792     1.0  0.85216  0.24804  0.40777  1.0000
  H   H3161     1.0  0.94695  0.11769  0.47783  1.0000
  C   C1793     1.0  0.86377  0.31300  0.38521  1.0000
  H   H3162     1.0  0.74309  0.07335  0.48101  1.0000
  H   H3163     1.0  0.92665  0.23969  0.46515  1.0000
  H   H3164     1.0  0.76677  0.00684  0.38972  1.0000
  H   H3165     1.0  0.67687  0.10622  0.40566  1.0000
  H   H3166     1.0  0.50463  0.03044  0.26055  1.0000
  H   H3167     1.0  0.99010  0.32230  0.39844  1.0000
  H   H3168     1.0  0.58308  0.99913  0.30378  1.0000
  H   H3169     1.0  0.66890  0.11149  0.36113  1.0000
  C   C1794     1.0  0.68483  0.11656  0.38281  1.0000
  H   H3170     1.0  0.97060  0.08919  0.45108  1.0000
  H   H3171     1.0  0.69327  0.09499  0.39618  1.0000
  H   H3172     1.0  0.82656  0.26017  0.44757  1.0000
  H   H3173     1.0  0.80238  0.99757  0.39992  1.0000
  H   H3174     1.0  0.56918  0.00017  0.45585  1.0000
  H   H3175     1.0  0.99749  0.09361  0.48108  1.0000
  H   H3176     1.0  0.89514  0.00325  0.37735  1.0000
  H   H3177     1.0  0.65425  0.13688  0.33860  1.0000
  H   H3178     1.0  0.84833  0.27150  0.39723  1.0000
  H   H3179     1.0  0.99685  0.05564  0.42305  1.0000
  H   H3180     1.0  0.99190  0.31608  0.48488  1.0000
  C   C1795     1.0  0.85646  0.21372  0.48718  1.0000
  C   C1796     1.0  0.70166  0.13608  0.35519  1.0000
  H   H3181     1.0  0.99453  0.32078  0.36742  1.0000
  C   C1797     1.0  0.96878  0.25907  0.36086  1.0000
  C   C1798     1.0  0.66880  0.03589  0.31887  1.0000
  C   C1799     1.0  0.69150  0.14919  0.36227  1.0000
  H   H3182     1.0  0.98846  0.17025  0.42875  1.0000
  H   H3183     1.0  0.64800  0.12015  0.34827  1.0000
  N   N96       1.0  0.58403  0.02179  0.43496  1.0000
  C   C1800     1.0  0.52999  0.03762  0.25451  1.0000
  C   C1801     1.0  0.59560  0.03103  0.42933  1.0000
  C   C1802     1.0  0.56969  0.02984  0.44350  1.0000
  C   C1803     1.0  0.58068  0.01850  0.42188  1.0000
  H   H3184     1.0  0.98463  0.20551  0.40391  1.0000
  H   H3185     1.0  0.70018  0.00379  0.37612  1.0000
  C   C1804     1.0  0.56310  0.04583  0.43577  1.0000
  C   C1805     1.0  0.59953  0.03647  0.44127  1.0000
  C   C1806     1.0  0.60951  0.04754  0.43424  1.0000
  H   H3186     1.0  0.54186  0.03690  0.24870  1.0000
  H   H3187     1.0  0.99105  0.07328  0.46496  1.0000
  H   H3188     1.0  0.86611  0.31101  0.45436  1.0000
  H   H3189     1.0  0.60633  0.02459  0.42380  1.0000
  H   H3190     1.0  0.59224  0.04071  0.42053  1.0000
  H   H3191     1.0  0.58177  0.05804  0.48326  1.0000
  H   H3192     1.0  0.57716  0.02897  0.41398  1.0000
  H   H3193     1.0  0.91333  0.18281  0.46983  1.0000
  H   H3194     1.0  0.67392  0.02609  0.34032  1.0000
  C   C1807     1.0  0.95526  0.18292  0.47461  1.0000
  H   H3195     1.0  0.56031  0.04590  0.42527  1.0000
  H   H3196     1.0  0.57104  0.05307  0.43331  1.0000
  H   H3197     1.0  0.58947  0.04200  0.44842  1.0000
  H   H3198     1.0  0.60568  0.02693  0.44838  1.0000
  H   H3199     1.0  0.61987  0.04261  0.42694  1.0000
  H   H3200     1.0  0.60348  0.05772  0.42768  1.0000
  H   H3201     1.0  0.61277  0.05061  0.44306  1.0000
  C   C1808     1.0  0.67954  0.00798  0.40904  1.0000
  H   H3202     1.0  0.92786  0.20077  0.46727  1.0000
  N   N97       1.0  0.69434  0.12434  0.35441  1.0000
  C   C1809     1.0  0.69120  0.00290  0.37132  1.0000
  H   H3203     1.0  0.71327  0.01530  0.35097  1.0000
  H   H3204     1.0  0.83310  0.26294  0.39909  1.0000
  C   C1810     1.0  0.86353  0.19960  0.48413  1.0000
  H   H3205     1.0  0.69937  0.00216  0.44035  1.0000
  H   H3206     1.0  0.83013  0.01268  0.38710  1.0000
  C   C1811     1.0  0.80344  0.00515  0.38878  1.0000
  H   H3207     1.0  0.84364  0.21630  0.46093  1.0000
  C   C1812     1.0  0.70339  0.11762  0.34128  1.0000
  Fe  Fe213     1.0  0.62497  0.01015  0.47147  1.0000
  C   C1813     1.0  0.52607  0.04865  0.26480  1.0000
  H   H3208     1.0  0.69064  0.12277  0.38675  1.0000
  H   H3209     1.0  0.95803  0.28252  0.33188  1.0000
  H   H3210     1.0  0.60172  0.00263  0.44012  1.0000
  H   H3211     1.0  0.86450  0.24628  0.40422  1.0000
  H   H3212     1.0  0.70499  0.04208  0.32700  1.0000
  H   H3213     1.0  0.76471  0.02214  0.48472  1.0000
  H   H3214     1.0  0.54019  0.04616  0.44828  1.0000
  N   N98       1.0  0.85304  0.14817  0.40270  1.0000
  C   C1814     1.0  0.85326  0.15969  0.38846  1.0000
  C   C1815     1.0  0.84969  0.13463  0.40040  1.0000
  C   C1816     1.0  0.84126  0.15463  0.41475  1.0000
  C   C1817     1.0  0.86794  0.14374  0.40714  1.0000
  C   C1818     1.0  0.88166  0.13803  0.39543  1.0000
  C   C1819     1.0  0.85889  0.17352  0.38787  1.0000
  C   C1820     1.0  0.83909  0.14407  0.43014  1.0000
  C   C1821     1.0  0.83346  0.13624  0.39893  1.0000
  C   C1822     1.0  0.83210  0.12291  0.39407  1.0000
  C   C1823     1.0  0.89614  0.13452  0.40089  1.0000
  C   C1824     1.0  0.85897  0.18411  0.37280  1.0000
  C   C1825     1.0  0.82526  0.15070  0.44073  1.0000
  H   H3215     1.0  0.84183  0.16393  0.38614  1.0000
  H   H3216     1.0  0.86011  0.15470  0.37888  1.0000
  H   H3217     1.0  0.85727  0.13124  0.39023  1.0000
  H   H3218     1.0  0.85218  0.12489  0.40948  1.0000
  H   H3219     1.0  0.83029  0.15902  0.41137  1.0000
  H   H3220     1.0  0.84409  0.16435  0.41657  1.0000
  H   H3221     1.0  0.87002  0.15304  0.41052  1.0000
  H   H3222     1.0  0.86783  0.13468  0.41716  1.0000
  H   H3223     1.0  0.88280  0.14634  0.38489  1.0000
  H   H3224     1.0  0.88066  0.12770  0.39315  1.0000
  H   H3225     1.0  0.85151  0.17972  0.39634  1.0000
  H   H3226     1.0  0.87045  0.17048  0.38972  1.0000
  H   H3227     1.0  0.84885  0.14222  0.43511  1.0000
  H   H3228     1.0  0.83778  0.13321  0.42950  1.0000
  H   H3229     1.0  0.82553  0.13696  0.40971  1.0000
  H   H3230     1.0  0.82986  0.14626  0.39065  1.0000
  H   H3231     1.0  0.83924  0.12208  0.38294  1.0000
  H   H3232     1.0  0.83546  0.11251  0.40207  1.0000
  H   H3233     1.0  0.82031  0.12409  0.39355  1.0000
  H   H3234     1.0  0.89813  0.14472  0.40255  1.0000
  H   H3235     1.0  0.89565  0.12616  0.41147  1.0000
  H   H3236     1.0  0.90573  0.12997  0.39256  1.0000
  H   H3237     1.0  0.84748  0.18817  0.37063  1.0000
  H   H3238     1.0  0.82437  0.14308  0.45176  1.0000
  H   H3239     1.0  0.82613  0.16156  0.44192  1.0000
  H   H3240     1.0  0.81499  0.15215  0.43666  1.0000
  N   N99       1.0  0.79052  0.00621  0.38194  1.0000
  H   H3241     1.0  0.98543  0.25589  0.38891  1.0000
  H   H3242     1.0  0.67968  0.99745  0.47751  1.0000
  H   H3243     1.0  0.65831  0.04318  0.32369  1.0000
  C   C1826     1.0  0.92218  0.31452  0.44904  1.0000
  H   H3244     1.0  0.85986  0.19542  0.47669  1.0000
  C   C1827     1.0  0.96560  0.27318  0.46109  1.0000
  H   H3245     1.0  0.69132  0.10257  0.36664  1.0000
  C   C1828     1.0  0.95351  0.26572  0.47265  1.0000
  H   H3246     1.0  0.78951  0.04507  0.47644  1.0000
  H   H3247     1.0  0.97471  0.26440  0.45659  1.0000
  H   H3248     1.0  0.97061  0.27757  0.46773  1.0000
  H   H3249     1.0  0.97347  0.27392  0.43100  1.0000
  H   H3250     1.0  0.95841  0.25658  0.44552  1.0000
  H   H3251     1.0  0.96474  0.29659  0.34650  1.0000
  C   C1829     1.0  0.68245  0.10289  0.39492  1.0000
  C   C1830     1.0  0.99649  0.09455  0.45190  1.0000
  H   H3252     1.0  0.94608  0.26258  0.46758  1.0000
  C   C1831     1.0  0.71905  0.00494  0.32605  1.0000
  H   H3253     1.0  0.69147  0.00738  0.40345  1.0000
  H   H3254     1.0  0.94908  0.27203  0.41586  1.0000
  S   S422      1.0  0.60587  0.02835  0.47872  1.0000
  Fe  Fe214     1.0  0.65206  0.00091  0.34621  1.0000
  H   H3255     1.0  0.71790  0.00803  0.30279  1.0000
  H   H3256     1.0  0.87903  0.28447  0.46905  1.0000
  C   C1832     1.0  0.97298  0.20578  0.40355  1.0000
  C   C1833     1.0  0.78673  0.02107  0.37176  1.0000
  C   C1834     1.0  0.79852  0.02459  0.35749  1.0000
  C   C1835     1.0  0.97973  0.25942  0.36787  1.0000
  C   C1836     1.0  0.77285  0.01534  0.40520  1.0000
  H   H3257     1.0  0.94481  0.31640  0.44092  1.0000
  C   C1837     1.0  0.79236  0.03913  0.34750  1.0000
  C   C1838     1.0  0.99861  0.08269  0.47862  1.0000
  C   C1839     1.0  0.75966  0.01193  0.41764  1.0000
  C   C1840     1.0  0.96700  0.28633  0.32271  1.0000
  H   H3258     1.0  0.74921  0.99988  0.34257  1.0000
  H   H3259     1.0  0.80310  0.01615  0.39071  1.0000
  H   H3260     1.0  0.99136  0.28087  0.44992  1.0000
  S   S423      1.0  0.65406  0.00763  0.36611  1.0000
  H   H3261     1.0  0.68200  0.04152  0.33027  1.0000
  H   H3262     1.0  0.77595  0.02250  0.36856  1.0000
  H   H3263     1.0  0.78472  0.03014  0.37766  1.0000
  C   C1841     1.0  0.96948  0.18084  0.41827  1.0000
  C   C1842     1.0  0.76113  0.03780  0.46478  1.0000
  H   H3264     1.0  0.95182  0.21942  0.43588  1.0000
  H   H3265     1.0  0.64769  0.13338  0.35854  1.0000
  H   H3266     1.0  0.76956  0.02706  0.39950  1.0000
  H   H3267     1.0  0.78226  0.01418  0.41044  1.0000
  C   C1843     1.0  0.95077  0.10224  0.43287  1.0000
  H   H3268     1.0  0.96557  0.21138  0.45610  1.0000
  H   H3269     1.0  0.80110  0.04165  0.33746  1.0000
  H   H3270     1.0  0.78254  0.03828  0.34394  1.0000
  H   H3271     1.0  0.78896  0.04843  0.35337  1.0000
  H   H3272     1.0  0.52954  0.02670  0.26215  1.0000
  S   S424      1.0  0.63696  0.02243  0.33825  1.0000
  H   H3273     1.0  0.69327  0.16799  0.36950  1.0000
  C   C1844     1.0  0.99107  0.15962  0.41098  1.0000
  Fe  Fe215     1.0  0.57117  0.99586  0.26502  1.0000
  C   C1845     1.0  0.69682  0.00280  0.35491  1.0000
  H   H3274     1.0  0.54254  0.03641  0.48270  1.0000
  H   H3275     1.0  0.92757  0.22649  0.45459  1.0000
  N   N100      1.0  0.68270  0.02649  0.42243  1.0000
  C   C1846     1.0  0.67553  0.01415  0.42332  1.0000
  C   C1847     1.0  0.67525  0.03348  0.43571  1.0000
  C   C1848     1.0  0.67951  0.03820  0.40887  1.0000
  C   C1849     1.0  0.69943  0.02140  0.42124  1.0000
  C   C1850     1.0  0.70558  0.00518  0.42885  1.0000
  H   H3276     1.0  0.76238  0.00037  0.42390  1.0000
  C   C1851     1.0  0.68496  0.05253  0.40641  1.0000
  C   C1852     1.0  0.67615  0.02335  0.45112  1.0000
  C   C1853     1.0  0.66706  0.03160  0.46343  1.0000
  C   C1854     1.0  0.72202  0.00263  0.42926  1.0000
  H   H3277     1.0  0.84719  0.22041  0.48226  1.0000
  C   C1855     1.0  0.68276  0.06265  0.39156  1.0000
  H   H3278     1.0  0.66321  0.01810  0.42583  1.0000
  H   H3279     1.0  0.97874  0.17953  0.46356  1.0000
  H   H3280     1.0  0.68032  0.04268  0.43532  1.0000
  H   H3281     1.0  0.66318  0.03843  0.43559  1.0000
  H   H3282     1.0  0.66726  0.04144  0.40909  1.0000
  H   H3283     1.0  0.68497  0.03375  0.39866  1.0000
  H   H3284     1.0  0.70550  0.02256  0.40943  1.0000
  H   H3285     1.0  0.70334  0.02876  0.42574  1.0000
  C   C1856     1.0  0.92277  0.15942  0.47323  1.0000
  C   C1857     1.0  0.98633  0.17354  0.41739  1.0000
  H   H3286     1.0  0.67251  0.01535  0.40119  1.0000
  H   H3287     1.0  0.98323  0.29643  0.33601  1.0000
  H   H3288     1.0  0.69703  0.04976  0.40638  1.0000
  H   H3289     1.0  0.67867  0.05898  0.41505  1.0000
  H   H3290     1.0  0.67173  0.01343  0.45284  1.0000
  H   H3291     1.0  0.68788  0.01997  0.45245  1.0000
  H   H3292     1.0  0.65501  0.03492  0.46299  1.0000
  H   H3293     1.0  0.66819  0.02432  0.47440  1.0000
  H   H3294     1.0  0.67116  0.04162  0.46241  1.0000
  H   H3295     1.0  0.80847  0.02605  0.36029  1.0000
  H   H3296     1.0  0.91340  0.15577  0.48190  1.0000
  H   H3297     1.0  0.55599  0.00267  0.32453  1.0000
  H   H3298     1.0  0.96470  0.28590  0.31213  1.0000
  H   H3299     1.0  0.98647  0.23129  0.45996  1.0000
  H   H3300     1.0  0.74390  0.04638  0.32180  1.0000
  H   H3301     1.0  0.68905  0.05686  0.38247  1.0000
  H   H3302     1.0  0.67073  0.06618  0.39108  1.0000
  H   H3303     1.0  0.68717  0.07258  0.38985  1.0000
  N   N101      1.0  0.70749  0.01848  0.32988  1.0000
  H   H3304     1.0  0.80401  0.99376  0.36517  1.0000
  H   H3305     1.0  0.59112  0.01032  0.45545  1.0000
  C   C1858     1.0  0.63832  0.00224  0.30932  1.0000
  C   C1859     1.0  0.97007  0.21813  0.44538  1.0000
  H   H3306     1.0  0.89939  0.30034  0.43399  1.0000
  H   H3307     1.0  0.96364  0.17479  0.42883  1.0000
  C   C1860     1.0  0.99104  0.30756  0.35401  1.0000
  C   C1861     1.0  0.93030  0.31996  0.37863  1.0000
  H   H3308     1.0  0.83436  0.25428  0.42575  1.0000
  H   H3309     1.0  0.74984  0.01344  0.41292  1.0000
  H   H3310     1.0  0.56509  0.05446  0.48096  1.0000
  H   H3311     1.0  0.87589  0.31183  0.48900  1.0000
  S   S425      1.0  0.99359  0.24524  0.42966  1.0000
  H   H3312     1.0  0.72804  0.00203  0.33235  1.0000
  H   H3313     1.0  0.87113  0.22623  0.42267  1.0000
  H   H3314     1.0  0.84879  0.23827  0.40692  1.0000
  H   H3315     1.0  0.67789  0.00481  0.43270  1.0000
  H   H3316     1.0  0.85391  0.25318  0.44775  1.0000
  H   H3317     1.0  0.57096  0.01320  0.42545  1.0000
  H   H3318     1.0  0.97552  0.17218  0.48318  1.0000
  H   H3319     1.0  0.92930  0.29549  0.41189  1.0000
  H   H3320     1.0  0.91514  0.30638  0.45144  1.0000
  H   H3321     1.0  0.90426  0.30539  0.47902  1.0000
  S   S426      1.0  0.90900  0.26941  0.47219  1.0000
  C   C1862     1.0  0.99862  0.07860  0.43499  1.0000
  H   H3322     1.0  0.81637  0.99605  0.42457  1.0000
  H   H3323     1.0  0.94764  0.11409  0.43347  1.0000
  H   H3324     1.0  0.69530  0.02656  0.34974  1.0000
  C   C1863     1.0  0.96778  0.09695  0.42892  1.0000
  S   S427      1.0  0.57226  0.01961  0.25580  1.0000
  S   S428      1.0  0.56988  0.01462  0.48431  1.0000
  H   H3325     1.0  0.96595  0.19241  0.44101  1.0000
  N   N102      1.0  0.85171  0.23806  0.43592  1.0000
  C   C1864     1.0  0.96420  0.21617  0.43292  1.0000
  Fe  Fe216     1.0  0.99792  0.12992  0.46622  1.0000
  H   H3326     1.0  0.82161  0.00438  0.36856  1.0000
  H   H3327     1.0  0.68148  0.01230  0.37311  1.0000
  C   C1865     1.0  0.67873  0.13114  0.35165  1.0000
  H   H3328     1.0  0.77419  0.01296  0.45450  1.0000
  C   C1866     1.0  0.82868  0.25553  0.47001  1.0000
  H   H3329     1.0  0.67370  0.04214  0.30794  1.0000
  C   C1867     1.0  0.59038  0.00613  0.31968  1.0000
  H   H3330     1.0  0.82203  0.21061  0.45624  1.0000
  H   H3331     1.0  0.99431  0.30639  0.44649  1.0000
  C   C1868     1.0  0.83347  0.20387  0.45295  1.0000
  H   H3332     1.0  0.83542  0.19394  0.46193  1.0000
  C   C1869     1.0  0.92341  0.20295  0.47854  1.0000
  C   C1870     1.0  0.87389  0.32092  0.42345  1.0000
  N   N103      1.0  0.73671  0.09674  0.43330  1.0000
  C   C1871     1.0  0.74806  0.08256  0.43113  1.0000
  C   C1872     1.0  0.74486  0.10826  0.43288  1.0000
  C   C1873     1.0  0.72698  0.09369  0.44863  1.0000
  C   C1874     1.0  0.72683  0.10225  0.42209  1.0000
  C   C1875     1.0  0.73398  0.09897  0.40637  1.0000
  C   C1876     1.0  0.74153  0.06885  0.43364  1.0000
  C   C1877     1.0  0.71644  0.10747  0.45435  1.0000
  C   C1878     1.0  0.75549  0.11331  0.41814  1.0000
  C   C1879     1.0  0.76414  0.12360  0.42003  1.0000
  C   C1880     1.0  0.72382  0.10740  0.39551  1.0000
  C   C1881     1.0  0.75269  0.05694  0.42590  1.0000
  C   C1882     1.0  0.70509  0.10316  0.46843  1.0000
  H   H3333     1.0  0.75565  0.07954  0.43899  1.0000
  H   H3334     1.0  0.75550  0.08391  0.41999  1.0000
  H   H3335     1.0  0.73682  0.11868  0.43511  1.0000
  H   H3336     1.0  0.75135  0.10429  0.44183  1.0000
  H   H3337     1.0  0.73404  0.08774  0.45688  1.0000
  H   H3338     1.0  0.71982  0.08611  0.44920  1.0000
  H   H3339     1.0  0.71677  0.09739  0.42608  1.0000
  H   H3340     1.0  0.72227  0.11441  0.42090  1.0000
  H   H3341     1.0  0.73580  0.08701  0.40664  1.0000
  H   H3342     1.0  0.74492  0.10197  0.40176  1.0000
  H   H3343     1.0  0.73882  0.06398  0.44568  1.0000
  H   H3344     1.0  0.73107  0.07185  0.42953  1.0000
  H   H3345     1.0  0.71023  0.11491  0.44589  1.0000
  H   H3346     1.0  0.72304  0.11370  0.45726  1.0000
  H   H3347     1.0  0.76379  0.10389  0.41403  1.0000
  H   H3348     1.0  0.74894  0.11968  0.40959  1.0000
  H   H3349     1.0  0.75635  0.13352  0.42377  1.0000
  H   H3350     1.0  0.77127  0.11774  0.42822  1.0000
  H   H3351     1.0  0.77149  0.12733  0.40929  1.0000
  H   H3352     1.0  0.72900  0.10439  0.38456  1.0000
  H   H3353     1.0  0.71278  0.10445  0.39955  1.0000
  H   H3354     1.0  0.72231  0.11953  0.39409  1.0000
  H   H3355     1.0  0.74855  0.04660  0.42938  1.0000
  H   H3356     1.0  0.75401  0.06066  0.41371  1.0000
  H   H3357     1.0  0.76380  0.05449  0.42876  1.0000
  C   C1883     1.0  0.73734  0.99115  0.30705  1.0000
  C   C1884     1.0  0.94941  0.12507  0.46722  1.0000
  H   H3358     1.0  0.69695  0.02358  0.31129  1.0000
  H   H3359     1.0  0.96741  0.21773  0.40210  1.0000
  H   H3360     1.0  0.69904  0.10833  0.34064  1.0000
  H   H3361     1.0  0.83425  0.20014  0.44275  1.0000
  H   H3362     1.0  0.54901  0.04717  0.26594  1.0000
  H   H3363     1.0  0.78147  0.02505  0.47137  1.0000
  H   H3364     1.0  0.83242  0.03714  0.43310  1.0000
  C   C1885     1.0  0.92279  0.22975  0.46546  1.0000
  H   H3365     1.0  0.55113  0.05337  0.45619  1.0000
  H   H3366     1.0  0.71575  0.02476  0.47258  1.0000
  H   H3367     1.0  0.97015  0.08542  0.42745  1.0000
  H   H3368     1.0  0.98104  0.20788  0.36539  1.0000
  H   H3369     1.0  0.69115  0.00931  0.32560  1.0000
  H   H3370     1.0  0.70799  0.15174  0.37273  1.0000
  H   H3371     1.0  0.91828  0.20270  0.42386  1.0000
  C   C1886     1.0  0.73422  0.00209  0.38385  1.0000
  H   H3372     1.0  0.86645  0.17855  0.36386  1.0000
  H   H3373     1.0  0.76424  0.99566  0.45012  1.0000
  C   C1887     1.0  0.94131  0.30754  0.38292  1.0000
  C   C1888     1.0  0.96164  0.27899  0.43539  1.0000
  H   H3374     1.0  0.77795  0.00284  0.35971  1.0000
  C   C1889     1.0  0.83968  0.01575  0.42707  1.0000
  H   H3375     1.0  0.74948  0.03693  0.46589  1.0000
  S   S429      1.0  0.95358  0.30831  0.39322  1.0000
  C   C1890     1.0  0.96717  0.30216  0.32259  1.0000
  H   H3376     1.0  0.67921  0.13962  0.34111  1.0000
  C   C1891     1.0  0.97472  0.31616  0.35341  1.0000
  N   N104      1.0  0.96045  0.28529  0.44853  1.0000
  C   C1892     1.0  0.84517  0.21281  0.45049  1.0000
  C   C1893     1.0  0.72044  0.01302  0.47508  1.0000
  S   S430      1.0  0.61702  0.01958  0.37163  1.0000
  H   H3377     1.0  0.98545  0.29552  0.48597  1.0000
  H   H3378     1.0  0.96550  0.17833  0.40955  1.0000
  H   H3379     1.0  0.82718  0.16976  0.46581  1.0000
  C   C1894     1.0  0.97726  0.21276  0.37538  1.0000
  C   C1895     1.0  0.97057  0.29605  0.44379  1.0000
  H   H3380     1.0  0.94781  0.25356  0.42607  1.0000
  H   H3381     1.0  0.75835  0.00938  0.46875  1.0000
  H   H3382     1.0  0.85144  0.01521  0.42569  1.0000
  S   S431      1.0  0.63782  0.05164  0.35907  1.0000
  H   H3383     1.0  0.70237  0.12598  0.33079  1.0000
  N   N105      1.0  0.77947  0.99520  0.47304  1.0000
  C   C1896     1.0  0.92793  0.21734  0.47799  1.0000
  C   C1897     1.0  0.70331  0.01652  0.34647  1.0000
  C   C1898     1.0  0.95314  0.26667  0.43825  1.0000
  H   H3384     1.0  0.96825  0.30264  0.45242  1.0000
  H   H3385     1.0  0.95826  0.28788  0.42599  1.0000
  H   H3386     1.0  0.96584  0.25821  0.41868  1.0000
  C   C1899     1.0  0.92012  0.31881  0.37105  1.0000
  H   H3387     1.0  0.88537  0.21338  0.43904  1.0000
  H   H3388     1.0  0.70964  0.00810  0.46063  1.0000
  H   H3389     1.0  0.66609  0.02602  0.31729  1.0000
  H   H3390     1.0  0.95221  0.19185  0.46522  1.0000
  H   H3391     1.0  0.85060  0.26074  0.42366  1.0000
  H   H3392     1.0  0.99409  0.23261  0.48200  1.0000
  C   C1900     1.0  0.92345  0.17499  0.47330  1.0000
  H   H3393     1.0  0.56079  0.02360  0.44615  1.0000
  H   H3394     1.0  0.90645  0.30726  0.39999  1.0000
  H   H3395     1.0  0.87245  0.30934  0.42810  1.0000
  H   H3396     1.0  0.93931  0.18392  0.43359  1.0000
  H   H3397     1.0  0.94795  0.25284  0.36376  1.0000
  C   C1901     1.0  0.97167  0.18157  0.47442  1.0000
  C   C1902     1.0  0.92192  0.20370  0.43353  1.0000
  H   H3398     1.0  0.79822  0.00564  0.46759  1.0000
  H   H3399     1.0  0.85633  0.20525  0.44810  1.0000
  H   H3400     1.0  0.76069  0.04722  0.46956  1.0000
  H   H3401     1.0  0.64070  0.02467  0.41670  1.0000
  H   H3402     1.0  0.95440  0.17223  0.47302  1.0000
  H   H3403     1.0  0.59863  0.99819  0.41960  1.0000
  C   C1903     1.0  0.74248  0.01210  0.37427  1.0000
  H   H3404     1.0  0.52207  0.99970  0.28197  1.0000
  H   H3405     1.0  0.97333  0.19187  0.47617  1.0000
  H   H3406     1.0  0.63785  0.01289  0.39806  1.0000
  H   H3407     1.0  0.97828  0.08950  0.47078  1.0000
  H   H3408     1.0  0.92113  0.15921  0.46230  1.0000
  H   H3409     1.0  0.54419  0.06417  0.43994  1.0000
  C   C1904     1.0  0.77689  0.00480  0.39426  1.0000
  C   C1905     1.0  0.81948  0.99895  0.38040  1.0000
  S   S432      1.0  0.59894  0.01538  0.34009  1.0000
  C   C1906     1.0  0.55369  0.99785  0.33659  1.0000
  C   C1907     1.0  0.94471  0.29372  0.45374  1.0000
  H   H3410     1.0  0.94410  0.29738  0.46399  1.0000
  H   H3411     1.0  0.93660  0.28655  0.45685  1.0000
  H   H3412     1.0  0.97035  0.10833  0.44442  1.0000
  H   H3413     1.0  0.96824  0.22398  0.42278  1.0000
  C   C1908     1.0  0.62945  0.01735  0.30267  1.0000
  C   C1909     1.0  0.95490  0.24791  0.38444  1.0000
  H   H3414     1.0  0.96823  0.30409  0.43351  1.0000
  H   H3415     1.0  0.94121  0.27004  0.44351  1.0000
  C   C1910     1.0  0.65399  0.12822  0.34895  1.0000
  C   C1911     1.0  0.99722  0.10598  0.42584  1.0000
  C   C1912     1.0  0.95620  0.25350  0.36920  1.0000
  H   H3416     1.0  0.92020  0.21562  0.43345  1.0000
  C   C1913     1.0  0.96603  0.13920  0.44903  1.0000
  H   H3417     1.0  0.94539  0.20044  0.40932  1.0000
  H   H3418     1.0  0.51554  0.04737  0.27301  1.0000
  H   H3419     1.0  0.75675  0.01957  0.42534  1.0000
  Fe  Fe217     1.0  0.63742  0.02833  0.35905  1.0000
  C   C1914     1.0  0.81828  0.16551  0.47474  1.0000
  H   H3420     1.0  0.99273  0.08293  0.41306  1.0000
  C   C1915     1.0  0.90669  0.30399  0.42319  1.0000
  H   H3421     1.0  0.96649  0.22991  0.44628  1.0000
  C   C1916     1.0  0.93835  0.19580  0.43305  1.0000
  H   H3422     1.0  0.99468  0.10586  0.41529  1.0000
  Fe  Fe218     1.0  0.63368  0.99838  0.37743  1.0000
  H   H3423     1.0  0.72879  0.00484  0.41793  1.0000
  C   C1917     1.0  0.74514  0.00041  0.35411  1.0000
  C   C1918     1.0  0.54877  0.05276  0.44568  1.0000
  H   H3424     1.0  0.59823  0.99789  0.39439  1.0000
  H   H3425     1.0  0.97027  0.26258  0.34901  1.0000
  H   H3426     1.0  0.94128  0.19687  0.44301  1.0000
  H   H3427     1.0  0.82458  0.24189  0.45791  1.0000
  H   H3428     1.0  0.99224  0.29559  0.35490  1.0000
  H   H3429     1.0  0.99808  0.24772  0.32586  1.0000
  H   H3430     1.0  0.52498  0.06027  0.25859  1.0000
  C   C1919     1.0  0.86845  0.23258  0.43152  1.0000
  C   C1920     1.0  0.99472  0.23749  0.45875  1.0000
  H   H3431     1.0  0.57110  0.03030  0.45447  1.0000
  H   H3432     1.0  0.72606  0.03228  0.33930  1.0000
  C   C1921     1.0  0.83519  0.00388  0.42509  1.0000
  N   N106      1.0  0.96519  0.19724  0.41781  1.0000
  H   H3433     1.0  0.82505  0.99460  0.46822  1.0000
  H   H3434     1.0  0.94517  0.21477  0.41747  1.0000
  H   H3435     1.0  0.91812  0.28194  0.41888  1.0000
  C   C1922     1.0  0.97148  0.30293  0.33672  1.0000
  H   H3436     1.0  0.89341  0.29748  0.41279  1.0000
  H   H3437     1.0  0.81619  0.03980  0.46263  1.0000
  C   C1923     1.0  0.69450  0.11222  0.36816  1.0000
  H   H3438     1.0  0.99029  0.31892  0.32232  1.0000
  H   H3439     1.0  0.72489  0.05648  0.32160  1.0000
  C   C1924     1.0  0.77024  0.01002  0.46674  1.0000
  H   H3440     1.0  0.92131  0.31820  0.45930  1.0000
  C   C1925     1.0  0.58798  0.99558  0.31344  1.0000
  C   C1926     1.0  0.59670  0.00173  0.33224  1.0000
  C   C1927     1.0  0.96289  0.12975  0.46281  1.0000
  C   C1928     1.0  0.93850  0.30779  0.44279  1.0000
  H   H3441     1.0  0.93911  0.30539  0.43198  1.0000
  H   H3442     1.0  0.83144  0.23114  0.43790  1.0000
  C   C1929     1.0  0.84545  0.26128  0.39674  1.0000
  H   H3443     1.0  0.97797  0.27871  0.32404  1.0000
  H   H3444     1.0  0.94669  0.31878  0.34935  1.0000
  H   H3445     1.0  0.70483  0.99737  0.42259  1.0000
  H   H3446     1.0  0.99310  0.10610  0.45367  1.0000
  C   C1930     1.0  0.89815  0.30732  0.41069  1.0000
  C   C1931     1.0  0.53011  0.01266  0.24254  1.0000
  H   H3447     1.0  0.96465  0.24430  0.40307  1.0000
  H   H3448     1.0  0.88160  0.29938  0.39559  1.0000
  C   C1932     1.0  0.81302  0.03546  0.47471  1.0000
  H   H3449     1.0  0.94578  0.10107  0.42419  1.0000
  H   H3450     1.0  0.87808  0.24020  0.45354  1.0000
  C   C1933     1.0  0.84677  0.25083  0.42375  1.0000
  H   H3451     1.0  0.98210  0.19725  0.42891  1.0000
  H   H3452     1.0  0.53498  0.05301  0.28135  1.0000
  C   C1934     1.0  0.97502  0.09729  0.44138  1.0000
  H   H3453     1.0  0.91058  0.31362  0.42356  1.0000
  C   C1935     1.0  0.96562  0.24863  0.39137  1.0000
  H   H3454     1.0  0.58439  0.01510  0.39293  1.0000
  N   N107      1.0  0.96994  0.31821  0.33910  1.0000
  H   H3455     1.0  0.76657  0.04015  0.45288  1.0000
  H   H3456     1.0  0.79850  0.99565  0.45466  1.0000
  C   C1936     1.0  0.84359  0.22620  0.43737  1.0000
  H   H3457     1.0  0.84749  0.22140  0.42731  1.0000
  H   H3458     1.0  0.86995  0.21717  0.45360  1.0000
  H   H3459     1.0  0.97634  0.14292  0.44557  1.0000
  H   H3460     1.0  0.96700  0.22157  0.37411  1.0000
  N   N108      1.0  0.88607  0.32137  0.40954  1.0000
  H   H3461     1.0  0.95905  0.29734  0.48891  1.0000
  H   H3462     1.0  0.53085  0.99809  0.33836  1.0000
  H   H3463     1.0  0.81666  0.26060  0.47367  1.0000
  H   H3464     1.0  0.85215  0.23583  0.45898  1.0000
  C   C1937     1.0  0.83112  0.25041  0.45563  1.0000
  H   H3465     1.0  0.96733  0.31024  0.36276  1.0000
  H   H3466     1.0  0.63269  0.02621  0.30562  1.0000
  C   C1938     1.0  0.84795  0.24415  0.44974  1.0000
  C   C1939     1.0  0.96967  0.20002  0.43053  1.0000
  H   H3467     1.0  0.85006  0.25923  0.38535  1.0000
  H   H3468     1.0  0.98794  0.30437  0.37787  1.0000
  C   C1940     1.0  0.87704  0.22256  0.44371  1.0000
  C   C1941     1.0  0.92059  0.29155  0.42117  1.0000
  H   H3469     1.0  0.73283  0.01461  0.30515  1.0000
  C   C1942     1.0  0.69412  0.02014  0.32355  1.0000
  H   H3470     1.0  0.99097  0.11708  0.42820  1.0000
  C   C1943     1.0  0.78144  0.99241  0.36749  1.0000
  C   C1944     1.0  0.96054  0.25182  0.48276  1.0000
  C   C1945     1.0  0.74759  0.01154  0.35931  1.0000
  C   C1946     1.0  0.66987  0.12019  0.35086  1.0000
  H   H3471     1.0  0.96531  0.24260  0.47679  1.0000
  H   H3472     1.0  0.72351  0.09833  0.32436  1.0000
  C   C1947     1.0  0.70080  0.15848  0.36481  1.0000
  H   H3473     1.0  0.70799  0.16285  0.35421  1.0000
  H   H3474     1.0  0.83206  0.24600  0.47890  1.0000
  H   H3475     1.0  0.99345  0.31003  0.42721  1.0000
  H   H3476     1.0  0.73709  0.02283  0.32470  1.0000
  C   C1948     1.0  0.72849  0.10657  0.32631  1.0000
  H   H3477     1.0  0.72188  0.10112  0.34992  1.0000
  H   H3478     1.0  0.72587  0.11916  0.34244  1.0000
  H   H3479     1.0  0.68429  0.14544  0.37303  1.0000
  H   H3480     1.0  0.85875  0.30361  0.38619  1.0000
  H   H3481     1.0  0.67529  0.11477  0.34131  1.0000
  C   C1949     1.0  0.71721  0.00363  0.46809  1.0000
  H   H3482     1.0  0.67162  0.13728  0.36026  1.0000
  C   C1950     1.0  0.72799  0.03244  0.32734  1.0000
  H   H3483     1.0  0.67517  0.09727  0.39221  1.0000
  H   H3484     1.0  0.74044  0.10147  0.32662  1.0000
  C   C1951     1.0  0.72031  0.11114  0.34100  1.0000
  H   H3485     1.0  0.71104  0.13090  0.36113  1.0000
  H   H3486     1.0  0.70607  0.10779  0.37007  1.0000
  C   C1952     1.0  0.74542  0.08351  0.48146  1.0000
  H   H3487     1.0  0.81142  0.02409  0.47647  1.0000
  N   N109      1.0  0.52049  0.04071  0.24328  1.0000
  H   H3488     1.0  0.98461  0.15130  0.41788  1.0000
  H   H3489     1.0  0.77821  0.99330  0.40088  1.0000
  H   H3490     1.0  0.89873  0.99295  0.36317  1.0000
  C   C1953     1.0  0.87943  0.32243  0.39659  1.0000
  H   H3491     1.0  0.93341  0.17751  0.46488  1.0000
  H   H3492     1.0  0.68739  0.00233  0.35056  1.0000
  H   H3493     1.0  0.99915  0.31168  0.34411  1.0000
  H   H3494     1.0  0.81284  0.15955  0.47012  1.0000
  C   C1954     1.0  0.79397  0.99349  0.37426  1.0000
  C   C1955     1.0  0.87261  0.30935  0.39733  1.0000
  H   H3495     1.0  0.87130  0.31485  0.37411  1.0000
  H   H3496     1.0  0.99118  0.07099  0.44158  1.0000
  C   C1956     1.0  0.72644  0.00580  0.30944  1.0000
  H   H3497     1.0  0.94025  0.21560  0.47606  1.0000
  H   H3498     1.0  0.56468  0.07240  0.48365  1.0000
  C   C1957     1.0  0.99021  0.08448  0.46656  1.0000
  H   H3499     1.0  0.99361  0.18114  0.41070  1.0000
  H   H3500     1.0  0.71394  0.99513  0.32963  1.0000
  C   C1958     1.0  0.58077  0.99577  0.45019  1.0000
  H   H3501     1.0  0.57976  0.99859  0.40584  1.0000
  H   H3502     1.0  0.80969  0.17496  0.47861  1.0000
  H   H3503     1.0  0.80028  0.05700  0.47787  1.0000
  H   H3504     1.0  0.75428  0.11966  0.48352  1.0000
  H   H3505     1.0  0.91099  0.20547  0.48004  1.0000
  C   C1959     1.0  0.75181  0.10960  0.48285  1.0000
  C   C1960     1.0  0.86434  0.32320  0.45034  1.0000
  H   H3506     1.0  0.85457  0.32300  0.38625  1.0000
  H   H3507     1.0  0.88801  0.32355  0.38606  1.0000
  H   H3508     1.0  0.92272  0.22137  0.48837  1.0000
  H   H3509     1.0  0.92769  0.29913  0.48844  1.0000
  S   S433      1.0  0.88355  0.17266  0.48856  1.0000
  C   C1961     1.0  0.56938  0.06033  0.48682  1.0000
  H   H3510     1.0  0.92145  0.28268  0.48974  1.0000
  C   C1962     1.0  0.82501  0.15491  0.48749  1.0000
  H   H3511     1.0  0.83904  0.16951  0.48661  1.0000
  H   H3512     1.0  0.99378  0.07550  0.48893  1.0000
  Fe  Fe219     1.0  0.59305  0.01057  0.48799  1.0000
  C   C1963     1.0  0.63278  0.99341  0.41388  1.0000
  S   S434      1.0  0.67023  0.99286  0.32775  1.0000
  H   H3513     1.0  0.85605  0.14579  0.48937  1.0000
  H   H3514     1.0  0.68773  0.99239  0.37712  1.0000
  C   C1964     1.0  0.63214  0.99306  0.43950  1.0000
  H   H3515     1.0  0.70559  0.99246  0.35400  1.0000
  C   C1965     1.0  0.99962  0.23784  0.33497  1.0000
  C   C1966     1.0  0.99918  0.23811  0.47123  1.0000
  C   C1967     1.0  0.73141  0.99117  0.37867  1.0000
  H   H3516     1.0  0.58030  0.99170  0.44063  1.0000
  C   C1968     1.0  0.67659  0.99255  0.41237  1.0000
  H   H3517     1.0  0.66547  0.99201  0.41975  1.0000
  H   H3518     1.0  0.72630  0.99099  0.43455  1.0000
  H   H3519     1.0  0.74258  0.99196  0.29511  1.0000
  C   C1969     1.0  0.73578  0.99197  0.48847  1.0000
  S   S435      1.0  0.61147  0.99284  0.47912  1.0000
  C   C1970     1.0  0.77574  0.99294  0.48975  1.0000
  C   C1971     1.0  0.91880  0.29292  0.49403  1.0000
  C   C1972     1.0  0.50226  0.06437  0.62228  1.0000
  H   H3520     1.0  0.54707  0.99295  0.50722  1.0000
  C   C1973     1.0  0.58903  0.03711  0.67796  1.0000
  H   H3521     1.0  0.94592  0.24583  0.51978  1.0000
  C   C1974     1.0  0.55408  0.07608  0.68671  1.0000
  C   C1975     1.0  0.75186  0.04983  0.51069  1.0000
  H   H3522     1.0  0.94443  0.22640  0.49545  1.0000
  H   H3523     1.0  0.97861  0.14303  0.53123  1.0000
  C   C1976     1.0  0.79502  0.04087  0.49846  1.0000
  C   C1977     1.0  0.69870  0.01383  0.53218  1.0000
  C   C1978     1.0  0.97451  0.16407  0.51609  1.0000
  H   H3524     1.0  0.99441  0.14701  0.51685  1.0000
  H   H3525     1.0  0.99824  0.16469  0.52829  1.0000
  H   H3526     1.0  0.55216  0.09465  0.65900  1.0000
  H   H3527     1.0  0.52289  0.04782  0.50186  1.0000
  Fe  Fe220     1.0  0.94892  0.31252  0.54988  1.0000
  H   H3528     1.0  0.57548  0.07779  0.72915  1.0000
  C   C1979     1.0  0.67921  0.00188  0.52940  1.0000
  H   H3529     1.0  0.85119  0.18911  0.51679  1.0000
  H   H3530     1.0  0.52714  0.07350  0.70397  1.0000
  S   S436      1.0  0.50637  0.07368  0.68380  1.0000
  H   H3531     1.0  0.63154  0.00819  0.52344  1.0000
  H   H3532     1.0  0.76289  0.09840  0.51483  1.0000
  H   H3533     1.0  0.96470  0.16969  0.52350  1.0000
  H   H3534     1.0  0.54632  0.08603  0.69044  1.0000
  S   S437      1.0  0.93775  0.30915  0.53369  1.0000
  S   S438      1.0  0.85988  0.28949  0.53226  1.0000
  S   S439      1.0  0.86742  0.24778  0.53037  1.0000
  Fe  Fe221     1.0  0.87171  0.27056  0.52085  1.0000
  H   H3535     1.0  0.77582  0.09560  0.49772  1.0000
  C   C1980     1.0  0.51243  0.09724  0.72741  1.0000
  H   H3536     1.0  0.88313  0.23745  0.56864  1.0000
  C   C1981     1.0  0.51515  0.99835  0.73279  1.0000
  H   H3537     1.0  0.69117  0.02489  0.52988  1.0000
  H   H3538     1.0  0.93084  0.20324  0.54860  1.0000
  H   H3539     1.0  0.80228  0.03736  0.52574  1.0000
  H   H3540     1.0  0.85399  0.16852  0.50288  1.0000
  H   H3541     1.0  0.69688  0.00945  0.54432  1.0000
  C   C1982     1.0  0.87014  0.29896  0.53768  1.0000
  C   C1983     1.0  0.88578  0.29484  0.53580  1.0000
  C   C1984     1.0  0.89350  0.30367  0.53906  1.0000
  H   H3542     1.0  0.88754  0.18870  0.50741  1.0000
  S   S440      1.0  0.51811  0.00263  0.55489  1.0000
  H   H3543     1.0  0.90558  0.30076  0.53716  1.0000
  C   C1985     1.0  0.52590  0.10867  0.70366  1.0000
  H   H3544     1.0  0.91010  0.26381  0.57749  1.0000
  H   H3545     1.0  0.57993  0.09446  0.71677  1.0000
  H   H3546     1.0  0.62330  0.00419  0.54285  1.0000
  C   C1986     1.0  0.84580  0.31953  0.49925  1.0000
  H   H3547     1.0  0.97265  0.25669  0.53713  1.0000
  H   H3548     1.0  0.95033  0.26209  0.52195  1.0000
  H   H3549     1.0  0.93414  0.27647  0.55251  1.0000
  H   H3550     1.0  0.93955  0.23715  0.54711  1.0000
  Fe  Fe222     1.0  0.71557  0.03975  0.49440  1.0000
  S   S441      1.0  0.69228  0.04306  0.49130  1.0000
  H   H3551     1.0  0.95644  0.19511  0.53398  1.0000
  C   C1987     1.0  0.91705  0.26415  0.56609  1.0000
  H   H3552     1.0  0.92943  0.21764  0.57842  1.0000
  C   C1988     1.0  0.57044  0.04123  0.53329  1.0000
  H   H3553     1.0  0.84126  0.12811  0.53238  1.0000
  C   C1989     1.0  0.57333  0.05388  0.69578  1.0000
  C   C1990     1.0  0.95183  0.21002  0.51371  1.0000
  H   H3554     1.0  0.98085  0.17233  0.50872  1.0000
  H   H3555     1.0  0.92507  0.30187  0.59255  1.0000
  H   H3556     1.0  0.90821  0.19711  0.50560  1.0000
  H   H3557     1.0  0.78230  0.99871  0.49333  1.0000
  H   H3558     1.0  0.55043  0.04655  0.71615  1.0000
  Fe  Fe223     1.0  0.71051  0.07031  0.49986  1.0000
  C   C1991     1.0  0.55901  0.03619  0.62706  1.0000
  H   H3559     1.0  0.95505  0.31395  0.63166  1.0000
  C   C1992     1.0  0.52787  0.01504  0.63613  1.0000
  C   C1993     1.0  0.92045  0.19320  0.50509  1.0000
  H   H3560     1.0  0.54388  0.00602  0.65748  1.0000
  H   H3561     1.0  0.52249  0.02424  0.62800  1.0000
  H   H3562     1.0  0.67270  0.01217  0.52335  1.0000
  H   H3563     1.0  0.93657  0.26399  0.51144  1.0000
  C   C1994     1.0  0.51704  0.10505  0.69635  1.0000
  H   H3564     1.0  0.98600  0.12818  0.55494  1.0000
  H   H3565     1.0  0.53228  0.06154  0.59362  1.0000
  C   C1995     1.0  0.55595  0.02224  0.49810  1.0000
  C   C1996     1.0  0.55706  0.01771  0.51296  1.0000
  C   C1997     1.0  0.54546  0.02344  0.52391  1.0000
  C   C1998     1.0  0.53328  0.03451  0.51988  1.0000
  C   C1999     1.0  0.53234  0.03929  0.50499  1.0000
  H   H3566     1.0  0.84933  0.31083  0.49261  1.0000
  H   H3567     1.0  0.55623  0.10480  0.67014  1.0000
  H   H3568     1.0  0.54613  0.01965  0.53543  1.0000
  C   C2000     1.0  0.52798  0.06990  0.55438  1.0000
  C   C2001     1.0  0.54452  0.03069  0.63541  1.0000
  H   H3569     1.0  0.79233  0.06632  0.50422  1.0000
  C   C2002     1.0  0.87271  0.21023  0.50383  1.0000
  C   C2003     1.0  0.57522  0.08095  0.53052  1.0000
  H   H3570     1.0  0.96463  0.14920  0.55319  1.0000
  H   H3571     1.0  0.95626  0.22124  0.58792  1.0000
  C   C2004     1.0  0.51463  0.04985  0.59873  1.0000
  H   H3572     1.0  0.93426  0.17950  0.52096  1.0000
  H   H3573     1.0  0.64878  0.00730  0.53962  1.0000
  C   C2005     1.0  0.91130  0.18355  0.53258  1.0000
  H   H3574     1.0  0.56357  0.08687  0.53442  1.0000
  N   N110      1.0  0.56710  0.05796  0.52886  1.0000
  H   H3575     1.0  0.56803  0.01172  0.64977  1.0000
  H   H3576     1.0  0.54790  0.07655  0.52939  1.0000
  H   H3577     1.0  0.56077  0.03716  0.53304  1.0000
  H   H3578     1.0  0.93129  0.16584  0.49378  1.0000
  H   H3579     1.0  0.53488  0.11407  0.69733  1.0000
  H   H3580     1.0  0.71046  0.01499  0.52799  1.0000
  C   C2006     1.0  0.97025  0.14677  0.56256  1.0000
  S   S442      1.0  0.98992  0.19991  0.53491  1.0000
  H   H3581     1.0  0.86859  0.11241  0.50820  1.0000
  H   H3582     1.0  0.54561  0.00509  0.68392  1.0000
  H   H3583     1.0  0.75517  0.02946  0.52792  1.0000
  H   H3584     1.0  0.96598  0.13568  0.58583  1.0000
  H   H3585     1.0  0.53558  0.01765  0.60603  1.0000
  H   H3586     1.0  0.98077  0.16594  0.54047  1.0000
  C   C2007     1.0  0.50127  0.01909  0.65148  1.0000
  H   H3587     1.0  0.94046  0.29387  0.60178  1.0000
  H   H3588     1.0  0.97190  0.27617  0.51502  1.0000
  C   C2008     1.0  0.65091  0.04516  0.52502  1.0000
  S   S443      1.0  0.53738  0.03651  0.68059  1.0000
  Fe  Fe224     1.0  0.86778  0.24704  0.50710  1.0000
  C   C2009     1.0  0.54582  0.02098  0.60606  1.0000
  H   H3589     1.0  0.82388  0.13920  0.51609  1.0000
  H   H3590     1.0  0.81462  0.12711  0.54279  1.0000
  H   H3591     1.0  0.58264  0.07553  0.70280  1.0000
  C   C2010     1.0  0.98669  0.13798  0.55855  1.0000
  S   S444      1.0  0.63402  0.00445  0.49222  1.0000
  H   H3592     1.0  0.74960  0.05772  0.51792  1.0000
  C   C2011     1.0  0.55014  0.00370  0.64651  1.0000
  S   S445      1.0  0.70835  0.04858  0.51511  1.0000
  C   C2012     1.0  0.98705  0.28619  0.49558  1.0000
  H   H3593     1.0  0.81135  0.14406  0.54913  1.0000
  C   C2013     1.0  0.57498  0.03391  0.54842  1.0000
  C   C2014     1.0  0.94672  0.21616  0.58934  1.0000
  C   C2015     1.0  0.94149  0.22142  0.50705  1.0000
  H   H3594     1.0  0.54386  0.05991  0.52915  1.0000
  H   H3595     1.0  0.96860  0.31122  0.59109  1.0000
  C   C2016     1.0  0.92336  0.21952  0.53022  1.0000
  Fe  Fe225     1.0  0.89228  0.24069  0.52372  1.0000
  C   C2017     1.0  0.81989  0.13408  0.54639  1.0000
  H   H3596     1.0  0.96824  0.29592  0.51211  1.0000
  H   H3597     1.0  0.56024  0.04617  0.64442  1.0000
  N   N111      1.0  0.92414  0.24862  0.56370  1.0000
  C   C2018     1.0  0.92731  0.22635  0.51537  1.0000
  S   S446      1.0  0.96944  0.20413  0.50323  1.0000
  H   H3598     1.0  0.83373  0.19449  0.52917  1.0000
  H   H3599     1.0  0.56931  0.02756  0.62833  1.0000
  C   C2019     1.0  0.62627  0.03970  0.51844  1.0000
  H   H3600     1.0  0.58849  0.02958  0.67128  1.0000
  C   C2020     1.0  0.57484  0.01750  0.55258  1.0000
  H   H3601     1.0  0.76808  0.04718  0.52923  1.0000
  C   C2021     1.0  0.94825  0.20374  0.52880  1.0000
  H   H3602     1.0  0.56751  0.03911  0.55753  1.0000
  H   H3603     1.0  0.96949  0.15746  0.56522  1.0000
  H   H3604     1.0  0.54243  0.03127  0.64726  1.0000
  H   H3605     1.0  0.55915  0.03985  0.61504  1.0000
  Fe  Fe226     1.0  0.52699  0.99894  0.57522  1.0000
  S   S447      1.0  0.89247  0.23803  0.50119  1.0000
  C   C2022     1.0  0.93857  0.22333  0.57660  1.0000
  H   H3606     1.0  0.53593  0.99763  0.52456  1.0000
  C   C2023     1.0  0.92802  0.27405  0.56418  1.0000
  C   C2024     1.0  0.58540  0.08547  0.53751  1.0000
  C   C2025     1.0  0.93389  0.20840  0.53706  1.0000
  H   H3607     1.0  0.94502  0.25241  0.54912  1.0000
  C   C2026     1.0  0.53099  0.06427  0.71280  1.0000
  C   C2027     1.0  0.56683  0.08123  0.67399  1.0000
  H   H3608     1.0  0.56803  0.03443  0.69243  1.0000
  H   H3609     1.0  0.54430  0.04948  0.55495  1.0000
  H   H3610     1.0  0.89395  0.24982  0.58150  1.0000
  C   C2028     1.0  0.88921  0.23098  0.57756  1.0000
  H   H3611     1.0  0.92006  0.25330  0.53375  1.0000
  C   C2029     1.0  0.87930  0.19590  0.50131  1.0000
  H   H3612     1.0  0.83795  0.14513  0.53862  1.0000
  H   H3613     1.0  0.93630  0.26868  0.57126  1.0000
  H   H3614     1.0  0.55236  0.05723  0.50645  1.0000
  C   C2030     1.0  0.74787  0.03525  0.51995  1.0000
  C   C2031     1.0  0.52656  0.02333  0.68606  1.0000
  H   H3615     1.0  0.89196  0.28508  0.53158  1.0000
  C   C2032     1.0  0.96123  0.13788  0.57588  1.0000
  H   H3616     1.0  0.55956  0.00715  0.59049  1.0000
  C   C2033     1.0  0.63689  0.04738  0.53458  1.0000
  S   S448      1.0  0.66588  0.04894  0.52961  1.0000
  C   C2034     1.0  0.55064  0.06441  0.53385  1.0000
  H   H3617     1.0  0.52041  0.00560  0.65961  1.0000
  Fe  Fe227     1.0  0.52330  0.05796  0.67090  1.0000
  C   C2035     1.0  0.53354  0.00844  0.68639  1.0000
  H   H3618     1.0  0.57024  0.09893  0.65470  1.0000
  C   C2036     1.0  0.97144  0.25906  0.54781  1.0000
  S   S449      1.0  0.61036  0.03714  0.51454  1.0000
  H   H3619     1.0  0.54277  0.03288  0.60635  1.0000
  H   H3620     1.0  0.86265  0.13351  0.52050  1.0000
  H   H3621     1.0  0.87607  0.21413  0.51169  1.0000
  H   H3622     1.0  0.56676  0.00971  0.51605  1.0000
  C   C2037     1.0  0.99027  0.15784  0.53545  1.0000
  C   C2038     1.0  0.50149  0.04690  0.60859  1.0000
  H   H3623     1.0  0.55014  0.05862  0.63074  1.0000
  C   C2039     1.0  0.92313  0.18049  0.51875  1.0000
  C   C2040     1.0  0.93037  0.30306  0.60098  1.0000
  H   H3624     1.0  0.98947  0.31250  0.57034  1.0000
  C   C2041     1.0  0.93474  0.31800  0.59625  1.0000
  S   S450      1.0  0.50482  0.99857  0.59081  1.0000
  C   C2042     1.0  0.52366  0.10470  0.71912  1.0000
  C   C2043     1.0  0.55691  0.01887  0.59154  1.0000
  S   S451      1.0  0.97807  0.22879  0.55851  1.0000
  C   C2044     1.0  0.63222  0.99986  0.53390  1.0000
  H   H3625     1.0  0.96123  0.12719  0.57358  1.0000
  H   H3626     1.0  0.52718  0.00461  0.63367  1.0000
  H   H3627     1.0  0.78221  0.08921  0.51490  1.0000
  H   H3628     1.0  0.92279  0.16963  0.51718  1.0000
  H   H3629     1.0  0.90002  0.18387  0.53117  1.0000
  Fe  Fe228     1.0  0.98456  0.21079  0.51279  1.0000
  H   H3630     1.0  0.97042  0.15924  0.50913  1.0000
  C   C2045     1.0  0.84575  0.16382  0.51236  1.0000
  S   S452      1.0  0.59900  0.00499  0.51001  1.0000
  C   C2046     1.0  0.82778  0.14715  0.51982  1.0000
  H   H3631     1.0  0.94947  0.14426  0.57829  1.0000
  C   C2047     1.0  0.78742  0.03779  0.54682  1.0000
  H   H3632     1.0  0.94110  0.31865  0.69419  1.0000
  H   H3633     1.0  0.56328  0.01600  0.55450  1.0000
  S   S453      1.0  0.50268  0.09597  0.65130  1.0000
  C   C2048     1.0  0.65268  0.03987  0.51226  1.0000
  C   C2049     1.0  0.54424  0.06142  0.55074  1.0000
  H   H3634     1.0  0.98673  0.17327  0.55705  1.0000
  S   S454      1.0  0.52559  0.02294  0.57327  1.0000
  S   S455      1.0  0.51959  0.04301  0.53321  1.0000
  H   H3635     1.0  0.91938  0.23521  0.51015  1.0000
  Fe  Fe229     1.0  0.51450  0.02668  0.55442  1.0000
  C   C2050     1.0  0.55244  0.01154  0.61961  1.0000
  H   H3636     1.0  0.79626  0.03864  0.55185  1.0000
  H   H3637     1.0  0.64173  0.03301  0.49915  1.0000
  H   H3638     1.0  0.98850  0.15926  0.57367  1.0000
  C   C2051     1.0  0.83300  0.13850  0.53429  1.0000
  S   S456      1.0  0.52585  0.07733  0.61702  1.0000
  S   S457      1.0  0.89664  0.26344  0.51569  1.0000
  H   H3639     1.0  0.87261  0.14395  0.50442  1.0000
  H   H3640     1.0  0.76377  0.99818  0.49368  1.0000
  C   C2052     1.0  0.77271  0.09063  0.50968  1.0000
  H   H3641     1.0  0.92228  0.30226  0.61179  1.0000
  H   H3642     1.0  0.82396  0.12760  0.55655  1.0000
  H   H3643     1.0  0.52357  0.06733  0.56652  1.0000
  C   C2053     1.0  0.77908  0.04248  0.52269  1.0000
  H   H3644     1.0  0.66348  0.03798  0.50490  1.0000
  C   C2054     1.0  0.85148  0.14177  0.50130  1.0000
  H   H3645     1.0  0.91114  0.19427  0.53485  1.0000
  C   C2055     1.0  0.94179  0.32041  0.60792  1.0000
  H   H3646     1.0  0.57996  0.03624  0.52512  1.0000
  S   S458      1.0  0.52168  0.10807  0.67688  1.0000
  H   H3647     1.0  0.89547  0.29513  0.49624  1.0000
  H   H3648     1.0  0.77653  0.04428  0.55200  1.0000
  C   C2056     1.0  0.93508  0.24862  0.54904  1.0000
  C   C2057     1.0  0.62457  0.04485  0.53121  1.0000
  S   S459      1.0  0.53527  0.07492  0.65558  1.0000
  C   C2058     1.0  0.87503  0.19072  0.49118  1.0000
  C   C2059     1.0  0.90042  0.23905  0.57867  1.0000
  H   H3649     1.0  0.51936  0.02525  0.65572  1.0000
  C   C2060     1.0  0.92887  0.25788  0.53520  1.0000
  H   H3650     1.0  0.92775  0.29566  0.56712  1.0000
  H   H3651     1.0  0.91377  0.28699  0.58040  1.0000
  C   C2061     1.0  0.94123  0.25742  0.52125  1.0000
  H   H3652     1.0  0.56429  0.01215  0.61727  1.0000
  C   C2062     1.0  0.83134  0.16324  0.49527  1.0000
  H   H3653     1.0  0.94244  0.24469  0.57455  1.0000
  N   N112      1.0  0.54401  0.01547  0.63430  1.0000
  H   H3654     1.0  0.91140  0.29501  0.56164  1.0000
  H   H3655     1.0  0.91384  0.17468  0.54228  1.0000
  H   H3656     1.0  0.53520  0.03934  0.63114  1.0000
  H   H3657     1.0  0.76698  0.05562  0.48999  1.0000
  C   C2063     1.0  0.98046  0.32266  0.57130  1.0000
  C   C2064     1.0  0.55993  0.04935  0.63247  1.0000
  H   H3658     1.0  0.65864  0.00059  0.51485  1.0000
  C   C2065     1.0  0.89894  0.31616  0.49796  1.0000
  H   H3659     1.0  0.51939  0.04443  0.58954  1.0000
  N   N113      1.0  0.83919  0.15381  0.50752  1.0000
  H   H3660     1.0  0.67507  0.00266  0.54124  1.0000
  H   H3661     1.0  0.90589  0.23235  0.58791  1.0000
  C   C2066     1.0  0.76792  0.04769  0.50073  1.0000
  S   S460      1.0  0.72121  0.08566  0.50520  1.0000
  C   C2067     1.0  0.87491  0.12130  0.50371  1.0000
  S   S461      1.0  0.90497  0.22419  0.53981  1.0000
  H   H3662     1.0  0.63548  0.05137  0.54448  1.0000
  H   H3663     1.0  0.90536  0.24819  0.55543  1.0000
  C   C2068     1.0  0.91966  0.28880  0.56860  1.0000
  C   C2069     1.0  0.93251  0.24022  0.57583  1.0000
  H   H3664     1.0  0.93896  0.21747  0.60010  1.0000
  C   C2070     1.0  0.54691  0.05560  0.70687  1.0000
  H   H3665     1.0  0.88091  0.22955  0.58818  1.0000
  H   H3666     1.0  0.84688  0.13224  0.50161  1.0000
  H   H3667     1.0  0.51943  0.04953  0.70894  1.0000
  C   C2071     1.0  0.73936  0.10484  0.49246  1.0000
  H   H3668     1.0  0.78693  0.02597  0.54924  1.0000
  C   C2072     1.0  0.86991  0.32022  0.54673  1.0000
  H   H3669     1.0  0.90908  0.27007  0.55866  1.0000
  H   H3670     1.0  0.92550  0.24186  0.58685  1.0000
  C   C2073     1.0  0.57108  0.06231  0.51215  1.0000
  H   H3671     1.0  0.92413  0.26965  0.53593  1.0000
  C   C2074     1.0  0.98473  0.15181  0.52498  1.0000
  H   H3672     1.0  0.96688  0.26728  0.58636  1.0000
  H   H3673     1.0  0.79520  0.02880  0.50140  1.0000
  H   H3674     1.0  0.96127  0.27748  0.49452  1.0000
  H   H3675     1.0  0.57022  0.05323  0.62615  1.0000
  H   H3676     1.0  0.91693  0.23058  0.56051  1.0000
  H   H3677     1.0  0.98040  0.32162  0.59376  1.0000
  C   C2075     1.0  0.52186  0.05965  0.60097  1.0000
  C   C2076     1.0  0.96808  0.26504  0.57560  1.0000
  Fe  Fe230     1.0  0.50256  0.02304  0.58732  1.0000
  S   S462      1.0  0.96000  0.29486  0.56667  1.0000
  C   C2077     1.0  0.96691  0.27379  0.54976  1.0000
  C   C2078     1.0  0.97386  0.24737  0.55991  1.0000
  H   H3678     1.0  0.59729  0.07999  0.53373  1.0000
  C   C2079     1.0  0.94481  0.32239  0.70228  1.0000
  H   H3679     1.0  0.89504  0.21988  0.57514  1.0000
  H   H3680     1.0  0.97717  0.31354  0.64050  1.0000
  H   H3681     1.0  0.91849  0.28969  0.50610  1.0000
  C   C2080     1.0  0.97207  0.25041  0.57379  1.0000
  H   H3682     1.0  0.80475  0.04200  0.50196  1.0000
  C   C2081     1.0  0.64038  0.03697  0.50905  1.0000
  H   H3683     1.0  0.54848  0.99280  0.64629  1.0000
  H   H3684     1.0  0.95121  0.20417  0.58949  1.0000
  C   C2082     1.0  0.83443  0.17704  0.51849  1.0000
  H   H3685     1.0  0.85021  0.31477  0.54491  1.0000
  C   C2083     1.0  0.51589  0.06660  0.61303  1.0000
  H   H3686     1.0  0.99710  0.31397  0.71655  1.0000
  H   H3687     1.0  0.52092  0.06659  0.54892  1.0000
  C   C2084     1.0  0.86549  0.13571  0.50829  1.0000
  C   C2085     1.0  0.79106  0.04383  0.53012  1.0000
  Fe  Fe231     1.0  0.51912  0.07762  0.64133  1.0000
  N   N114      1.0  0.78054  0.04940  0.50641  1.0000
  H   H3688     1.0  0.88532  0.11773  0.50805  1.0000
  H   H3689     1.0  0.67948  0.00571  0.49987  1.0000
  H   H3690     1.0  0.92387  0.20255  0.50685  1.0000
  C   C2086     1.0  0.91198  0.24142  0.56385  1.0000
  H   H3691     1.0  0.58655  0.03480  0.54766  1.0000
  H   H3692     1.0  0.90880  0.32125  0.49475  1.0000
  H   H3693     1.0  0.52712  0.08202  0.55073  1.0000
  H   H3694     1.0  0.57908  0.01225  0.56289  1.0000
  N   N115      1.0  0.99754  0.14620  0.54705  1.0000
  C   C2087     1.0  0.50297  0.09433  0.72022  1.0000
  C   C2088     1.0  0.50930  0.00232  0.69258  1.0000
  H   H3695     1.0  0.96466  0.28286  0.54057  1.0000
  H   H3696     1.0  0.54883  0.07948  0.71509  1.0000
  H   H3697     1.0  0.58213  0.01191  0.54360  1.0000
  H   H3698     1.0  0.85231  0.15759  0.52091  1.0000
  H   H3699     1.0  0.55065  0.06482  0.55676  1.0000
  H   H3700     1.0  0.76667  0.07104  0.52393  1.0000
  Fe  Fe232     1.0  0.51727  0.09100  0.66759  1.0000
  H   H3701     1.0  0.56194  0.06337  0.72163  1.0000
  H   H3702     1.0  0.57682  0.04643  0.70596  1.0000
  C   C2089     1.0  0.57322  0.04376  0.68567  1.0000
  H   H3703     1.0  0.81752  0.15581  0.52257  1.0000
  H   H3704     1.0  0.61373  0.04686  0.53856  1.0000
  C   C2090     1.0  0.96537  0.27675  0.56366  1.0000
  H   H3705     1.0  0.77949  0.03046  0.52452  1.0000
  H   H3706     1.0  0.56663  0.04985  0.67708  1.0000
  C   C2091     1.0  0.76878  0.07575  0.51189  1.0000
  H   H3707     1.0  0.58875  0.05870  0.53102  1.0000
  C   C2092     1.0  0.56097  0.09577  0.66387  1.0000
  Fe  Fe233     1.0  0.61360  0.02122  0.50008  1.0000
  S   S463      1.0  0.98142  0.23401  0.51522  1.0000
  H   H3708     1.0  0.99627  0.18155  0.57388  1.0000
  H   H3709     1.0  0.79164  0.05553  0.52837  1.0000
  C   C2093     1.0  0.57675  0.06396  0.53482  1.0000
  C   C2094     1.0  0.51096  0.02771  0.68938  1.0000
  H   H3710     1.0  0.94830  0.17639  0.49805  1.0000
  H   H3711     1.0  0.94667  0.22114  0.56626  1.0000
  H   H3712     1.0  0.93324  0.32031  0.61848  1.0000
  H   H3713     1.0  0.58348  0.05982  0.50818  1.0000
  H   H3714     1.0  0.58228  0.08242  0.54977  1.0000
  C   C2095     1.0  0.54346  0.03288  0.49416  1.0000
  C   C2096     1.0  0.57121  0.08166  0.70705  1.0000
  C   C2097     1.0  0.86228  0.31156  0.54334  1.0000
  C   C2098     1.0  0.78138  0.06543  0.50295  1.0000
  H   H3715     1.0  0.57201  0.07279  0.66709  1.0000
  H   H3716     1.0  0.54738  0.07202  0.68147  1.0000
  C   C2099     1.0  0.52492  0.99801  0.68921  1.0000
  H   H3717     1.0  0.99838  0.26441  0.51445  1.0000
  H   H3718     1.0  0.53065  0.06865  0.72246  1.0000
  H   H3719     1.0  0.59590  0.03064  0.68624  1.0000
  H   H3720     1.0  0.96764  0.31963  0.69058  1.0000
  C   C2100     1.0  0.68565  0.99435  0.49855  1.0000
  H   H3721     1.0  0.73229  0.11124  0.50051  1.0000
  C   C2101     1.0  0.51778  0.01621  0.65162  1.0000
  Fe  Fe234     1.0  0.68524  0.05363  0.51092  1.0000
  H   H3722     1.0  0.57429  0.00029  0.63605  1.0000
  H   H3723     1.0  0.95181  0.24844  0.49238  1.0000
  H   H3724     1.0  0.84653  0.17727  0.53470  1.0000
  H   H3725     1.0  0.77053  0.03663  0.49792  1.0000
  H   H3726     1.0  0.73620  0.03759  0.52640  1.0000
  S   S464      1.0  0.86919  0.27082  0.49824  1.0000
  H   H3727     1.0  0.75831  0.07797  0.50798  1.0000
  H   H3728     1.0  0.58427  0.09765  0.53417  1.0000
  H   H3729     1.0  0.99092  0.13333  0.56897  1.0000
  H   H3730     1.0  0.57584  0.08295  0.67806  1.0000
  H   H3731     1.0  0.98657  0.30444  0.51289  1.0000
  C   C2102     1.0  0.73614  0.09178  0.49187  1.0000
  H   H3732     1.0  0.56710  0.07445  0.50834  1.0000
  H   H3733     1.0  0.82518  0.17334  0.52728  1.0000
  H   H3734     1.0  0.74371  0.05474  0.50335  1.0000
  H   H3735     1.0  0.56782  0.09161  0.69857  1.0000
  H   H3736     1.0  0.82166  0.17174  0.49952  1.0000
  H   H3737     1.0  0.69722  0.99529  0.49288  1.0000
  Fe  Fe235     1.0  0.98919  0.22298  0.53641  1.0000
  C   C2103     1.0  0.97159  0.28655  0.50644  1.0000
  H   H3738     1.0  0.57464  0.06095  0.54706  1.0000
  H   H3739     1.0  0.56907  0.04268  0.50579  1.0000
  H   H3740     1.0  0.82967  0.18538  0.50948  1.0000
  C   C2104     1.0  0.50528  0.09830  0.70468  1.0000
  C   C2105     1.0  0.84198  0.18490  0.52520  1.0000
  H   H3741     1.0  0.54557  0.05009  0.69872  1.0000
  H   H3742     1.0  0.98214  0.30879  0.71231  1.0000
  C   C2106     1.0  0.95933  0.28777  0.49846  1.0000
  H   H3743     1.0  0.84445  0.31414  0.51118  1.0000
  H   H3744     1.0  0.59446  0.04598  0.67043  1.0000
  C   C2107     1.0  0.51983  0.05435  0.71807  1.0000
  N   N116      1.0  0.55868  0.06460  0.69989  1.0000
  C   C2108     1.0  0.99767  0.30139  0.50555  1.0000
  H   H3745     1.0  0.53087  0.10713  0.72466  1.0000
  H   H3746     1.0  0.57857  0.08476  0.51838  1.0000
  C   C2109     1.0  0.99277  0.31248  0.70759  1.0000
  S   S465      1.0  0.68650  0.07657  0.49790  1.0000
  H   H3747     1.0  0.97389  0.24141  0.58317  1.0000
  H   H3748     1.0  0.95068  0.31036  0.61027  1.0000
  H   H3749     1.0  0.50849  0.06095  0.72198  1.0000
  S   S466      1.0  0.50833  0.05940  0.65606  1.0000
  H   H3750     1.0  0.99023  0.27865  0.52483  1.0000
  C   C2110     1.0  0.55968  0.07190  0.71154  1.0000
  H   H3751     1.0  0.74859  0.02778  0.51266  1.0000
  H   H3752     1.0  0.58253  0.05969  0.69037  1.0000
  H   H3753     1.0  0.56740  0.02208  0.59094  1.0000
  H   H3754     1.0  0.78113  0.07052  0.49111  1.0000
  H   H3755     1.0  0.56067  0.09378  0.72482  1.0000
  C   C2111     1.0  0.64754  0.99692  0.53761  1.0000
  H   H3756     1.0  0.50552  0.03924  0.68915  1.0000
  H   H3757     1.0  0.51423  0.00259  0.72098  1.0000
  H   H3758     1.0  0.50671  0.02872  0.72734  1.0000
  C   C2112     1.0  0.96294  0.32084  0.62448  1.0000
  H   H3759     1.0  0.81599  0.14987  0.49535  1.0000
  C   C2113     1.0  0.86132  0.21923  0.49669  1.0000
  H   H3760     1.0  0.52304  0.04532  0.72740  1.0000
  C   C2114     1.0  0.50234  0.01715  0.69295  1.0000
  H   H3761     1.0  0.94828  0.28936  0.50622  1.0000
  H   H3762     1.0  0.69847  0.00787  0.51234  1.0000
  C   C2115     1.0  0.57183  0.08723  0.72029  1.0000
  H   H3763     1.0  0.89729  0.31210  0.51010  1.0000
  H   H3764     1.0  0.91238  0.17577  0.49559  1.0000
  H   H3765     1.0  0.52580  0.00048  0.73345  1.0000
  H   H3766     1.0  0.87169  0.31243  0.50806  1.0000
  C   C2116     1.0  0.56672  0.00188  0.64679  1.0000
  C   C2117     1.0  0.97218  0.32183  0.58744  1.0000
  Fe  Fe236     1.0  0.89399  0.26179  0.49383  1.0000
  C   C2118     1.0  0.69579  0.00336  0.52445  1.0000
  H   H3767     1.0  0.94807  0.19537  0.49209  1.0000
  S   S467      1.0  0.85284  0.23722  0.49976  1.0000
  C   C2119     1.0  0.87294  0.31950  0.49671  1.0000
  S   S468      1.0  0.73308  0.01857  0.49482  1.0000
  C   C2120     1.0  0.56474  0.05483  0.50352  1.0000
  C   C2121     1.0  0.99478  0.16498  0.56320  1.0000
  C   C2122     1.0  0.88552  0.31651  0.54434  1.0000
  H   H3768     1.0  0.94276  0.31812  0.58546  1.0000
  H   H3769     1.0  0.55292  0.99977  0.61994  1.0000
  H   H3770     1.0  0.55193  0.02600  0.58211  1.0000
  H   H3771     1.0  0.97128  0.31417  0.61696  1.0000
  N   N117      1.0  0.92843  0.18962  0.49015  1.0000
  H   H3772     1.0  0.94737  0.31279  0.71142  1.0000
  H   H3773     1.0  0.87805  0.12285  0.49147  1.0000
  H   H3774     1.0  0.98978  0.27584  0.49133  1.0000
  C   C2123     1.0  0.99953  0.31458  0.49229  1.0000
  C   C2124     1.0  0.90363  0.30228  0.49111  1.0000
  C   C2125     1.0  0.97109  0.32409  0.63449  1.0000
  H   H3775     1.0  0.97271  0.32340  0.56420  1.0000
  C   C2126     1.0  0.66022  0.99169  0.52481  1.0000
  H   H3776     1.0  0.70393  0.99273  0.52670  1.0000
  C   C2127     1.0  0.50499  0.02366  0.73934  1.0000
  S   S469      1.0  0.51058  0.12548  0.94933  1.0000
  C   C2128     1.0  0.64416  0.25467  0.92889  1.0000
  H   H3777     1.0  0.62556  0.25303  0.87862  1.0000
  N   N118      1.0  0.51022  0.04512  0.83155  1.0000
  Fe  Fe237     1.0  0.58489  0.22895  0.88122  1.0000
  S   S470      1.0  0.57430  0.22271  0.90515  1.0000
  S   S471      1.0  0.60215  0.24281  0.87444  1.0000
  Fe  Fe238     1.0  0.56875  0.21054  0.87172  1.0000
  S   S472      1.0  0.55657  0.20348  0.89494  1.0000
  S   S473      1.0  0.56528  0.20244  0.85313  1.0000
  Fe  Fe239     1.0  0.55358  0.22697  0.89654  1.0000
  S   S474      1.0  0.53151  0.23959  0.90702  1.0000
  Fe  Fe240     1.0  0.57861  0.19992  0.90091  1.0000
  S   S475      1.0  0.58889  0.17815  0.91413  1.0000
  S   S476      1.0  0.56384  0.23459  0.87271  1.0000
  S   S477      1.0  0.59110  0.20567  0.87755  1.0000
  C   C2129     1.0  0.50429  0.10152  0.82791  1.0000
  H   H3778     1.0  0.51491  0.27373  0.98518  1.0000
  H   H3779     1.0  0.59836  0.23472  0.96929  1.0000
  C   C2130     1.0  0.51137  0.23880  0.97512  1.0000
  S   S478      1.0  0.57417  0.22046  0.97644  1.0000
  H   H3780     1.0  0.62625  0.26987  0.89358  1.0000
  Fe  Fe241     1.0  0.55130  0.21988  0.97534  1.0000
  S   S479      1.0  0.53937  0.23439  0.95793  1.0000
  H   H3781     1.0  0.60836  0.29732  0.95717  1.0000
  S   S480      1.0  0.59680  0.17998  0.97652  1.0000
  H   H3782     1.0  0.64756  0.24271  0.92858  1.0000
  H   H3783     1.0  0.50146  0.18099  0.98658  1.0000
  S   S481      1.0  0.53979  0.14436  0.87259  1.0000
  H   H3784     1.0  0.57800  0.25931  0.89449  1.0000
  C   C2131     1.0  0.51488  0.20233  0.83988  1.0000
  C   C2132     1.0  0.58852  0.26159  0.89433  1.0000
  H   H3785     1.0  0.53566  0.25691  0.87725  1.0000
  C   C2133     1.0  0.55916  0.18573  0.85825  1.0000
  C   C2134     1.0  0.55927  0.17672  0.87236  1.0000
  C   C2135     1.0  0.55346  0.16398  0.87653  1.0000
  C   C2136     1.0  0.54707  0.16037  0.86683  1.0000
  C   C2137     1.0  0.54716  0.16921  0.85264  1.0000
  C   C2138     1.0  0.55346  0.18169  0.84827  1.0000
  H   H3786     1.0  0.56406  0.17942  0.87997  1.0000
  H   H3787     1.0  0.55390  0.15690  0.88733  1.0000
  H   H3788     1.0  0.54271  0.16618  0.84497  1.0000
  H   H3789     1.0  0.55376  0.18832  0.83719  1.0000
  C   C2139     1.0  0.59148  0.17898  0.93119  1.0000
  C   C2140     1.0  0.60094  0.16713  0.93866  1.0000
  C   C2141     1.0  0.60297  0.16760  0.95243  1.0000
  C   C2142     1.0  0.59533  0.17984  0.95880  1.0000
  C   C2143     1.0  0.58602  0.19174  0.95121  1.0000
  C   C2144     1.0  0.58416  0.19133  0.93739  1.0000
  H   H3790     1.0  0.60662  0.15755  0.93387  1.0000
  H   H3791     1.0  0.61011  0.15837  0.95831  1.0000
  H   H3792     1.0  0.58013  0.20125  0.95600  1.0000
  H   H3793     1.0  0.57694  0.20054  0.93163  1.0000
  H   H3794     1.0  0.52032  0.26356  0.85827  1.0000
  H   H3795     1.0  0.53448  0.04977  0.78750  1.0000
  H   H3796     1.0  0.61997  0.31589  0.89285  1.0000
  H   H3797     1.0  0.51969  0.09719  0.80768  1.0000
  H   H3798     1.0  0.50501  0.29909  0.86763  1.0000
  H   H3799     1.0  0.51094  0.22835  0.97343  1.0000
  H   H3800     1.0  0.53218  0.15774  0.90788  1.0000
  C   C2145     1.0  0.60378  0.29109  0.96824  1.0000
  C   C2146     1.0  0.51797  0.20190  0.82328  1.0000
  H   H3801     1.0  0.55214  0.27893  0.96884  1.0000
  H   H3802     1.0  0.50849  0.20897  0.81821  1.0000
  C   C2147     1.0  0.55861  0.26127  0.98696  1.0000
  H   H3803     1.0  0.52049  0.12754  0.91818  1.0000
  H   H3804     1.0  0.50237  0.02956  0.97752  1.0000
  H   H3805     1.0  0.64547  0.21347  0.84633  1.0000
  H   H3806     1.0  0.59855  0.26118  0.93504  1.0000
  H   H3807     1.0  0.54367  0.24458  0.82167  1.0000
  Fe  Fe242     1.0  0.58383  0.30323  0.92176  1.0000
  N   N119      1.0  0.51361  0.21715  0.84309  1.0000
  S   S482      1.0  0.51810  0.14511  0.84031  1.0000
  H   H3808     1.0  0.53018  0.22507  0.82441  1.0000
  C   C2148     1.0  0.65028  0.21201  0.90018  1.0000
  C   C2149     1.0  0.52407  0.24453  0.96847  1.0000
  C   C2150     1.0  0.52099  0.08511  0.97165  1.0000
  H   H3809     1.0  0.55348  0.27143  0.91322  1.0000
  H   H3810     1.0  0.52685  0.30188  0.97128  1.0000
  S   S483      1.0  0.56150  0.29852  0.93398  1.0000
  H   H3811     1.0  0.57463  0.26862  0.95032  1.0000
  H   H3812     1.0  0.59670  0.23091  0.91608  1.0000
  C   C2151     1.0  0.60179  0.25482  0.88565  1.0000
  C   C2152     1.0  0.50324  0.25253  0.87256  1.0000
  H   H3813     1.0  0.60104  0.22169  0.93388  1.0000
  H   H3814     1.0  0.66754  0.19871  0.91235  1.0000
  Fe  Fe243     1.0  0.57649  0.19609  0.98547  1.0000
  C   C2153     1.0  0.51619  0.29633  0.95693  1.0000
  S   S484      1.0  0.50122  0.06318  0.78149  1.0000
  C   C2154     1.0  0.66626  0.20794  0.90258  1.0000
  H   H3815     1.0  0.60605  0.20328  0.91930  1.0000
  C   C2155     1.0  0.61958  0.31823  0.90367  1.0000
  C   C2156     1.0  0.58884  0.27179  0.90237  1.0000
  H   H3816     1.0  0.62039  0.27127  0.96536  1.0000
  H   H3817     1.0  0.64277  0.21588  0.91010  1.0000
  N   N120      1.0  0.50456  0.29320  0.93690  1.0000
  C   C2157     1.0  0.53077  0.16569  0.91493  1.0000
  H   H3818     1.0  0.53795  0.21211  0.83863  1.0000
  H   H3819     1.0  0.57584  0.25081  0.96263  1.0000
  C   C2158     1.0  0.54219  0.26935  0.91862  1.0000
  H   H3820     1.0  0.62229  0.25753  0.92551  1.0000
  H   H3821     1.0  0.54708  0.05961  0.78947  1.0000
  H   H3822     1.0  0.52828  0.20574  0.81704  1.0000
  C   C2159     1.0  0.60122  0.24448  0.97097  1.0000
  H   H3823     1.0  0.53770  0.26666  0.91041  1.0000
  H   H3824     1.0  0.67437  0.20462  0.89264  1.0000
  H   H3825     1.0  0.65539  0.19323  0.88976  1.0000
  C   C2160     1.0  0.64023  0.21886  0.86812  1.0000
  H   H3826     1.0  0.55459  0.23047  0.83372  1.0000
  H   H3827     1.0  0.59142  0.29510  0.97099  1.0000
  H   H3828     1.0  0.64987  0.25681  0.93648  1.0000
  H   H3829     1.0  0.62334  0.20467  0.92208  1.0000
  H   H3830     1.0  0.50734  0.12910  0.89882  1.0000
  H   H3831     1.0  0.52528  0.28636  0.95560  1.0000
  C   C2161     1.0  0.61530  0.25799  0.88542  1.0000
  C   C2162     1.0  0.61568  0.26763  0.89383  1.0000
  C   C2163     1.0  0.60248  0.27473  0.90219  1.0000
  H   H3832     1.0  0.52788  0.06893  0.78931  1.0000
  H   H3833     1.0  0.50699  0.29338  0.96625  1.0000
  H   H3834     1.0  0.51097  0.99214  0.77835  1.0000
  C   C2164     1.0  0.62718  0.25944  0.93386  1.0000
  H   H3835     1.0  0.58828  0.27371  0.96284  1.0000
  H   H3836     1.0  0.52121  0.18627  0.80948  1.0000
  C   C2165     1.0  0.52048  0.24508  0.89390  1.0000
  H   H3837     1.0  0.63033  0.15756  0.91297  1.0000
  C   C2166     1.0  0.53278  0.00389  0.83467  1.0000
  C   C2167     1.0  0.62970  0.15972  0.90117  1.0000
  H   H3838     1.0  0.54324  0.25967  0.92801  1.0000
  C   C2168     1.0  0.55650  0.27599  0.97878  1.0000
  Fe  Fe244     1.0  0.56300  0.31116  0.94978  1.0000
  Fe  Fe245     1.0  0.52116  0.14230  0.86340  1.0000
  C   C2169     1.0  0.50486  0.22592  0.94357  1.0000
  H   H3839     1.0  0.53269  0.06196  0.81450  1.0000
  H   H3840     1.0  0.64438  0.23255  0.84607  1.0000
  H   H3841     1.0  0.62531  0.30799  0.91042  1.0000
  H   H3842     1.0  0.64146  0.19593  0.87149  1.0000
  C   C2170     1.0  0.53540  0.05815  0.79300  1.0000
  C   C2171     1.0  0.50107  0.12924  0.91000  1.0000
  C   C2172     1.0  0.50011  0.99420  0.78563  1.0000
  C   C2173     1.0  0.61408  0.21048  0.91624  1.0000
  H   H3843     1.0  0.65221  0.21640  0.86856  1.0000
  C   C2174     1.0  0.53143  0.05316  0.80982  1.0000
  H   H3844     1.0  0.53143  0.03137  0.83606  1.0000
  H   H3845     1.0  0.55583  0.25288  0.98333  1.0000
  H   H3846     1.0  0.52636  0.15007  0.93511  1.0000
  H   H3847     1.0  0.51897  0.30795  0.93400  1.0000
  H   H3848     1.0  0.61798  0.16086  0.90049  1.0000
  H   H3849     1.0  0.57512  0.23930  0.94305  1.0000
  S   S485      1.0  0.51717  0.10754  0.83376  1.0000
  H   H3850     1.0  0.51038  0.18146  0.82789  1.0000
  H   H3851     1.0  0.66888  0.21767  0.90457  1.0000
  H   H3852     1.0  0.51898  0.17206  0.91635  1.0000
  H   H3853     1.0  0.62361  0.18414  0.91086  1.0000
  H   H3854     1.0  0.60204  0.27852  0.94716  1.0000
  H   H3855     1.0  0.52436  0.08139  0.98249  1.0000
  H   H3856     1.0  0.60041  0.24208  0.94357  1.0000
  H   H3857     1.0  0.63445  0.17503  0.88078  1.0000
  C   C2175     1.0  0.57199  0.25154  0.94160  1.0000
  C   C2176     1.0  0.52541  0.25708  0.97216  1.0000
  H   H3858     1.0  0.57531  0.25664  0.92975  1.0000
  C   C2177     1.0  0.61959  0.21367  0.89921  1.0000
  H   H3859     1.0  0.53040  0.17893  0.82485  1.0000
  C   C2178     1.0  0.63934  0.22289  0.85182  1.0000
  H   H3860     1.0  0.51868  0.09736  0.96868  1.0000
  C   C2179     1.0  0.62157  0.25047  0.94948  1.0000
  H   H3861     1.0  0.64777  0.26110  0.91759  1.0000
  H   H3862     1.0  0.55965  0.25498  0.94507  1.0000
  C   C2180     1.0  0.50716  0.24043  0.89724  1.0000
  N   N121      1.0  0.55644  0.14109  0.94244  1.0000
  C   C2181     1.0  0.57186  0.13153  0.93834  1.0000
  C   C2182     1.0  0.54613  0.13132  0.95224  1.0000
  C   C2183     1.0  0.55076  0.14817  0.92830  1.0000
  C   C2184     1.0  0.55638  0.15313  0.94980  1.0000
  C   C2185     1.0  0.56770  0.14946  0.95999  1.0000
  C   C2186     1.0  0.58318  0.13954  0.92631  1.0000
  C   C2187     1.0  0.53435  0.15737  0.93000  1.0000
  C   C2188     1.0  0.54980  0.12280  0.96746  1.0000
  C   C2189     1.0  0.54059  0.11114  0.97472  1.0000
  C   C2190     1.0  0.56430  0.16131  0.96900  1.0000
  C   C2191     1.0  0.59929  0.13073  0.92601  1.0000
  H   H3863     1.0  0.64597  0.19026  0.90855  1.0000
  H   H3864     1.0  0.57116  0.12205  0.93419  1.0000
  H   H3865     1.0  0.57694  0.12636  0.94813  1.0000
  H   H3866     1.0  0.53453  0.13795  0.95499  1.0000
  H   H3867     1.0  0.54549  0.12320  0.94619  1.0000
  H   H3868     1.0  0.55177  0.13956  0.92207  1.0000
  H   H3869     1.0  0.55776  0.15585  0.92083  1.0000
  H   H3870     1.0  0.55893  0.16303  0.94130  1.0000
  H   H3871     1.0  0.54496  0.15697  0.95634  1.0000
  H   H3872     1.0  0.57923  0.14895  0.95326  1.0000
  H   H3873     1.0  0.56775  0.13874  0.96788  1.0000
  H   H3874     1.0  0.58089  0.14107  0.91518  1.0000
  H   H3875     1.0  0.58229  0.15057  0.92825  1.0000
  H   H3876     1.0  0.53230  0.16555  0.93692  1.0000
  C   C2192     1.0  0.51666  0.25710  0.86912  1.0000
  H   H3877     1.0  0.56168  0.11694  0.96667  1.0000
  H   H3878     1.0  0.54683  0.13064  0.97499  1.0000
  H   H3879     1.0  0.50836  0.07913  0.91309  1.0000
  H   H3880     1.0  0.52858  0.11633  0.97519  1.0000
  H   H3881     1.0  0.54405  0.10225  0.96835  1.0000
  H   H3882     1.0  0.55298  0.16207  0.97632  1.0000
  H   H3883     1.0  0.57264  0.15853  0.97602  1.0000
  H   H3884     1.0  0.56499  0.17223  0.96154  1.0000
  H   H3885     1.0  0.60072  0.11958  0.92389  1.0000
  H   H3886     1.0  0.60695  0.13669  0.91702  1.0000
  H   H3887     1.0  0.60240  0.12958  0.93666  1.0000
  H   H3888     1.0  0.62747  0.22599  0.85075  1.0000
  H   H3889     1.0  0.53229  0.20460  0.86277  1.0000
  H   H3890     1.0  0.62328  0.22423  0.89577  1.0000
  C   C2193     1.0  0.61350  0.23767  0.98027  1.0000
  H   H3891     1.0  0.61379  0.23184  0.92011  1.0000
  H   H3892     1.0  0.51176  0.22845  0.94974  1.0000
  C   C2194     1.0  0.54457  0.23976  0.83336  1.0000
  H   H3893     1.0  0.64943  0.22151  0.89070  1.0000
  H   H3894     1.0  0.64702  0.17189  0.89294  1.0000
  H   H3895     1.0  0.60949  0.21605  0.89452  1.0000
  C   C2195     1.0  0.55959  0.28693  0.98382  1.0000
  H   H3896     1.0  0.62281  0.20677  0.87320  1.0000
  C   C2196     1.0  0.50063  0.12839  0.93556  1.0000
  C   C2197     1.0  0.52187  0.20471  0.93402  1.0000
  C   C2198     1.0  0.50244  0.08430  0.95747  1.0000
  H   H3897     1.0  0.63418  0.22874  0.87280  1.0000
  H   H3898     1.0  0.57858  0.27733  0.90871  1.0000
  C   C2199     1.0  0.53630  0.20816  0.93558  1.0000
  N   N122      1.0  0.60511  0.25491  0.95626  1.0000
  C   C2200     1.0  0.60804  0.27451  0.96851  1.0000
  H   H3899     1.0  0.52086  0.24410  0.84146  1.0000
  H   H3900     1.0  0.50972  0.06764  0.97657  1.0000
  C   C2201     1.0  0.54640  0.19490  0.94367  1.0000
  C   C2202     1.0  0.52533  0.25331  0.87982  1.0000
  H   H3901     1.0  0.60416  0.26884  0.98008  1.0000
  H   H3902     1.0  0.51289  0.27375  0.92733  1.0000
  H   H3903     1.0  0.60767  0.32121  0.90932  1.0000
  H   H3904     1.0  0.52028  0.21026  0.92256  1.0000
  H   H3905     1.0  0.52443  0.19273  0.93413  1.0000
  H   H3906     1.0  0.53970  0.04280  0.81299  1.0000
  H   H3907     1.0  0.51909  0.19310  0.86995  1.0000
  H   H3908     1.0  0.62447  0.23862  0.94867  1.0000
  H   H3909     1.0  0.59097  0.24998  0.97809  1.0000
  C   C2203     1.0  0.57926  0.25657  0.95111  1.0000
  S   S486      1.0  0.60390  0.28674  0.91253  1.0000
  H   H3910     1.0  0.53400  0.21762  0.94085  1.0000
  H   H3911     1.0  0.54302  0.21157  0.92437  1.0000
  C   C2204     1.0  0.63514  0.17372  0.89244  1.0000
  C   C2205     1.0  0.59651  0.25341  0.94587  1.0000
  C   C2206     1.0  0.60593  0.22465  0.92188  1.0000
  C   C2207     1.0  0.51015  0.30328  0.94262  1.0000
  N   N123      1.0  0.50768  0.20933  0.94511  1.0000
  C   C2208     1.0  0.60049  0.27075  0.95809  1.0000
  C   C2209     1.0  0.63364  0.20518  0.87640  1.0000
  S   S487      1.0  0.55634  0.30561  0.97459  1.0000
  H   H3912     1.0  0.50225  0.06401  0.87477  1.0000
  S   S488      1.0  0.51129  0.09100  0.74655  1.0000
  H   H3913     1.0  0.62440  0.27145  0.93370  1.0000
  H   H3914     1.0  0.54007  0.18772  0.95272  1.0000
  H   H3915     1.0  0.55396  0.18823  0.93564  1.0000
  H   H3916     1.0  0.55329  0.19898  0.94861  1.0000
  C   C2210     1.0  0.52011  0.18617  0.82130  1.0000
  H   H3917     1.0  0.63682  0.15006  0.89648  1.0000
  H   H3918     1.0  0.53056  0.29206  0.91401  1.0000
  C   C2211     1.0  0.53192  0.28312  0.92392  1.0000
  H   H3919     1.0  0.62860  0.25115  0.95663  1.0000
  N   N124      1.0  0.63141  0.20141  0.89306  1.0000
  H   H3920     1.0  0.54606  0.24839  0.83815  1.0000
  H   H3921     1.0  0.52340  0.21727  0.88253  1.0000
  H   H3922     1.0  0.51905  0.27179  0.94361  1.0000
  C   C2212     1.0  0.62536  0.18753  0.89859  1.0000
  S   S489      1.0  0.55421  0.19537  0.98241  1.0000
  S   S490      1.0  0.50406  0.14967  0.97617  1.0000
  H   H3923     1.0  0.53767  0.28647  0.93063  1.0000
  C   C2213     1.0  0.64600  0.19850  0.89785  1.0000
  H   H3924     1.0  0.61412  0.18972  0.89604  1.0000
  C   C2214     1.0  0.51671  0.27991  0.93332  1.0000
  H   H3925     1.0  0.53816  0.17353  0.90920  1.0000
  C   C2215     1.0  0.52239  0.30726  0.96110  1.0000
  H   H3926     1.0  0.53565  0.26096  0.96774  1.0000
  S   S491      1.0  0.58624  0.31416  0.93867  1.0000
  H   H3927     1.0  0.53164  0.31072  0.95213  1.0000
  H   H3928     1.0  0.51903  0.20481  0.96303  1.0000
  C   C2216     1.0  0.53046  0.23445  0.84230  1.0000
  H   H3929     1.0  0.52153  0.31386  0.82837  1.0000
  H   H3930     1.0  0.50842  0.30654  0.91470  1.0000
  C   C2217     1.0  0.52841  0.22164  0.83666  1.0000
  H   H3931     1.0  0.53152  0.23074  0.85403  1.0000
  H   H3932     1.0  0.51926  0.14516  0.79066  1.0000
  H   H3933     1.0  0.52409  0.19398  0.84448  1.0000
  C   C2218     1.0  0.50853  0.12840  0.92099  1.0000
  S   S492      1.0  0.51497  0.12015  0.87116  1.0000
  C   C2219     1.0  0.52062  0.20446  0.86849  1.0000
  H   H3934     1.0  0.51436  0.18919  0.96069  1.0000
  H   H3935     1.0  0.51563  0.15647  0.80416  1.0000
  H   H3936     1.0  0.62241  0.22926  0.97495  1.0000
  C   C2220     1.0  0.51371  0.26425  0.98202  1.0000
  C   C2221     1.0  0.51871  0.20760  0.88372  1.0000
  H   H3937     1.0  0.52536  0.13730  0.80788  1.0000
  H   H3938     1.0  0.54223  0.10619  0.98620  1.0000
  H   H3939     1.0  0.50275  0.12927  0.80864  1.0000
  H   H3940     1.0  0.63021  0.32389  0.92368  1.0000
  H   H3941     1.0  0.50675  0.20995  0.88939  1.0000
  C   C2222     1.0  0.51527  0.05069  0.81515  1.0000
  C   C2223     1.0  0.50224  0.00825  0.74202  1.0000
  H   H3942     1.0  0.50119  0.32135  0.84884  1.0000
  H   H3943     1.0  0.52607  0.30387  0.84595  1.0000
  C   C2224     1.0  0.50932  0.21584  0.85964  1.0000
  H   H3944     1.0  0.51435  0.04320  0.80865  1.0000
  H   H3945     1.0  0.51494  0.02306  0.74354  1.0000
  H   H3946     1.0  0.52011  0.29483  0.83507  1.0000
  H   H3947     1.0  0.50721  0.22682  0.86239  1.0000
  H   H3948     1.0  0.51348  0.31722  0.96322  1.0000
  C   C2225     1.0  0.51011  0.20127  0.96034  1.0000
  C   C2226     1.0  0.50064  0.25897  0.98799  1.0000
  Fe  Fe246     1.0  0.55222  0.32104  0.92117  1.0000
  H   H3949     1.0  0.52497  0.19791  0.89064  1.0000
  C   C2227     1.0  0.50457  0.05415  0.85619  1.0000
  H   H3950     1.0  0.50029  0.23951  0.83945  1.0000
  H   H3951     1.0  0.50360  0.23370  0.90795  1.0000
  H   H3952     1.0  0.50264  0.07698  0.85730  1.0000
  H   H3953     1.0  0.50558  0.23152  0.82384  1.0000
  Fe  Fe247     1.0  0.50967  0.12409  0.84879  1.0000
  H   H3954     1.0  0.60850  0.29332  0.97655  1.0000
  H   H3955     1.0  0.50465  0.19806  0.84571  1.0000
  H   H3956     1.0  0.50761  0.05347  0.96208  1.0000
  C   C2228     1.0  0.50184  0.22895  0.83609  1.0000
  H   H3957     1.0  0.53032  0.00008  0.84690  1.0000
  H   H3958     1.0  0.51970  0.06434  0.86147  1.0000
  H   H3959     1.0  0.50616  0.18281  0.93724  1.0000
  H   H3960     1.0  0.50904  0.23138  0.93198  1.0000
  C   C2229     1.0  0.51170  0.05616  0.83938  1.0000
  H   H3961     1.0  0.50104  0.31299  0.94512  1.0000
  C   C2230     1.0  0.51632  0.14525  0.80265  1.0000
  C   C2231     1.0  0.50869  0.09665  0.81452  1.0000
  H   H3962     1.0  0.50928  0.04305  0.86237  1.0000
  H   H3963     1.0  0.50127  0.28806  0.85750  1.0000
  H   H3964     1.0  0.53044  0.08055  0.96321  1.0000
  H   H3965     1.0  0.50187  0.09638  0.95327  1.0000
  C   C2232     1.0  0.50702  0.07983  0.97269  1.0000
  H   H3966     1.0  0.53296  0.99472  0.82963  1.0000
  H   H3967     1.0  0.50660  0.06761  0.83408  1.0000
  C   C2233     1.0  0.50217  0.31063  0.84604  1.0000
  H   H3968     1.0  0.50091  0.00341  0.75405  1.0000
  S   S493      1.0  0.50320  0.02281  0.77960  1.0000
  H   H3969     1.0  0.50248  0.08738  0.79956  1.0000
  H   H3970     1.0  0.51219  0.07888  0.94978  1.0000
  C   C2234     1.0  0.51986  0.03030  0.83707  1.0000
  C   C2235     1.0  0.52083  0.01744  0.82983  1.0000
  H   H3971     1.0  0.51003  0.01397  0.83346  1.0000
  H   H3972     1.0  0.54402  0.00649  0.83095  1.0000
  H   H3973     1.0  0.52367  0.05592  0.83829  1.0000
  H   H3974     1.0  0.61878  0.24606  0.98134  1.0000
  H   H3975     1.0  0.50194  0.27984  0.88644  1.0000
  H   H3976     1.0  0.52372  0.02046  0.81760  1.0000
  H   H3977     1.0  0.51573  0.02637  0.84910  1.0000
  H   H3978     1.0  0.50404  0.17508  0.89334  1.0000
  C   C2236     1.0  0.50750  0.06557  0.86279  1.0000
  H   H3979     1.0  0.50756  0.06136  0.81153  1.0000
  C   C2237     1.0  0.51847  0.30544  0.83843  1.0000
  C   C2238     1.0  0.50152  0.14063  0.80996  1.0000
  C   C2239     1.0  0.49986  0.19261  0.98750  1.0000
  H   H3980     1.0  0.91918  0.56169  0.00709  1.0000
  C   C2240     1.0  0.85817  0.44193  0.21655  1.0000
  C   C2241     1.0  0.98124  0.42802  0.22485  1.0000
  Fe  Fe248     1.0  0.71055  0.54472  0.01051  1.0000
  H   H3981     1.0  0.76474  0.46982  0.99169  1.0000
  S   S494      1.0  0.71534  0.53886  0.03327  1.0000
  H   H3982     1.0  0.92596  0.42968  0.23987  1.0000
  H   H3983     1.0  0.86986  0.43794  0.21820  1.0000
  H   H3984     1.0  0.87626  0.59847  0.15849  1.0000
  S   S495      1.0  0.70133  0.56812  0.99962  1.0000
  S   S496      1.0  0.69507  0.53510  0.00401  1.0000
  H   H3985     1.0  0.84245  0.46252  0.21082  1.0000
  S   S497      1.0  0.71671  0.41727  0.01852  1.0000
  H   H3986     1.0  0.84948  0.51521  0.21271  1.0000
  H   H3987     1.0  0.70762  0.42989  0.04572  1.0000
  H   H3988     1.0  0.75358  0.56673  0.02114  1.0000
  H   H3989     1.0  0.77361  0.36633  0.02069  1.0000
  H   H3990     1.0  0.98404  0.44213  0.23703  1.0000
  Fe  Fe249     1.0  0.74106  0.41755  0.01131  1.0000
  S   S498      1.0  0.75401  0.41504  0.02860  1.0000
  H   H3991     1.0  0.88620  0.59321  0.19355  1.0000
  C   C2242     1.0  0.70326  0.47227  0.99619  1.0000
  H   H3992     1.0  0.88274  0.58611  0.17373  1.0000
  H   H3993     1.0  0.62998  0.48851  0.99223  1.0000
  C   C2243     1.0  0.99702  0.52479  0.04323  1.0000
  C   C2244     1.0  0.73443  0.57364  0.01149  1.0000
  H   H3994     1.0  0.75244  0.55596  0.99423  1.0000
  S   S499      1.0  0.98864  0.47907  0.08503  1.0000
  C   C2245     1.0  0.98056  0.48695  0.22784  1.0000
  H   H3995     1.0  0.83119  0.46289  0.16694  1.0000
  C   C2246     1.0  0.76540  0.34096  0.04050  1.0000
  Fe  Fe250     1.0  0.91071  0.56138  0.19957  1.0000
  S   S500      1.0  0.91664  0.53718  0.20951  1.0000
  H   H3996     1.0  0.79527  0.37383  0.02415  1.0000
  Fe  Fe251     1.0  0.89858  0.55610  0.17531  1.0000
  S   S501      1.0  0.90373  0.53160  0.18335  1.0000
  S   S502      1.0  0.89030  0.56523  0.15406  1.0000
  Fe  Fe252     1.0  0.89451  0.53680  0.20587  1.0000
  C   C2247     1.0  0.86893  0.49985  0.23377  1.0000
  Fe  Fe253     1.0  0.92533  0.53437  0.18589  1.0000
  S   S503      1.0  0.94761  0.52224  0.17483  1.0000
  S   S504      1.0  0.88769  0.56136  0.19775  1.0000
  S   S505      1.0  0.92086  0.55858  0.17627  1.0000
  H   H3997     1.0  0.89851  0.61992  0.16583  1.0000
  C   C2248     1.0  0.99234  0.47749  0.14092  1.0000
  H   H3998     1.0  0.98576  0.48907  0.05285  1.0000
  H   H3999     1.0  0.75786  0.52958  0.99604  1.0000
  Fe  Fe254     1.0  0.79815  0.49226  0.02604  1.0000
  S   S506      1.0  0.81248  0.47017  0.03438  1.0000
  S   S507      1.0  0.78025  0.50380  0.04247  1.0000
  Fe  Fe255     1.0  0.83174  0.48051  0.02126  1.0000
  S   S508      1.0  0.85302  0.47702  0.02948  1.0000
  Fe  Fe256     1.0  0.81191  0.46497  0.01312  1.0000
  S   S509      1.0  0.81025  0.44349  0.00918  1.0000
  S   S510      1.0  0.81747  0.50286  0.01420  1.0000
  S   S511      1.0  0.79585  0.48614  0.00600  1.0000
  Fe  Fe257     1.0  0.90565  0.50799  0.09103  1.0000
  S   S512      1.0  0.88245  0.52218  0.09541  1.0000
  S   S513      1.0  0.92446  0.51959  0.07968  1.0000
  Fe  Fe258     1.0  0.89530  0.47970  0.10574  1.0000
  S   S514      1.0  0.87127  0.49157  0.11134  1.0000
  S   S515      1.0  0.90087  0.45481  0.11028  1.0000
  Fe  Fe259     1.0  0.87555  0.50518  0.08823  1.0000
  S   S516      1.0  0.85817  0.51296  0.07392  1.0000
  Fe  Fe260     1.0  0.88022  0.50749  0.11794  1.0000
  S   S517      1.0  0.86878  0.51527  0.13931  1.0000
  S   S518      1.0  0.89899  0.49213  0.08206  1.0000
  S   S519      1.0  0.90405  0.49445  0.11416  1.0000
  H   H4000     1.0  0.76546  0.38465  0.04471  1.0000
  C   C2249     1.0  0.83230  0.47278  0.17000  1.0000
  C   C2250     1.0  0.74466  0.48121  0.00504  1.0000
  Fe  Fe261     1.0  0.93079  0.45286  0.18688  1.0000
  H   H4001     1.0  0.99163  0.44724  0.10642  1.0000
  S   S520      1.0  0.94213  0.47026  0.17163  1.0000
  Fe  Fe262     1.0  0.91421  0.43010  0.18873  1.0000
  S   S521      1.0  0.90517  0.41992  0.17564  1.0000
  H   H4002     1.0  0.95532  0.55571  0.18809  1.0000
  S   S522      1.0  0.90672  0.45443  0.18791  1.0000
  H   H4003     1.0  0.73015  0.58368  0.01630  1.0000
  H   H4004     1.0  0.91961  0.55186  0.99342  1.0000
  H   H4005     1.0  0.92562  0.60774  0.16277  1.0000
  C   C2251     1.0  0.88610  0.61137  0.21198  1.0000
  H   H4006     1.0  0.99055  0.43084  0.21557  1.0000
  C   C2252     1.0  0.96044  0.58913  0.19432  1.0000
  C   C2253     1.0  0.95925  0.46804  0.17614  1.0000
  C   C2254     1.0  0.96794  0.45388  0.18035  1.0000
  C   C2255     1.0  0.98179  0.45224  0.18373  1.0000
  H   H4007     1.0  0.99014  0.53560  0.03861  1.0000
  C   C2256     1.0  0.97770  0.47886  0.17969  1.0000
  C   C2257     1.0  0.96408  0.48050  0.17589  1.0000
  H   H4008     1.0  0.96406  0.44421  0.18088  1.0000
  C   C2258     1.0  0.76504  0.37390  0.02724  1.0000
  H   H4009     1.0  0.98186  0.55745  0.18283  1.0000
  H   H4010     1.0  0.95716  0.49140  0.17306  1.0000
  H   H4011     1.0  0.85783  0.59236  0.19075  1.0000
  C   C2259     1.0  0.90245  0.44541  0.12843  1.0000
  C   C2260     1.0  0.90862  0.45071  0.13705  1.0000
  C   C2261     1.0  0.90952  0.44299  0.15162  1.0000
  C   C2262     1.0  0.90439  0.42988  0.15747  1.0000
  C   C2263     1.0  0.89856  0.42446  0.14868  1.0000
  C   C2264     1.0  0.89768  0.43215  0.13419  1.0000
  H   H4012     1.0  0.91294  0.46060  0.13241  1.0000
  H   H4013     1.0  0.91435  0.44707  0.15822  1.0000
  H   H4014     1.0  0.89475  0.41427  0.15308  1.0000
  H   H4015     1.0  0.89321  0.42784  0.12749  1.0000
  C   C2265     1.0  0.85427  0.48744  0.04153  1.0000
  C   C2266     1.0  0.84190  0.49760  0.04747  1.0000
  C   C2267     1.0  0.84323  0.50528  0.05744  1.0000
  C   C2268     1.0  0.85688  0.50283  0.06162  1.0000
  C   C2269     1.0  0.86932  0.49288  0.05548  1.0000
  C   C2270     1.0  0.86801  0.48520  0.04550  1.0000
  H   H4016     1.0  0.83127  0.49946  0.04446  1.0000
  H   H4017     1.0  0.83358  0.51310  0.06199  1.0000
  H   H4018     1.0  0.87996  0.49120  0.05832  1.0000
  H   H4019     1.0  0.87766  0.47747  0.04084  1.0000
  H   H4020     1.0  0.87413  0.61558  0.21682  1.0000
  C   C2271     1.0  0.89159  0.49949  0.21471  1.0000
  C   C2272     1.0  0.89329  0.48425  0.21599  1.0000
  H   H4021     1.0  0.94292  0.36557  0.23248  1.0000
  H   H4022     1.0  0.99506  0.46977  0.05435  1.0000
  H   H4023     1.0  0.76453  0.35092  0.01150  1.0000
  H   H4024     1.0  0.89971  0.50517  0.20690  1.0000
  H   H4025     1.0  0.90271  0.47822  0.20911  1.0000
  C   C2273     1.0  0.84468  0.46833  0.17871  1.0000
  C   C2274     1.0  0.98662  0.46475  0.18349  1.0000
  C   C2275     1.0  0.88377  0.55181  0.14979  1.0000
  C   C2276     1.0  0.88540  0.55113  0.13503  1.0000
  C   C2277     1.0  0.88111  0.53981  0.13162  1.0000
  C   C2278     1.0  0.87465  0.52946  0.14300  1.0000
  C   C2279     1.0  0.87251  0.53055  0.15771  1.0000
  C   C2280     1.0  0.87718  0.54156  0.16112  1.0000
  H   H4026     1.0  0.89012  0.55928  0.12626  1.0000
  H   H4027     1.0  0.88255  0.53923  0.12022  1.0000
  H   H4028     1.0  0.86749  0.52271  0.16654  1.0000
  H   H4029     1.0  0.87555  0.54217  0.17254  1.0000
  C   C2281     1.0  0.96098  0.52138  0.18455  1.0000
  C   C2282     1.0  0.95624  0.52234  0.19937  1.0000
  C   C2283     1.0  0.96600  0.52417  0.20680  1.0000
  C   C2284     1.0  0.98074  0.52454  0.19964  1.0000
  C   C2285     1.0  0.98594  0.52260  0.18506  1.0000
  C   C2286     1.0  0.97600  0.52097  0.17748  1.0000
  H   H4030     1.0  0.94501  0.52176  0.20509  1.0000
  H   H4031     1.0  0.96205  0.52559  0.21807  1.0000
  C   C2287     1.0  0.75766  0.55426  0.00375  1.0000
  H   H4032     1.0  0.97982  0.51997  0.16605  1.0000
  H   H4033     1.0  0.73469  0.49004  0.00281  1.0000
  H   H4034     1.0  0.98739  0.46352  0.23097  1.0000
  H   H4035     1.0  0.78855  0.44406  0.99320  1.0000
  H   H4036     1.0  0.89295  0.61712  0.21516  1.0000
  C   C2288     1.0  0.89501  0.61047  0.16425  1.0000
  H   H4037     1.0  0.99742  0.52280  0.17951  1.0000
  C   C2289     1.0  0.55016  0.61966  0.99061  1.0000
  H   H4038     1.0  0.88353  0.56434  0.07931  1.0000
  C   C2290     1.0  0.97081  0.49055  0.08393  1.0000
  C   C2291     1.0  0.95876  0.48405  0.08609  1.0000
  C   C2292     1.0  0.94443  0.49291  0.08509  1.0000
  C   C2293     1.0  0.94221  0.50832  0.08146  1.0000
  C   C2294     1.0  0.95429  0.51483  0.07910  1.0000
  C   C2295     1.0  0.96851  0.50597  0.08059  1.0000
  H   H4039     1.0  0.96047  0.47212  0.08871  1.0000
  H   H4040     1.0  0.93516  0.48779  0.08695  1.0000
  H   H4041     1.0  0.95260  0.52676  0.07634  1.0000
  H   H4042     1.0  0.97769  0.51106  0.07907  1.0000
  C   C2296     1.0  0.94983  0.61438  0.20097  1.0000
  N   N125      1.0  0.77449  0.54936  0.99945  1.0000
  C   C2297     1.0  0.77286  0.37636  0.03829  1.0000
  H   H4043     1.0  0.92325  0.60438  0.14593  1.0000
  H   H4044     1.0  0.98480  0.57814  0.20815  1.0000
  C   C2298     1.0  0.73964  0.46746  0.01582  1.0000
  C   C2299     1.0  0.76849  0.42464  0.02335  1.0000
  C   C2300     1.0  0.77268  0.43215  0.00876  1.0000
  C   C2301     1.0  0.78493  0.43886  0.00464  1.0000
  C   C2302     1.0  0.79297  0.43824  0.01511  1.0000
  C   C2303     1.0  0.78851  0.43108  0.02979  1.0000
  C   C2304     1.0  0.77631  0.42431  0.03389  1.0000
  H   H4045     1.0  0.84281  0.64213  0.16275  1.0000
  H   H4046     1.0  0.90307  0.53686  0.01150  1.0000
  H   H4047     1.0  0.79488  0.43022  0.03785  1.0000
  H   H4048     1.0  0.77319  0.41846  0.04518  1.0000
  H   H4049     1.0  0.87032  0.49623  0.17241  1.0000
  H   H4050     1.0  0.76687  0.43233  0.00051  1.0000
  C   C2305     1.0  0.88874  0.61426  0.19512  1.0000
  H   H4051     1.0  0.99016  0.40647  0.17695  1.0000
  H   H4052     1.0  0.90142  0.47434  0.15804  1.0000
  H   H4053     1.0  0.86848  0.45649  0.19052  1.0000
  H   H4054     1.0  0.88479  0.62630  0.19108  1.0000
  C   C2306     1.0  0.84614  0.48183  0.18372  1.0000
  H   H4055     1.0  0.99621  0.53236  0.23716  1.0000
  H   H4056     1.0  0.73680  0.35859  0.02669  1.0000
  N   N126      1.0  0.98913  0.43888  0.13803  1.0000
  C   C2307     1.0  0.66111  0.44026  0.01632  1.0000
  Fe  Fe263     1.0  0.68766  0.55810  0.99103  1.0000
  H   H4057     1.0  0.99811  0.49323  0.20910  1.0000
  C   C2308     1.0  0.87140  0.53718  0.03199  1.0000
  H   H4058     1.0  0.52717  0.62474  0.00281  1.0000
  H   H4059     1.0  0.76140  0.33637  0.03327  1.0000
  H   H4060     1.0  0.85495  0.46311  0.22145  1.0000
  C   C2309     1.0  0.95514  0.48166  0.21847  1.0000
  C   C2310     1.0  0.73331  0.52841  0.03543  1.0000
  C   C2311     1.0  0.73829  0.52884  0.04765  1.0000
  C   C2312     1.0  0.75267  0.52113  0.04962  1.0000
  C   C2313     1.0  0.76223  0.51286  0.03941  1.0000
  C   C2314     1.0  0.75725  0.51212  0.02724  1.0000
  C   C2315     1.0  0.74272  0.51984  0.02532  1.0000
  H   H4061     1.0  0.73105  0.53532  0.05557  1.0000
  H   H4062     1.0  0.75642  0.52166  0.05908  1.0000
  H   H4063     1.0  0.76453  0.50562  0.01939  1.0000
  H   H4064     1.0  0.73880  0.51913  0.01607  1.0000
  H   H4065     1.0  0.74171  0.34865  0.00443  1.0000
  H   H4066     1.0  0.85052  0.60523  0.17554  1.0000
  H   H4067     1.0  0.96505  0.57028  0.15540  1.0000
  S   S523      1.0  0.71056  0.38463  0.00568  1.0000
  H   H4068     1.0  0.89238  0.47747  0.14287  1.0000
  N   N127      1.0  0.75087  0.36828  0.03389  1.0000
  H   H4069     1.0  0.57808  0.64255  0.00068  1.0000
  C   C2316     1.0  0.73952  0.38003  0.04138  1.0000
  C   C2317     1.0  0.75325  0.35421  0.04549  1.0000
  C   C2318     1.0  0.76856  0.32847  0.05378  1.0000
  C   C2319     1.0  0.72315  0.37799  0.04657  1.0000
  H   H4070     1.0  0.55078  0.60764  0.99495  1.0000
  H   H4071     1.0  0.63294  0.42629  0.00113  1.0000
  H   H4072     1.0  0.59307  0.57314  0.99318  1.0000
  C   C2320     1.0  0.97473  0.44051  0.23336  1.0000
  H   H4073     1.0  0.73908  0.39112  0.03380  1.0000
  H   H4074     1.0  0.74289  0.38088  0.05126  1.0000
  H   H4075     1.0  0.75576  0.35641  0.05525  1.0000
  H   H4076     1.0  0.74279  0.35011  0.04992  1.0000
  H   H4077     1.0  0.97262  0.55132  0.16366  1.0000
  H   H4078     1.0  0.72250  0.36685  0.05347  1.0000
  H   H4079     1.0  0.71813  0.37960  0.03693  1.0000
  C   C2321     1.0  0.86897  0.62373  0.17125  1.0000
  H   H4080     1.0  0.85832  0.62373  0.17968  1.0000
  H   H4081     1.0  0.97209  0.44387  0.12535  1.0000
  H   H4082     1.0  0.70158  0.38811  0.05870  1.0000
  C   C2322     1.0  0.70415  0.49739  0.99524  1.0000
  H   H4083     1.0  0.76266  0.38459  0.01918  1.0000
  C   C2323     1.0  0.76021  0.46258  0.03707  1.0000
  H   H4084     1.0  0.73144  0.57636  0.00052  1.0000
  C   C2324     1.0  0.77051  0.46889  0.04212  1.0000
  H   H4085     1.0  0.74219  0.44486  0.03898  1.0000
  H   H4086     1.0  0.74917  0.45768  0.01484  1.0000
  H   H4087     1.0  0.75177  0.48565  0.00931  1.0000
  H   H4088     1.0  0.75983  0.45152  0.04433  1.0000
  H   H4089     1.0  0.76545  0.46125  0.02556  1.0000
  S   S524      1.0  0.83255  0.47331  0.00056  1.0000
  C   C2325     1.0  0.94895  0.52229  0.13140  1.0000
  H   H4090     1.0  0.87963  0.46425  0.16768  1.0000
  H   H4091     1.0  0.77209  0.47959  0.03465  1.0000
  H   H4092     1.0  0.76582  0.47061  0.05361  1.0000
  H   H4093     1.0  0.78162  0.46108  0.04176  1.0000
  H   H4094     1.0  0.98841  0.44131  0.18706  1.0000
  C   C2326     1.0  0.93865  0.50433  0.12502  1.0000
  C   C2327     1.0  0.94261  0.48833  0.13419  1.0000
  C   C2328     1.0  0.74429  0.47281  0.03809  1.0000
  C   C2329     1.0  0.94807  0.47701  0.12433  1.0000
  C   C2330     1.0  0.71604  0.43390  0.04862  1.0000
  H   H4095     1.0  0.92902  0.50472  0.12035  1.0000
  H   H4096     1.0  0.94800  0.50567  0.11519  1.0000
  H   H4097     1.0  0.93256  0.48553  0.14239  1.0000
  H   H4098     1.0  0.95142  0.48689  0.14026  1.0000
  H   H4099     1.0  0.99172  0.56786  0.23901  1.0000
  H   H4100     1.0  0.91092  0.50456  0.14478  1.0000
  H   H4101     1.0  0.93965  0.47808  0.11786  1.0000
  H   H4102     1.0  0.95886  0.47853  0.11669  1.0000
  H   H4103     1.0  0.94984  0.46571  0.13133  1.0000
  H   H4104     1.0  0.89633  0.50221  0.17238  1.0000
  H   H4105     1.0  0.91318  0.48842  0.16805  1.0000
  H   H4106     1.0  0.97689  0.46636  0.04177  1.0000
  H   H4107     1.0  0.79860  0.54629  0.03187  1.0000
  H   H4108     1.0  0.85754  0.65225  0.15637  1.0000
  C   C2331     1.0  0.74460  0.36620  0.02190  1.0000
  C   C2332     1.0  0.85645  0.49046  0.19997  1.0000
  H   H4109     1.0  0.72618  0.42480  0.04937  1.0000
  C   C2333     1.0  0.69814  0.48493  0.00219  1.0000
  H   H4110     1.0  0.66587  0.43058  0.04516  1.0000
  S   S525      1.0  0.88502  0.45777  0.22858  1.0000
  C   C2334     1.0  0.85335  0.64339  0.15452  1.0000
  C   C2335     1.0  0.64489  0.40409  0.99984  1.0000
  N   N128      1.0  0.96444  0.46918  0.22793  1.0000
  N   N129      1.0  0.65756  0.43864  0.00249  1.0000
  H   H4111     1.0  0.97250  0.49650  0.22296  1.0000
  H   H4112     1.0  0.99011  0.48334  0.12983  1.0000
  H   H4113     1.0  0.66945  0.53803  0.99368  1.0000
  H   H4114     1.0  0.94864  0.58835  0.19597  1.0000
  H   H4115     1.0  0.97257  0.42614  0.22031  1.0000
  H   H4116     1.0  0.96489  0.42599  0.15745  1.0000
  C   C2336     1.0  0.87057  0.48470  0.23497  1.0000
  C   C2337     1.0  0.90665  0.52496  0.04954  1.0000
  H   H4117     1.0  0.87111  0.56939  0.06666  1.0000
  S   S526      1.0  0.72932  0.54048  0.99137  1.0000
  Fe  Fe264     1.0  0.72069  0.40426  0.00118  1.0000
  H   H4118     1.0  0.84374  0.58159  0.17981  1.0000
  H   H4119     1.0  0.85084  0.64683  0.14329  1.0000
  C   C2338     1.0  0.64420  0.46646  0.99657  1.0000
  H   H4120     1.0  0.85039  0.51014  0.18218  1.0000
  H   H4121     1.0  0.72436  0.44392  0.02603  1.0000
  C   C2339     1.0  0.91947  0.57500  0.22524  1.0000
  H   H4122     1.0  0.79800  0.52745  0.03283  1.0000
  C   C2340     1.0  0.65535  0.42308  0.00518  1.0000
  S   S527      1.0  0.92811  0.44910  0.21137  1.0000
  H   H4123     1.0  0.89804  0.54282  0.06912  1.0000
  C   C2341     1.0  0.78696  0.38209  0.03013  1.0000
  H   H4124     1.0  0.91157  0.55644  0.10774  1.0000
  C   C2342     1.0  0.67410  0.42813  0.02221  1.0000
  H   H4125     1.0  0.90100  0.61120  0.19076  1.0000
  H   H4126     1.0  0.94556  0.43997  0.13412  1.0000
  H   H4127     1.0  0.75636  0.57785  0.00259  1.0000
  H   H4128     1.0  0.97169  0.60134  0.20277  1.0000
  C   C2343     1.0  0.67625  0.43074  0.03642  1.0000
  H   H4129     1.0  0.63412  0.44814  0.00982  1.0000
  H   H4130     1.0  0.98376  0.51023  0.14115  1.0000
  C   C2344     1.0  0.98896  0.47952  0.04740  1.0000
  H   H4131     1.0  0.65052  0.41920  0.01711  1.0000
  H   H4132     1.0  0.65099  0.44045  0.02548  1.0000
  C   C2345     1.0  0.91275  0.55573  0.00360  1.0000
  Fe  Fe265     1.0  0.81646  0.49486  0.99465  1.0000
  H   H4133     1.0  0.86214  0.54022  0.04133  1.0000
  H   H4134     1.0  0.99756  0.49878  0.22578  1.0000
  H   H4135     1.0  0.81498  0.53372  0.02402  1.0000
  H   H4136     1.0  0.75309  0.54537  0.01235  1.0000
  H   H4137     1.0  0.80243  0.53263  0.00512  1.0000
  C   C2346     1.0  0.87726  0.47648  0.16412  1.0000
  H   H4138     1.0  0.67196  0.41688  0.02479  1.0000
  C   C2347     1.0  0.77907  0.53480  0.99428  1.0000
  S   S528      1.0  0.94939  0.40918  0.22456  1.0000
  C   C2348     1.0  0.96194  0.51095  0.13773  1.0000
  H   H4139     1.0  0.57903  0.61955  0.99316  1.0000
  H   H4140     1.0  0.78099  0.52519  0.00368  1.0000
  C   C2349     1.0  0.90001  0.54743  0.03026  1.0000
  C   C2350     1.0  0.89033  0.55115  0.06251  1.0000
  H   H4141     1.0  0.96692  0.50236  0.13100  1.0000
  C   C2351     1.0  0.88335  0.54353  0.05459  1.0000
  C   C2352     1.0  0.86521  0.46452  0.19785  1.0000
  H   H4142     1.0  0.95751  0.44539  0.15137  1.0000
  H   H4143     1.0  0.67929  0.44155  0.03432  1.0000
  N   N130      1.0  0.85987  0.48006  0.18958  1.0000
  H   H4144     1.0  0.68543  0.42185  0.04050  1.0000
  S   S529      1.0  0.91007  0.42369  0.21353  1.0000
  H   H4145     1.0  0.86918  0.60616  0.19728  1.0000
  H   H4146     1.0  0.97750  0.57586  0.17244  1.0000
  H   H4147     1.0  0.97943  0.42477  0.13102  1.0000
  H   H4148     1.0  0.85056  0.43820  0.22709  1.0000
  H   H4149     1.0  0.77613  0.34408  0.03458  1.0000
  H   H4150     1.0  0.95831  0.50564  0.14940  1.0000
  H   H4151     1.0  0.96798  0.47314  0.05850  1.0000
  H   H4152     1.0  0.87568  0.46367  0.20133  1.0000
  C   C2353     1.0  0.99626  0.48982  0.22136  1.0000
  C   C2354     1.0  0.64335  0.44999  0.99999  1.0000
  H   H4153     1.0  0.98450  0.43169  0.16191  1.0000
  H   H4154     1.0  0.88285  0.48218  0.18191  1.0000
  H   H4155     1.0  0.99005  0.51290  0.03159  1.0000
  C   C2355     1.0  0.88288  0.47684  0.22629  1.0000
  H   H4156     1.0  0.95368  0.42038  0.13940  1.0000
  H   H4157     1.0  0.95366  0.62024  0.18946  1.0000
  H   H4158     1.0  0.92772  0.52154  0.15502  1.0000
  C   C2356     1.0  0.96597  0.56192  0.22480  1.0000
  H   H4159     1.0  0.98504  0.47248  0.21283  1.0000
  H   H4160     1.0  0.98707  0.40889  0.15096  1.0000
  H   H4161     1.0  0.75820  0.32465  0.06002  1.0000
  H   H4162     1.0  0.96237  0.48641  0.20801  1.0000
  C   C2357     1.0  0.95913  0.56500  0.17953  1.0000
  H   H4163     1.0  0.94593  0.53209  0.13660  1.0000
  Fe  Fe266     1.0  0.93376  0.42510  0.21064  1.0000
  C   C2358     1.0  0.71983  0.44734  0.03683  1.0000
  C   C2359     1.0  0.97422  0.51852  0.13705  1.0000
  C   C2360     1.0  0.99331  0.42898  0.15211  1.0000
  H   H4164     1.0  0.87749  0.53555  0.06332  1.0000
  C   C2361     1.0  0.92965  0.53675  0.10961  1.0000
  H   H4165     1.0  0.93187  0.58939  0.15902  1.0000
  H   H4166     1.0  0.72887  0.56482  0.01891  1.0000
  C   C2362     1.0  0.87947  0.50724  0.22372  1.0000
  H   H4167     1.0  0.95394  0.52608  0.11955  1.0000
  H   H4168     1.0  0.98803  0.59429  0.18072  1.0000
  H   H4169     1.0  0.86458  0.51736  0.19665  1.0000
  H   H4170     1.0  0.95574  0.45213  0.22416  1.0000
  H   H4171     1.0  0.94977  0.49100  0.22421  1.0000
  H   H4172     1.0  0.90240  0.52050  0.06147  1.0000
  H   H4173     1.0  0.94734  0.55087  0.23485  1.0000
  N   N131      1.0  0.85882  0.45510  0.09032  1.0000
  C   C2363     1.0  0.85113  0.45909  0.07751  1.0000
  C   C2364     1.0  0.87347  0.45987  0.08493  1.0000
  C   C2365     1.0  0.86127  0.43861  0.09625  1.0000
  C   C2366     1.0  0.84943  0.46282  0.10265  1.0000
  C   C2367     1.0  0.84363  0.47982  0.09809  1.0000
  C   C2368     1.0  0.83514  0.45633  0.08130  1.0000
  C   C2369     1.0  0.87133  0.43213  0.10783  1.0000
  C   C2370     1.0  0.88515  0.45210  0.07299  1.0000
  C   C2371     1.0  0.89995  0.45685  0.06927  1.0000
  C   C2372     1.0  0.83390  0.48628  0.11137  1.0000
  C   C2373     1.0  0.82819  0.46173  0.06765  1.0000
  C   C2374     1.0  0.87246  0.41550  0.11348  1.0000
  H   H4174     1.0  0.85774  0.45267  0.06890  1.0000
  H   H4175     1.0  0.85066  0.47086  0.07183  1.0000
  H   H4176     1.0  0.87155  0.47191  0.08013  1.0000
  H   H4177     1.0  0.87873  0.45849  0.09435  1.0000
  H   H4178     1.0  0.86605  0.43252  0.08707  1.0000
  H   H4179     1.0  0.85036  0.43551  0.10163  1.0000
  H   H4180     1.0  0.83963  0.45789  0.10853  1.0000
  H   H4181     1.0  0.85596  0.46109  0.11122  1.0000
  H   H4182     1.0  0.83676  0.48282  0.08964  1.0000
  H   H4183     1.0  0.85312  0.48533  0.09357  1.0000
  H   H4184     1.0  0.83544  0.44433  0.08524  1.0000
  H   H4185     1.0  0.82758  0.46222  0.08994  1.0000
  H   H4186     1.0  0.86676  0.43744  0.11752  1.0000
  H   H4187     1.0  0.88287  0.43373  0.10299  1.0000
  H   H4188     1.0  0.88761  0.43989  0.07674  1.0000
  H   H4189     1.0  0.88105  0.45500  0.06259  1.0000
  H   H4190     1.0  0.90795  0.45133  0.06053  1.0000
  H   H4191     1.0  0.89827  0.46900  0.06513  1.0000
  H   H4192     1.0  0.90495  0.45362  0.07917  1.0000
  H   H4193     1.0  0.84020  0.48374  0.12025  1.0000
  H   H4194     1.0  0.83044  0.49851  0.10786  1.0000
  H   H4195     1.0  0.82368  0.48177  0.11580  1.0000
  H   H4196     1.0  0.81699  0.45917  0.07043  1.0000
  H   H4197     1.0  0.82681  0.47390  0.06375  1.0000
  H   H4198     1.0  0.83532  0.45623  0.05852  1.0000
  H   H4199     1.0  0.86125  0.41322  0.11897  1.0000
  H   H4200     1.0  0.87746  0.40958  0.10422  1.0000
  H   H4201     1.0  0.87974  0.41114  0.12169  1.0000
  H   H4202     1.0  0.71366  0.40072  0.04953  1.0000
  H   H4203     1.0  0.97828  0.52404  0.12549  1.0000
  N   N132      1.0  0.89408  0.53578  0.04276  1.0000
  H   H4204     1.0  0.86822  0.48032  0.15778  1.0000
  H   H4205     1.0  0.97805  0.55869  0.22502  1.0000
  S   S530      1.0  0.91713  0.57880  0.20684  1.0000
  H   H4206     1.0  0.87440  0.52628  0.01386  1.0000
  H   H4207     1.0  0.97252  0.45529  0.21202  1.0000
  H   H4208     1.0  0.64259  0.39923  0.01189  1.0000
  H   H4209     1.0  0.94968  0.62122  0.20866  1.0000
  H   H4210     1.0  0.89439  0.61315  0.15240  1.0000
  S   S531      1.0  0.99180  0.52836  0.20924  1.0000
  C   C2375     1.0  0.92304  0.59977  0.15789  1.0000
  C   C2376     1.0  0.85422  0.45882  0.21210  1.0000
  H   H4211     1.0  0.83593  0.50770  0.19806  1.0000
  H   H4212     1.0  0.90609  0.58795  0.16112  1.0000
  H   H4213     1.0  0.84182  0.45953  0.18843  1.0000
  C   C2377     1.0  0.99658  0.41209  0.15281  1.0000
  S   S532      1.0  0.69583  0.45671  0.00486  1.0000
  H   H4214     1.0  0.71721  0.38741  0.06621  1.0000
  H   H4215     1.0  0.85700  0.43694  0.20789  1.0000
  C   C2378     1.0  0.90781  0.59642  0.16598  1.0000
  Fe  Fe267     1.0  0.71388  0.43701  0.00007  1.0000
  H   H4216     1.0  0.89668  0.55904  0.05454  1.0000
  H   H4217     1.0  0.91743  0.51359  0.03069  1.0000
  H   H4218     1.0  0.86696  0.49047  0.20296  1.0000
  H   H4219     1.0  0.66633  0.41518  0.00270  1.0000
  H   H4220     1.0  0.99052  0.52014  0.05412  1.0000
  C   C2379     1.0  0.86592  0.52877  0.02390  1.0000
  H   H4221     1.0  0.99112  0.49249  0.02535  1.0000
  C   C2380     1.0  0.75139  0.56863  0.00993  1.0000
  C   C2381     1.0  0.73155  0.45336  0.04061  1.0000
  C   C2382     1.0  0.84822  0.50669  0.19436  1.0000
  H   H4222     1.0  0.74573  0.48420  0.03268  1.0000
  H   H4223     1.0  0.78077  0.57053  0.99258  1.0000
  H   H4224     1.0  0.70005  0.50715  0.99980  1.0000
  H   H4225     1.0  0.89072  0.49247  0.15124  1.0000
  N   N133      1.0  0.73361  0.46851  0.03183  1.0000
  H   H4226     1.0  0.73950  0.47322  0.04997  1.0000
  H   H4227     1.0  0.72842  0.45335  0.05268  1.0000
  H   H4228     1.0  0.87367  0.54746  0.02411  1.0000
  H   H4229     1.0  0.73111  0.46526  0.01128  1.0000
  H   H4230     1.0  0.90708  0.50311  0.04637  1.0000
  H   H4231     1.0  0.83505  0.48104  0.15967  1.0000
  H   H4232     1.0  0.77551  0.53838  0.02212  1.0000
  C   C2383     1.0  0.97312  0.56803  0.18246  1.0000
  C   C2384     1.0  0.85543  0.58242  0.17439  1.0000
  H   H4233     1.0  0.90834  0.54060  0.10327  1.0000
  H   H4234     1.0  0.77629  0.36586  0.04612  1.0000
  C   C2385     1.0  0.85904  0.59505  0.17857  1.0000
  C   C2386     1.0  0.86508  0.62878  0.15570  1.0000
  H   H4235     1.0  0.91372  0.52620  0.12663  1.0000
  C   C2387     1.0  0.91391  0.56373  0.23602  1.0000
  H   H4236     1.0  0.87098  0.55281  0.08101  1.0000
  H   H4237     1.0  0.87332  0.63272  0.17264  1.0000
  H   H4238     1.0  0.93698  0.51028  0.04514  1.0000
  C   C2388     1.0  0.90865  0.50028  0.16842  1.0000
  C   C2389     1.0  0.79782  0.54190  0.01099  1.0000
  H   H4239     1.0  0.93545  0.52811  0.10310  1.0000
  C   C2390     1.0  0.98581  0.57404  0.19810  1.0000
  C   C2391     1.0  0.89134  0.48045  0.15349  1.0000
  C   C2392     1.0  0.96211  0.43470  0.14774  1.0000
  C   C2393     1.0  0.75592  0.36087  0.00829  1.0000
  H   H4240     1.0  0.87510  0.63056  0.14693  1.0000
  H   H4241     1.0  0.83581  0.48450  0.19227  1.0000
  H   H4242     1.0  0.93444  0.49304  0.04331  1.0000
  H   H4243     1.0  0.96993  0.52696  0.14401  1.0000
  C   C2394     1.0  0.92692  0.58353  0.22917  1.0000
  H   H4244     1.0  0.96744  0.48571  0.04087  1.0000
  H   H4245     1.0  0.96096  0.57235  0.22872  1.0000
  C   C2395     1.0  0.92903  0.50290  0.04830  1.0000
  C   C2396     1.0  0.91242  0.50990  0.15298  1.0000
  C   C2397     1.0  0.71842  0.47912  0.03389  1.0000
  H   H4246     1.0  0.96761  0.55189  0.20717  1.0000
  H   H4247     1.0  0.84912  0.48667  0.21068  1.0000
  H   H4248     1.0  0.72403  0.50056  0.02188  1.0000
  C   C2398     1.0  0.88066  0.60506  0.19023  1.0000
  H   H4249     1.0  0.70915  0.45563  0.03610  1.0000
  H   H4250     1.0  0.68942  0.48518  0.01212  1.0000
  H   H4251     1.0  0.94617  0.51050  0.23477  1.0000
  H   H4252     1.0  0.71211  0.47882  0.02584  1.0000
  H   H4253     1.0  0.71153  0.47558  0.04507  1.0000
  H   H4254     1.0  0.72253  0.49693  0.04157  1.0000
  S   S533      1.0  0.87751  0.52599  0.22320  1.0000
  H   H4255     1.0  0.86047  0.62054  0.15331  1.0000
  H   H4256     1.0  0.82142  0.47755  0.17677  1.0000
  C   C2399     1.0  0.78055  0.54679  0.01314  1.0000
  C   C2400     1.0  0.91458  0.51097  0.04290  1.0000
  H   H4257     1.0  0.92664  0.49909  0.06050  1.0000
  H   H4258     1.0  0.80302  0.55125  0.00436  1.0000
  H   H4259     1.0  0.90428  0.52073  0.15258  1.0000
  H   H4260     1.0  0.92004  0.53501  0.01758  1.0000
  H   H4261     1.0  0.77741  0.55701  0.01758  1.0000
  C   C2401     1.0  0.71782  0.49562  0.03275  1.0000
  C   C2402     1.0  0.87510  0.59698  0.17062  1.0000
  H   H4262     1.0  0.93826  0.61316  0.20237  1.0000
  H   H4263     1.0  0.98129  0.48856  0.17967  1.0000
  C   C2403     1.0  0.87821  0.55993  0.07300  1.0000
  C   C2404     1.0  0.97445  0.47597  0.04702  1.0000
  H   H4264     1.0  0.93092  0.59247  0.22100  1.0000
  C   C2405     1.0  0.98479  0.45475  0.13973  1.0000
  H   H4265     1.0  0.99277  0.56251  0.20003  1.0000
  C   C2406     1.0  0.87272  0.48421  0.17733  1.0000
  H   H4266     1.0  0.98197  0.48022  0.14923  1.0000
  C   C2407     1.0  0.96345  0.56328  0.20915  1.0000
  H   H4267     1.0  0.71123  0.43693  0.05959  1.0000
  H   H4268     1.0  0.98020  0.46222  0.13014  1.0000
  H   H4269     1.0  0.86360  0.51824  0.03121  1.0000
  H   H4270     1.0  0.89268  0.52138  0.02946  1.0000
  H   H4271     1.0  0.85508  0.46326  0.17167  1.0000
  H   H4272     1.0  0.84620  0.52913  0.19636  1.0000
  N   N134      1.0  0.97065  0.57386  0.19627  1.0000
  C   C2408     1.0  0.71334  0.38927  0.05581  1.0000
  H   H4273     1.0  0.88936  0.59935  0.21673  1.0000
  H   H4274     1.0  0.68479  0.42820  0.01398  1.0000
  C   C2409     1.0  0.96654  0.45459  0.22375  1.0000
  C   C2410     1.0  0.96274  0.56075  0.16451  1.0000
  H   H4275     1.0  0.94017  0.42996  0.15275  1.0000
  H   H4276     1.0  0.95710  0.37375  0.23414  1.0000
  H   H4277     1.0  0.93564  0.50277  0.15496  1.0000
  H   H4278     1.0  0.96318  0.59536  0.18271  1.0000
  C   C2411     1.0  0.96044  0.59926  0.20440  1.0000
  C   C2412     1.0  0.94968  0.43105  0.14313  1.0000
  C   C2413     1.0  0.70160  0.50451  0.03490  1.0000
  H   H4279     1.0  0.90796  0.55729  0.23311  1.0000
  H   H4280     1.0  0.92129  0.55094  0.09052  1.0000
  H   H4281     1.0  0.78418  0.39265  0.02209  1.0000
  C   C2414     1.0  0.97978  0.47231  0.22466  1.0000
  N   N135      1.0  0.87995  0.60905  0.17406  1.0000
  C   C2415     1.0  0.85240  0.51773  0.20043  1.0000
  H   H4282     1.0  0.87436  0.55224  0.04991  1.0000
  Fe  Fe268     1.0  0.90473  0.44808  0.21243  1.0000
  H   H4283     1.0  0.97547  0.45625  0.14946  1.0000
  H   H4284     1.0  0.93540  0.47203  0.22258  1.0000
  C   C2416     1.0  0.90918  0.54245  0.01577  1.0000
  H   H4285     1.0  0.91530  0.53072  0.04943  1.0000
  H   H4286     1.0  0.96577  0.53876  0.23417  1.0000
  H   H4287     1.0  0.92530  0.48865  0.20108  1.0000
  C   C2417     1.0  0.53364  0.62730  0.99129  1.0000
  H   H4288     1.0  0.69516  0.50045  0.04608  1.0000
  H   H4289     1.0  0.70128  0.51632  0.03387  1.0000
  H   H4290     1.0  0.69609  0.50373  0.02644  1.0000
  H   H4291     1.0  0.95118  0.56567  0.20989  1.0000
  S   S534      1.0  0.93862  0.42892  0.18584  1.0000
  H   H4292     1.0  0.94971  0.57489  0.17955  1.0000
  H   H4293     1.0  0.73762  0.37686  0.01705  1.0000
  H   H4294     1.0  0.90834  0.59156  0.17771  1.0000
  C   C2418     1.0  0.80259  0.53708  0.02586  1.0000
  C   C2419     1.0  0.94280  0.47792  0.21337  1.0000
  H   H4295     1.0  0.94809  0.47075  0.20520  1.0000
  H   H4296     1.0  0.92638  0.49892  0.21383  1.0000
  H   H4297     1.0  0.93754  0.54366  0.10868  1.0000
  H   H4298     1.0  0.85666  0.58438  0.16222  1.0000
  H   H4299     1.0  0.95313  0.55730  0.16312  1.0000
  N   N136      1.0  0.93512  0.51686  0.13303  1.0000
  C   C2420     1.0  0.92839  0.51265  0.14931  1.0000
  C   C2421     1.0  0.92403  0.52973  0.12610  1.0000
  C   C2422     1.0  0.91685  0.54679  0.10243  1.0000
  H   H4300     1.0  0.91345  0.50281  0.17649  1.0000
  H   H4301     1.0  0.95674  0.59435  0.21618  1.0000
  C   C2423     1.0  0.97601  0.43542  0.13480  1.0000
  H   H4302     1.0  0.89073  0.55700  0.02745  1.0000
  C   C2424     1.0  0.95890  0.54979  0.23594  1.0000
  H   H4303     1.0  0.66429  0.45095  0.01452  1.0000
  C   C2425     1.0  0.93301  0.49183  0.20583  1.0000
  H   H4304     1.0  0.94004  0.49818  0.19662  1.0000
  H   H4305     1.0  0.84538  0.49155  0.17426  1.0000
  C   C2426     1.0  0.88546  0.52760  0.03797  1.0000
  H   H4306     1.0  0.88166  0.51894  0.04747  1.0000
  H   H4307     1.0  0.86300  0.57170  0.17814  1.0000
  H   H4308     1.0  0.90749  0.55219  0.03377  1.0000
  H   H4309     1.0  0.79210  0.38423  0.03819  1.0000
  H   H4310     1.0  0.64814  0.46904  0.00519  1.0000
  H   H4311     1.0  0.92032  0.53871  0.13249  1.0000
  H   H4312     1.0  0.85540  0.53557  0.02050  1.0000
  H   H4313     1.0  0.62111  0.47544  0.00672  1.0000
  H   H4314     1.0  0.76177  0.36974  0.00153  1.0000
  H   H4315     1.0  0.67093  0.48014  0.99239  1.0000
  H   H4316     1.0  0.63610  0.40269  0.99514  1.0000
  H   H4317     1.0  0.87464  0.55088  0.23712  1.0000
  C   C2427     1.0  0.99498  0.58334  0.18479  1.0000
  C   C2428     1.0  0.62886  0.47682  0.99572  1.0000
  H   H4318     1.0  0.65592  0.39796  0.99452  1.0000
  C   C2429     1.0  0.64464  0.42055  0.99700  1.0000
  H   H4319     1.0  0.55419  0.62398  0.99801  1.0000
  H   H4320     1.0  0.90229  0.56350  0.00092  1.0000
  H   H4321     1.0  0.98567  0.41760  0.23229  1.0000
  H   H4322     1.0  0.77305  0.33224  0.06129  1.0000
  H   H4323     1.0  0.71016  0.35945  0.99595  1.0000
  S   S535      1.0  0.74556  0.40230  0.99584  1.0000
  S   S536      1.0  0.73791  0.43832  0.99406  1.0000
  C   C2430     1.0  0.74801  0.35733  0.99826  1.0000
  C   C2431     1.0  0.95113  0.36461  0.23915  1.0000
  H   H4324     1.0  0.95945  0.35392  0.23871  1.0000
  C   C2432     1.0  0.99851  0.48328  0.03156  1.0000
  C   C2433     1.0  0.99731  0.46081  0.14185  1.0000
  C   C2434     1.0  0.99957  0.40309  0.16786  1.0000
  H   H4325     1.0  0.99954  0.57739  0.17553  1.0000
  H   H4326     1.0  0.68080  0.43238  0.99169  1.0000
  C   C2435     1.0  0.70187  0.38308  0.99226  1.0000
  H   H4327     1.0  0.74015  0.36742  0.99371  1.0000
  H   H4328     1.0  0.77597  0.50749  0.99076  1.0000
  H   H4329     1.0  0.63948  0.44871  0.99060  1.0000
  H   H4330     1.0  0.57501  0.59771  0.99015  1.0000
  C   C2436     1.0  0.75381  0.47744  0.99025  1.0000
  C   C2437     1.0  0.70343  0.36897  0.98991  1.0000
  H   H4331     1.0  0.95100  0.52070  0.24522  1.0000
  S   S537      1.0  0.98075  0.57152  0.29045  1.0000
  N   N137      1.0  0.93855  0.48896  0.32907  1.0000
  H   H4332     1.0  0.91241  0.64041  0.35328  1.0000
  H   H4333     1.0  0.90258  0.52448  0.27678  1.0000
  S   S538      1.0  0.96351  0.65116  0.46336  1.0000
  H   H4334     1.0  0.94737  0.50273  0.25393  1.0000
  H   H4335     1.0  0.90114  0.33531  0.47444  1.0000
  H   H4336     1.0  0.97395  0.58496  0.36724  1.0000
  H   H4337     1.0  0.97758  0.46076  0.34178  1.0000
  C   C2438     1.0  0.98039  0.61298  0.33335  1.0000
  Fe  Fe269     1.0  0.97428  0.58079  0.26839  1.0000
  C   C2439     1.0  0.88885  0.47697  0.26796  1.0000
  H   H4338     1.0  0.94653  0.62375  0.37376  1.0000
  C   C2440     1.0  0.89314  0.33446  0.40601  1.0000
  H   H4339     1.0  0.93626  0.48298  0.35289  1.0000
  S   S539      1.0  0.96872  0.56014  0.26732  1.0000
  Fe  Fe270     1.0  0.95677  0.58135  0.29963  1.0000
  S   S540      1.0  0.94901  0.56080  0.30139  1.0000
  H   H4340     1.0  0.94580  0.49941  0.30628  1.0000
  H   H4341     1.0  0.88140  0.35160  0.39015  1.0000
  H   H4342     1.0  0.87027  0.33253  0.39537  1.0000
  Fe  Fe271     1.0  0.94543  0.57025  0.27818  1.0000
  S   S541      1.0  0.92576  0.56536  0.27290  1.0000
  H   H4343     1.0  0.91790  0.32436  0.44087  1.0000
  S   S542      1.0  0.95063  0.59183  0.27746  1.0000
  Fe  Fe272     1.0  0.95764  0.43092  0.29182  1.0000
  S   S543      1.0  0.97578  0.44018  0.27475  1.0000
  S   S544      1.0  0.93915  0.42421  0.28687  1.0000
  Fe  Fe273     1.0  0.96659  0.43694  0.31710  1.0000
  H   H4344     1.0  0.92224  0.35938  0.28136  1.0000
  S   S545      1.0  0.96108  0.43482  0.34165  1.0000
  Fe  Fe274     1.0  0.96934  0.45831  0.28738  1.0000
  S   S546      1.0  0.96417  0.48218  0.27568  1.0000
  H   H4345     1.0  0.98451  0.47816  0.29487  1.0000
  H   H4346     1.0  0.90325  0.65025  0.45590  1.0000
  S   S547      1.0  0.95004  0.44999  0.30317  1.0000
  S   S548      1.0  0.97265  0.41697  0.30715  1.0000
  S   S549      1.0  0.93037  0.34704  0.40270  1.0000
  H   H4347     1.0  0.86245  0.47900  0.24285  1.0000
  H   H4348     1.0  0.93181  0.36059  0.34805  1.0000
  H   H4349     1.0  0.99669  0.63794  0.30279  1.0000
  C   C2441     1.0  0.98405  0.50010  0.29664  1.0000
  H   H4350     1.0  0.92531  0.46604  0.34665  1.0000
  C   C2442     1.0  0.93171  0.38013  0.25608  1.0000
  H   H4351     1.0  0.88747  0.49789  0.28938  1.0000
  C   C2443     1.0  0.95103  0.42090  0.34980  1.0000
  C   C2444     1.0  0.95062  0.41380  0.36463  1.0000
  C   C2445     1.0  0.94433  0.40138  0.37065  1.0000
  C   C2446     1.0  0.93784  0.39644  0.36203  1.0000
  C   C2447     1.0  0.93722  0.40427  0.34754  1.0000
  C   C2448     1.0  0.94405  0.41632  0.34134  1.0000
  C   C2449     1.0  0.91101  0.50343  0.36342  1.0000
  H   H4352     1.0  0.94446  0.39567  0.38196  1.0000
  H   H4353     1.0  0.94397  0.42197  0.32998  1.0000
  C   C2450     1.0  0.94306  0.42150  0.26881  1.0000
  C   C2451     1.0  0.93231  0.42812  0.26015  1.0000
  H   H4354     1.0  0.92497  0.53046  0.24215  1.0000
  H   H4355     1.0  0.87977  0.48005  0.27739  1.0000
  C   C2452     1.0  0.95815  0.40807  0.24978  1.0000
  C   C2453     1.0  0.95616  0.41174  0.26348  1.0000
  H   H4356     1.0  0.92211  0.43558  0.26432  1.0000
  H   H4357     1.0  0.96367  0.59693  0.38940  1.0000
  H   H4358     1.0  0.98484  0.57668  0.39266  1.0000
  H   H4359     1.0  0.96449  0.40656  0.27016  1.0000
  Fe  Fe275     1.0  0.97930  0.62912  0.46757  1.0000
  H   H4360     1.0  0.90988  0.50579  0.34092  1.0000
  S   S550      1.0  0.98544  0.44696  0.30238  1.0000
  H   H4361     1.0  0.90096  0.53725  0.25269  1.0000
  C   C2454     1.0  0.90300  0.36876  0.27111  1.0000
  C   C2455     1.0  0.87821  0.53602  0.25816  1.0000
  H   H4362     1.0  0.93787  0.38908  0.25087  1.0000
  H   H4363     1.0  0.96797  0.37188  0.32257  1.0000
  C   C2456     1.0  0.98786  0.64687  0.29813  1.0000
  C   C2457     1.0  0.89666  0.35509  0.27906  1.0000
  C   C2458     1.0  0.96979  0.49473  0.28212  1.0000
  C   C2459     1.0  0.96389  0.50991  0.27787  1.0000
  C   C2460     1.0  0.96783  0.52014  0.28319  1.0000
  C   C2461     1.0  0.95074  0.33243  0.48075  1.0000
  H   H4364     1.0  0.87657  0.53749  0.26958  1.0000
  H   H4365     1.0  0.95604  0.51381  0.27065  1.0000
  H   H4366     1.0  0.96292  0.53178  0.28009  1.0000
  H   H4367     1.0  0.97304  0.60738  0.37298  1.0000
  H   H4368     1.0  0.98932  0.57431  0.41691  1.0000
  C   C2462     1.0  0.98886  0.39207  0.36030  1.0000
  C   C2463     1.0  0.96162  0.60065  0.32423  1.0000
  H   H4369     1.0  0.94004  0.53183  0.30245  1.0000
  C   C2464     1.0  0.98620  0.60479  0.32216  1.0000
  H   H4370     1.0  0.95565  0.41757  0.37130  1.0000
  H   H4371     1.0  0.95786  0.33613  0.44340  1.0000
  H   H4372     1.0  0.87158  0.35086  0.40910  1.0000
  H   H4373     1.0  0.95892  0.62005  0.40125  1.0000
  C   C2465     1.0  0.97804  0.51530  0.29246  1.0000
  H   H4374     1.0  0.91483  0.40687  0.24650  1.0000
  H   H4375     1.0  0.93898  0.63458  0.38785  1.0000
  H   H4376     1.0  0.91705  0.35180  0.47269  1.0000
  H   H4377     1.0  0.89107  0.35575  0.29071  1.0000
  H   H4378     1.0  0.98446  0.52888  0.25531  1.0000
  H   H4379     1.0  0.90041  0.39676  0.25389  1.0000
  Fe  Fe276     1.0  0.99021  0.42803  0.29114  1.0000
  C   C2466     1.0  0.96836  0.64466  0.40957  1.0000
  C   C2467     1.0  0.96065  0.64045  0.42409  1.0000
  C   C2468     1.0  0.96843  0.63314  0.43541  1.0000
  H   H4380     1.0  0.88756  0.32852  0.47078  1.0000
  H   H4381     1.0  0.93231  0.63402  0.35198  1.0000
  H   H4382     1.0  0.90908  0.48285  0.25459  1.0000
  H   H4383     1.0  0.96230  0.63003  0.44660  1.0000
  H   H4384     1.0  0.98570  0.56661  0.37129  1.0000
  C   C2469     1.0  0.92663  0.46640  0.33474  1.0000
  H   H4385     1.0  0.96810  0.37883  0.35198  1.0000
  H   H4386     1.0  0.91447  0.46192  0.32086  1.0000
  H   H4387     1.0  0.94502  0.45347  0.27169  1.0000
  H   H4388     1.0  0.87749  0.36844  0.45374  1.0000
  C   C2470     1.0  0.95361  0.47819  0.32889  1.0000
  H   H4389     1.0  0.87976  0.55908  0.24933  1.0000
  H   H4390     1.0  0.99581  0.61367  0.37179  1.0000
  C   C2471     1.0  0.93057  0.52757  0.30193  1.0000
  C   C2472     1.0  0.97683  0.59879  0.31749  1.0000
  C   C2473     1.0  0.96321  0.37791  0.33175  1.0000
  C   C2474     1.0  0.92749  0.38565  0.29565  1.0000
  H   H4391     1.0  0.87862  0.35005  0.45179  1.0000
  C   C2475     1.0  0.95594  0.60844  0.33574  1.0000
  S   S551      1.0  0.96213  0.61815  0.48465  1.0000
  H   H4392     1.0  0.97391  0.38660  0.38160  1.0000
  H   H4393     1.0  0.93385  0.47467  0.24482  1.0000
  H   H4394     1.0  0.88827  0.35440  0.27336  1.0000
  H   H4395     1.0  0.99007  0.64437  0.39514  1.0000
  H   H4396     1.0  0.97155  0.63356  0.30554  1.0000
  H   H4397     1.0  0.93672  0.47301  0.27010  1.0000
  H   H4398     1.0  0.98934  0.64661  0.28633  1.0000
  C   C2476     1.0  0.95156  0.33699  0.45441  1.0000
  C   C2477     1.0  0.99582  0.37595  0.35825  1.0000
  C   C2478     1.0  0.94095  0.50257  0.31722  1.0000
  H   H4399     1.0  0.96538  0.46027  0.25083  1.0000
  H   H4400     1.0  0.89342  0.37851  0.27126  1.0000
  C   C2479     1.0  0.90133  0.51361  0.27589  1.0000
  H   H4401     1.0  0.98919  0.57835  0.35320  1.0000
  H   H4402     1.0  0.92591  0.46034  0.27004  1.0000
  C   C2480     1.0  0.92853  0.48178  0.32494  1.0000
  C   C2481     1.0  0.99214  0.58462  0.38676  1.0000
  C   C2482     1.0  0.89484  0.52928  0.25220  1.0000
  Fe  Fe277     1.0  0.97253  0.55183  0.29043  1.0000
  H   H4403     1.0  0.85276  0.32778  0.44849  1.0000
  C   C2483     1.0  0.91525  0.49730  0.34936  1.0000
  H   H4404     1.0  0.90570  0.34485  0.27891  1.0000
  H   H4405     1.0  0.98472  0.46808  0.32249  1.0000
  C   C2484     1.0  0.87320  0.55142  0.24885  1.0000
  H   H4406     1.0  0.97641  0.36162  0.34601  1.0000
  H   H4407     1.0  0.95846  0.34722  0.34135  1.0000
  H   H4408     1.0  0.96089  0.39000  0.32705  1.0000
  C   C2485     1.0  0.92869  0.64194  0.29661  1.0000
  H   H4409     1.0  0.89453  0.46516  0.27119  1.0000
  H   H4410     1.0  0.87811  0.50911  0.31126  1.0000
  C   C2486     1.0  0.96078  0.62012  0.38933  1.0000
  H   H4411     1.0  0.91722  0.48907  0.32498  1.0000
  H   H4412     1.0  0.94859  0.64292  0.42668  1.0000
  H   H4413     1.0  0.92948  0.33036  0.38136  1.0000
  H   H4414     1.0  0.90303  0.33338  0.39667  1.0000
  H   H4415     1.0  0.94423  0.60983  0.34108  1.0000
  H   H4416     1.0  0.92426  0.38131  0.24856  1.0000
  H   H4417     1.0  0.94097  0.36977  0.28260  1.0000
  C   C2487     1.0  0.93649  0.34434  0.45669  1.0000
  C   C2488     1.0  0.90019  0.48663  0.26383  1.0000
  H   H4418     1.0  0.88465  0.35880  0.47774  1.0000
  H   H4419     1.0  0.93502  0.38734  0.31441  1.0000
  H   H4420     1.0  0.97568  0.58699  0.43805  1.0000
  Fe  Fe278     1.0  0.94130  0.35036  0.41911  1.0000
  H   H4421     1.0  0.94774  0.63077  0.30683  1.0000
  S   S552      1.0  0.93106  0.38019  0.36887  1.0000
  C   C2489     1.0  0.94205  0.46514  0.24957  1.0000
  C   C2490     1.0  0.91439  0.37033  0.27905  1.0000
  H   H4422     1.0  0.89122  0.36132  0.41332  1.0000
  H   H4423     1.0  0.90785  0.37231  0.29010  1.0000
  H   H4424     1.0  0.94205  0.38836  0.27397  1.0000
  H   H4425     1.0  0.95832  0.47528  0.31780  1.0000
  C   C2491     1.0  0.97250  0.64432  0.30685  1.0000
  C   C2492     1.0  0.88906  0.33509  0.47796  1.0000
  H   H4426     1.0  0.86118  0.55597  0.25316  1.0000
  C   C2493     1.0  0.94329  0.36523  0.25521  1.0000
  N   N138      1.0  0.92293  0.38225  0.27131  1.0000
  S   S553      1.0  0.99330  0.64794  0.36236  1.0000
  C   C2494     1.0  0.91325  0.46205  0.33266  1.0000
  H   H4427     1.0  0.92373  0.52077  0.32532  1.0000
  H   H4428     1.0  0.93292  0.48022  0.31332  1.0000
  H   H4429     1.0  0.91269  0.45075  0.33934  1.0000
  C   C2495     1.0  0.98762  0.58690  0.43285  1.0000
  H   H4430     1.0  0.91574  0.49506  0.37245  1.0000
  H   H4431     1.0  0.91019  0.48762  0.35193  1.0000
  H   H4432     1.0  0.87084  0.52908  0.25788  1.0000
  S   S554      1.0  0.96277  0.34721  0.37910  1.0000
  Fe  Fe279     1.0  0.98345  0.64281  0.34603  1.0000
  H   H4433     1.0  0.92067  0.53700  0.30136  1.0000
  Fe  Fe280     1.0  0.94218  0.36391  0.38655  1.0000
  C   C2496     1.0  0.88318  0.35660  0.45664  1.0000
  H   H4434     1.0  0.87685  0.51639  0.28504  1.0000
  H   H4435     1.0  0.91853  0.40571  0.27068  1.0000
  H   H4436     1.0  0.92130  0.39741  0.29445  1.0000
  C   C2497     1.0  0.99187  0.63353  0.41764  1.0000
  C   C2498     1.0  0.88758  0.50968  0.28790  1.0000
  C   C2499     1.0  0.98091  0.59777  0.40764  1.0000
  H   H4437     1.0  0.98843  0.47465  0.33668  1.0000
  H   H4438     1.0  0.89237  0.50489  0.24702  1.0000
  H   H4439     1.0  0.90038  0.36224  0.39401  1.0000
  H   H4440     1.0  0.88181  0.37322  0.39900  1.0000
  C   C2500     1.0  0.92856  0.34572  0.47103  1.0000
  H   H4441     1.0  0.94611  0.37204  0.30591  1.0000
  H   H4442     1.0  0.88471  0.41690  0.26709  1.0000
  H   H4443     1.0  0.92510  0.63543  0.32858  1.0000
  S   S555      1.0  0.92717  0.35174  0.44191  1.0000
  C   C2501     1.0  0.92756  0.52020  0.25062  1.0000
  C   C2502     1.0  0.97064  0.60535  0.38529  1.0000
  C   C2503     1.0  0.93407  0.38123  0.28035  1.0000
  H   H4444     1.0  0.99698  0.59540  0.36268  1.0000
  C   C2504     1.0  0.97985  0.48982  0.29158  1.0000
  S   S556      1.0  0.99228  0.62097  0.33849  1.0000
  C   C2505     1.0  0.96526  0.61463  0.34024  1.0000
  C   C2506     1.0  0.97396  0.37381  0.34222  1.0000
  H   H4445     1.0  0.97935  0.39726  0.35470  1.0000
  H   H4446     1.0  0.91979  0.37865  0.30291  1.0000
  H   H4447     1.0  0.86286  0.32734  0.42086  1.0000
  C   C2507     1.0  0.87577  0.32699  0.43609  1.0000
  N   N139      1.0  0.90139  0.51391  0.26003  1.0000
  H   H4448     1.0  0.90535  0.48464  0.27345  1.0000
  Fe  Fe281     1.0  0.97109  0.35043  0.39735  1.0000
  H   H4449     1.0  0.87399  0.33921  0.43296  1.0000
  H   H4450     1.0  0.95213  0.36383  0.26126  1.0000
  H   H4451     1.0  0.96628  0.62928  0.38291  1.0000
  C   C2508     1.0  0.90980  0.64840  0.44481  1.0000
  H   H4452     1.0  0.90315  0.39766  0.28027  1.0000
  C   C2509     1.0  0.94541  0.62354  0.38561  1.0000
  Fe  Fe282     1.0  0.94702  0.64084  0.48159  1.0000
  H   H4453     1.0  0.86566  0.32800  0.45904  1.0000
  S   S557      1.0  0.95139  0.36873  0.40344  1.0000
  H   H4454     1.0  0.89002  0.42361  0.24741  1.0000
  C   C2510     1.0  0.98840  0.37951  0.33440  1.0000
  H   H4455     1.0  0.89771  0.33477  0.41531  1.0000
  H   H4456     1.0  0.93562  0.35443  0.33100  1.0000
  C   C2511     1.0  0.93564  0.33971  0.48309  1.0000
  C   C2512     1.0  0.93254  0.49267  0.34421  1.0000
  H   H4457     1.0  0.91520  0.51362  0.36131  1.0000
  H   H4458     1.0  0.91755  0.51187  0.31446  1.0000
  H   H4459     1.0  0.93198  0.40066  0.34091  1.0000
  H   H4460     1.0  0.91127  0.50543  0.27945  1.0000
  H   H4461     1.0  0.93666  0.45776  0.33160  1.0000
  H   H4462     1.0  0.89826  0.50471  0.30659  1.0000
  C   C2513     1.0  0.89308  0.50327  0.25875  1.0000
  C   C2514     1.0  0.93994  0.38379  0.30368  1.0000
  H   H4463     1.0  0.95664  0.47920  0.24702  1.0000
  H   H4464     1.0  0.89944  0.42700  0.25958  1.0000
  C   C2515     1.0  0.95774  0.46850  0.24412  1.0000
  H   H4465     1.0  0.96170  0.48585  0.34435  1.0000
  H   H4466     1.0  0.94923  0.50754  0.31915  1.0000
  C   C2516     1.0  0.88805  0.51197  0.30288  1.0000
  H   H4467     1.0  0.95242  0.46761  0.33689  1.0000
  H   H4468     1.0  0.90212  0.64817  0.43806  1.0000
  C   C2517     1.0  0.93478  0.35068  0.34312  1.0000
  C   C2518     1.0  0.94965  0.34087  0.34650  1.0000
  H   H4469     1.0  0.95244  0.37495  0.33794  1.0000
  H   H4470     1.0  0.88126  0.50563  0.26479  1.0000
  C   C2519     1.0  0.98405  0.62987  0.43229  1.0000
  C   C2520     1.0  0.92710  0.51552  0.31559  1.0000
  H   H4471     1.0  0.91883  0.62857  0.28874  1.0000
  H   H4472     1.0  0.96073  0.62076  0.34897  1.0000
  H   H4473     1.0  0.93907  0.61513  0.39254  1.0000
  C   C2521     1.0  0.88281  0.34987  0.40165  1.0000
  H   H4474     1.0  0.91943  0.64285  0.30641  1.0000
  H   H4475     1.0  0.88790  0.52372  0.30219  1.0000
  H   H4476     1.0  0.96894  0.49298  0.32524  1.0000
  H   H4477     1.0  0.99005  0.59734  0.43338  1.0000
  H   H4478     1.0  0.89864  0.50627  0.36711  1.0000
  C   C2522     1.0  0.91254  0.39749  0.27038  1.0000
  H   H4479     1.0  0.94171  0.45504  0.24639  1.0000
  H   H4480     1.0  0.90267  0.46986  0.33640  1.0000
  H   H4481     1.0  0.93339  0.52325  0.29167  1.0000
  C   C2523     1.0  0.90585  0.40430  0.25629  1.0000
  H   H4482     1.0  0.93873  0.62639  0.28183  1.0000
  H   H4483     1.0  0.88396  0.47817  0.25837  1.0000
  H   H4484     1.0  0.93142  0.61804  0.30074  1.0000
  C   C2524     1.0  0.88058  0.35140  0.47344  1.0000
  S   S558      1.0  0.94924  0.59376  0.31848  1.0000
  C   C2525     1.0  0.92567  0.64582  0.33110  1.0000
  C   C2526     1.0  0.91581  0.56104  0.25062  1.0000
  H   H4485     1.0  0.93778  0.35576  0.25978  1.0000
  C   C2527     1.0  0.92369  0.56923  0.25443  1.0000
  C   C2528     1.0  0.93714  0.46292  0.26637  1.0000
  H   H4486     1.0  0.98759  0.36910  0.36466  1.0000
  H   H4487     1.0  0.92608  0.52333  0.26131  1.0000
  C   C2529     1.0  0.88950  0.36238  0.40207  1.0000
  C   C2530     1.0  0.92953  0.62788  0.29167  1.0000
  S   S559      1.0  0.96176  0.33253  0.41445  1.0000
  H   H4488     1.0  0.94792  0.39077  0.29697  1.0000
  C   C2531     1.0  0.98402  0.64105  0.40629  1.0000
  C   C2532     1.0  0.98556  0.57822  0.36524  1.0000
  S   S560      1.0  0.98356  0.52805  0.29876  1.0000
  H   H4489     1.0  0.96952  0.59550  0.41223  1.0000
  H   H4490     1.0  0.93745  0.50160  0.34493  1.0000
  C   C2533     1.0  0.96572  0.48316  0.33321  1.0000
  H   H4491     1.0  0.98519  0.39184  0.33204  1.0000
  H   H4492     1.0  0.86838  0.35307  0.47783  1.0000
  C   C2534     1.0  0.95364  0.32611  0.34115  1.0000
  C   C2535     1.0  0.94734  0.41464  0.24115  1.0000
  C   C2536     1.0  0.94386  0.64179  0.29980  1.0000
  C   C2537     1.0  0.93453  0.42483  0.24627  1.0000
  H   H4493     1.0  0.92570  0.34460  0.34794  1.0000
  C   C2538     1.0  0.89430  0.41882  0.25777  1.0000
  C   C2539     1.0  0.95865  0.33098  0.46642  1.0000
  N   N140      1.0  0.98495  0.59947  0.39095  1.0000
  Fe  Fe283     1.0  0.95176  0.33079  0.39668  1.0000
  H   H4494     1.0  0.98018  0.60839  0.41069  1.0000
  H   H4495     1.0  0.98137  0.59279  0.30864  1.0000
  C   C2540     1.0  0.91741  0.50965  0.25183  1.0000
  C   C2541     1.0  0.97996  0.47088  0.33355  1.0000
  S   S561      1.0  0.98836  0.63470  0.48422  1.0000
  S   S562      1.0  0.92318  0.64464  0.47981  1.0000
  H   H4496     1.0  0.89530  0.35546  0.45173  1.0000
  H   H4497     1.0  0.94949  0.32837  0.33089  1.0000
  H   H4498     1.0  0.90812  0.36762  0.25954  1.0000
  H   H4499     1.0  0.95203  0.64180  0.28900  1.0000
  C   C2542     1.0  0.98318  0.39244  0.37672  1.0000
  H   H4500     1.0  0.92295  0.49845  0.25727  1.0000
  H   H4501     1.0  0.94863  0.33848  0.35866  1.0000
  C   C2543     1.0  0.92340  0.64328  0.34790  1.0000
  C   C2544     1.0  0.99469  0.61052  0.38399  1.0000
  H   H4502     1.0  0.91777  0.63746  0.44635  1.0000
  H   H4503     1.0  0.91129  0.55254  0.25907  1.0000
  Fe  Fe284     1.0  0.97110  0.65595  0.48120  1.0000
  H   H4504     1.0  0.99186  0.49628  0.30391  1.0000
  H   H4505     1.0  0.97038  0.32547  0.46456  1.0000
  H   H4506     1.0  0.97901  0.40408  0.37808  1.0000
  H   H4507     1.0  0.99792  0.60336  0.31684  1.0000
  C   C2545     1.0  0.99116  0.58523  0.41681  1.0000
  H   H4508     1.0  0.99742  0.33832  0.48782  1.0000
  H   H4509     1.0  0.94932  0.63940  0.32694  1.0000
  H   H4510     1.0  0.97966  0.35016  0.29172  1.0000
  H   H4511     1.0  0.96420  0.34604  0.31674  1.0000
  C   C2546     1.0  0.94403  0.51302  0.24583  1.0000
  C   C2547     1.0  0.94105  0.64950  0.32334  1.0000
  H   H4512     1.0  0.91130  0.32825  0.36818  1.0000
  S   S563      1.0  0.98821  0.59432  0.25006  1.0000
  H   H4513     1.0  0.99730  0.39893  0.35583  1.0000
  H   H4514     1.0  0.97212  0.64359  0.31867  1.0000
  H   H4515     1.0  0.93521  0.58701  0.24652  1.0000
  H   H4516     1.0  0.98921  0.62109  0.38774  1.0000
  C   C2548     1.0  0.99416  0.52383  0.24742  1.0000
  H   H4517     1.0  0.98995  0.34975  0.30506  1.0000
  H   H4518     1.0  0.85752  0.33475  0.48317  1.0000
  H   H4519     1.0  0.99232  0.38708  0.38287  1.0000
  H   H4520     1.0  0.99384  0.33395  0.29668  1.0000
  H   H4521     1.0  0.96805  0.40013  0.24586  1.0000
  S   S564      1.0  0.99365  0.62169  0.44681  1.0000
  H   H4522     1.0  0.99735  0.48856  0.25936  1.0000
  H   H4523     1.0  0.99662  0.47254  0.25372  1.0000
  H   H4524     1.0  0.99876  0.35115  0.35082  1.0000
  C   C2549     1.0  0.98489  0.34296  0.30099  1.0000
  C   C2550     1.0  0.97305  0.33654  0.31335  1.0000
  C   C2551     1.0  0.92930  0.58049  0.24364  1.0000
  H   H4525     1.0  0.95842  0.55046  0.24738  1.0000
  S   S565      1.0  0.99513  0.35175  0.39279  1.0000
  H   H4526     1.0  0.99132  0.51467  0.24460  1.0000
  S   S566      1.0  0.95963  0.65139  0.35655  1.0000
  H   H4527     1.0  0.97350  0.32705  0.35603  1.0000
  H   H4528     1.0  0.92569  0.65144  0.28758  1.0000
  H   H4529     1.0  0.96664  0.43679  0.24352  1.0000
  C   C2552     1.0  0.99625  0.58446  0.36992  1.0000
  H   H4530     1.0  0.99211  0.37655  0.32334  1.0000
  H   H4531     1.0  0.91630  0.65488  0.32776  1.0000
  H   H4532     1.0  0.92356  0.65346  0.35115  1.0000
  H   H4533     1.0  0.98382  0.33431  0.33095  1.0000
  H   H4534     1.0  0.99468  0.57752  0.43931  1.0000
  C   C2553     1.0  0.97991  0.32671  0.32670  1.0000
  N   N141      1.0  0.94419  0.65408  0.30668  1.0000
  S   S567      1.0  0.95792  0.65471  0.39602  1.0000
  H   H4535     1.0  0.96798  0.33034  0.30868  1.0000
  C   C2554     1.0  0.95969  0.65714  0.30168  1.0000
  H   H4536     1.0  0.97809  0.48636  0.23992  1.0000
  H   H4537     1.0  0.89631  0.52957  0.24022  1.0000
  H   H4538     1.0  0.91779  0.50884  0.24035  1.0000
  H   H4539     1.0  0.85954  0.50583  0.24073  1.0000
  H   H4540     1.0  0.95625  0.45846  0.55763  1.0000
  S   S568      1.0  0.93862  0.54211  0.58876  1.0000
  H   H4541     1.0  0.94741  0.58184  0.58973  1.0000
  H   H4542     1.0  0.94221  0.37218  0.68837  1.0000
  C   C2555     1.0  0.94174  0.57912  0.57044  1.0000
  C   C2556     1.0  0.92327  0.57017  0.55601  1.0000
  H   H4543     1.0  0.97946  0.56276  0.61186  1.0000
  Fe  Fe285     1.0  0.91888  0.50944  0.70261  1.0000
  S   S569      1.0  0.93965  0.49139  0.70165  1.0000
  S   S570      1.0  0.89975  0.50896  0.72250  1.0000
  Fe  Fe286     1.0  0.93011  0.52663  0.67192  1.0000
  S   S571      1.0  0.95211  0.51021  0.66830  1.0000
  S   S572      1.0  0.92171  0.54725  0.65589  1.0000
  Fe  Fe287     1.0  0.93832  0.49320  0.67835  1.0000
  S   S573      1.0  0.94283  0.47274  0.66956  1.0000
  Fe  Fe288     1.0  0.95158  0.50983  0.69185  1.0000
  H   H4544     1.0  0.95291  0.59489  0.57304  1.0000
  S   S574      1.0  0.91635  0.50952  0.68005  1.0000
  S   S575      1.0  0.93088  0.52790  0.69472  1.0000
  S   S576      1.0  0.94698  0.36297  0.63921  1.0000
  Fe  Fe289     1.0  0.92237  0.37676  0.71643  1.0000
  S   S577      1.0  0.92721  0.39681  0.69976  1.0000
  H   H4545     1.0  0.92639  0.59704  0.55937  1.0000
  H   H4546     1.0  0.97099  0.54483  0.73655  1.0000
  Fe  Fe290     1.0  0.91602  0.40917  0.71774  1.0000
  S   S578      1.0  0.90112  0.43164  0.71245  1.0000
  Fe  Fe291     1.0  0.94776  0.39180  0.70853  1.0000
  H   H4547     1.0  0.89605  0.36150  0.51506  1.0000
  C   C2557     1.0  0.93903  0.36240  0.65811  1.0000
  C   C2558     1.0  0.92542  0.36131  0.68825  1.0000
  C   C2559     1.0  0.92021  0.35502  0.67969  1.0000
  C   C2560     1.0  0.92700  0.35556  0.66470  1.0000
  H   H4548     1.0  0.91080  0.34987  0.68464  1.0000
  H   H4549     1.0  0.87607  0.33221  0.51595  1.0000
  C   C2561     1.0  0.98119  0.34630  0.71097  1.0000
  C   C2562     1.0  0.93774  0.36780  0.68176  1.0000
  C   C2563     1.0  0.93075  0.46155  0.68081  1.0000
  C   C2564     1.0  0.93568  0.44619  0.68283  1.0000
  C   C2565     1.0  0.92666  0.43706  0.69277  1.0000
  C   C2566     1.0  0.91231  0.44321  0.70004  1.0000
  C   C2567     1.0  0.90709  0.45859  0.69754  1.0000
  C   C2568     1.0  0.91644  0.46777  0.68815  1.0000
  H   H4550     1.0  0.94664  0.44133  0.67705  1.0000
  H   H4551     1.0  0.93089  0.42526  0.69475  1.0000
  H   H4552     1.0  0.89604  0.46340  0.70323  1.0000
  H   H4553     1.0  0.91256  0.47963  0.68659  1.0000
  H   H4554     1.0  0.87216  0.50109  0.71862  1.0000
  C   C2569     1.0  0.97531  0.43469  0.70323  1.0000
  H   H4555     1.0  0.95242  0.43250  0.71239  1.0000
  H   H4556     1.0  0.96677  0.41792  0.57530  1.0000
  C   C2570     1.0  0.94917  0.38105  0.56348  1.0000
  H   H4557     1.0  0.91492  0.59765  0.54031  1.0000
  H   H4558     1.0  0.90523  0.52701  0.64895  1.0000
  C   C2571     1.0  0.98723  0.58884  0.51556  1.0000
  H   H4559     1.0  0.96973  0.44220  0.68171  1.0000
  H   H4560     1.0  0.93803  0.38805  0.56519  1.0000
  C   C2572     1.0  0.98282  0.57156  0.54429  1.0000
  H   H4561     1.0  0.88787  0.52104  0.69537  1.0000
  H   H4562     1.0  0.88000  0.35394  0.52492  1.0000
  H   H4563     1.0  0.99326  0.45621  0.60500  1.0000
  C   C2573     1.0  0.95414  0.33538  0.61607  1.0000
  H   H4564     1.0  0.93000  0.55962  0.56146  1.0000
  C   C2574     1.0  0.95863  0.32871  0.69459  1.0000
  H   H4565     1.0  0.95454  0.49084  0.72717  1.0000
  H   H4566     1.0  0.92156  0.37495  0.58668  1.0000
  C   C2575     1.0  0.85727  0.32912  0.49489  1.0000
  C   C2576     1.0  0.93442  0.54343  0.60741  1.0000
  C   C2577     1.0  0.94309  0.53386  0.61731  1.0000
  C   C2578     1.0  0.93922  0.53485  0.63228  1.0000
  C   C2579     1.0  0.92695  0.54569  0.63725  1.0000
  C   C2580     1.0  0.91850  0.55545  0.62724  1.0000
  C   C2581     1.0  0.92210  0.55419  0.61241  1.0000
  C   C2582     1.0  0.99044  0.54901  0.68526  1.0000
  C   C2583     1.0  0.91451  0.46189  0.73179  1.0000
  H   H4567     1.0  0.90903  0.56385  0.63102  1.0000
  H   H4568     1.0  0.91539  0.56162  0.60480  1.0000
  H   H4569     1.0  0.93043  0.34815  0.59192  1.0000
  C   C2584     1.0  0.88903  0.39952  0.69529  1.0000
  H   H4570     1.0  0.97966  0.47250  0.73250  1.0000
  H   H4571     1.0  0.98563  0.33235  0.56727  1.0000
  N   N142      1.0  0.97202  0.42909  0.55229  1.0000
  H   H4572     1.0  0.95318  0.33776  0.57982  1.0000
  C   C2585     1.0  0.96649  0.44335  0.54203  1.0000
  C   C2586     1.0  0.95691  0.46018  0.59900  1.0000
  C   C2587     1.0  0.97063  0.41627  0.54703  1.0000
  C   C2588     1.0  0.98438  0.45282  0.57979  1.0000
  H   H4573     1.0  0.96892  0.56409  0.51388  1.0000
  S   S579      1.0  0.95718  0.43165  0.61411  1.0000
  H   H4574     1.0  0.97558  0.45831  0.54922  1.0000
  H   H4575     1.0  0.82925  0.56442  0.68266  1.0000
  Fe  Fe292     1.0  0.91903  0.32744  0.54130  1.0000
  H   H4576     1.0  0.89443  0.40193  0.70297  1.0000
  S   S580      1.0  0.96056  0.32960  0.53403  1.0000
  H   H4577     1.0  0.98886  0.36523  0.65583  1.0000
  H   H4578     1.0  0.99591  0.41728  0.65552  1.0000
  H   H4579     1.0  0.95560  0.44349  0.53977  1.0000
  H   H4580     1.0  0.92619  0.38599  0.59649  1.0000
  C   C2589     1.0  0.92375  0.37513  0.59740  1.0000
  H   H4581     1.0  0.97393  0.40572  0.55489  1.0000
  H   H4582     1.0  0.95877  0.41710  0.54701  1.0000
  S   S581      1.0  0.98325  0.48097  0.56352  1.0000
  S   S582      1.0  0.93731  0.40631  0.72487  1.0000
  Fe  Fe293     1.0  0.98960  0.53238  0.55719  1.0000
  H   H4583     1.0  0.96218  0.65082  0.55595  1.0000
  H   H4584     1.0  0.96765  0.39894  0.52980  1.0000
  H   H4585     1.0  0.94715  0.36473  0.59267  1.0000
  C   C2590     1.0  0.97878  0.44178  0.59104  1.0000
  H   H4586     1.0  0.86367  0.33007  0.55092  1.0000
  C   C2591     1.0  0.98175  0.51330  0.73751  1.0000
  H   H4587     1.0  0.94267  0.57055  0.71589  1.0000
  S   S583      1.0  0.98888  0.37701  0.57380  1.0000
  C   C2592     1.0  0.96014  0.38299  0.56955  1.0000
  Fe  Fe294     1.0  0.96960  0.62591  0.50096  1.0000
  N   N143      1.0  0.95742  0.44318  0.72699  1.0000
  H   H4588     1.0  0.94207  0.42357  0.59395  1.0000
  H   H4589     1.0  0.99792  0.55238  0.59208  1.0000
  C   C2593     1.0  0.96959  0.45030  0.72709  1.0000
  H   H4590     1.0  0.92279  0.35077  0.65815  1.0000
  C   C2594     1.0  0.98809  0.42813  0.55234  1.0000
  H   H4591     1.0  0.95489  0.45089  0.70431  1.0000
  H   H4592     1.0  0.98614  0.42728  0.68260  1.0000
  S   S584      1.0  0.91640  0.36085  0.70698  1.0000
  C   C2595     1.0  0.95319  0.56402  0.71946  1.0000
  H   H4593     1.0  0.98190  0.44323  0.70053  1.0000
  C   C2596     1.0  0.97705  0.58690  0.54181  1.0000
  C   C2597     1.0  0.99379  0.57361  0.51818  1.0000
  S   S585      1.0  0.95892  0.39326  0.60645  1.0000
  C   C2598     1.0  0.97473  0.43170  0.68864  1.0000
  C   C2599     1.0  0.98110  0.56965  0.60047  1.0000
  Fe  Fe295     1.0  0.96387  0.37683  0.62705  1.0000
  C   C2600     1.0  0.98192  0.38550  0.71594  1.0000
  H   H4594     1.0  0.93346  0.59700  0.58253  1.0000
  H   H4595     1.0  0.98513  0.43050  0.59223  1.0000
  H   H4596     1.0  0.95961  0.53755  0.68591  1.0000
  S   S586      1.0  0.95302  0.64777  0.49920  1.0000
  H   H4597     1.0  0.93041  0.45248  0.71458  1.0000
  H   H4598     1.0  0.95385  0.56325  0.54816  1.0000
  Fe  Fe296     1.0  0.94771  0.32776  0.51836  1.0000
  H   H4599     1.0  0.96791  0.42347  0.69059  1.0000
  H   H4600     1.0  0.96864  0.47171  0.52515  1.0000
  N   N144      1.0  0.98361  0.46010  0.63470  1.0000
  H   H4601     1.0  0.98263  0.47493  0.60398  1.0000
  H   H4602     1.0  0.97453  0.42373  0.52288  1.0000
  H   H4603     1.0  0.93875  0.36353  0.61185  1.0000
  S   S587      1.0  0.96915  0.39218  0.69200  1.0000
  C   C2601     1.0  0.99265  0.52314  0.69706  1.0000
  C   C2602     1.0  0.97712  0.35158  0.68586  1.0000
  H   H4604     1.0  0.96261  0.54815  0.51385  1.0000
  C   C2603     1.0  0.88057  0.33800  0.50456  1.0000
  H   H4605     1.0  0.98088  0.44336  0.72380  1.0000
  H   H4606     1.0  0.97479  0.46146  0.65781  1.0000
  C   C2604     1.0  0.89313  0.34459  0.50581  1.0000
  C   C2605     1.0  0.98744  0.44363  0.63551  1.0000
  H   H4607     1.0  0.85315  0.33742  0.50197  1.0000
  C   C2606     1.0  0.94763  0.56173  0.52903  1.0000
  H   H4608     1.0  0.87586  0.56352  0.68364  1.0000
  H   H4609     1.0  0.88872  0.38762  0.69864  1.0000
  H   H4610     1.0  0.98464  0.33149  0.50413  1.0000
  H   H4611     1.0  0.95574  0.33739  0.68489  1.0000
  H   H4612     1.0  0.87965  0.36682  0.50725  1.0000
  H   H4613     1.0  0.91359  0.37395  0.60623  1.0000
  C   C2607     1.0  0.96484  0.45776  0.54725  1.0000
  C   C2608     1.0  0.99144  0.56494  0.53254  1.0000
  N   N145      1.0  0.88522  0.32754  0.49407  1.0000
  S   S588      1.0  0.97207  0.50753  0.69997  1.0000
  H   H4614     1.0  0.99109  0.59976  0.71290  1.0000
  C   C2609     1.0  0.89213  0.54928  0.69579  1.0000
  C   C2610     1.0  0.87278  0.50017  0.70718  1.0000
  H   H4615     1.0  0.97531  0.34730  0.67699  1.0000
  C   C2611     1.0  0.98545  0.41836  0.65198  1.0000
  C   C2612     1.0  0.96784  0.46633  0.63241  1.0000
  C   C2613     1.0  0.93659  0.58852  0.55601  1.0000
  H   H4616     1.0  0.94541  0.59467  0.54976  1.0000
  H   H4617     1.0  0.97426  0.44416  0.53099  1.0000
  H   H4618     1.0  0.87737  0.40625  0.69636  1.0000
  C   C2614     1.0  0.97750  0.43465  0.64824  1.0000
  H   H4619     1.0  0.91561  0.57534  0.56521  1.0000
  H   H4620     1.0  0.93321  0.57313  0.57775  1.0000
  C   C2615     1.0  0.94403  0.58888  0.57941  1.0000
  C   C2616     1.0  0.94451  0.36841  0.66670  1.0000
  H   H4621     1.0  0.95398  0.37343  0.66176  1.0000
  C   C2617     1.0  0.96492  0.44540  0.60052  1.0000
  C   C2618     1.0  0.93710  0.36271  0.60115  1.0000
  H   H4622     1.0  0.94621  0.46306  0.60634  1.0000
  C   C2619     1.0  0.97466  0.37423  0.56707  1.0000
  H   H4623     1.0  0.95740  0.39141  0.57595  1.0000
  H   H4624     1.0  0.97930  0.58134  0.60125  1.0000
  H   H4625     1.0  0.95241  0.57092  0.56800  1.0000
  N   N146      1.0  0.90818  0.42429  0.65907  1.0000
  C   C2620     1.0  0.90739  0.41556  0.64855  1.0000
  C   C2621     1.0  0.89919  0.41925  0.67447  1.0000
  C   C2622     1.0  0.90122  0.44038  0.65363  1.0000
  C   C2623     1.0  0.92411  0.42333  0.65952  1.0000
  C   C2624     1.0  0.93477  0.40789  0.66041  1.0000
  C   C2625     1.0  0.91525  0.42022  0.63214  1.0000
  C   C2626     1.0  0.90073  0.45102  0.66348  1.0000
  C   C2627     1.0  0.89778  0.40285  0.67932  1.0000
  H   H4626     1.0  0.98642  0.44118  0.62523  1.0000
  C   C2628     1.0  0.94963  0.40847  0.66295  1.0000
  C   C2629     1.0  0.91722  0.40833  0.62353  1.0000
  C   C2630     1.0  0.89275  0.46684  0.65758  1.0000
  H   H4627     1.0  0.89548  0.41631  0.64869  1.0000
  H   H4628     1.0  0.91229  0.40358  0.65227  1.0000
  H   H4629     1.0  0.90351  0.42158  0.68308  1.0000
  H   H4630     1.0  0.88739  0.42579  0.67573  1.0000
  H   H4631     1.0  0.88960  0.44157  0.65246  1.0000
  H   H4632     1.0  0.90748  0.44473  0.64242  1.0000
  H   H4633     1.0  0.92944  0.43075  0.64966  1.0000
  H   H4634     1.0  0.92434  0.42755  0.66911  1.0000
  H   H4635     1.0  0.93706  0.40393  0.65001  1.0000
  H   H4636     1.0  0.93013  0.39970  0.66956  1.0000
  H   H4637     1.0  0.90839  0.43063  0.62672  1.0000
  H   H4638     1.0  0.92647  0.42209  0.63108  1.0000
  H   H4639     1.0  0.91222  0.45136  0.66364  1.0000
  H   H4640     1.0  0.89481  0.44754  0.67506  1.0000
  H   H4641     1.0  0.89161  0.40048  0.67228  1.0000
  H   H4642     1.0  0.90878  0.39498  0.67860  1.0000
  H   H4643     1.0  0.96700  0.43540  0.64489  1.0000
  C   C2631     1.0  0.99625  0.32903  0.49754  1.0000
  C   C2632     1.0  0.97958  0.41465  0.53124  1.0000
  H   H4644     1.0  0.94805  0.41315  0.67278  1.0000
  H   H4645     1.0  0.95669  0.39714  0.66492  1.0000
  H   H4646     1.0  0.95544  0.41530  0.65305  1.0000
  H   H4647     1.0  0.92232  0.41210  0.61174  1.0000
  H   H4648     1.0  0.92476  0.39789  0.62803  1.0000
  H   H4649     1.0  0.90625  0.40606  0.62417  1.0000
  H   H4650     1.0  0.88097  0.46733  0.65762  1.0000
  H   H4651     1.0  0.89278  0.47414  0.66476  1.0000
  H   H4652     1.0  0.89862  0.47105  0.64616  1.0000
  H   H4653     1.0  0.96358  0.34190  0.73078  1.0000
  H   H4654     1.0  0.97107  0.38427  0.72272  1.0000
  C   C2633     1.0  0.96335  0.33528  0.70523  1.0000
  H   H4655     1.0  0.93547  0.33094  0.70685  1.0000
  C   C2634     1.0  0.94583  0.43070  0.56995  1.0000
  C   C2635     1.0  0.98398  0.38923  0.70052  1.0000
  H   H4656     1.0  0.96142  0.34352  0.61185  1.0000
  H   H4657     1.0  0.93861  0.48309  0.63529  1.0000
  H   H4658     1.0  0.97088  0.59208  0.55100  1.0000
  Fe  Fe297     1.0  0.99472  0.38298  0.62232  1.0000
  H   H4659     1.0  0.91419  0.54357  0.56123  1.0000
  C   C2636     1.0  0.85325  0.56095  0.67333  1.0000
  H   H4660     1.0  0.93910  0.44337  0.58729  1.0000
  H   H4661     1.0  0.98361  0.50970  0.72693  1.0000
  Fe  Fe298     1.0  0.93997  0.34621  0.54176  1.0000
  H   H4662     1.0  0.96723  0.36076  0.68818  1.0000
  H   H4663     1.0  0.96928  0.46082  0.71853  1.0000
  Fe  Fe299     1.0  0.96912  0.40788  0.61350  1.0000
  H   H4664     1.0  0.98148  0.42445  0.70937  1.0000
  H   H4665     1.0  0.89599  0.53619  0.67303  1.0000
  H   H4666     1.0  0.88461  0.49564  0.70213  1.0000
  S   S589      1.0  0.97204  0.39224  0.63505  1.0000
  H   H4667     1.0  0.94759  0.48657  0.61583  1.0000
  H   H4668     1.0  0.94353  0.46547  0.72416  1.0000
  H   H4669     1.0  0.97422  0.53764  0.72041  1.0000
  H   H4670     1.0  0.98805  0.41319  0.64229  1.0000
  C   C2637     1.0  0.89323  0.56091  0.70330  1.0000
  H   H4671     1.0  0.99144  0.41499  0.52962  1.0000
  H   H4672     1.0  0.98153  0.42092  0.73595  1.0000
  H   H4673     1.0  0.95639  0.48267  0.58671  1.0000
  H   H4674     1.0  0.97214  0.41091  0.72933  1.0000
  H   H4675     1.0  0.94912  0.47180  0.53360  1.0000
  H   H4676     1.0  0.97267  0.56867  0.59499  1.0000
  C   C2638     1.0  0.95926  0.44037  0.71180  1.0000
  C   C2639     1.0  0.86677  0.51529  0.69794  1.0000
  H   H4677     1.0  0.98373  0.47567  0.64717  1.0000
  H   H4678     1.0  0.97837  0.63711  0.53645  1.0000
  H   H4679     1.0  0.92475  0.34570  0.61151  1.0000
  H   H4680     1.0  0.94587  0.52736  0.63988  1.0000
  H   H4681     1.0  0.96247  0.56402  0.70951  1.0000
  H   H4682     1.0  0.86604  0.49227  0.70775  1.0000
  H   H4683     1.0  0.94294  0.50083  0.62625  1.0000
  H   H4684     1.0  0.94881  0.54362  0.71888  1.0000
  C   C2640     1.0  0.97036  0.53709  0.68790  1.0000
  C   C2641     1.0  0.87584  0.52669  0.69710  1.0000
  C   C2642     1.0  0.97032  0.65615  0.54700  1.0000
  H   H4685     1.0  0.95267  0.52558  0.61352  1.0000
  H   H4686     1.0  0.90636  0.53209  0.73181  1.0000
  C   C2643     1.0  0.97872  0.52370  0.69458  1.0000
  C   C2644     1.0  0.93766  0.43298  0.58549  1.0000
  H   H4687     1.0  0.93672  0.61005  0.53112  1.0000
  H   H4688     1.0  0.96484  0.43710  0.57264  1.0000
  H   H4689     1.0  0.92060  0.65427  0.57799  1.0000
  H   H4690     1.0  0.97706  0.37803  0.66720  1.0000
  N   N147      1.0  0.93349  0.58016  0.54634  1.0000
  C   C2645     1.0  0.96012  0.47151  0.53567  1.0000
  H   H4691     1.0  0.86697  0.51365  0.68694  1.0000
  C   C2646     1.0  0.94689  0.48872  0.62680  1.0000
  C   C2647     1.0  0.99100  0.32700  0.69571  1.0000
  H   H4692     1.0  0.90456  0.55817  0.70575  1.0000
  H   H4693     1.0  0.89976  0.34853  0.49477  1.0000
  H   H4694     1.0  0.98516  0.39930  0.51660  1.0000
  H   H4695     1.0  0.93683  0.50263  0.73348  1.0000
  C   C2648     1.0  0.98456  0.46359  0.64876  1.0000
  H   H4696     1.0  0.97932  0.33081  0.62783  1.0000
  H   H4697     1.0  0.98860  0.43627  0.55833  1.0000
  S   S590      1.0  0.92930  0.32921  0.55888  1.0000
  H   H4698     1.0  0.94501  0.33981  0.62491  1.0000
  H   H4699     1.0  0.97433  0.43890  0.65844  1.0000
  H   H4700     1.0  0.86050  0.56089  0.66214  1.0000
  C   C2649     1.0  0.92588  0.59149  0.53478  1.0000
  H   H4701     1.0  0.93780  0.65704  0.55335  1.0000
  H   H4702     1.0  0.96645  0.46316  0.62267  1.0000
  H   H4703     1.0  0.91473  0.61940  0.51893  1.0000
  C   C2650     1.0  0.95244  0.36990  0.55549  1.0000
  Fe  Fe300     1.0  0.98143  0.50247  0.56970  1.0000
  H   H4704     1.0  0.85489  0.51919  0.70330  1.0000
  C   C2651     1.0  0.88438  0.54003  0.67131  1.0000
  C   C2652     1.0  0.90523  0.50916  0.73848  1.0000
  H   H4705     1.0  0.89135  0.54177  0.64084  1.0000
  H   H4706     1.0  0.99700  0.59886  0.55420  1.0000
  C   C2653     1.0  0.94823  0.57118  0.53945  1.0000
  C   C2654     1.0  0.96266  0.47128  0.58792  1.0000
  H   H4707     1.0  0.85421  0.57032  0.67737  1.0000
  H   H4708     1.0  0.97000  0.48940  0.62238  1.0000
  H   H4709     1.0  0.96299  0.33021  0.64275  1.0000
  Fe  Fe301     1.0  0.98243  0.38361  0.59595  1.0000
  S   S591      1.0  0.93813  0.36747  0.54866  1.0000
  C   C2655     1.0  0.95165  0.54821  0.72696  1.0000
  H   H4710     1.0  0.85438  0.53762  0.68037  1.0000
  H   H4711     1.0  0.89914  0.55706  0.56958  1.0000
  H   H4712     1.0  0.93208  0.62241  0.50676  1.0000
  C   C2656     1.0  0.95545  0.51679  0.73698  1.0000
  H   H4713     1.0  0.92553  0.43377  0.58695  1.0000
  Fe  Fe302     1.0  0.96204  0.52953  0.58134  1.0000
  H   H4714     1.0  0.88563  0.51777  0.66884  1.0000
  C   C2657     1.0  0.88270  0.52937  0.66272  1.0000
  H   H4715     1.0  0.89193  0.52272  0.64158  1.0000
  C   C2658     1.0  0.89345  0.53034  0.64761  1.0000
  H   H4716     1.0  0.92310  0.58616  0.52733  1.0000
  H   H4717     1.0  0.92445  0.60777  0.50563  1.0000
  S   S592      1.0  0.89428  0.32871  0.54764  1.0000
  H   H4718     1.0  0.99201  0.61056  0.73336  1.0000
  H   H4719     1.0  0.96104  0.48645  0.64154  1.0000
  H   H4720     1.0  0.88484  0.56104  0.71389  1.0000
  H   H4721     1.0  0.97827  0.41226  0.66134  1.0000
  S   S593      1.0  0.99245  0.39964  0.60121  1.0000
  C   C2659     1.0  0.99321  0.46727  0.60632  1.0000
  H   H4722     1.0  0.83477  0.32652  0.49730  1.0000
  C   C2660     1.0  0.88675  0.35752  0.51374  1.0000
  C   C2661     1.0  0.98135  0.34603  0.73749  1.0000
  N   N148      1.0  0.94764  0.33432  0.60377  1.0000
  H   H4723     1.0  0.87121  0.53193  0.66080  1.0000
  H   H4724     1.0  0.95606  0.57844  0.53329  1.0000
  C   C2662     1.0  0.97813  0.36358  0.55847  1.0000
  H   H4725     1.0  0.95538  0.56943  0.72723  1.0000
  H   H4726     1.0  0.94558  0.59783  0.51838  1.0000
  H   H4727     1.0  0.92952  0.34097  0.49410  1.0000
  H   H4728     1.0  0.95829  0.51730  0.72491  1.0000
  H   H4729     1.0  0.89446  0.53841  0.70343  1.0000
  H   H4730     1.0  0.94126  0.56832  0.52044  1.0000
  H   H4731     1.0  0.89147  0.57206  0.69593  1.0000
  H   H4732     1.0  0.96967  0.35275  0.54655  1.0000
  H   H4733     1.0  0.94101  0.44042  0.56205  1.0000
  H   H4734     1.0  0.98946  0.35709  0.55616  1.0000
  H   H4735     1.0  0.95426  0.34508  0.70774  1.0000
  C   C2663     1.0  0.96650  0.53849  0.73133  1.0000
  C   C2664     1.0  0.93468  0.60317  0.52464  1.0000
  H   H4736     1.0  0.91513  0.47342  0.72595  1.0000
  C   C2665     1.0  0.96332  0.55516  0.52099  1.0000
  S   S594      1.0  0.92805  0.34591  0.52462  1.0000
  C   C2666     1.0  0.96296  0.42865  0.56791  1.0000
  H   H4737     1.0  0.96999  0.56006  0.67769  1.0000
  H   H4738     1.0  0.96393  0.34504  0.58704  1.0000
  S   S595      1.0  0.96921  0.52447  0.55866  1.0000
  N   N149      1.0  0.87352  0.54119  0.68589  1.0000
  C   C2667     1.0  0.94262  0.45409  0.73032  1.0000
  C   C2668     1.0  0.87655  0.55282  0.69184  1.0000
  S   S596      1.0  0.98681  0.36608  0.61605  1.0000
  H   H4739     1.0  0.95984  0.46131  0.64191  1.0000
  H   H4740     1.0  0.89763  0.55155  0.55364  1.0000
  C   C2669     1.0  0.93440  0.34731  0.60207  1.0000
  C   C2670     1.0  0.96220  0.48333  0.63091  1.0000
  H   H4741     1.0  0.99056  0.40841  0.57044  1.0000
  H   H4742     1.0  0.97022  0.54813  0.52905  1.0000
  C   C2671     1.0  0.91266  0.56631  0.54865  1.0000
  C   C2672     1.0  0.90547  0.55387  0.55894  1.0000
  S   S597      1.0  0.90894  0.38955  0.73408  1.0000
  C   C2673     1.0  0.97618  0.54983  0.68335  1.0000
  H   H4743     1.0  0.90351  0.57616  0.54628  1.0000
  C   C2674     1.0  0.97890  0.59548  0.52742  1.0000
  H   H4744     1.0  0.98517  0.39052  0.53570  1.0000
  H   H4745     1.0  0.88419  0.55114  0.66386  1.0000
  H   H4746     1.0  0.94334  0.42068  0.56843  1.0000
  H   H4747     1.0  0.87296  0.52871  0.70856  1.0000
  H   H4748     1.0  0.83426  0.57480  0.66411  1.0000
  H   H4749     1.0  0.86786  0.55500  0.70192  1.0000
  S   S598      1.0  0.97039  0.61439  0.52463  1.0000
  C   C2675     1.0  0.96697  0.36116  0.55297  1.0000
  C   C2676     1.0  0.97632  0.46756  0.57817  1.0000
  S   S599      1.0  0.94371  0.37094  0.72434  1.0000
  H   H4750     1.0  0.94255  0.55229  0.53559  1.0000
  C   C2677     1.0  0.83707  0.56398  0.67177  1.0000
  C   C2678     1.0  0.85747  0.54600  0.68418  1.0000
  H   H4751     1.0  0.90115  0.54923  0.68567  1.0000
  H   H4752     1.0  0.83552  0.55524  0.66717  1.0000
  H   H4753     1.0  0.84987  0.54679  0.69519  1.0000
  H   H4754     1.0  0.91843  0.56278  0.53811  1.0000
  N   N150      1.0  0.97823  0.33967  0.69972  1.0000
  S   S600      1.0  0.97241  0.50681  0.59258  1.0000
  C   C2679     1.0  0.99084  0.35864  0.67888  1.0000
  C   C2680     1.0  0.92900  0.45105  0.72667  1.0000
  H   H4755     1.0  0.87117  0.34732  0.50174  1.0000
  S   S601      1.0  0.98145  0.53933  0.57903  1.0000
  C   C2681     1.0  0.92588  0.61377  0.51334  1.0000
  C   C2682     1.0  0.98816  0.37044  0.66506  1.0000
  C   C2683     1.0  0.97933  0.39997  0.52818  1.0000
  H   H4756     1.0  0.97547  0.35828  0.70968  1.0000
  C   C2684     1.0  0.97598  0.33949  0.72760  1.0000
  H   H4757     1.0  0.95909  0.48157  0.53976  1.0000
  H   H4758     1.0  0.97867  0.59903  0.73892  1.0000
  H   H4759     1.0  0.98083  0.56489  0.55531  1.0000
  H   H4760     1.0  0.90084  0.33604  0.51231  1.0000
  C   C2685     1.0  0.95888  0.33538  0.58919  1.0000
  H   H4761     1.0  0.92760  0.43965  0.73190  1.0000
  H   H4762     1.0  0.98777  0.63624  0.55069  1.0000
  C   C2686     1.0  0.94659  0.49436  0.73708  1.0000
  H   H4763     1.0  0.94208  0.54873  0.73652  1.0000
  C   C2687     1.0  0.99078  0.59901  0.73541  1.0000
  H   H4764     1.0  0.93851  0.65579  0.57948  1.0000
  C   C2688     1.0  0.99475  0.46686  0.62209  1.0000
  C   C2689     1.0  0.99795  0.39088  0.69176  1.0000
  Fe  Fe303     1.0  0.99261  0.51612  0.58843  1.0000
  H   H4765     1.0  0.90499  0.45923  0.72928  1.0000
  H   H4766     1.0  0.98877  0.59545  0.50442  1.0000
  H   H4767     1.0  0.99229  0.49956  0.66257  1.0000
  H   H4768     1.0  0.99420  0.47841  0.62265  1.0000
  H   H4769     1.0  0.97641  0.35811  0.73613  1.0000
  H   H4770     1.0  0.99374  0.34413  0.73478  1.0000
  C   C2690     1.0  0.99507  0.52014  0.73641  1.0000
  H   H4771     1.0  0.99298  0.36398  0.68672  1.0000
  H   H4772     1.0  0.99137  0.57247  0.57029  1.0000
  C   C2691     1.0  0.97131  0.41674  0.73810  1.0000
  H   H4773     1.0  0.98999  0.45640  0.67777  1.0000
  H   H4774     1.0  0.94386  0.52355  0.73916  1.0000
  C   C2692     1.0  0.98281  0.64372  0.54137  1.0000
  H   H4775     1.0  0.99240  0.45483  0.73637  1.0000
  C   C2693     1.0  0.95691  0.42923  0.73879  1.0000
  C   C2694     1.0  0.99380  0.38397  0.72262  1.0000
  H   H4776     1.0  0.99212  0.38159  0.73453  1.0000
  H   H4777     1.0  0.99177  0.64834  0.53291  1.0000
  H   H4778     1.0  0.92447  0.32671  0.59470  1.0000
  H   H4779     1.0  0.99630  0.47251  0.66688  1.0000
  H   H4780     1.0  0.94783  0.42426  0.73855  1.0000
  H   H4781     1.0  0.99331  0.34609  0.70889  1.0000
  H   H4782     1.0  0.99616  0.52917  0.72646  1.0000
  H   H4783     1.0  0.99662  0.37719  0.66174  1.0000
  H   H4784     1.0  0.98005  0.32736  0.73024  1.0000
  H   H4785     1.0  0.96302  0.32710  0.71587  1.0000
  H   H4786     1.0  0.99720  0.51099  0.64461  1.0000
  H   H4787     1.0  0.99510  0.44998  0.57245  1.0000
  C   C2695     1.0  0.99689  0.41285  0.55943  1.0000
  H   H4788     1.0  0.99460  0.43139  0.54093  1.0000
  H   H4789     1.0  0.99906  0.51286  0.70235  1.0000
  H   H4790     1.0  0.99030  0.32434  0.68537  1.0000
  C   C2696     1.0  0.99876  0.46032  0.66855  1.0000
  S   S602      1.0  0.96019  0.32511  0.49538  1.0000
  C   C2697     1.0  0.99749  0.59279  0.72138  1.0000
  H   H4791     1.0  0.99953  0.39369  0.67983  1.0000
  H   H4792     1.0  0.99939  0.43888  0.63607  1.0000
  H   H4793     1.0  0.99572  0.58139  0.72397  1.0000
  H   H4794     1.0  0.99919  0.40471  0.55238  1.0000
  H   H4795     1.0  0.99676  0.58512  0.57714  1.0000
  C   C2698     1.0  0.99690  0.56413  0.59195  1.0000
  C   C2699     1.0  0.99857  0.53572  0.69227  1.0000
  S   S603      1.0  0.99903  0.56389  0.67741  1.0000
  H   H4796     1.0  0.99868  0.53184  0.62400  1.0000
  C   C2700     1.0  0.99898  0.45547  0.65463  1.0000
  H   H4797     1.0  0.99390  0.65761  0.49656  1.0000
  Fe  Fe304     1.0  0.93073  0.48558  0.78998  1.0000
  S   S604      1.0  0.91596  0.46960  0.79946  1.0000
  S   S605      1.0  0.92075  0.50897  0.77959  1.0000
  Fe  Fe305     1.0  0.95882  0.46200  0.79431  1.0000
  S   S606      1.0  0.94628  0.44371  0.80363  1.0000
  C   C2701     1.0  0.77216  0.54441  0.93781  1.0000
  Fe  Fe306     1.0  0.93343  0.45489  0.78581  1.0000
  S   S607      1.0  0.92330  0.44702  0.77178  1.0000
  Fe  Fe307     1.0  0.92972  0.45984  0.81662  1.0000
  S   S608      1.0  0.91683  0.45087  0.83912  1.0000
  S   S609      1.0  0.94748  0.47153  0.77515  1.0000
  S   S610      1.0  0.94307  0.47747  0.80864  1.0000
  Fe  Fe308     1.0  0.81633  0.49272  0.89739  1.0000
  S   S611      1.0  0.82546  0.51202  0.88231  1.0000
  S   S612      1.0  0.80388  0.48878  0.92125  1.0000
  Fe  Fe309     1.0  0.82749  0.47392  0.87441  1.0000
  S   S613      1.0  0.83819  0.49101  0.85758  1.0000
  S   S614      1.0  0.82991  0.45235  0.86830  1.0000
  Fe  Fe310     1.0  0.84584  0.49456  0.87597  1.0000
  S   S615      1.0  0.86879  0.49883  0.87128  1.0000
  Fe  Fe311     1.0  0.81711  0.50723  0.86472  1.0000
  S   S616      1.0  0.81120  0.52306  0.84404  1.0000
  S   S617      1.0  0.83749  0.47562  0.89228  1.0000
  S   S618      1.0  0.80577  0.48976  0.88036  1.0000
  S   S619      1.0  0.54399  0.61988  0.90203  1.0000
  Fe  Fe312     1.0  0.60757  0.52450  0.93460  1.0000
  S   S620      1.0  0.60137  0.53279  0.95569  1.0000
  S   S621      1.0  0.60075  0.50539  0.93086  1.0000
  Fe  Fe313     1.0  0.62559  0.54759  0.91771  1.0000
  S   S622      1.0  0.62135  0.55767  0.93732  1.0000
  S   S623      1.0  0.63835  0.55508  0.89459  1.0000
  Fe  Fe314     1.0  0.62532  0.53439  0.95030  1.0000
  S   S624      1.0  0.63899  0.52551  0.96777  1.0000
  Fe  Fe315     1.0  0.59772  0.55556  0.94113  1.0000
  S   S625      1.0  0.58015  0.57498  0.94848  1.0000
  S   S626      1.0  0.63190  0.52429  0.93032  1.0000
  S   S627      1.0  0.60161  0.54721  0.92046  1.0000
  Fe  Fe316     1.0  0.73281  0.56778  0.86447  1.0000
  S   S628      1.0  0.74271  0.55531  0.88406  1.0000
  S   S629      1.0  0.74608  0.56318  0.84227  1.0000
  Fe  Fe317     1.0  0.70439  0.58291  0.88367  1.0000
  S   S630      1.0  0.71223  0.57102  0.90464  1.0000
  S   S631      1.0  0.68117  0.59728  0.88689  1.0000
  Fe  Fe318     1.0  0.73425  0.57652  0.89189  1.0000
  S   S632      1.0  0.74993  0.58522  0.89927  1.0000
  Fe  Fe319     1.0  0.71985  0.55130  0.89414  1.0000
  S   S633      1.0  0.71665  0.52831  0.90379  1.0000
  S   S634      1.0  0.72592  0.58967  0.87145  1.0000
  S   S635      1.0  0.71016  0.56271  0.87423  1.0000
  C   C2702     1.0  0.54228  0.36719  0.95138  1.0000
  C   C2703     1.0  0.79261  0.42324  0.91286  1.0000
  S   S636      1.0  0.93457  0.38189  0.76335  1.0000
  H   H4798     1.0  0.97771  0.34077  0.74927  1.0000
  Fe  Fe320     1.0  0.64797  0.40852  0.92294  1.0000
  S   S637      1.0  0.64904  0.38530  0.93607  1.0000
  S   S638      1.0  0.65238  0.41204  0.89823  1.0000
  Fe  Fe321     1.0  0.63790  0.42183  0.94997  1.0000
  S   S639      1.0  0.63774  0.39966  0.96544  1.0000
  S   S640      1.0  0.63530  0.44185  0.95917  1.0000
  Fe  Fe322     1.0  0.65964  0.39199  0.95071  1.0000
  H   H4799     1.0  0.86487  0.46261  0.95283  1.0000
  Fe  Fe323     1.0  0.62699  0.39483  0.94960  1.0000
  S   S641      1.0  0.60913  0.38133  0.95870  1.0000
  S   S642      1.0  0.66064  0.41433  0.93619  1.0000
  S   S643      1.0  0.62509  0.41785  0.93547  1.0000
  C   C2704     1.0  0.80200  0.41292  0.90248  1.0000
  H   H4800     1.0  0.64400  0.32679  0.94074  1.0000
  C   C2705     1.0  0.78683  0.45120  0.83016  1.0000
  C   C2706     1.0  0.63384  0.33545  0.94358  1.0000
  C   C2707     1.0  0.87899  0.46569  0.90384  1.0000
  H   H4801     1.0  0.62100  0.34066  0.89422  1.0000
  S   S644      1.0  0.73447  0.57857  0.96832  1.0000
  H   H4802     1.0  0.94461  0.51961  0.78528  1.0000
  H   H4803     1.0  0.99101  0.42153  0.79205  1.0000
  S   S645      1.0  0.58251  0.35721  0.91832  1.0000
  C   C2708     1.0  0.92095  0.41110  0.75990  1.0000
  H   H4804     1.0  0.67366  0.45164  0.98962  1.0000
  Fe  Fe324     1.0  0.75087  0.44169  0.87317  1.0000
  S   S646      1.0  0.74244  0.46231  0.88210  1.0000
  S   S647      1.0  0.77411  0.42739  0.87204  1.0000
  Fe  Fe325     1.0  0.72142  0.44380  0.86569  1.0000
  S   S648      1.0  0.71011  0.46480  0.87369  1.0000
  S   S649      1.0  0.70951  0.43292  0.85612  1.0000
  Fe  Fe326     1.0  0.73168  0.47158  0.86252  1.0000
  S   S650      1.0  0.73158  0.49515  0.85142  1.0000
  Fe  Fe327     1.0  0.72154  0.45400  0.89255  1.0000
  S   S651      1.0  0.70940  0.45741  0.91514  1.0000
  S   S652      1.0  0.74206  0.45170  0.85239  1.0000
  S   S653      1.0  0.73094  0.43217  0.88570  1.0000
  H   H4805     1.0  0.54902  0.35184  0.90587  1.0000
  H   H4806     1.0  0.61758  0.38955  0.89680  1.0000
  C   C2709     1.0  0.72241  0.44902  0.92632  1.0000
  C   C2710     1.0  0.71914  0.45124  0.94071  1.0000
  C   C2711     1.0  0.72944  0.44427  0.94979  1.0000
  C   C2712     1.0  0.74278  0.43472  0.94463  1.0000
  C   C2713     1.0  0.74610  0.43250  0.93021  1.0000
  C   C2714     1.0  0.73595  0.43976  0.92101  1.0000
  H   H4807     1.0  0.70866  0.45828  0.94486  1.0000
  H   H4808     1.0  0.72707  0.44634  0.96077  1.0000
  H   H4809     1.0  0.75636  0.42501  0.92622  1.0000
  H   H4810     1.0  0.73855  0.43797  0.90991  1.0000
  H   H4811     1.0  0.68481  0.51537  0.89941  1.0000
  H   H4812     1.0  0.75639  0.35327  0.98883  1.0000
  H   H4813     1.0  0.66294  0.33876  0.92790  1.0000
  H   H4814     1.0  0.63393  0.35703  0.89300  1.0000
  H   H4815     1.0  0.65680  0.64082  0.93016  1.0000
  H   H4816     1.0  0.50461  0.38357  0.91379  1.0000
  H   H4817     1.0  0.53638  0.35251  0.88564  1.0000
  H   H4818     1.0  0.83931  0.51956  0.90295  1.0000
  C   C2715     1.0  0.53846  0.37900  0.93786  1.0000
  H   H4819     1.0  0.84939  0.49234  0.90966  1.0000
  H   H4820     1.0  0.78826  0.44768  0.81968  1.0000
  C   C2716     1.0  0.73465  0.36489  0.95036  1.0000
  H   H4821     1.0  0.83067  0.46739  0.96250  1.0000
  H   H4822     1.0  0.52899  0.62342  0.98399  1.0000
  C   C2717     1.0  0.88351  0.45017  0.90058  1.0000
  C   C2718     1.0  0.60075  0.37549  0.94761  1.0000
  C   C2719     1.0  0.60061  0.38265  0.93287  1.0000
  C   C2720     1.0  0.59433  0.37730  0.92426  1.0000
  C   C2721     1.0  0.58868  0.36444  0.93010  1.0000
  C   C2722     1.0  0.58859  0.35742  0.94489  1.0000
  C   C2723     1.0  0.59438  0.36308  0.95367  1.0000
  H   H4823     1.0  0.60534  0.39229  0.92813  1.0000
  H   H4824     1.0  0.59421  0.38292  0.91290  1.0000
  H   H4825     1.0  0.58416  0.34759  0.94957  1.0000
  H   H4826     1.0  0.59432  0.35756  0.96510  1.0000
  C   C2724     1.0  0.66864  0.41756  0.88717  1.0000
  C   C2725     1.0  0.67815  0.42218  0.89291  1.0000
  C   C2726     1.0  0.69073  0.42708  0.88346  1.0000
  C   C2727     1.0  0.69401  0.42688  0.86837  1.0000
  C   C2728     1.0  0.68461  0.42203  0.86276  1.0000
  C   C2729     1.0  0.67191  0.41753  0.87209  1.0000
  H   H4827     1.0  0.67574  0.42209  0.90457  1.0000
  H   H4828     1.0  0.69788  0.43098  0.88783  1.0000
  H   H4829     1.0  0.68707  0.42193  0.85110  1.0000
  H   H4830     1.0  0.66460  0.41398  0.86759  1.0000
  H   H4831     1.0  0.90564  0.53623  0.81759  1.0000
  C   C2730     1.0  0.74616  0.58312  0.91842  1.0000
  C   C2731     1.0  0.75221  0.59083  0.92487  1.0000
  C   C2732     1.0  0.74862  0.58947  0.94027  1.0000
  C   C2733     1.0  0.73920  0.58020  0.94916  1.0000
  C   C2734     1.0  0.73345  0.57237  0.94265  1.0000
  C   C2735     1.0  0.73681  0.57391  0.92731  1.0000
  H   H4832     1.0  0.75944  0.59803  0.91794  1.0000
  H   H4833     1.0  0.75302  0.59565  0.94527  1.0000
  H   H4834     1.0  0.64602  0.54354  0.83945  1.0000
  H   H4835     1.0  0.73238  0.56777  0.92236  1.0000
  C   C2736     1.0  0.72124  0.51900  0.88927  1.0000
  C   C2737     1.0  0.72779  0.52547  0.87495  1.0000
  C   C2738     1.0  0.73070  0.51832  0.86323  1.0000
  C   C2739     1.0  0.72736  0.50450  0.86587  1.0000
  C   C2740     1.0  0.72097  0.49797  0.88022  1.0000
  C   C2741     1.0  0.71797  0.50517  0.89190  1.0000
  H   H4836     1.0  0.73085  0.53590  0.87285  1.0000
  H   H4837     1.0  0.73577  0.52342  0.85222  1.0000
  H   H4838     1.0  0.71807  0.48745  0.88239  1.0000
  H   H4839     1.0  0.71303  0.50004  0.90291  1.0000
  C   C2742     1.0  0.60994  0.48767  0.93905  1.0000
  C   C2743     1.0  0.60893  0.47509  0.93502  1.0000
  C   C2744     1.0  0.61680  0.46092  0.94095  1.0000
  C   C2745     1.0  0.62534  0.45928  0.95126  1.0000
  C   C2746     1.0  0.62603  0.47182  0.95553  1.0000
  C   C2747     1.0  0.61848  0.48599  0.94936  1.0000
  H   H4840     1.0  0.60210  0.47633  0.92725  1.0000
  H   H4841     1.0  0.61602  0.45127  0.93777  1.0000
  H   H4842     1.0  0.63266  0.47057  0.96347  1.0000
  H   H4843     1.0  0.61919  0.49562  0.95264  1.0000
  C   C2748     1.0  0.64964  0.56741  0.89250  1.0000
  C   C2749     1.0  0.64941  0.57345  0.90426  1.0000
  C   C2750     1.0  0.65877  0.58302  0.90241  1.0000
  C   C2751     1.0  0.66867  0.58626  0.88888  1.0000
  C   C2752     1.0  0.66880  0.58035  0.87705  1.0000
  C   C2753     1.0  0.65910  0.57118  0.87879  1.0000
  H   H4844     1.0  0.64220  0.57062  0.91485  1.0000
  H   H4845     1.0  0.65866  0.58755  0.91159  1.0000
  H   H4846     1.0  0.67634  0.58296  0.86655  1.0000
  H   H4847     1.0  0.65907  0.56685  0.86956  1.0000
  C   C2754     1.0  0.64534  0.53827  0.97326  1.0000
  C   C2755     1.0  0.90993  0.52403  0.81955  1.0000
  H   H4848     1.0  0.88362  0.46735  0.82104  1.0000
  H   H4849     1.0  0.85939  0.51182  0.77937  1.0000
  H   H4850     1.0  0.69163  0.40626  0.98623  1.0000
  C   C2756     1.0  0.55369  0.60717  0.91508  1.0000
  C   C2757     1.0  0.56108  0.59292  0.91274  1.0000
  C   C2758     1.0  0.56926  0.58290  0.92293  1.0000
  C   C2759     1.0  0.56991  0.58706  0.93555  1.0000
  C   C2760     1.0  0.56224  0.60119  0.93802  1.0000
  C   C2761     1.0  0.55427  0.61127  0.92776  1.0000
  H   H4851     1.0  0.56046  0.58964  0.90306  1.0000
  H   H4852     1.0  0.57484  0.57189  0.92114  1.0000
  H   H4853     1.0  0.56240  0.60432  0.94792  1.0000
  H   H4854     1.0  0.54840  0.62213  0.92981  1.0000
  C   C2762     1.0  0.80831  0.49470  0.93503  1.0000
  C   C2763     1.0  0.80433  0.48763  0.94987  1.0000
  C   C2764     1.0  0.80754  0.49213  0.96117  1.0000
  C   C2765     1.0  0.81462  0.50387  0.95772  1.0000
  C   C2766     1.0  0.81822  0.51123  0.94290  1.0000
  C   C2767     1.0  0.81522  0.50656  0.93155  1.0000
  H   H4855     1.0  0.79892  0.47848  0.95269  1.0000
  H   H4856     1.0  0.95831  0.46079  0.74625  1.0000
  H   H4857     1.0  0.82338  0.52054  0.94021  1.0000
  H   H4858     1.0  0.81794  0.51231  0.92018  1.0000
  C   C2768     1.0  0.79299  0.53394  0.84398  1.0000
  C   C2769     1.0  0.79027  0.54472  0.83132  1.0000
  C   C2770     1.0  0.77583  0.55351  0.83084  1.0000
  C   C2771     1.0  0.76400  0.55157  0.84300  1.0000
  C   C2772     1.0  0.76664  0.54033  0.85541  1.0000
  C   C2773     1.0  0.78116  0.53170  0.85601  1.0000
  H   H4859     1.0  0.79937  0.54641  0.82191  1.0000
  H   H4860     1.0  0.77387  0.56200  0.82112  1.0000
  H   H4861     1.0  0.75746  0.53796  0.86436  1.0000
  H   H4862     1.0  0.78319  0.52317  0.86566  1.0000
  C   C2774     1.0  0.81384  0.44645  0.86901  1.0000
  C   C2775     1.0  0.81568  0.43418  0.86305  1.0000
  C   C2776     1.0  0.80334  0.42865  0.86390  1.0000
  C   C2777     1.0  0.78898  0.43543  0.87055  1.0000
  C   C2778     1.0  0.78700  0.44787  0.87641  1.0000
  C   C2779     1.0  0.79947  0.45335  0.87566  1.0000
  H   H4863     1.0  0.82673  0.42872  0.85799  1.0000
  H   H4864     1.0  0.80495  0.41896  0.85949  1.0000
  H   H4865     1.0  0.77597  0.45297  0.88183  1.0000
  H   H4866     1.0  0.79801  0.46273  0.88041  1.0000
  C   C2780     1.0  0.90374  0.46418  0.84824  1.0000
  C   C2781     1.0  0.90697  0.47762  0.84768  1.0000
  C   C2782     1.0  0.89639  0.48802  0.85526  1.0000
  C   C2783     1.0  0.88232  0.48530  0.86279  1.0000
  C   C2784     1.0  0.87911  0.47185  0.86337  1.0000
  C   C2785     1.0  0.88994  0.46117  0.85640  1.0000
  H   H4867     1.0  0.91774  0.47985  0.84164  1.0000
  H   H4868     1.0  0.89902  0.49828  0.85507  1.0000
  H   H4869     1.0  0.86832  0.46960  0.86926  1.0000
  H   H4870     1.0  0.88747  0.45071  0.85697  1.0000
  C   C2786     1.0  0.92629  0.42854  0.77065  1.0000
  H   H4871     1.0  0.60160  0.59426  0.96348  1.0000
  H   H4872     1.0  0.58349  0.61123  0.95092  1.0000
  C   C2787     1.0  0.93072  0.39953  0.76719  1.0000
  C   C2788     1.0  0.93787  0.40237  0.77677  1.0000
  C   C2789     1.0  0.93583  0.41697  0.77833  1.0000
  H   H4873     1.0  0.65095  0.56128  0.83525  1.0000
  C   C2790     1.0  0.86731  0.46644  0.91861  1.0000
  H   H4874     1.0  0.94545  0.39340  0.78242  1.0000
  H   H4875     1.0  0.94172  0.41930  0.78529  1.0000
  C   C2791     1.0  0.91437  0.50912  0.76398  1.0000
  H   H4876     1.0  0.75970  0.47560  0.90603  1.0000
  H   H4877     1.0  0.86160  0.53078  0.77365  1.0000
  H   H4878     1.0  0.62396  0.33047  0.94646  1.0000
  H   H4879     1.0  0.91346  0.48610  0.77035  1.0000
  H   H4880     1.0  0.87506  0.51650  0.76508  1.0000
  N   N151      1.0  0.76135  0.52650  0.92996  1.0000
  C   C2792     1.0  0.76350  0.51027  0.93044  1.0000
  C   C2793     1.0  0.76458  0.53443  0.91395  1.0000
  C   C2794     1.0  0.77183  0.52822  0.93832  1.0000
  C   C2795     1.0  0.74555  0.53294  0.93710  1.0000
  C   C2796     1.0  0.73330  0.53247  0.92956  1.0000
  C   C2797     1.0  0.75796  0.50064  0.94573  1.0000
  C   C2798     1.0  0.70165  0.41948  0.94221  1.0000
  C   C2799     1.0  0.78122  0.53148  0.90572  1.0000
  C   C2800     1.0  0.78298  0.54065  0.88991  1.0000
  C   C2801     1.0  0.71768  0.53926  0.93749  1.0000
  C   C2802     1.0  0.76390  0.48414  0.94580  1.0000
  H   H4881     1.0  0.77550  0.50540  0.92665  1.0000
  H   H4882     1.0  0.75790  0.50863  0.92244  1.0000
  H   H4883     1.0  0.75845  0.53119  0.90743  1.0000
  H   H4884     1.0  0.76015  0.54662  0.91279  1.0000
  H   H4885     1.0  0.78340  0.52190  0.93457  1.0000
  H   H4886     1.0  0.76883  0.52313  0.95022  1.0000
  H   H4887     1.0  0.74288  0.52761  0.94902  1.0000
  H   H4888     1.0  0.74433  0.54468  0.93705  1.0000
  H   H4889     1.0  0.73360  0.52095  0.92933  1.0000
  H   H4890     1.0  0.73487  0.53901  0.91805  1.0000
  H   H4891     1.0  0.76151  0.50288  0.95479  1.0000
  H   H4892     1.0  0.74556  0.50289  0.94831  1.0000
  H   H4893     1.0  0.76232  0.54925  0.94576  1.0000
  H   H4894     1.0  0.63185  0.38389  0.88129  1.0000
  H   H4895     1.0  0.78842  0.53455  0.91117  1.0000
  H   H4896     1.0  0.78549  0.51961  0.90519  1.0000
  H   H4897     1.0  0.79477  0.53783  0.88385  1.0000
  H   H4898     1.0  0.77571  0.53838  0.88396  1.0000
  H   H4899     1.0  0.77985  0.55267  0.88997  1.0000
  H   H4900     1.0  0.71708  0.55053  0.93869  1.0000
  H   H4901     1.0  0.70945  0.54023  0.93087  1.0000
  H   H4902     1.0  0.71450  0.53224  0.94852  1.0000
  H   H4903     1.0  0.72226  0.40668  0.93225  1.0000
  H   H4904     1.0  0.77624  0.48110  0.94444  1.0000
  C   C2803     1.0  0.58341  0.62029  0.95610  1.0000
  N   N152      1.0  0.60371  0.60411  0.89045  1.0000
  C   C2804     1.0  0.59066  0.61484  0.88449  1.0000
  C   C2805     1.0  0.60279  0.58827  0.89206  1.0000
  C   C2806     1.0  0.60253  0.60648  0.90568  1.0000
  C   C2807     1.0  0.61860  0.60675  0.88105  1.0000
  C   C2808     1.0  0.62162  0.60615  0.86457  1.0000
  H   H4905     1.0  0.75592  0.48774  0.98223  1.0000
  C   C2809     1.0  0.61466  0.59604  0.91406  1.0000
  C   C2810     1.0  0.59562  0.58515  0.88083  1.0000
  C   C2811     1.0  0.59706  0.56858  0.88270  1.0000
  C   C2812     1.0  0.63634  0.61053  0.85612  1.0000
  C   C2813     1.0  0.61134  0.59796  0.92997  1.0000
  H   H4906     1.0  0.57995  0.61248  0.89183  1.0000
  H   H4907     1.0  0.59050  0.61333  0.87351  1.0000
  H   H4908     1.0  0.61408  0.58074  0.89170  1.0000
  H   H4909     1.0  0.59611  0.58417  0.90314  1.0000
  H   H4910     1.0  0.59130  0.60540  0.91275  1.0000
  H   H4911     1.0  0.60352  0.61785  0.90506  1.0000
  H   H4912     1.0  0.62024  0.61749  0.88178  1.0000
  H   H4913     1.0  0.62792  0.59825  0.88540  1.0000
  H   H4914     1.0  0.61264  0.61378  0.85911  1.0000
  H   H4915     1.0  0.62275  0.59468  0.86354  1.0000
  H   H4916     1.0  0.62574  0.59864  0.90865  1.0000
  H   H4917     1.0  0.61543  0.58428  0.91439  1.0000
  H   H4918     1.0  0.58348  0.59045  0.88265  1.0000
  H   H4919     1.0  0.60080  0.58948  0.86925  1.0000
  H   H4920     1.0  0.59056  0.56414  0.89369  1.0000
  H   H4921     1.0  0.59249  0.56668  0.87409  1.0000
  H   H4922     1.0  0.60897  0.56250  0.88159  1.0000
  H   H4923     1.0  0.64582  0.60305  0.86101  1.0000
  H   H4924     1.0  0.63850  0.60969  0.84440  1.0000
  H   H4925     1.0  0.63582  0.62212  0.85640  1.0000
  H   H4926     1.0  0.62038  0.59057  0.93555  1.0000
  C   C2814     1.0  0.98135  0.46172  0.74049  1.0000
  H   H4927     1.0  0.60063  0.59489  0.93615  1.0000
  N   N153      1.0  0.53627  0.38241  0.91077  1.0000
  C   C2815     1.0  0.53867  0.37184  0.92513  1.0000
  C   C2816     1.0  0.53469  0.37386  0.90048  1.0000
  C   C2817     1.0  0.54950  0.38954  0.90438  1.0000
  C   C2818     1.0  0.52228  0.39445  0.91313  1.0000
  H   H4928     1.0  0.85811  0.52069  0.89298  1.0000
  H   H4929     1.0  0.61458  0.33890  0.92110  1.0000
  C   C2819     1.0  0.55095  0.39808  0.88804  1.0000
  S   S654      1.0  0.81908  0.50956  0.97164  1.0000
  H   H4930     1.0  0.68126  0.34282  0.89594  1.0000
  C   C2820     1.0  0.56430  0.40536  0.88320  1.0000
  H   H4931     1.0  0.54973  0.36397  0.92326  1.0000
  C   C2821     1.0  0.66154  0.54246  0.98656  1.0000
  H   H4932     1.0  0.52522  0.36827  0.90557  1.0000
  C   C2822     1.0  0.91173  0.49623  0.76215  1.0000
  H   H4933     1.0  0.56020  0.38121  0.90528  1.0000
  H   H4934     1.0  0.54918  0.39753  0.91099  1.0000
  H   H4935     1.0  0.98661  0.41173  0.78088  1.0000
  H   H4936     1.0  0.52033  0.40170  0.90235  1.0000
  H   H4937     1.0  0.52364  0.40191  0.91949  1.0000
  H   H4938     1.0  0.71615  0.63054  0.90289  1.0000
  H   H4939     1.0  0.54682  0.38593  0.93443  1.0000
  C   C2823     1.0  0.50173  0.62383  0.91847  1.0000
  H   H4940     1.0  0.54078  0.40690  0.88649  1.0000
  H   H4941     1.0  0.55278  0.39051  0.88052  1.0000
  C   C2824     1.0  0.63703  0.37289  0.90298  1.0000
  H   H4942     1.0  0.72477  0.61638  0.89221  1.0000
  H   H4943     1.0  0.90486  0.48632  0.74829  1.0000
  H   H4944     1.0  0.88983  0.49755  0.95042  1.0000
  H   H4945     1.0  0.57898  0.63892  0.86378  1.0000
  H   H4946     1.0  0.63474  0.37613  0.91374  1.0000
  H   H4947     1.0  0.56287  0.41350  0.89003  1.0000
  H   H4948     1.0  0.57485  0.39686  0.88427  1.0000
  H   H4949     1.0  0.56525  0.41126  0.87144  1.0000
  H   H4950     1.0  0.55641  0.34615  0.88135  1.0000
  H   H4951     1.0  0.69449  0.40779  0.92128  1.0000
  C   C2825     1.0  0.94762  0.53339  0.76298  1.0000
  H   H4952     1.0  0.87039  0.47166  0.83769  1.0000
  N   N154      1.0  0.78440  0.48890  0.83969  1.0000
  C   C2826     1.0  0.79945  0.49162  0.83087  1.0000
  C   C2827     1.0  0.77255  0.49900  0.83155  1.0000
  C   C2828     1.0  0.78212  0.49195  0.85483  1.0000
  C   C2829     1.0  0.78355  0.47312  0.84148  1.0000
  C   C2830     1.0  0.78658  0.46769  0.82693  1.0000
  C   C2831     1.0  0.81330  0.48055  0.83614  1.0000
  C   C2832     1.0  0.76679  0.49066  0.86525  1.0000
  C   C2833     1.0  0.76931  0.51567  0.83171  1.0000
  C   C2834     1.0  0.75800  0.52488  0.82224  1.0000
  C   C2835     1.0  0.82778  0.48457  0.82649  1.0000
  C   C2836     1.0  0.76397  0.49752  0.87863  1.0000
  H   H4953     1.0  0.80035  0.50284  0.83105  1.0000
  H   H4954     1.0  0.80070  0.49179  0.81898  1.0000
  H   H4955     1.0  0.77569  0.49812  0.81974  1.0000
  H   H4956     1.0  0.76179  0.49541  0.83589  1.0000
  H   H4957     1.0  0.78410  0.50302  0.85390  1.0000
  H   H4958     1.0  0.79055  0.48403  0.86081  1.0000
  H   H4959     1.0  0.79131  0.46544  0.84841  1.0000
  H   H4960     1.0  0.77222  0.47147  0.84766  1.0000
  H   H4961     1.0  0.79750  0.46930  0.81973  1.0000
  H   H4962     1.0  0.77763  0.47376  0.82073  1.0000
  H   H4963     1.0  0.81319  0.48066  0.84767  1.0000
  H   H4964     1.0  0.81378  0.46908  0.83556  1.0000
  H   H4965     1.0  0.76631  0.47886  0.86938  1.0000
  H   H4966     1.0  0.75758  0.49633  0.85950  1.0000
  H   H4967     1.0  0.76449  0.51756  0.84309  1.0000
  H   H4968     1.0  0.77965  0.51992  0.82736  1.0000
  H   H4969     1.0  0.76264  0.52423  0.81045  1.0000
  H   H4970     1.0  0.74743  0.52094  0.82614  1.0000
  H   H4971     1.0  0.75540  0.53665  0.82311  1.0000
  H   H4972     1.0  0.79629  0.44456  0.83550  1.0000
  H   H4973     1.0  0.83740  0.47661  0.83073  1.0000
  H   H4974     1.0  0.82888  0.48398  0.81484  1.0000
  H   H4975     1.0  0.82807  0.49590  0.82691  1.0000
  H   H4976     1.0  0.77288  0.49215  0.88502  1.0000
  H   H4977     1.0  0.76341  0.50958  0.87506  1.0000
  H   H4978     1.0  0.75303  0.49602  0.88593  1.0000
  N   N155      1.0  0.64620  0.47508  0.89209  1.0000
  C   C2837     1.0  0.65536  0.46991  0.87815  1.0000
  C   C2838     1.0  0.63193  0.46959  0.89678  1.0000
  C   C2839     1.0  0.64194  0.49181  0.88827  1.0000
  C   C2840     1.0  0.65457  0.47027  0.90454  1.0000
  C   C2841     1.0  0.66615  0.45522  0.90526  1.0000
  C   C2842     1.0  0.66875  0.47723  0.86996  1.0000
  C   C2843     1.0  0.63055  0.49952  0.90036  1.0000
  C   C2844     1.0  0.63353  0.45260  0.90068  1.0000
  C   C2845     1.0  0.61852  0.44876  0.90268  1.0000
  C   C2846     1.0  0.67193  0.45037  0.91954  1.0000
  C   C2847     1.0  0.67907  0.46908  0.85806  1.0000
  C   C2848     1.0  0.62943  0.51623  0.89631  1.0000
  H   H4979     1.0  0.64814  0.47208  0.87007  1.0000
  H   H4980     1.0  0.65974  0.45773  0.88028  1.0000
  H   H4981     1.0  0.62480  0.47343  0.90686  1.0000
  H   H4982     1.0  0.62525  0.47443  0.88802  1.0000
  H   H4983     1.0  0.63716  0.49570  0.87814  1.0000
  H   H4984     1.0  0.65204  0.49643  0.88564  1.0000
  H   H4985     1.0  0.66093  0.47855  0.90399  1.0000
  H   H4986     1.0  0.64649  0.46988  0.91543  1.0000
  H   H4987     1.0  0.67598  0.45598  0.89594  1.0000
  H   H4988     1.0  0.66130  0.44636  0.90463  1.0000
  H   H4989     1.0  0.66467  0.48882  0.86431  1.0000
  H   H4990     1.0  0.67536  0.47739  0.87777  1.0000
  H   H4991     1.0  0.63374  0.49509  0.91127  1.0000
  H   H4992     1.0  0.61920  0.49789  0.90144  1.0000
  H   H4993     1.0  0.64151  0.44709  0.89197  1.0000
  H   H4994     1.0  0.63721  0.44781  0.91134  1.0000
  H   H4995     1.0  0.61020  0.45328  0.91190  1.0000
  H   H4996     1.0  0.61419  0.45322  0.89235  1.0000
  H   H4997     1.0  0.62002  0.43654  0.90532  1.0000
  H   H4998     1.0  0.68060  0.43990  0.91928  1.0000
  H   H4999     1.0  0.67713  0.45884  0.92065  1.0000
  H   H5000     1.0  0.66270  0.44844  0.92929  1.0000
  H   H5001     1.0  0.67287  0.46882  0.84992  1.0000
  H   H5002     1.0  0.68835  0.47469  0.85211  1.0000
  H   H5003     1.0  0.68400  0.45758  0.86320  1.0000
  H   H5004     1.0  0.62656  0.52110  0.88529  1.0000
  H   H5005     1.0  0.62045  0.52159  0.90458  1.0000
  H   H5006     1.0  0.64011  0.51873  0.89629  1.0000
  N   N156      1.0  0.68327  0.50520  0.94246  1.0000
  C   C2849     1.0  0.68516  0.52054  0.93438  1.0000
  C   C2850     1.0  0.69769  0.49433  0.93798  1.0000
  C   C2851     1.0  0.67041  0.50239  0.93800  1.0000
  C   C2852     1.0  0.67970  0.50465  0.95884  1.0000
  C   C2853     1.0  0.67746  0.48960  0.96903  1.0000
  C   C2854     1.0  0.67121  0.53337  0.93690  1.0000
  C   C2855     1.0  0.67170  0.48655  0.93608  1.0000
  C   C2856     1.0  0.71219  0.49785  0.93908  1.0000
  C   C2857     1.0  0.72573  0.48522  0.93623  1.0000
  C   C2858     1.0  0.87838  0.48105  0.92833  1.0000
  C   C2859     1.0  0.67253  0.54697  0.92445  1.0000
  C   C2860     1.0  0.65638  0.48454  0.93620  1.0000
  H   H5007     1.0  0.68902  0.52083  0.92228  1.0000
  H   H5008     1.0  0.69396  0.52352  0.93780  1.0000
  H   H5009     1.0  0.69739  0.48304  0.94464  1.0000
  H   H5010     1.0  0.69914  0.49362  0.92630  1.0000
  H   H5011     1.0  0.66859  0.50958  0.92715  1.0000
  H   H5012     1.0  0.65971  0.50572  0.94590  1.0000
  H   H5013     1.0  0.68837  0.50804  0.96210  1.0000
  H   H5014     1.0  0.66930  0.51297  0.96177  1.0000
  H   H5015     1.0  0.68841  0.48157  0.96909  1.0000
  H   H5016     1.0  0.66996  0.48500  0.96550  1.0000
  H   H5017     1.0  0.66059  0.53048  0.93752  1.0000
  H   H5018     1.0  0.67032  0.53649  0.94748  1.0000
  H   H5019     1.0  0.67615  0.47780  0.94490  1.0000
  H   H5020     1.0  0.67928  0.48468  0.92536  1.0000
  H   H5021     1.0  0.71456  0.50768  0.93054  1.0000
  H   H5022     1.0  0.71129  0.50006  0.95004  1.0000
  H   H5023     1.0  0.72624  0.48168  0.92598  1.0000
  H   H5024     1.0  0.73602  0.48905  0.93481  1.0000
  H   H5025     1.0  0.72530  0.47572  0.94579  1.0000
  H   H5026     1.0  0.79341  0.55659  0.98374  1.0000
  H   H5027     1.0  0.58510  0.64550  0.96702  1.0000
  H   H5028     1.0  0.84827  0.53203  0.90637  1.0000
  H   H5029     1.0  0.68351  0.54976  0.92252  1.0000
  H   H5030     1.0  0.67139  0.54500  0.91400  1.0000
  H   H5031     1.0  0.66344  0.55645  0.92750  1.0000
  H   H5032     1.0  0.65702  0.47289  0.93618  1.0000
  H   H5033     1.0  0.64839  0.48724  0.94641  1.0000
  H   H5034     1.0  0.65214  0.49191  0.92643  1.0000
  N   N157      1.0  0.69332  0.60502  0.93975  1.0000
  C   C2861     1.0  0.69257  0.59101  0.93611  1.0000
  C   C2862     1.0  0.70657  0.61079  0.92959  1.0000
  C   C2863     1.0  0.69565  0.60109  0.95545  1.0000
  C   C2864     1.0  0.67896  0.61673  0.93916  1.0000
  C   C2865     1.0  0.67323  0.62106  0.92461  1.0000
  C   C2866     1.0  0.67964  0.58373  0.94592  1.0000
  C   C2867     1.0  0.96916  0.45369  0.74208  1.0000
  C   C2868     1.0  0.71046  0.60916  0.91323  1.0000
  C   C2869     1.0  0.57942  0.60057  0.97802  1.0000
  H   H5035     1.0  0.84152  0.47685  0.96802  1.0000
  C   C2870     1.0  0.67923  0.57051  0.94037  1.0000
  H   H5036     1.0  0.95349  0.53460  0.78299  1.0000
  H   H5037     1.0  0.70327  0.58260  0.93691  1.0000
  H   H5038     1.0  0.69160  0.59281  0.92449  1.0000
  H   H5039     1.0  0.70518  0.62263  0.92970  1.0000
  H   H5040     1.0  0.71699  0.60481  0.93373  1.0000
  H   H5041     1.0  0.70477  0.59093  0.95704  1.0000
  H   H5042     1.0  0.68547  0.59827  0.96348  1.0000
  H   H5043     1.0  0.66983  0.61340  0.94847  1.0000
  H   H5044     1.0  0.68014  0.62720  0.94097  1.0000
  H   H5045     1.0  0.67302  0.61130  0.92074  1.0000
  H   H5046     1.0  0.68035  0.62777  0.91585  1.0000
  H   H5047     1.0  0.68112  0.57963  0.95747  1.0000
  H   H5048     1.0  0.66861  0.59158  0.94585  1.0000
  C   C2871     1.0  0.66361  0.34334  0.91588  1.0000
  C   C2872     1.0  0.77436  0.56740  0.97393  1.0000
  H   H5049     1.0  0.71586  0.59746  0.91263  1.0000
  H   H5050     1.0  0.70058  0.61225  0.90824  1.0000
  H   H5051     1.0  0.94798  0.54517  0.75819  1.0000
  C   C2873     1.0  0.85140  0.47945  0.93782  1.0000
  C   C2874     1.0  0.78127  0.56105  0.98778  1.0000
  H   H5052     1.0  0.99634  0.59207  0.74456  1.0000
  H   H5053     1.0  0.84822  0.50995  0.92659  1.0000
  H   H5054     1.0  0.71821  0.46239  0.97844  1.0000
  H   H5055     1.0  0.68978  0.56195  0.94082  1.0000
  H   H5056     1.0  0.66985  0.56552  0.94748  1.0000
  H   H5057     1.0  0.67755  0.57411  0.92883  1.0000
  C   C2875     1.0  0.98748  0.48485  0.78091  1.0000
  S   S655      1.0  0.72339  0.51240  0.97375  1.0000
  C   C2876     1.0  0.99612  0.49560  0.77638  1.0000
  S   S656      1.0  0.51986  0.64828  0.92695  1.0000
  C   C2877     1.0  0.77961  0.44723  0.92938  1.0000
  H   H5058     1.0  0.63891  0.35648  0.93092  1.0000
  C   C2878     1.0  0.65560  0.53281  0.98250  1.0000
  H   H5059     1.0  0.78706  0.53827  0.95325  1.0000
  H   H5060     1.0  0.87229  0.48281  0.95178  1.0000
  H   H5061     1.0  0.68261  0.39416  0.91571  1.0000
  H   H5062     1.0  0.63468  0.39583  0.89127  1.0000
  H   H5063     1.0  0.79454  0.40875  0.89831  1.0000
  C   C2879     1.0  0.64626  0.56334  0.97292  1.0000
  H   H5064     1.0  0.58701  0.62902  0.92485  1.0000
  N   N158      1.0  0.96627  0.52315  0.74086  1.0000
  H   H5065     1.0  0.61837  0.36279  0.90688  1.0000
  H   H5066     1.0  0.99369  0.52468  0.74625  1.0000
  H   H5067     1.0  0.60245  0.59620  0.98132  1.0000
  H   H5068     1.0  0.53423  0.35988  0.95543  1.0000
  C   C2880     1.0  0.72142  0.61859  0.90356  1.0000
  H   H5069     1.0  0.80932  0.40333  0.90842  1.0000
  H   H5070     1.0  0.84441  0.45696  0.97325  1.0000
  S   S657      1.0  0.55422  0.65133  0.91202  1.0000
  H   H5071     1.0  0.78076  0.46988  0.91744  1.0000
  H   H5072     1.0  0.62047  0.35529  0.93287  1.0000
  H   H5073     1.0  0.65801  0.49672  0.98568  1.0000
  H   H5074     1.0  0.68444  0.56446  0.83529  1.0000
  H   H5075     1.0  0.70013  0.49212  0.83142  1.0000
  H   H5076     1.0  0.75358  0.46584  0.92459  1.0000
  C   C2881     1.0  0.68191  0.44660  0.96256  1.0000
  H   H5077     1.0  0.74320  0.37139  0.94837  1.0000
  H   H5078     1.0  0.93951  0.45469  0.74219  1.0000
  H   H5079     1.0  0.73481  0.38610  0.92484  1.0000
  H   H5080     1.0  0.85676  0.46495  0.91692  1.0000
  H   H5081     1.0  0.77186  0.55169  0.92674  1.0000
  H   H5082     1.0  0.64759  0.42468  0.98493  1.0000
  C   C2882     1.0  0.50759  0.38916  0.92091  1.0000
  C   C2883     1.0  0.84184  0.46678  0.96432  1.0000
  H   H5083     1.0  0.91509  0.40895  0.75281  1.0000
  C   C2884     1.0  0.64063  0.55359  0.96847  1.0000
  H   H5084     1.0  0.80581  0.43979  0.90656  1.0000
  H   H5085     1.0  0.66886  0.43046  0.97325  1.0000
  H   H5086     1.0  0.53164  0.38148  0.89022  1.0000
  C   C2885     1.0  0.55935  0.62257  0.97451  1.0000
  N   N159      1.0  0.88710  0.42801  0.80779  1.0000
  C   C2886     1.0  0.88527  0.41314  0.80714  1.0000
  C   C2887     1.0  0.87509  0.43430  0.81987  1.0000
  C   C2888     1.0  0.88516  0.43836  0.79312  1.0000
  C   C2889     1.0  0.90245  0.42721  0.80991  1.0000
  C   C2890     1.0  0.90732  0.41612  0.82367  1.0000
  C   C2891     1.0  0.89659  0.40562  0.79488  1.0000
  C   C2892     1.0  0.88436  0.45495  0.79201  1.0000
  C   C2893     1.0  0.86954  0.42324  0.83404  1.0000
  C   C2894     1.0  0.85981  0.43140  0.84619  1.0000
  C   C2895     1.0  0.92375  0.41480  0.82330  1.0000
  C   C2896     1.0  0.89449  0.39017  0.79605  1.0000
  C   C2897     1.0  0.88247  0.46417  0.77667  1.0000
  H   H5087     1.0  0.87382  0.41427  0.80553  1.0000
  H   H5088     1.0  0.88602  0.40507  0.81775  1.0000
  H   H5089     1.0  0.87890  0.44248  0.82336  1.0000
  H   H5090     1.0  0.86477  0.44052  0.81565  1.0000
  H   H5091     1.0  0.87484  0.43777  0.79019  1.0000
  H   H5092     1.0  0.89458  0.43492  0.78407  1.0000
  H   H5093     1.0  0.91108  0.42475  0.79999  1.0000
  H   H5094     1.0  0.90335  0.43817  0.81083  1.0000
  H   H5095     1.0  0.90604  0.40487  0.82440  1.0000
  H   H5096     1.0  0.90073  0.42014  0.83384  1.0000
  H   H5097     1.0  0.89504  0.41212  0.78375  1.0000
  H   H5098     1.0  0.90826  0.40435  0.79573  1.0000
  H   H5099     1.0  0.89474  0.45636  0.79391  1.0000
  H   H5100     1.0  0.87477  0.45971  0.80015  1.0000
  H   H5101     1.0  0.86261  0.41707  0.83153  1.0000
  H   H5102     1.0  0.87882  0.41505  0.83855  1.0000
  H   H5103     1.0  0.85555  0.42338  0.85606  1.0000
  H   H5104     1.0  0.86637  0.43732  0.84956  1.0000
  H   H5105     1.0  0.85007  0.43953  0.84229  1.0000
  H   H5106     1.0  0.93107  0.41080  0.81334  1.0000
  H   H5107     1.0  0.92556  0.42567  0.82329  1.0000
  H   H5108     1.0  0.92696  0.40682  0.83329  1.0000
  H   H5109     1.0  0.90264  0.38522  0.78699  1.0000
  H   H5110     1.0  0.89652  0.38284  0.80677  1.0000
  H   H5111     1.0  0.88302  0.39075  0.79498  1.0000
  H   H5112     1.0  0.87175  0.46386  0.77444  1.0000
  H   H5113     1.0  0.88250  0.47586  0.77602  1.0000
  H   H5114     1.0  0.89185  0.45996  0.76797  1.0000
  N   N160      1.0  0.87468  0.51390  0.81514  1.0000
  C   C2898     1.0  0.86717  0.51967  0.80211  1.0000
  C   C2899     1.0  0.86364  0.51816  0.82876  1.0000
  C   C2900     1.0  0.88817  0.52041  0.81165  1.0000
  C   C2901     1.0  0.87969  0.49724  0.81814  1.0000
  C   C2902     1.0  0.86800  0.48890  0.81805  1.0000
  C   C2903     1.0  0.87698  0.51582  0.78722  1.0000
  C   C2904     1.0  0.89702  0.51619  0.82405  1.0000
  C   C2905     1.0  0.85915  0.53485  0.82918  1.0000
  C   C2906     1.0  0.84800  0.53751  0.84354  1.0000
  C   C2907     1.0  0.87190  0.47265  0.82564  1.0000
  C   C2908     1.0  0.86760  0.51895  0.77567  1.0000
  H   H5115     1.0  0.86364  0.53195  0.79997  1.0000
  H   H5116     1.0  0.85659  0.51588  0.80460  1.0000
  H   H5117     1.0  0.85304  0.51475  0.83020  1.0000
  H   H5118     1.0  0.86790  0.51204  0.83896  1.0000
  H   H5119     1.0  0.88509  0.53268  0.80813  1.0000
  H   H5120     1.0  0.89636  0.51663  0.80199  1.0000
  H   H5121     1.0  0.89010  0.49355  0.81009  1.0000
  H   H5122     1.0  0.88296  0.49301  0.82908  1.0000
  H   H5123     1.0  0.86753  0.48944  0.80649  1.0000
  H   H5124     1.0  0.85666  0.49374  0.82385  1.0000
  H   H5125     1.0  0.88542  0.52272  0.78264  1.0000
  H   H5126     1.0  0.88306  0.50405  0.78848  1.0000
  H   H5127     1.0  0.90200  0.50413  0.82610  1.0000
  H   H5128     1.0  0.88980  0.51914  0.83450  1.0000
  H   H5129     1.0  0.86900  0.53905  0.82867  1.0000
  H   H5130     1.0  0.85379  0.54150  0.81985  1.0000
  H   H5131     1.0  0.83763  0.53395  0.84447  1.0000
  H   H5132     1.0  0.85297  0.53131  0.85329  1.0000
  H   H5133     1.0  0.84494  0.54949  0.84369  1.0000
  H   H5134     1.0  0.86417  0.46677  0.82411  1.0000
  C   C2909     1.0  0.72059  0.48440  0.97650  1.0000
  H   H5135     1.0  0.53037  0.36475  0.92920  1.0000
  H   H5136     1.0  0.91625  0.52060  0.82854  1.0000
  H   H5137     1.0  0.88571  0.48616  0.91820  1.0000
  H   H5138     1.0  0.77621  0.44886  0.83759  1.0000
  C   C2910     1.0  0.97100  0.40510  0.75251  1.0000
  H   H5139     1.0  0.91774  0.52098  0.80934  1.0000
  H   H5140     1.0  0.67984  0.36829  0.91959  1.0000
  H   H5141     1.0  0.79945  0.43706  0.95932  1.0000
  C   C2911     1.0  0.62981  0.38630  0.89243  1.0000
  H   H5142     1.0  0.88890  0.44201  0.90931  1.0000
  H   H5143     1.0  0.77441  0.45215  0.93930  1.0000
  H   H5144     1.0  0.96534  0.49314  0.74580  1.0000
  C   C2912     1.0  0.79497  0.42647  0.94370  1.0000
  H   H5145     1.0  0.65364  0.63390  0.91589  1.0000
  H   H5146     1.0  0.71265  0.42064  0.91932  1.0000
  H   H5147     1.0  0.80910  0.41886  0.89289  1.0000
  H   H5148     1.0  0.87410  0.47319  0.89454  1.0000
  S   S658      1.0  0.75488  0.42508  0.95651  1.0000
  H   H5149     1.0  0.66582  0.53858  0.87892  1.0000
  H   H5150     1.0  0.64458  0.34463  0.95526  1.0000
  H   H5151     1.0  0.94258  0.48462  0.74451  1.0000
  H   H5152     1.0  0.79639  0.54080  0.93395  1.0000
  C   C2913     1.0  0.80240  0.43151  0.91668  1.0000
  H   H5153     1.0  0.67466  0.38018  0.90286  1.0000
  C   C2914     1.0  0.70336  0.40086  0.92731  1.0000
  C   C2915     1.0  0.85014  0.52099  0.90382  1.0000
  C   C2916     1.0  0.87649  0.48937  0.94078  1.0000
  H   H5154     1.0  0.75917  0.45646  0.90938  1.0000
  Fe  Fe328     1.0  0.71918  0.56300  0.97990  1.0000
  C   C2917     1.0  0.57710  0.64106  0.87500  1.0000
  N   N161      1.0  0.63580  0.34539  0.91538  1.0000
  S   S659      1.0  0.70490  0.55465  0.97044  1.0000
  H   H5155     1.0  0.73972  0.35494  0.94544  1.0000
  H   H5156     1.0  0.68017  0.44757  0.95134  1.0000
  H   H5157     1.0  0.77250  0.43968  0.92998  1.0000
  C   C2918     1.0  0.65403  0.55028  0.83224  1.0000
  H   H5158     1.0  0.79458  0.57332  0.95905  1.0000
  H   H5159     1.0  0.89581  0.49923  0.93067  1.0000
  C   C2919     1.0  0.91866  0.42551  0.76173  1.0000
  H   H5160     1.0  0.69236  0.36688  0.90177  1.0000
  H   H5161     1.0  0.93366  0.53833  0.78382  1.0000
  H   H5162     1.0  0.69177  0.62401  0.95843  1.0000
  H   H5163     1.0  0.65311  0.55200  0.82058  1.0000
  H   H5164     1.0  0.68204  0.51481  0.86965  1.0000
  H   H5165     1.0  0.72652  0.56501  0.94944  1.0000
  Fe  Fe329     1.0  0.57499  0.33544  0.92564  1.0000
  H   H5166     1.0  0.80578  0.41812  0.94320  1.0000
  H   H5167     1.0  0.80520  0.45755  0.91941  1.0000
  C   C2920     1.0  0.68419  0.37461  0.90846  1.0000
  H   H5168     1.0  0.95373  0.43191  0.74995  1.0000
  H   H5169     1.0  0.96861  0.41029  0.76216  1.0000
  C   C2921     1.0  0.63081  0.35927  0.90434  1.0000
  H   H5170     1.0  0.68223  0.32542  0.90937  1.0000
  C   C2922     1.0  0.62659  0.33463  0.91618  1.0000
  H   H5171     1.0  0.78492  0.45724  0.90546  1.0000
  C   C2923     1.0  0.54842  0.36136  0.89631  1.0000
  H   H5172     1.0  0.98205  0.39720  0.75217  1.0000
  C   C2924     1.0  0.78628  0.54500  0.94200  1.0000
  H   H5173     1.0  0.76097  0.48130  0.93670  1.0000
  C   C2925     1.0  0.65692  0.55773  0.98181  1.0000
  S   S660      1.0  0.55178  0.33335  0.93803  1.0000
  C   C2926     1.0  0.68655  0.52460  0.86853  1.0000
  H   H5174     1.0  0.57360  0.64445  0.95101  1.0000
  H   H5175     1.0  0.66157  0.35549  0.91418  1.0000
  H   H5176     1.0  0.80463  0.48644  0.97256  1.0000
  H   H5177     1.0  0.55912  0.36493  0.89322  1.0000
  C   C2927     1.0  0.69559  0.55808  0.83742  1.0000
  C   C2928     1.0  0.77772  0.46018  0.91585  1.0000
  C   C2929     1.0  0.76155  0.46481  0.91389  1.0000
  Fe  Fe330     1.0  0.53716  0.64259  0.90716  1.0000
  H   H5178     1.0  0.78390  0.43136  0.90730  1.0000
  C   C2930     1.0  0.63462  0.33996  0.95737  1.0000
  H   H5179     1.0  0.62441  0.34837  0.96077  1.0000
  H   H5180     1.0  0.61079  0.60955  0.93022  1.0000
  C   C2931     1.0  0.63220  0.34897  0.93048  1.0000
  H   H5181     1.0  0.60027  0.63464  0.87601  1.0000
  H   H5182     1.0  0.89163  0.45013  0.88981  1.0000
  H   H5183     1.0  0.70162  0.41142  0.95291  1.0000
  H   H5184     1.0  0.70657  0.42839  0.94263  1.0000
  H   H5185     1.0  0.71542  0.56354  0.83971  1.0000
  H   H5186     1.0  0.70542  0.57710  0.82672  1.0000
  Fe  Fe331     1.0  0.74038  0.42317  0.97914  1.0000
  H   H5187     1.0  0.63256  0.55794  0.96152  1.0000
  H   H5188     1.0  0.78686  0.41644  0.92285  1.0000
  C   C2932     1.0  0.94472  0.53134  0.77979  1.0000
  H   H5189     1.0  0.73168  0.61579  0.90806  1.0000
  C   C2933     1.0  0.68549  0.39331  0.97453  1.0000
  C   C2934     1.0  0.70409  0.56927  0.83761  1.0000
  H   H5190     1.0  0.68999  0.42430  0.94072  1.0000
  H   H5191     1.0  0.65844  0.44950  0.97160  1.0000
  H   H5192     1.0  0.52725  0.38598  0.94140  1.0000
  H   H5193     1.0  0.66466  0.53117  0.85644  1.0000
  S   S661      1.0  0.57457  0.32477  0.90768  1.0000
  N   N162      1.0  0.79540  0.43862  0.92991  1.0000
  H   H5194     1.0  0.68214  0.51040  0.84564  1.0000
  H   H5195     1.0  0.75892  0.47754  0.95647  1.0000
  C   C2935     1.0  0.80455  0.44904  0.92991  1.0000
  H   H5196     1.0  0.70194  0.55260  0.82811  1.0000
  H   H5197     1.0  0.69793  0.57575  0.84625  1.0000
  H   H5198     1.0  0.96272  0.51180  0.76382  1.0000
  C   C2936     1.0  0.76787  0.53132  0.98736  1.0000
  C   C2937     1.0  0.71112  0.41196  0.92958  1.0000
  C   C2938     1.0  0.54713  0.35590  0.88329  1.0000
  H   H5199     1.0  0.54784  0.36473  0.87309  1.0000
  H   H5200     1.0  0.78176  0.58812  0.96755  1.0000
  C   C2939     1.0  0.70423  0.37900  0.91847  1.0000
  H   H5201     1.0  0.77989  0.43906  0.96032  1.0000
  C   C2940     1.0  0.96259  0.52324  0.75712  1.0000
  C   C2941     1.0  0.79107  0.43143  0.95866  1.0000
  H   H5202     1.0  0.78604  0.55664  0.94180  1.0000
  H   H5203     1.0  0.79896  0.45549  0.93874  1.0000
  H   H5204     1.0  0.69879  0.37408  0.92983  1.0000
  H   H5205     1.0  0.97567  0.48806  0.78084  1.0000
  S   S662      1.0  0.98408  0.45591  0.79083  1.0000
  H   H5206     1.0  0.66869  0.51280  0.89471  1.0000
  H   H5207     1.0  0.71286  0.36758  0.94646  1.0000
  S   S663      1.0  0.66463  0.56971  0.98685  1.0000
  H   H5208     1.0  0.81308  0.42345  0.91836  1.0000
  H   H5209     1.0  0.71638  0.38377  0.94958  1.0000
  C   C2942     1.0  0.73593  0.39532  0.87809  1.0000
  C   C2943     1.0  0.72123  0.37439  0.94382  1.0000
  C   C2944     1.0  0.67005  0.49121  0.98490  1.0000
  H   H5210     1.0  0.70486  0.54258  0.85551  1.0000
  H   H5211     1.0  0.56528  0.63345  0.94474  1.0000
  H   H5212     1.0  0.55505  0.61756  0.96781  1.0000
  H   H5213     1.0  0.85278  0.45558  0.94664  1.0000
  C   C2945     1.0  0.65730  0.63062  0.92658  1.0000
  C   C2946     1.0  0.72899  0.38648  0.89290  1.0000
  H   H5214     1.0  0.72804  0.40300  0.90461  1.0000
  C   C2947     1.0  0.69373  0.54684  0.85238  1.0000
  H   H5215     1.0  0.70946  0.52234  0.84410  1.0000
  H   H5216     1.0  0.69847  0.53079  0.83085  1.0000
  H   H5217     1.0  0.69765  0.51058  0.82014  1.0000
  H   H5218     1.0  0.69711  0.39568  0.93816  1.0000
  H   H5219     1.0  0.71148  0.40532  0.89864  1.0000
  N   N163      1.0  0.86426  0.48027  0.92457  1.0000
  H   H5220     1.0  0.68663  0.55353  0.86059  1.0000
  H   H5221     1.0  0.67758  0.54930  0.82614  1.0000
  H   H5222     1.0  0.91100  0.43435  0.75605  1.0000
  C   C2948     1.0  0.67411  0.52110  0.89585  1.0000
  H   H5223     1.0  0.82847  0.46230  0.92416  1.0000
  H   H5224     1.0  0.84045  0.44699  0.93391  1.0000
  C   C2949     1.0  0.69782  0.52469  0.84248  1.0000
  C   C2950     1.0  0.51701  0.33776  0.91349  1.0000
  S   S664      1.0  0.67947  0.37587  0.95893  1.0000
  H   H5225     1.0  0.82168  0.43213  0.94083  1.0000
  N   N164      1.0  0.57612  0.61717  0.97240  1.0000
  C   C2951     1.0  0.67687  0.53234  0.88132  1.0000
  C   C2952     1.0  0.82096  0.44165  0.93132  1.0000
  H   H5226     1.0  0.93813  0.53095  0.76029  1.0000
  H   H5227     1.0  0.84099  0.48002  0.93431  1.0000
  C   C2953     1.0  0.69923  0.60897  0.97722  1.0000
  C   C2954     1.0  0.70210  0.50332  0.82985  1.0000
  C   C2955     1.0  0.72019  0.39675  0.90385  1.0000
  H   H5228     1.0  0.72714  0.40401  0.87312  1.0000
  H   H5229     1.0  0.78857  0.42172  0.98213  1.0000
  H   H5230     1.0  0.74422  0.40062  0.87956  1.0000
  H   H5231     1.0  0.78664  0.42011  0.94443  1.0000
  H   H5232     1.0  0.82743  0.43766  0.92109  1.0000
  H   H5233     1.0  0.74178  0.38783  0.87028  1.0000
  H   H5234     1.0  0.59538  0.62034  0.95466  1.0000
  N   N165      1.0  0.68723  0.53401  0.85306  1.0000
  C   C2956     1.0  0.67003  0.54240  0.83382  1.0000
  N   N166      1.0  0.71342  0.38916  0.91911  1.0000
  C   C2957     1.0  0.69150  0.38622  0.90982  1.0000
  H   H5235     1.0  0.73170  0.37000  0.92207  1.0000
  H   H5236     1.0  0.69565  0.39213  0.89846  1.0000
  H   H5237     1.0  0.82301  0.45634  0.94400  1.0000
  C   C2958     1.0  0.82864  0.45256  0.93349  1.0000
  H   H5238     1.0  0.69843  0.50138  0.85327  1.0000
  H   H5239     1.0  0.73817  0.37800  0.89738  1.0000
  H   H5240     1.0  0.86847  0.50021  0.93953  1.0000
  C   C2959     1.0  0.67159  0.53934  0.85012  1.0000
  C   C2960     1.0  0.69433  0.50954  0.84376  1.0000
  H   H5241     1.0  0.69797  0.52013  0.87079  1.0000
  H   H5242     1.0  0.66580  0.54960  0.85440  1.0000
  H   H5243     1.0  0.67274  0.53186  0.83004  1.0000
  H   H5244     1.0  0.68256  0.54008  0.88315  1.0000
  H   H5245     1.0  0.66648  0.52699  0.90448  1.0000
  H   H5246     1.0  0.73092  0.36118  0.96250  1.0000
  H   H5247     1.0  0.71436  0.50234  0.82758  1.0000
  H   H5248     1.0  0.72152  0.38079  0.89059  1.0000
  C   C2961     1.0  0.72591  0.37997  0.92685  1.0000
  H   H5249     1.0  0.71154  0.36936  0.91380  1.0000
  H   H5250     1.0  0.68289  0.45751  0.96345  1.0000
  C   C2962     1.0  0.85637  0.50892  0.91605  1.0000
  H   H5251     1.0  0.58728  0.63449  0.89367  1.0000
  H   H5252     1.0  0.56687  0.64597  0.97925  1.0000
  H   H5253     1.0  0.87357  0.44679  0.89984  1.0000
  H   H5254     1.0  0.96246  0.39878  0.75388  1.0000
  C   C2963     1.0  0.90693  0.49632  0.74957  1.0000
  C   C2964     1.0  0.58973  0.63154  0.88273  1.0000
  H   H5255     1.0  0.57667  0.65294  0.87385  1.0000
  H   H5256     1.0  0.59639  0.64196  0.98849  1.0000
  C   C2965     1.0  0.71444  0.47203  0.98330  1.0000
  H   H5257     1.0  0.72939  0.48411  0.96666  1.0000
  H   H5258     1.0  0.77516  0.55851  0.96836  1.0000
  H   H5259     1.0  0.64922  0.37065  0.89826  1.0000
  H   H5260     1.0  0.97112  0.44329  0.75052  1.0000
  C   C2966     1.0  0.79083  0.41806  0.97159  1.0000
  H   H5261     1.0  0.70240  0.61763  0.98057  1.0000
  H   H5262     1.0  0.55624  0.63461  0.97023  1.0000
  H   H5263     1.0  0.98294  0.50290  0.74613  1.0000
  H   H5264     1.0  0.87144  0.45647  0.92676  1.0000
  H   H5265     1.0  0.65899  0.52109  0.98660  1.0000
  C   C2967     1.0  0.50714  0.34250  0.90383  1.0000
  H   H5266     1.0  0.97136  0.52674  0.76003  1.0000
  H   H5267     1.0  0.76586  0.51539  0.97630  1.0000
  H   H5268     1.0  0.86835  0.49368  0.90241  1.0000
  H   H5269     1.0  0.64259  0.57517  0.96926  1.0000
  H   H5270     1.0  0.78476  0.51750  0.97327  1.0000
  H   H5271     1.0  0.84863  0.48919  0.94293  1.0000
  H   H5272     1.0  0.76438  0.54035  0.97820  1.0000
  C   C2968     1.0  0.59621  0.59242  0.97540  1.0000
  H   H5273     1.0  0.63541  0.33015  0.96664  1.0000
  H   H5274     1.0  0.52069  0.33950  0.93403  1.0000
  H   H5275     1.0  0.91235  0.46104  0.74389  1.0000
  H   H5276     1.0  0.67551  0.49788  0.98860  1.0000
  Fe  Fe332     1.0  0.71344  0.53243  0.98392  1.0000
  C   C2969     1.0  0.89142  0.49199  0.94119  1.0000
  H   H5277     1.0  0.50852  0.38140  0.93166  1.0000
  C   C2970     1.0  0.58595  0.63775  0.93081  1.0000
  H   H5278     1.0  0.99775  0.43213  0.76524  1.0000
  H   H5279     1.0  0.54177  0.37259  0.96041  1.0000
  H   H5280     1.0  0.62391  0.47459  0.98759  1.0000
  H   H5281     1.0  0.78188  0.41254  0.97210  1.0000
  H   H5282     1.0  0.89975  0.48131  0.94299  1.0000
  C   C2971     1.0  0.68738  0.37913  0.97205  1.0000
  H   H5283     1.0  0.69252  0.43844  0.96404  1.0000
  C   C2972     1.0  0.69646  0.36705  0.97971  1.0000
  H   H5284     1.0  0.67848  0.40270  0.96866  1.0000
  H   H5285     1.0  0.55381  0.36039  0.94861  1.0000
  H   H5286     1.0  0.99090  0.50713  0.77294  1.0000
  H   H5287     1.0  0.80180  0.40998  0.97051  1.0000
  H   H5288     1.0  0.69799  0.35608  0.97786  1.0000
  C   C2973     1.0  0.51322  0.34326  0.92643  1.0000
  C   C2974     1.0  0.91210  0.52215  0.75316  1.0000
  H   H5289     1.0  0.88925  0.46888  0.90396  1.0000
  H   H5290     1.0  0.51004  0.33829  0.89382  1.0000
  C   C2975     1.0  0.85949  0.49338  0.91268  1.0000
  H   H5291     1.0  0.57359  0.59540  0.97284  1.0000
  C   C2976     1.0  0.99418  0.46994  0.78556  1.0000
  C   C2977     1.0  0.77412  0.51707  0.98152  1.0000
  H   H5292     1.0  0.56614  0.63880  0.88158  1.0000
  H   H5293     1.0  0.88515  0.46973  0.93188  1.0000
  C   C2978     1.0  0.69297  0.39532  0.98445  1.0000
  H   H5294     1.0  0.64946  0.62432  0.93490  1.0000
  H   H5295     1.0  0.98122  0.46373  0.75138  1.0000
  C   C2979     1.0  0.66882  0.44166  0.97427  1.0000
  H   H5296     1.0  0.91399  0.53219  0.75454  1.0000
  C   C2980     1.0  0.85370  0.46526  0.95018  1.0000
  H   H5297     1.0  0.68758  0.34054  0.91264  1.0000
  S   S665      1.0  0.71582  0.42402  0.98327  1.0000
  C   C2981     1.0  0.69967  0.61316  0.96061  1.0000
  H   H5298     1.0  0.94766  0.50092  0.75647  1.0000
  H   H5299     1.0  0.71114  0.61453  0.95483  1.0000
  C   C2982     1.0  0.57602  0.63464  0.94620  1.0000
  H   H5300     1.0  0.86697  0.51124  0.91649  1.0000
  H   H5301     1.0  0.59719  0.63832  0.93152  1.0000
  H   H5302     1.0  0.77749  0.58285  0.95284  1.0000
  C   C2983     1.0  0.78261  0.57860  0.96270  1.0000
  C   C2984     1.0  0.58254  0.62387  0.98108  1.0000
  C   C2985     1.0  0.67963  0.33766  0.90793  1.0000
  H   H5303     1.0  0.58080  0.64857  0.92441  1.0000
  C   C2986     1.0  0.57900  0.64100  0.97819  1.0000
  C   C2987     1.0  0.90776  0.52212  0.74031  1.0000
  H   H5304     1.0  0.59495  0.62032  0.97870  1.0000
  Fe  Fe333     1.0  0.93107  0.38581  0.74024  1.0000
  H   H5305     1.0  0.76250  0.57321  0.97691  1.0000
  H   H5306     1.0  0.68781  0.60797  0.98361  1.0000
  H   H5307     1.0  0.70724  0.59830  0.98006  1.0000
  C   C2988     1.0  0.59802  0.57572  0.98115  1.0000
  H   H5308     1.0  0.61009  0.57018  0.97942  1.0000
  H   H5309     1.0  0.50455  0.63552  0.95548  1.0000
  H   H5310     1.0  0.50445  0.62183  0.92947  1.0000
  C   C2989     1.0  0.95434  0.50077  0.74507  1.0000
  C   C2990     1.0  0.71541  0.49713  0.98243  1.0000
  C   C2991     1.0  0.67065  0.44119  0.98990  1.0000
  H   H5311     1.0  0.59259  0.57112  0.97513  1.0000
  H   H5312     1.0  0.74772  0.47210  0.98565  1.0000
  H   H5313     1.0  0.65188  0.46920  0.98575  1.0000
  H   H5314     1.0  0.53226  0.63951  0.98776  1.0000
  C   C2992     1.0  0.65219  0.33848  0.91043  1.0000
  C   C2993     1.0  0.58416  0.64625  0.98921  1.0000
  C   C2994     1.0  0.99592  0.41425  0.78390  1.0000
  H   H5315     1.0  0.50750  0.63237  0.91074  1.0000
  C   C2995     1.0  0.62713  0.33096  0.90125  1.0000
  H   H5316     1.0  0.65535  0.34047  0.89812  1.0000
  S   S666      1.0  0.53737  0.65573  0.95411  1.0000
  H   H5317     1.0  0.79005  0.53385  0.98625  1.0000
  H   H5318     1.0  0.50613  0.61347  0.91416  1.0000
  H   H5319     1.0  0.63883  0.32778  0.89514  1.0000
  S   S667      1.0  0.53385  0.32485  0.90904  1.0000
  H   H5320     1.0  0.65438  0.32620  0.91414  1.0000
  S   S668      1.0  0.56678  0.94335  0.18520  1.0000
  H   H5321     1.0  0.53836  0.95265  0.13641  1.0000
  C   C2996     1.0  0.56209  0.92696  0.11651  1.0000
  Fe  Fe334     1.0  0.55967  0.90640  0.18288  1.0000
  S   S669      1.0  0.54314  0.92797  0.17842  1.0000
  S   S670      1.0  0.55577  0.88433  0.18316  1.0000
  C   C2997     1.0  0.58677  0.93449  0.21985  1.0000
  Fe  Fe335     1.0  0.56372  0.93652  0.16591  1.0000
  S   S671      1.0  0.56695  0.95017  0.14278  1.0000
  S   S672      1.0  0.58003  0.91463  0.16929  1.0000
  C   C2998     1.0  0.61367  0.92643  0.21645  1.0000
  H   H5322     1.0  0.54893  0.98149  0.11893  1.0000
  H   H5323     1.0  0.60241  0.94260  0.17221  1.0000
  C   C2999     1.0  0.50253  0.75899  0.06479  1.0000
  C   C3000     1.0  0.53131  0.76996  0.05478  1.0000
  H   H5324     1.0  0.52384  0.97823  0.13278  1.0000
  C   C3001     1.0  0.52015  0.74839  0.04436  1.0000
  C   C3002     1.0  0.54065  0.77350  0.99986  1.0000
  C   C3003     1.0  0.53535  0.94045  0.12153  1.0000
  C   C3004     1.0  0.57076  0.90031  0.12948  1.0000
  H   H5325     1.0  0.61671  0.95185  0.16005  1.0000
  C   C3005     1.0  0.52145  0.80189  0.99768  1.0000
  H   H5326     1.0  0.61341  0.98986  0.17457  1.0000
  H   H5327     1.0  0.52822  0.95680  0.18914  1.0000
  C   C3006     1.0  0.57006  0.96711  0.14292  1.0000
  C   C3007     1.0  0.56240  0.97410  0.15467  1.0000
  C   C3008     1.0  0.60138  0.97666  0.20485  1.0000
  H   H5328     1.0  0.54109  0.85903  0.19975  1.0000
  C   C3009     1.0  0.52052  0.94173  0.14750  1.0000
  C   C3010     1.0  0.58044  0.97352  0.13147  1.0000
  H   H5329     1.0  0.55436  0.96914  0.16340  1.0000
  C   C3011     1.0  0.51267  0.92673  0.21704  1.0000
  H   H5330     1.0  0.57239  0.90376  0.13896  1.0000
  H   H5331     1.0  0.58646  0.96802  0.12244  1.0000
  H   H5332     1.0  0.53503  0.98021  0.14435  1.0000
  H   H5333     1.0  0.50468  0.96115  0.21659  1.0000
  Fe  Fe336     1.0  0.52410  0.71966  0.99711  1.0000
  H   H5334     1.0  0.54891  0.85341  0.15419  1.0000
  H   H5335     1.0  0.50942  0.85818  0.21832  1.0000
  C   C3012     1.0  0.50584  0.91354  0.18176  1.0000
  C   C3013     1.0  0.60051  0.92717  0.21229  1.0000
  Fe  Fe337     1.0  0.54395  0.74073  0.99247  1.0000
  H   H5336     1.0  0.52731  0.89936  0.14333  1.0000
  C   C3014     1.0  0.61323  0.93273  0.22811  1.0000
  C   C3015     1.0  0.54895  0.88178  0.16893  1.0000
  C   C3016     1.0  0.55187  0.86740  0.16670  1.0000
  H   H5337     1.0  0.54730  0.78011  0.05837  1.0000
  C   C3017     1.0  0.53748  0.87603  0.14746  1.0000
  H   H5338     1.0  0.54560  0.96303  0.10312  1.0000
  H   H5339     1.0  0.55861  0.85838  0.17324  1.0000
  H   H5340     1.0  0.52668  0.75083  0.03277  1.0000
  H   H5341     1.0  0.61819  0.96446  0.22678  1.0000
  N   N167      1.0  0.55004  0.93916  0.11040  1.0000
  H   H5342     1.0  0.51905  0.89221  0.18949  1.0000
  H   H5343     1.0  0.51174  0.95077  0.14297  1.0000
  N   N168      1.0  0.59624  0.97966  0.19059  1.0000
  C   C3018     1.0  0.54634  0.86458  0.15593  1.0000
  H   H5344     1.0  0.53389  0.84251  0.20809  1.0000
  H   H5345     1.0  0.53765  0.89865  0.22535  1.0000
  C   C3019     1.0  0.54020  0.89340  0.16038  1.0000
  C   C3020     1.0  0.58635  0.94102  0.23155  1.0000
  C   C3021     1.0  0.53289  0.85402  0.20896  1.0000
  H   H5346     1.0  0.53331  0.71888  0.04356  1.0000
  H   H5347     1.0  0.61515  0.96473  0.17999  1.0000
  S   S673      1.0  0.53388  0.93971  0.21871  1.0000
  C   C3022     1.0  0.53078  0.77815  0.99021  1.0000
  S   S674      1.0  0.51954  0.74431  0.99336  1.0000
  H   H5348     1.0  0.62395  0.96250  0.20048  1.0000
  C   C3023     1.0  0.52872  0.98602  0.13557  1.0000
  H   H5349     1.0  0.59984  0.95319  0.15420  1.0000
  H   H5350     1.0  0.50699  0.96764  0.17678  1.0000
  H   H5351     1.0  0.50130  0.89747  0.20161  1.0000
  C   C3024     1.0  0.62239  0.97327  0.21783  1.0000
  C   C3025     1.0  0.52318  0.72335  0.03873  1.0000
  H   H5352     1.0  0.54938  0.77999  0.01494  1.0000
  C   C3026     1.0  0.58352  0.98670  0.13209  1.0000
  H   H5353     1.0  0.52699  0.95029  0.11736  1.0000
  H   H5354     1.0  0.62430  0.92073  0.21076  1.0000
  C   C3027     1.0  0.54153  0.78342  0.00772  1.0000
  H   H5355     1.0  0.55007  0.96509  0.21048  1.0000
  H   H5356     1.0  0.52805  0.95405  0.09368  1.0000
  H   H5357     1.0  0.53464  0.97379  0.18233  1.0000
  S   S675      1.0  0.56293  0.90999  0.20376  1.0000
  H   H5358     1.0  0.52076  0.94318  0.15849  1.0000
  C   C3028     1.0  0.56510  0.98749  0.15507  1.0000
  C   C3029     1.0  0.51679  0.97280  0.17278  1.0000
  H   H5359     1.0  0.57303  0.96864  0.21538  1.0000
  C   C3030     1.0  0.60447  0.95268  0.16381  1.0000
  C   C3031     1.0  0.50699  0.89741  0.18995  1.0000
  C   C3032     1.0  0.61855  0.97350  0.20333  1.0000
  Fe  Fe338     1.0  0.58129  0.92077  0.18980  1.0000
  H   H5360     1.0  0.51761  0.71419  0.04038  1.0000
  H   H5361     1.0  0.53235  0.80505  0.01309  1.0000
  Fe  Fe339     1.0  0.54819  0.93232  0.19822  1.0000
  H   H5362     1.0  0.60125  0.95591  0.19210  1.0000
  H   H5363     1.0  0.52690  0.93492  0.08141  1.0000
  H   H5364     1.0  0.52191  0.86617  0.18458  1.0000
  H   H5365     1.0  0.51096  0.91412  0.16987  1.0000
  H   H5366     1.0  0.60841  0.88984  0.21928  1.0000
  H   H5367     1.0  0.56775  0.88936  0.13364  1.0000
  S   S676      1.0  0.60194  0.91822  0.19804  1.0000
  H   H5368     1.0  0.63472  0.97095  0.21647  1.0000
  H   H5369     1.0  0.53793  0.90454  0.16205  1.0000
  H   H5370     1.0  0.52781  0.95233  0.06867  1.0000
  H   H5371     1.0  0.59778  0.96679  0.21259  1.0000
  H   H5372     1.0  0.53948  0.87907  0.22818  1.0000
  C   C3033     1.0  0.57206  0.97027  0.09086  1.0000
  C   C3034     1.0  0.57184  0.97056  0.20381  1.0000
  H   H5373     1.0  0.50450  0.97161  0.10596  1.0000
  H   H5374     1.0  0.58139  0.89907  0.12107  1.0000
  C   C3035     1.0  0.53422  0.89047  0.14981  1.0000
  Fe  Fe340     1.0  0.51277  0.88755  0.12329  1.0000
  C   C3036     1.0  0.60280  0.96622  0.18375  1.0000
  H   H5375     1.0  0.58465  0.96693  0.17329  1.0000
  C   C3037     1.0  0.55513  0.97452  0.20387  1.0000
  C   C3038     1.0  0.56945  0.95459  0.09498  1.0000
  C   C3039     1.0  0.52469  0.96898  0.18560  1.0000
  H   H5376     1.0  0.51476  0.93165  0.20534  1.0000
  C   C3040     1.0  0.53573  0.94199  0.13707  1.0000
  H   H5377     1.0  0.55337  0.97681  0.19244  1.0000
  H   H5378     1.0  0.53038  0.93086  0.12297  1.0000
  C   C3041     1.0  0.57938  0.98317  0.19395  1.0000
  H   H5379     1.0  0.54405  0.93286  0.14218  1.0000
  S   S677      1.0  0.53095  0.87156  0.13410  1.0000
  H   H5380     1.0  0.55647  0.95591  0.11671  1.0000
  H   H5381     1.0  0.51771  0.93098  0.14886  1.0000
  C   C3042     1.0  0.53181  0.79752  0.00679  1.0000
  H   H5382     1.0  0.51656  0.87439  0.20988  1.0000
  H   H5383     1.0  0.57675  0.96013  0.19985  1.0000
  C   C3043     1.0  0.59680  0.96651  0.17018  1.0000
  C   C3044     1.0  0.51161  0.98988  0.16767  1.0000
  H   H5384     1.0  0.59879  0.97624  0.16123  1.0000
  H   H5385     1.0  0.56934  0.95151  0.08471  1.0000
  C   C3045     1.0  0.55472  0.95364  0.10668  1.0000
  H   H5386     1.0  0.52991  0.79281  0.05538  1.0000
  H   H5387     1.0  0.57650  0.93496  0.21681  1.0000
  C   C3046     1.0  0.51913  0.77373  0.04560  1.0000
  H   H5388     1.0  0.56313  0.88311  0.22917  1.0000
  H   H5389     1.0  0.57521  0.98709  0.18349  1.0000
  H   H5390     1.0  0.52667  0.76716  0.06683  1.0000
  H   H5391     1.0  0.58267  0.97069  0.08251  1.0000
  H   H5392     1.0  0.57914  0.94708  0.09947  1.0000
  H   H5393     1.0  0.55638  0.90731  0.11392  1.0000
  H   H5394     1.0  0.56276  0.97830  0.08609  1.0000
  C   C3047     1.0  0.54779  0.93562  0.09690  1.0000
  H   H5395     1.0  0.54037  0.76048  0.05164  1.0000
  S   S678      1.0  0.55074  0.75496  0.00342  1.0000
  H   H5396     1.0  0.51710  0.97347  0.19512  1.0000
  C   C3048     1.0  0.59965  0.94004  0.23573  1.0000
  C   C3049     1.0  0.55820  0.91158  0.12276  1.0000
  C   C3050     1.0  0.53849  0.94847  0.08705  1.0000
  H   H5397     1.0  0.57244  0.92531  0.10777  1.0000
  H   H5398     1.0  0.51183  0.91894  0.18642  1.0000
  C   C3051     1.0  0.52055  0.92900  0.22619  1.0000
  C   C3052     1.0  0.51702  0.86324  0.20852  1.0000
  C   C3053     1.0  0.53843  0.78310  0.05193  1.0000
  H   H5399     1.0  0.54430  0.93739  0.06854  1.0000
  H   H5400     1.0  0.62359  0.98196  0.19467  1.0000
  H   H5401     1.0  0.54502  0.95695  0.08089  1.0000
  H   H5402     1.0  0.52508  0.77554  0.03390  1.0000
  H   H5403     1.0  0.51540  0.96820  0.23088  1.0000
  S   S679      1.0  0.54803  0.71588  0.99838  1.0000
  H   H5404     1.0  0.55871  0.93160  0.08967  1.0000
  H   H5405     1.0  0.54798  0.91220  0.13160  1.0000
  H   H5406     1.0  0.54211  0.92621  0.10027  1.0000
  S   S680      1.0  0.51681  0.90318  0.10134  1.0000
  H   H5407     1.0  0.50869  0.73087  0.05797  1.0000
  H   H5408     1.0  0.53569  0.85372  0.21954  1.0000
  H   H5409     1.0  0.52875  0.74371  0.05123  1.0000
  H   H5410     1.0  0.54933  0.98440  0.20871  1.0000
  H   H5411     1.0  0.57292  0.97355  0.10077  1.0000
  C   C3054     1.0  0.53417  0.94288  0.07572  1.0000
  S   S681      1.0  0.50298  0.94154  0.11141  1.0000
  H   H5412     1.0  0.59584  0.98592  0.21075  1.0000
  H   H5413     1.0  0.52447  0.96743  0.16389  1.0000
  H   H5414     1.0  0.54357  0.78622  0.04000  1.0000
  H   H5415     1.0  0.56546  0.93009  0.12525  1.0000
  H   H5416     1.0  0.61740  0.98412  0.22114  1.0000
  H   H5417     1.0  0.52663  0.72756  0.02664  1.0000
  C   C3055     1.0  0.51241  0.73569  0.04607  1.0000
  H   H5418     1.0  0.62354  0.93187  0.23129  1.0000
  H   H5419     1.0  0.50487  0.97398  0.15145  1.0000
  H   H5420     1.0  0.58021  0.89721  0.22886  1.0000
  H   H5421     1.0  0.51314  0.86024  0.16663  1.0000
  H   H5422     1.0  0.51247  0.85194  0.19442  1.0000
  C   C3056     1.0  0.53920  0.88803  0.23356  1.0000
  H   H5423     1.0  0.62035  0.88968  0.23096  1.0000
  C   C3057     1.0  0.61013  0.88642  0.23081  1.0000
  S   S682      1.0  0.50964  0.81971  0.99588  1.0000
  H   H5424     1.0  0.51349  0.77362  0.01842  1.0000
  S   S683      1.0  0.51036  0.70573  0.01506  1.0000
  C   C3058     1.0  0.51255  0.86358  0.19401  1.0000
  H   H5425     1.0  0.51089  0.75233  0.07156  1.0000
  H   H5426     1.0  0.51181  0.78475  0.04695  1.0000
  N   N169      1.0  0.50995  0.76238  0.04864  1.0000
  H   H5427     1.0  0.54028  0.96415  0.23662  1.0000
  H   H5428     1.0  0.50828  0.88833  0.17183  1.0000
  H   H5429     1.0  0.50587  0.75809  0.02044  1.0000
  H   H5430     1.0  0.61189  0.87420  0.23435  1.0000
  H   H5431     1.0  0.55390  0.90800  0.23611  1.0000
  H   H5432     1.0  0.57579  0.94662  0.23740  1.0000
  H   H5433     1.0  0.59620  0.90602  0.23796  1.0000
  H   H5434     1.0  0.53776  0.99057  0.23802  1.0000
  C   C3059     1.0  0.50167  0.91849  0.22310  1.0000
  H   H5435     1.0  0.50228  0.85742  0.14737  1.0000
  C   C3060     1.0  0.50331  0.76928  0.02283  1.0000
  C   C3061     1.0  0.55377  0.88492  0.23879  1.0000
  H   H5436     1.0  0.50262  0.69592  0.05523  1.0000
  H   H5437     1.0  0.50252  0.73953  0.04097  1.0000
  H   H5438     1.0  0.50173  0.87744  0.15872  1.0000
  H   H5439     1.0  0.50088  0.77991  0.07117  1.0000
  C   C3062     1.0  0.50033  0.88906  0.18257  1.0000
  C   C3063     1.0  0.50150  0.86639  0.16602  1.0000
  Fe  Fe341     1.0  0.93950  0.83387  0.42216  1.0000
  H   H5440     1.0  0.98054  0.77966  0.44132  1.0000
  S   S684      1.0  0.95094  0.81895  0.40599  1.0000
  S   S685      1.0  0.95107  0.84904  0.42675  1.0000
  S   S686      1.0  0.91731  0.85007  0.42234  1.0000
  S   S687      1.0  0.93517  0.75876  0.44454  1.0000
  H   H5441     1.0  0.96760  0.76533  0.43318  1.0000
  H   H5442     1.0  0.51287  0.95131  0.24283  1.0000
  C   C3064     1.0  0.93947  0.81306  0.33328  1.0000
  H   H5443     1.0  0.76800  0.96904  0.40138  1.0000
  H   H5444     1.0  0.98039  0.83773  0.44585  1.0000
  H   H5445     1.0  0.90825  0.80831  0.46053  1.0000
  H   H5446     1.0  0.97818  0.74145  0.36031  1.0000
  H   H5447     1.0  0.51088  0.96765  0.31771  1.0000
  H   H5448     1.0  0.54398  0.90011  0.25357  1.0000
  H   H5449     1.0  0.94694  0.68111  0.45224  1.0000
  H   H5450     1.0  0.87389  0.86935  0.47548  1.0000
  Fe  Fe342     1.0  0.57831  0.97329  0.29240  1.0000
  C   C3065     1.0  0.94286  0.75331  0.30532  1.0000
  S   S688      1.0  0.58724  0.96707  0.31342  1.0000
  Fe  Fe343     1.0  0.58327  0.96373  0.26292  1.0000
  H   H5451     1.0  0.76126  0.87770  0.47171  1.0000
  C   C3066     1.0  0.96876  0.71483  0.30126  1.0000
  H   H5452     1.0  0.95529  0.78211  0.42552  1.0000
  H   H5453     1.0  0.99313  0.70502  0.46234  1.0000
  C   C3067     1.0  0.98137  0.70143  0.40797  1.0000
  S   S689      1.0  0.52962  0.96734  0.28689  1.0000
  C   C3068     1.0  0.54105  0.98972  0.34076  1.0000
  S   S690      1.0  0.57119  0.95597  0.28601  1.0000
  Fe  Fe344     1.0  0.72966  0.95637  0.38560  1.0000
  S   S691      1.0  0.74552  0.95246  0.36438  1.0000
  S   S692      1.0  0.72088  0.97888  0.39097  1.0000
  Fe  Fe345     1.0  0.72909  0.92393  0.39727  1.0000
  S   S693      1.0  0.74463  0.91737  0.37668  1.0000
  S   S694      1.0  0.71987  0.90694  0.41611  1.0000
  Fe  Fe346     1.0  0.75759  0.93272  0.37849  1.0000
  S   S695      1.0  0.78248  0.92748  0.37677  1.0000
  Fe  Fe347     1.0  0.73088  0.93784  0.36466  1.0000
  S   S696      1.0  0.72405  0.93973  0.34347  1.0000
  S   S697      1.0  0.74294  0.93785  0.39986  1.0000
  S   S698      1.0  0.71420  0.94300  0.38511  1.0000
  H   H5454     1.0  0.92167  0.66678  0.30503  1.0000
  C   C3069     1.0  0.86971  0.80585  0.48664  1.0000
  C   C3070     1.0  0.60051  0.98665  0.33860  1.0000
  H   H5455     1.0  0.90011  0.84049  0.48641  1.0000
  H   H5456     1.0  0.98810  0.73663  0.39639  1.0000
  S   S699      1.0  0.94573  0.68643  0.32759  1.0000
  C   C3071     1.0  0.72908  0.91573  0.43656  1.0000
  Fe  Fe348     1.0  0.91814  0.75839  0.34972  1.0000
  S   S700      1.0  0.94201  0.74651  0.34836  1.0000
  S   S701      1.0  0.90482  0.74729  0.34191  1.0000
  Fe  Fe349     1.0  0.92261  0.78282  0.36181  1.0000
  S   S702      1.0  0.94696  0.77234  0.36108  1.0000
  S   S703      1.0  0.91227  0.80410  0.37013  1.0000
  Fe  Fe350     1.0  0.94714  0.76874  0.33897  1.0000
  S   S704      1.0  0.96441  0.77215  0.31789  1.0000
  Fe  Fe351     1.0  0.93889  0.75123  0.37048  1.0000
  S   S705      1.0  0.94437  0.73232  0.38908  1.0000
  S   S706      1.0  0.92331  0.78065  0.33884  1.0000
  S   S707      1.0  0.91455  0.76190  0.37264  1.0000
  C   C3072     1.0  0.89939  0.96495  0.38239  1.0000
  C   C3073     1.0  0.93351  0.70254  0.33275  1.0000
  C   C3074     1.0  0.92309  0.71096  0.32413  1.0000
  C   C3075     1.0  0.91385  0.72438  0.32739  1.0000
  C   C3076     1.0  0.91511  0.72954  0.33918  1.0000
  C   C3077     1.0  0.92505  0.72076  0.34821  1.0000
  C   C3078     1.0  0.93431  0.70732  0.34495  1.0000
  H   H5457     1.0  0.92231  0.70725  0.31477  1.0000
  H   H5458     1.0  0.90602  0.73099  0.32052  1.0000
  H   H5459     1.0  0.92555  0.72432  0.35777  1.0000
  H   H5460     1.0  0.94213  0.70077  0.35178  1.0000
  H   H5461     1.0  0.55167  0.90747  0.27657  1.0000
  C   C3079     1.0  0.98315  0.83652  0.45635  1.0000
  H   H5462     1.0  0.87428  0.95762  0.43593  1.0000
  C   C3080     1.0  0.94253  0.68304  0.43059  1.0000
  C   C3081     1.0  0.97428  0.69798  0.28336  1.0000
  H   H5463     1.0  0.96292  0.71744  0.42768  1.0000
  C   C3082     1.0  0.58190  0.89101  0.24014  1.0000
  S   S708      1.0  0.59215  0.97956  0.26980  1.0000
  C   C3083     1.0  0.86123  0.89762  0.46114  1.0000
  C   C3084     1.0  0.51899  0.96569  0.25259  1.0000
  C   C3085     1.0  0.99077  0.79075  0.45723  1.0000
  C   C3086     1.0  0.51770  0.92279  0.24135  1.0000
  C   C3087     1.0  0.53566  0.95887  0.24811  1.0000
  H   H5464     1.0  0.92760  0.81411  0.33923  1.0000
  C   C3088     1.0  0.95899  0.84307  0.36730  1.0000
  H   H5465     1.0  0.89894  0.67571  0.42998  1.0000
  H   H5466     1.0  0.98796  0.81978  0.31167  1.0000
  Fe  Fe352     1.0  0.55174  0.97405  0.27983  1.0000
  C   C3089     1.0  0.99655  0.82350  0.41469  1.0000
  H   H5467     1.0  0.87911  0.68565  0.47910  1.0000
  H   H5468     1.0  0.95238  0.72790  0.32716  1.0000
  H   H5469     1.0  0.97567  0.72992  0.44660  1.0000
  H   H5470     1.0  0.94178  0.75258  0.31724  1.0000
  H   H5471     1.0  0.49984  0.96401  0.29298  1.0000
  H   H5472     1.0  0.97077  0.70511  0.33005  1.0000
  C   C3090     1.0  0.88070  0.79290  0.48503  1.0000
  C   C3091     1.0  0.96968  0.71406  0.28513  1.0000
  H   H5473     1.0  0.59884  0.95828  0.48696  1.0000
  C   C3092     1.0  0.56785  0.90985  0.25506  1.0000
  C   C3093     1.0  0.92233  0.68644  0.41125  1.0000
  Fe  Fe353     1.0  0.92227  0.74753  0.46537  1.0000
  C   C3094     1.0  0.91140  0.93294  0.37821  1.0000
  C   C3095     1.0  0.93849  0.79447  0.48212  1.0000
  C   C3096     1.0  0.59779  0.97611  0.33257  1.0000
  H   H5474     1.0  0.95865  0.71887  0.28203  1.0000
  C   C3097     1.0  0.78683  0.98008  0.35876  1.0000
  H   H5475     1.0  0.56851  0.87239  0.26226  1.0000
  H   H5476     1.0  0.96910  0.83581  0.34102  1.0000
  H   H5477     1.0  0.60044  0.96450  0.33777  1.0000
  H   H5478     1.0  0.91457  0.68306  0.40664  1.0000
  H   H5479     1.0  0.63643  0.97268  0.28311  1.0000
  H   H5480     1.0  0.95293  0.85095  0.35891  1.0000
  C   C3098     1.0  0.68662  0.97300  0.34727  1.0000
  C   C3099     1.0  0.69877  0.96138  0.35070  1.0000
  C   C3100     1.0  0.70901  0.95466  0.33955  1.0000
  C   C3101     1.0  0.70714  0.95976  0.32494  1.0000
  C   C3102     1.0  0.69524  0.97157  0.32146  1.0000
  N   N170      1.0  0.56803  0.89539  0.25167  1.0000
  H   H5481     1.0  0.69998  0.95745  0.36200  1.0000
  H   H5482     1.0  0.71500  0.95462  0.31630  1.0000
  H   H5483     1.0  0.52382  0.92456  0.24842  1.0000
  C   C3103     1.0  0.93597  0.75175  0.42938  1.0000
  C   C3104     1.0  0.93936  0.76035  0.41520  1.0000
  C   C3105     1.0  0.94151  0.75446  0.40282  1.0000
  C   C3106     1.0  0.94044  0.73993  0.40460  1.0000
  C   C3107     1.0  0.93663  0.73144  0.41875  1.0000
  C   C3108     1.0  0.93411  0.73743  0.43122  1.0000
  H   H5484     1.0  0.94048  0.77152  0.41379  1.0000
  H   H5485     1.0  0.94454  0.76099  0.39192  1.0000
  H   H5486     1.0  0.93607  0.72018  0.41999  1.0000
  H   H5487     1.0  0.93150  0.73075  0.44220  1.0000
  H   H5488     1.0  0.92432  0.83648  0.39476  1.0000
  C   C3109     1.0  0.72364  0.90508  0.43352  1.0000
  H   H5489     1.0  0.94351  0.80218  0.32996  1.0000
  H   H5490     1.0  0.73159  0.92499  0.42802  1.0000
  H   H5491     1.0  0.63641  0.94591  0.28727  1.0000
  H   H5492     1.0  0.94157  0.73085  0.30677  1.0000
  H   H5493     1.0  0.52453  0.96246  0.38034  1.0000
  H   H5494     1.0  0.94738  0.68788  0.41904  1.0000
  H   H5495     1.0  0.87813  0.86452  0.42540  1.0000
  S   S709      1.0  0.98539  0.66429  0.33001  1.0000
  C   C3110     1.0  0.79053  0.95669  0.40245  1.0000
  C   C3111     1.0  0.80229  0.94540  0.39758  1.0000
  C   C3112     1.0  0.80017  0.93698  0.38878  1.0000
  C   C3113     1.0  0.78624  0.93972  0.38512  1.0000
  C   C3114     1.0  0.77491  0.95165  0.38921  1.0000
  C   C3115     1.0  0.77702  0.96010  0.39789  1.0000
  H   H5496     1.0  0.81286  0.94294  0.40086  1.0000
  H   H5497     1.0  0.80911  0.92800  0.38530  1.0000
  H   H5498     1.0  0.76444  0.95441  0.38571  1.0000
  H   H5499     1.0  0.61845  0.94902  0.30002  1.0000
  C   C3116     1.0  0.93928  0.81493  0.39695  1.0000
  C   C3117     1.0  0.94277  0.80090  0.39371  1.0000
  C   C3118     1.0  0.93420  0.79746  0.38593  1.0000
  C   C3119     1.0  0.92243  0.80818  0.38075  1.0000
  C   C3120     1.0  0.91874  0.82224  0.38413  1.0000
  C   C3121     1.0  0.92705  0.82557  0.39239  1.0000
  H   H5500     1.0  0.95185  0.79250  0.39764  1.0000
  H   H5501     1.0  0.93661  0.78644  0.38413  1.0000
  H   H5502     1.0  0.90959  0.83063  0.38023  1.0000
  H   H5503     1.0  0.96551  0.73921  0.32260  1.0000
  H   H5504     1.0  0.87189  0.88604  0.43661  1.0000
  N   N171      1.0  0.91505  0.68878  0.42678  1.0000
  H   H5505     1.0  0.99053  0.77954  0.29739  1.0000
  C   C3122     1.0  0.90270  0.70268  0.42566  1.0000
  C   C3123     1.0  0.92572  0.69051  0.43501  1.0000
  C   C3124     1.0  0.92707  0.70006  0.39987  1.0000
  C   C3125     1.0  0.89263  0.70611  0.44054  1.0000
  C   C3126     1.0  0.95147  0.68543  0.44040  1.0000
  C   C3127     1.0  0.93642  0.69591  0.38532  1.0000
  C   C3128     1.0  0.88319  0.72197  0.43855  1.0000
  H   H5506     1.0  0.89528  0.70227  0.41866  1.0000
  H   H5507     1.0  0.90756  0.71253  0.42007  1.0000
  H   H5508     1.0  0.92523  0.70236  0.43403  1.0000
  H   H5509     1.0  0.92207  0.68638  0.44712  1.0000
  H   H5510     1.0  0.91708  0.70867  0.39713  1.0000
  H   H5511     1.0  0.93356  0.70508  0.40431  1.0000
  H   H5512     1.0  0.89953  0.70480  0.44856  1.0000
  H   H5513     1.0  0.88484  0.69855  0.44530  1.0000
  H   H5514     1.0  0.95094  0.69739  0.43885  1.0000
  H   H5515     1.0  0.84792  0.76762  0.46046  1.0000
  S   S710      1.0  0.97469  0.67871  0.47772  1.0000
  H   H5516     1.0  0.89250  0.65937  0.48002  1.0000
  H   H5517     1.0  0.89053  0.72997  0.43496  1.0000
  H   H5518     1.0  0.87629  0.72402  0.43027  1.0000
  H   H5519     1.0  0.87565  0.72380  0.44928  1.0000
  H   H5520     1.0  0.86297  0.76074  0.47976  1.0000
  N   N172      1.0  0.69070  0.95153  0.44129  1.0000
  C   C3129     1.0  0.68089  0.95091  0.43160  1.0000
  C   C3130     1.0  0.68346  0.96404  0.44947  1.0000
  C   C3131     1.0  0.70535  0.95453  0.43136  1.0000
  C   C3132     1.0  0.69428  0.93691  0.45187  1.0000
  C   C3133     1.0  0.68104  0.93190  0.46367  1.0000
  C   C3134     1.0  0.68693  0.93854  0.42256  1.0000
  C   C3135     1.0  0.71537  0.95957  0.43851  1.0000
  C   C3136     1.0  0.66613  0.96782  0.45430  1.0000
  H   H5521     1.0  0.83172  0.90377  0.47707  1.0000
  C   C3137     1.0  0.68589  0.91598  0.47199  1.0000
  C   C3138     1.0  0.67718  0.94048  0.41161  1.0000
  C   C3139     1.0  0.73104  0.95939  0.42892  1.0000
  H   H5522     1.0  0.67871  0.96170  0.42369  1.0000
  H   H5523     1.0  0.66972  0.94934  0.43815  1.0000
  H   H5524     1.0  0.68831  0.96201  0.45938  1.0000
  H   H5525     1.0  0.68606  0.97463  0.44244  1.0000
  H   H5526     1.0  0.70339  0.96317  0.42129  1.0000
  H   H5527     1.0  0.71221  0.94458  0.42709  1.0000
  H   H5528     1.0  0.70000  0.92795  0.44569  1.0000
  H   H5529     1.0  0.70250  0.93700  0.45804  1.0000
  H   H5530     1.0  0.67173  0.93230  0.45864  1.0000
  H   H5531     1.0  0.67698  0.93902  0.47196  1.0000
  H   H5532     1.0  0.69845  0.93856  0.41611  1.0000
  H   H5533     1.0  0.68690  0.92748  0.43001  1.0000
  H   H5534     1.0  0.71663  0.95252  0.44950  1.0000
  H   H5535     1.0  0.71041  0.97112  0.43988  1.0000
  H   H5536     1.0  0.66107  0.97271  0.44442  1.0000
  H   H5537     1.0  0.66161  0.95801  0.46050  1.0000
  H   H5538     1.0  0.96692  0.76936  0.41397  1.0000
  H   H5539     1.0  0.68590  0.97844  0.48610  1.0000
  C   C3140     1.0  0.66279  0.97862  0.28493  1.0000
  N   N173      1.0  0.97652  0.81198  0.34417  1.0000
  C   C3141     1.0  0.97762  0.68120  0.39797  1.0000
  C   C3142     1.0  0.79267  0.94119  0.47815  1.0000
  H   H5540     1.0  0.66547  0.94017  0.41750  1.0000
  H   H5541     1.0  0.67730  0.95115  0.40347  1.0000
  H   H5542     1.0  0.68164  0.93136  0.40546  1.0000
  H   H5543     1.0  0.73733  0.96400  0.43404  1.0000
  H   H5544     1.0  0.73715  0.94793  0.42804  1.0000
  H   H5545     1.0  0.73053  0.96632  0.41773  1.0000
  N   N174      1.0  0.64341  0.97418  0.30980  1.0000
  H   H5546     1.0  0.99574  0.72218  0.37489  1.0000
  C   C3143     1.0  0.63708  0.96280  0.30677  1.0000
  C   C3144     1.0  0.64282  0.97082  0.32623  1.0000
  C   C3145     1.0  0.98293  0.72757  0.39649  1.0000
  H   H5547     1.0  0.98162  0.80463  0.47341  1.0000
  H   H5548     1.0  0.93267  0.67643  0.30905  1.0000
  C   C3146     1.0  0.65094  0.95497  0.33293  1.0000
  C   C3147     1.0  0.62946  0.96751  0.29331  1.0000
  C   C3148     1.0  0.62596  0.95424  0.29020  1.0000
  H   H5549     1.0  0.79551  0.98289  0.34878  1.0000
  H   H5550     1.0  0.91967  0.69654  0.28881  1.0000
  C   C3149     1.0  0.64980  0.95305  0.34949  1.0000
  C   C3150     1.0  0.94975  0.73794  0.30109  1.0000
  H   H5551     1.0  0.84705  0.88285  0.48814  1.0000
  H   H5552     1.0  0.64588  0.95249  0.30561  1.0000
  H   H5553     1.0  0.62818  0.95941  0.31639  1.0000
  H   H5554     1.0  0.63098  0.97273  0.33247  1.0000
  H   H5555     1.0  0.91380  0.68325  0.28272  1.0000
  H   H5556     1.0  0.61867  0.97565  0.29566  1.0000
  H   H5557     1.0  0.66606  0.96148  0.30397  1.0000
  C   C3151     1.0  0.98807  0.69107  0.39674  1.0000
  S   S711      1.0  0.91889  0.75607  0.48569  1.0000
  C   C3152     1.0  0.91387  0.66324  0.47923  1.0000
  H   H5558     1.0  0.58170  0.86790  0.29713  1.0000
  H   H5559     1.0  0.66304  0.95272  0.32774  1.0000
  H   H5560     1.0  0.64601  0.94646  0.33146  1.0000
  H   H5561     1.0  0.98997  0.83267  0.32123  1.0000
  H   H5562     1.0  0.97080  0.73140  0.40081  1.0000
  H   H5563     1.0  0.62019  0.95797  0.28079  1.0000
  Fe  Fe354     1.0  0.96226  0.67333  0.34187  1.0000
  C   C3153     1.0  0.86356  0.86507  0.47903  1.0000
  Fe  Fe355     1.0  0.96946  0.65804  0.37189  1.0000
  H   H5564     1.0  0.96537  0.82258  0.32584  1.0000
  S   S712      1.0  0.70574  0.93831  0.48685  1.0000
  H   H5565     1.0  0.97462  0.69759  0.27183  1.0000
  H   H5566     1.0  0.63791  0.95525  0.35544  1.0000
  H   H5567     1.0  0.65533  0.94153  0.35409  1.0000
  H   H5568     1.0  0.65555  0.96068  0.35143  1.0000
  N   N175      1.0  0.88389  0.79856  0.42089  1.0000
  C   C3154     1.0  0.88585  0.78214  0.42251  1.0000
  C   C3155     1.0  0.87047  0.80404  0.43230  1.0000
  C   C3156     1.0  0.88042  0.80614  0.40582  1.0000
  C   C3157     1.0  0.89773  0.80256  0.42191  1.0000
  C   C3158     1.0  0.90715  0.79163  0.43288  1.0000
  C   C3159     1.0  0.89752  0.77517  0.41004  1.0000
  C   C3160     1.0  0.87638  0.82334  0.40243  1.0000
  C   C3161     1.0  0.57329  0.87014  0.29028  1.0000
  H   H5569     1.0  0.86198  0.85818  0.43724  1.0000
  C   C3162     1.0  0.92007  0.79778  0.43330  1.0000
  C   C3163     1.0  0.90072  0.75828  0.41438  1.0000
  C   C3164     1.0  0.87465  0.82966  0.38643  1.0000
  H   H5570     1.0  0.87499  0.77962  0.42304  1.0000
  H   H5571     1.0  0.88908  0.77587  0.43310  1.0000
  H   H5572     1.0  0.98100  0.78557  0.46137  1.0000
  H   H5573     1.0  0.86014  0.80273  0.42995  1.0000
  H   H5574     1.0  0.87108  0.80239  0.40414  1.0000
  H   H5575     1.0  0.89020  0.80295  0.39695  1.0000
  H   H5576     1.0  0.90562  0.80370  0.41095  1.0000
  H   H5577     1.0  0.89473  0.81366  0.42475  1.0000
  H   H5578     1.0  0.91211  0.78089  0.42944  1.0000
  H   H5579     1.0  0.95681  0.72814  0.44968  1.0000
  H   H5580     1.0  0.89319  0.77852  0.39971  1.0000
  H   H5581     1.0  0.90821  0.77872  0.40752  1.0000
  H   H5582     1.0  0.88519  0.82773  0.40420  1.0000
  H   H5583     1.0  0.86553  0.82760  0.40953  1.0000
  H   H5584     1.0  0.87410  0.78472  0.45103  1.0000
  H   H5585     1.0  0.56401  0.99017  0.33970  1.0000
  H   H5586     1.0  0.52498  0.95118  0.35132  1.0000
  C   C3165     1.0  0.85060  0.88254  0.45133  1.0000
  H   H5587     1.0  0.57870  0.89065  0.27790  1.0000
  H   H5588     1.0  0.91623  0.80955  0.43421  1.0000
  H   H5589     1.0  0.86850  0.74183  0.47748  1.0000
  H   H5590     1.0  0.89037  0.75436  0.41616  1.0000
  H   H5591     1.0  0.90915  0.75348  0.40542  1.0000
  H   H5592     1.0  0.90523  0.75423  0.42462  1.0000
  H   H5593     1.0  0.88529  0.82629  0.37860  1.0000
  H   H5594     1.0  0.86573  0.82577  0.38421  1.0000
  H   H5595     1.0  0.87159  0.84194  0.38438  1.0000
  C   C3166     1.0  0.88123  0.91476  0.42414  1.0000
  H   H5596     1.0  0.96562  0.79997  0.36511  1.0000
  H   H5597     1.0  0.99076  0.70656  0.42951  1.0000
  H   H5598     1.0  0.84675  0.79719  0.45525  1.0000
  H   H5599     1.0  0.85157  0.81306  0.45793  1.0000
  C   C3167     1.0  0.97891  0.78263  0.41915  1.0000
  H   H5600     1.0  0.86131  0.96988  0.38909  1.0000
  H   H5601     1.0  0.82084  0.89322  0.45510  1.0000
  H   H5602     1.0  0.91623  0.94186  0.37003  1.0000
  H   H5603     1.0  0.94000  0.82203  0.32320  1.0000
  H   H5604     1.0  0.97622  0.76492  0.34417  1.0000
  H   H5605     1.0  0.98553  0.77200  0.37619  1.0000
  H   H5606     1.0  0.79461  0.94386  0.46621  1.0000
  C   C3168     1.0  0.51421  0.96306  0.37674  1.0000
  H   H5607     1.0  0.54625  0.93402  0.27836  1.0000
  H   H5608     1.0  0.83450  0.91045  0.45765  1.0000
  C   C3169     1.0  0.73284  0.98265  0.48124  1.0000
  C   C3170     1.0  0.85511  0.80092  0.45860  1.0000
  C   C3171     1.0  0.97899  0.78932  0.43199  1.0000
  H   H5609     1.0  0.84451  0.87345  0.45483  1.0000
  C   C3172     1.0  0.89569  0.90815  0.42673  1.0000
  H   H5610     1.0  0.50456  0.96951  0.38359  1.0000
  H   H5611     1.0  0.87821  0.80138  0.45244  1.0000
  H   H5612     1.0  0.97734  0.81070  0.44606  1.0000
  H   H5613     1.0  0.57794  0.90913  0.25908  1.0000
  H   H5614     1.0  0.92767  0.76143  0.29003  1.0000
  H   H5615     1.0  0.53755  0.94681  0.24883  1.0000
  H   H5616     1.0  0.73413  0.98241  0.35949  1.0000
  N   N176      1.0  0.78393  0.90523  0.42607  1.0000
  C   C3173     1.0  0.77162  0.90490  0.41915  1.0000
  C   C3174     1.0  0.78169  0.92070  0.42828  1.0000
  C   C3175     1.0  0.79856  0.90193  0.41509  1.0000
  C   C3176     1.0  0.78480  0.89399  0.44046  1.0000
  C   C3177     1.0  0.76993  0.88996  0.45004  1.0000
  C   C3178     1.0  0.77393  0.89066  0.41339  1.0000
  C   C3179     1.0  0.81253  0.90401  0.41893  1.0000
  C   C3180     1.0  0.76724  0.92660  0.43899  1.0000
  C   C3181     1.0  0.76623  0.94256  0.43943  1.0000
  C   C3182     1.0  0.96291  0.82734  0.36465  1.0000
  C   C3183     1.0  0.75926  0.88871  0.41156  1.0000
  C   C3184     1.0  0.82700  0.89727  0.40908  1.0000
  H   H5617     1.0  0.77040  0.91438  0.40951  1.0000
  H   H5618     1.0  0.76057  0.90662  0.42684  1.0000
  H   H5619     1.0  0.79092  0.92157  0.43274  1.0000
  H   H5620     1.0  0.78195  0.92865  0.41743  1.0000
  H   H5621     1.0  0.79761  0.90893  0.40392  1.0000
  H   H5622     1.0  0.80116  0.89032  0.41369  1.0000
  H   H5623     1.0  0.79247  0.88329  0.43842  1.0000
  H   H5624     1.0  0.78993  0.89778  0.44747  1.0000
  H   H5625     1.0  0.76606  0.88323  0.44476  1.0000
  H   H5626     1.0  0.76084  0.89983  0.45155  1.0000
  H   H5627     1.0  0.78172  0.89141  0.40238  1.0000
  H   H5628     1.0  0.77882  0.88061  0.42096  1.0000
  H   H5629     1.0  0.81309  0.89879  0.43063  1.0000
  H   H5630     1.0  0.81221  0.91597  0.41707  1.0000
  H   H5631     1.0  0.75718  0.92643  0.43548  1.0000
  H   H5632     1.0  0.76726  0.92006  0.45043  1.0000
  H   H5633     1.0  0.75611  0.94650  0.44757  1.0000
  H   H5634     1.0  0.77621  0.94333  0.44274  1.0000
  H   H5635     1.0  0.76544  0.94992  0.42845  1.0000
  H   H5636     1.0  0.85543  0.79531  0.47027  1.0000
  C   C3185     1.0  0.98695  0.71684  0.42153  1.0000
  H   H5637     1.0  0.98268  0.67390  0.38986  1.0000
  H   H5638     1.0  0.76145  0.87923  0.40621  1.0000
  H   H5639     1.0  0.75162  0.88649  0.42251  1.0000
  H   H5640     1.0  0.75371  0.89882  0.40453  1.0000
  H   H5641     1.0  0.82698  0.90244  0.39725  1.0000
  H   H5642     1.0  0.83671  0.89932  0.41184  1.0000
  H   H5643     1.0  0.82836  0.88513  0.41080  1.0000
  H   H5644     1.0  0.54407  0.92028  0.26151  1.0000
  H   H5645     1.0  0.66496  0.97917  0.30660  1.0000
  H   H5646     1.0  0.55433  0.87444  0.24720  1.0000
  H   H5647     1.0  0.94744  0.80537  0.35341  1.0000
  S   S713      1.0  0.96998  0.68087  0.35804  1.0000
  H   H5648     1.0  0.64790  0.97848  0.32900  1.0000
  H   H5649     1.0  0.50512  0.96374  0.33737  1.0000
  C   C3186     1.0  0.67938  0.97863  0.27888  1.0000
  H   H5650     1.0  0.97144  0.71168  0.45137  1.0000
  H   H5651     1.0  0.54731  0.92592  0.32822  1.0000
  C   C3187     1.0  0.99281  0.77633  0.30839  1.0000
  C   C3188     1.0  0.50697  0.91422  0.24736  1.0000
  H   H5652     1.0  0.99178  0.83033  0.42322  1.0000
  S   S714      1.0  0.71677  0.97626  0.46520  1.0000
  H   H5653     1.0  0.85969  0.87538  0.42346  1.0000
  N   N177      1.0  0.99052  0.79828  0.42919  1.0000
  H   H5654     1.0  0.85373  0.74867  0.45792  1.0000
  H   H5655     1.0  0.95235  0.82418  0.36573  1.0000
  Fe  Fe356     1.0  0.99313  0.67033  0.34722  1.0000
  C   C3189     1.0  0.94886  0.81420  0.34335  1.0000
  C   C3190     1.0  0.55356  0.94594  0.32843  1.0000
  H   H5656     1.0  0.97583  0.72784  0.34421  1.0000
  H   H5657     1.0  0.96834  0.81990  0.37368  1.0000
  H   H5658     1.0  0.56717  0.92487  0.32358  1.0000
  C   C3191     1.0  0.85718  0.96270  0.37159  1.0000
  H   H5659     1.0  0.98945  0.77436  0.41677  1.0000
  C   C3192     1.0  0.51534  0.97064  0.36042  1.0000
  H   H5660     1.0  0.99626  0.77904  0.38436  1.0000
  H   H5661     1.0  0.84005  0.74255  0.48336  1.0000
  C   C3193     1.0  0.87347  0.91408  0.46825  1.0000
  C   C3194     1.0  0.92423  0.91960  0.38136  1.0000
  C   C3195     1.0  0.86668  0.87664  0.44279  1.0000
  H   H5662     1.0  0.99386  0.78744  0.47945  1.0000
  C   C3196     1.0  0.66089  0.97924  0.46405  1.0000
  H   H5663     1.0  0.96284  0.65996  0.28939  1.0000
  H   H5664     1.0  0.87256  0.89034  0.45895  1.0000
  H   H5665     1.0  0.98470  0.83966  0.39858  1.0000
  N   N178      1.0  0.89110  0.95292  0.39086  1.0000
  C   C3197     1.0  0.88269  0.95517  0.40615  1.0000
  C   C3198     1.0  0.88027  0.95180  0.38253  1.0000
  C   C3199     1.0  0.90226  0.93817  0.39266  1.0000
  C   C3200     1.0  0.98716  0.81189  0.41732  1.0000
  H   H5666     1.0  0.69521  0.91492  0.47735  1.0000
  C   C3201     1.0  0.89266  0.95385  0.41705  1.0000
  C   C3202     1.0  0.68493  0.97813  0.33262  1.0000
  H   H5667     1.0  0.98555  0.69261  0.28580  1.0000
  C   C3203     1.0  0.98471  0.76814  0.33478  1.0000
  H   H5668     1.0  0.55587  0.93531  0.31027  1.0000
  C   C3204     1.0  0.88426  0.96199  0.42956  1.0000
  C   C3205     1.0  0.93323  0.66840  0.30234  1.0000
  H   H5669     1.0  0.87564  0.94691  0.41139  1.0000
  H   H5670     1.0  0.87449  0.96598  0.40571  1.0000
  C   C3206     1.0  0.54497  0.97713  0.33224  1.0000
  H   H5671     1.0  0.87474  0.94246  0.38871  1.0000
  H   H5672     1.0  0.89648  0.92928  0.39947  1.0000
  H   H5673     1.0  0.91057  0.93828  0.39877  1.0000
  C   C3207     1.0  0.97944  0.74234  0.37113  1.0000
  H   H5674     1.0  0.56014  0.93737  0.26161  1.0000
  S   S715      1.0  0.60033  0.94718  0.25056  1.0000
  H   H5675     1.0  0.53061  0.95092  0.32642  1.0000
  H   H5676     1.0  0.89655  0.94198  0.42210  1.0000
  H   H5677     1.0  0.90272  0.95835  0.41130  1.0000
  H   H5678     1.0  0.87153  0.92290  0.45832  1.0000
  H   H5679     1.0  0.97960  0.70824  0.30406  1.0000
  S   S716      1.0  0.63071  0.98485  0.40079  1.0000
  H   H5680     1.0  0.54174  0.96062  0.25560  1.0000
  C   C3208     1.0  0.53906  0.95736  0.32511  1.0000
  H   H5681     1.0  0.55529  0.88503  0.27225  1.0000
  H   H5682     1.0  0.92487  0.65793  0.42626  1.0000
  H   H5683     1.0  0.89169  0.96043  0.43723  1.0000
  H   H5684     1.0  0.96334  0.67952  0.43754  1.0000
  H   H5685     1.0  0.92971  0.69203  0.37997  1.0000
  C   C3209     1.0  0.92163  0.67385  0.47847  1.0000
  C   C3210     1.0  0.99767  0.83685  0.45700  1.0000
  C   C3211     1.0  0.98938  0.79390  0.36482  1.0000
  C   C3212     1.0  0.85685  0.75731  0.46137  1.0000
  H   H5686     1.0  0.66014  0.97107  0.27964  1.0000
  H   H5687     1.0  0.55323  0.94228  0.34047  1.0000
  C   C3213     1.0  0.96864  0.72325  0.44507  1.0000
  C   C3214     1.0  0.96543  0.81282  0.33520  1.0000
  C   C3215     1.0  0.82034  0.89471  0.46629  1.0000
  H   H5688     1.0  0.56337  0.95095  0.32313  1.0000
  C   C3216     1.0  0.99863  0.76836  0.33684  1.0000
  H   H5689     1.0  0.95961  0.77788  0.47817  1.0000
  H   H5690     1.0  0.93040  0.91585  0.37094  1.0000
  Fe  Fe357     1.0  0.89485  0.75657  0.48827  1.0000
  C   C3217     1.0  0.77190  0.88093  0.46540  1.0000
  H   H5691     1.0  0.96678  0.68807  0.39545  1.0000
  H   H5692     1.0  0.58135  0.97358  0.46359  1.0000
  H   H5693     1.0  0.93219  0.92253  0.38603  1.0000
  C   C3218     1.0  0.91403  0.68871  0.47797  1.0000
  H   H5694     1.0  0.92630  0.69416  0.26995  1.0000
  H   H5695     1.0  0.57261  0.85941  0.28859  1.0000
  N   N179      1.0  0.96496  0.73008  0.30454  1.0000
  C   C3219     1.0  0.84486  0.74875  0.48843  1.0000
  H   H5696     1.0  0.96758  0.79626  0.43520  1.0000
  H   H5697     1.0  0.93232  0.67709  0.41118  1.0000
  H   H5698     1.0  0.51655  0.98201  0.35917  1.0000
  H   H5699     1.0  0.79607  0.90175  0.47035  1.0000
  C   C3220     1.0  0.73684  0.99036  0.36375  1.0000
  H   H5700     1.0  0.53828  0.95798  0.35565  1.0000
  C   C3221     1.0  0.99188  0.80969  0.33414  1.0000
  H   H5701     1.0  0.97633  0.78880  0.35255  1.0000
  H   H5702     1.0  0.90421  0.92932  0.37318  1.0000
  H   H5703     1.0  0.97518  0.81773  0.42007  1.0000
  H   H5704     1.0  0.85199  0.95349  0.37873  1.0000
  C   C3222     1.0  0.98421  0.72687  0.38031  1.0000
  H   H5705     1.0  0.51249  0.95171  0.37867  1.0000
  C   C3223     1.0  0.84932  0.87760  0.47853  1.0000
  H   H5706     1.0  0.78351  0.97254  0.47074  1.0000
  C   C3224     1.0  0.90786  0.67600  0.43527  1.0000
  H   H5707     1.0  0.94014  0.70576  0.37771  1.0000
  C   C3225     1.0  0.51261  0.98066  0.28708  1.0000
  H   H5708     1.0  0.96030  0.70861  0.30854  1.0000
  H   H5709     1.0  0.80560  0.91668  0.46265  1.0000
  C   C3226     1.0  0.85932  0.75192  0.47720  1.0000
  H   H5710     1.0  0.51794  0.97759  0.25165  1.0000
  H   H5711     1.0  0.96734  0.73541  0.42312  1.0000
  C   C3227     1.0  0.92327  0.68831  0.28163  1.0000
  C   C3228     1.0  0.97346  0.71712  0.34454  1.0000
  H   H5712     1.0  0.97512  0.74190  0.28331  1.0000
  C   C3229     1.0  0.72822  0.90220  0.46191  1.0000
  H   H5713     1.0  0.96856  0.74834  0.37678  1.0000
  Fe  Fe358     1.0  0.72730  0.92112  0.48709  1.0000
  S   S717      1.0  0.83507  0.95944  0.40837  1.0000
  C   C3230     1.0  0.96385  0.72888  0.32082  1.0000
  C   C3231     1.0  0.99258  0.73259  0.29593  1.0000
  H   H5714     1.0  0.89989  0.91198  0.43405  1.0000
  H   H5715     1.0  0.94646  0.68705  0.38720  1.0000
  C   C3232     1.0  0.55609  0.93218  0.32222  1.0000
  Fe  Fe359     1.0  0.83840  0.96809  0.42633  1.0000
  S   S718      1.0  0.92319  0.88919  0.42220  1.0000
  H   H5716     1.0  0.87435  0.92358  0.42953  1.0000
  Fe  Fe360     1.0  0.92814  0.86434  0.42909  1.0000
  C   C3233     1.0  0.97356  0.82622  0.34938  1.0000
  C   C3234     1.0  0.98180  0.77214  0.32059  1.0000
  C   C3235     1.0  0.88629  0.82050  0.46894  1.0000
  C   C3236     1.0  0.90474  0.89660  0.41984  1.0000
  H   H5717     1.0  0.97643  0.78631  0.38662  1.0000
  H   H5718     1.0  0.62202  0.98969  0.31173  1.0000
  H   H5719     1.0  0.99112  0.80354  0.36781  1.0000
  C   C3237     1.0  0.63073  0.98630  0.42886  1.0000
  S   S719      1.0  0.63329  0.98952  0.35812  1.0000
  H   H5720     1.0  0.97318  0.75011  0.29828  1.0000
  S   S720      1.0  0.79221  0.96637  0.41464  1.0000
  S   S721      1.0  0.55771  0.99070  0.28821  1.0000
  H   H5721     1.0  0.97732  0.79128  0.40909  1.0000
  Fe  Fe361     1.0  0.81304  0.95725  0.42331  1.0000
  H   H5722     1.0  0.91227  0.98935  0.37453  1.0000
  H   H5723     1.0  0.67634  0.91275  0.48073  1.0000
  Fe  Fe362     1.0  0.82587  0.94449  0.45062  1.0000
  C   C3238     1.0  0.91850  0.66047  0.43711  1.0000
  H   H5724     1.0  0.80443  0.90748  0.48189  1.0000
  H   H5725     1.0  0.83144  0.97470  0.47147  1.0000
  C   C3239     1.0  0.55670  0.92880  0.27134  1.0000
  H   H5726     1.0  0.94244  0.65817  0.32818  1.0000
  C   C3240     1.0  0.58759  0.98241  0.46104  1.0000
  H   H5727     1.0  0.84524  0.89104  0.44269  1.0000
  H   H5728     1.0  0.55510  0.96936  0.33576  1.0000
  S   S722      1.0  0.81556  0.96754  0.44043  1.0000
  H   H5729     1.0  0.90049  0.78934  0.44424  1.0000
  C   C3241     1.0  0.87598  0.91016  0.41427  1.0000
  H   H5730     1.0  0.92506  0.79131  0.44289  1.0000
  C   C3242     1.0  0.97623  0.79855  0.35670  1.0000
  H   H5731     1.0  0.94420  0.82517  0.34637  1.0000
  H   H5732     1.0  0.79153  0.96940  0.36567  1.0000
  C   C3243     1.0  0.92724  0.75976  0.30202  1.0000
  Fe  Fe363     1.0  0.84360  0.93691  0.42144  1.0000
  C   C3244     1.0  0.89927  0.89165  0.41041  1.0000
  S   S723      1.0  0.93360  0.82245  0.44591  1.0000
  H   H5733     1.0  0.92890  0.79682  0.42318  1.0000
  H   H5734     1.0  0.90106  0.96585  0.37027  1.0000
  C   C3245     1.0  0.94759  0.77930  0.47853  1.0000
  S   S724      1.0  0.89798  0.74988  0.46694  1.0000
  S   S725      1.0  0.92135  0.85541  0.45334  1.0000
  H   H5735     1.0  0.94433  0.67099  0.43154  1.0000
  H   H5736     1.0  0.96941  0.70640  0.40738  1.0000
  C   C3246     1.0  0.86651  0.86817  0.43154  1.0000
  H   H5737     1.0  0.87413  0.86933  0.45011  1.0000
  S   S726      1.0  0.82100  0.93392  0.43490  1.0000
  C   C3247     1.0  0.51023  0.96332  0.24240  1.0000
  H   H5738     1.0  0.91985  0.91026  0.38931  1.0000
  Fe  Fe364     1.0  0.94328  0.83891  0.45060  1.0000
  H   H5739     1.0  0.67863  0.97798  0.35595  1.0000
  C   C3248     1.0  0.88501  0.89855  0.40748  1.0000
  H   H5740     1.0  0.90626  0.88280  0.40499  1.0000
  H   H5741     1.0  0.71667  0.88447  0.44237  1.0000
  C   C3249     1.0  0.80473  0.93738  0.48516  1.0000
  S   S727      1.0  0.85834  0.91873  0.41002  1.0000
  C   C3250     1.0  0.72080  0.89281  0.44466  1.0000
  C   C3251     1.0  0.59142  0.98054  0.32004  1.0000
  H   H5742     1.0  0.56227  0.87545  0.29642  1.0000
  C   C3252     1.0  0.57797  0.88033  0.27544  1.0000
  H   H5743     1.0  0.78026  0.96336  0.44986  1.0000
  C   C3253     1.0  0.73088  0.91458  0.45088  1.0000
  H   H5744     1.0  0.94978  0.76138  0.29891  1.0000
  C   C3254     1.0  0.80576  0.90586  0.47054  1.0000
  H   H5745     1.0  0.91962  0.75233  0.30841  1.0000
  H   H5746     1.0  0.92632  0.65971  0.44411  1.0000
  S   S728      1.0  0.74209  0.93736  0.47884  1.0000
  H   H5747     1.0  0.73458  0.92308  0.45335  1.0000
  H   H5748     1.0  0.88097  0.89488  0.39992  1.0000
  C   C3255     1.0  0.93676  0.67640  0.28587  1.0000
  H   H5749     1.0  0.76054  0.96956  0.45760  1.0000
  H   H5750     1.0  0.97804  0.72000  0.27727  1.0000
  C   C3256     1.0  0.96638  0.77439  0.42327  1.0000
  S   S729      1.0  0.84913  0.94570  0.43807  1.0000
  H   H5751     1.0  0.86046  0.90623  0.45078  1.0000
  S   S730      1.0  0.92678  0.72360  0.47666  1.0000
  H   H5752     1.0  0.99887  0.68370  0.39889  1.0000
  C   C3257     1.0  0.97430  0.71547  0.32894  1.0000
  C   C3258     1.0  0.72340  0.89121  0.45873  1.0000
  H   H5753     1.0  0.58677  0.98561  0.47155  1.0000
  C   C3259     1.0  0.56684  0.88315  0.26534  1.0000
  C   C3260     1.0  0.89096  0.68239  0.47895  1.0000
  H   H5754     1.0  0.98613  0.71400  0.32303  1.0000
  H   H5755     1.0  0.97666  0.72016  0.37993  1.0000
  S   S731      1.0  0.56336  0.98070  0.25610  1.0000
  H   H5756     1.0  0.96221  0.71646  0.35159  1.0000
  H   H5757     1.0  0.99682  0.81009  0.44192  1.0000
  H   H5758     1.0  0.95016  0.73992  0.28906  1.0000
  C   C3261     1.0  0.87062  0.79693  0.44880  1.0000
  H   H5759     1.0  0.94347  0.77005  0.48678  1.0000
  H   H5760     1.0  0.95161  0.84348  0.37841  1.0000
  C   C3262     1.0  0.77538  0.98326  0.46853  1.0000
  C   C3263     1.0  0.55409  0.91603  0.26648  1.0000
  H   H5761     1.0  0.92255  0.77062  0.30534  1.0000
  N   N180      1.0  0.84914  0.88921  0.46438  1.0000
  Fe  Fe365     1.0  0.91229  0.83989  0.44655  1.0000
  H   H5762     1.0  0.86896  0.81608  0.43156  1.0000
  C   C3264     1.0  0.99638  0.83398  0.39960  1.0000
  H   H5763     1.0  0.84812  0.97273  0.36960  1.0000
  H   H5764     1.0  0.77464  0.88765  0.47161  1.0000
  H   H5765     1.0  0.90225  0.67742  0.44674  1.0000
  H   H5766     1.0  0.56845  0.91854  0.24467  1.0000
  H   H5767     1.0  0.50472  0.90942  0.25907  1.0000
  H   H5768     1.0  0.54151  0.96265  0.31312  1.0000
  C   C3265     1.0  0.98668  0.78208  0.37884  1.0000
  H   H5769     1.0  0.86736  0.75966  0.45372  1.0000
  H   H5770     1.0  0.69398  0.97553  0.31011  1.0000
  C   C3266     1.0  0.97232  0.83421  0.46943  1.0000
  C   C3267     1.0  0.50735  0.97268  0.32758  1.0000
  Fe  Fe366     1.0  0.90186  0.72661  0.48022  1.0000
  H   H5771     1.0  0.98795  0.74881  0.36928  1.0000
  S   S732      1.0  0.95486  0.83116  0.46978  1.0000
  H   H5772     1.0  0.94978  0.78743  0.45474  1.0000
  H   H5773     1.0  0.96927  0.84655  0.36689  1.0000
  H   H5774     1.0  0.87301  0.97473  0.37107  1.0000
  S   S733      1.0  0.73144  0.89994  0.47954  1.0000
  H   H5775     1.0  0.91091  0.96197  0.38451  1.0000
  H   H5776     1.0  0.96609  0.69164  0.29098  1.0000
  C   C3268     1.0  0.97599  0.73921  0.29510  1.0000
  H   H5777     1.0  0.85045  0.91326  0.47612  1.0000
  H   H5778     1.0  0.60519  0.98315  0.34840  1.0000
  H   H5779     1.0  0.88625  0.94915  0.37159  1.0000
  S   S734      1.0  0.88889  0.83777  0.45815  1.0000
  H   H5780     1.0  0.51516  0.96036  0.26428  1.0000
  H   H5781     1.0  0.73138  0.98197  0.31076  1.0000
  C   C3269     1.0  0.94638  0.77808  0.46346  1.0000
  H   H5782     1.0  0.95370  0.76752  0.46072  1.0000
  H   H5783     1.0  0.93469  0.77816  0.46368  1.0000
  H   H5784     1.0  0.82114  0.98690  0.38114  1.0000
  H   H5785     1.0  0.72137  0.88159  0.46726  1.0000
  H   H5786     1.0  0.52950  0.88844  0.24307  1.0000
  C   C3270     1.0  0.97589  0.83274  0.48302  1.0000
  H   H5787     1.0  0.98188  0.70808  0.34963  1.0000
  C   C3271     1.0  0.63382  0.98950  0.30583  1.0000
  C   C3272     1.0  0.97063  0.72361  0.42866  1.0000
  H   H5788     1.0  0.78408  0.98862  0.44432  1.0000
  C   C3273     1.0  0.89751  0.80764  0.46775  1.0000
  N   N181      1.0  0.98932  0.71348  0.40646  1.0000
  H   H5789     1.0  0.58920  0.87459  0.27021  1.0000
  H   H5790     1.0  0.62805  0.97553  0.43222  1.0000
  H   H5791     1.0  0.93350  0.67062  0.47820  1.0000
  H   H5792     1.0  0.68153  0.98232  0.26665  1.0000
  H   H5793     1.0  0.98926  0.65767  0.29893  1.0000
  H   H5794     1.0  0.56560  0.92470  0.27785  1.0000
  H   H5795     1.0  0.76784  0.97549  0.43824  1.0000
  H   H5796     1.0  0.92739  0.79640  0.47950  1.0000
  H   H5797     1.0  0.98847  0.80886  0.40662  1.0000
  C   C3274     1.0  0.52839  0.96159  0.35041  1.0000
  H   H5798     1.0  0.92181  0.82212  0.47810  1.0000
  S   S735      1.0  0.88896  0.71149  0.47772  1.0000
  H   H5799     1.0  0.78085  0.87071  0.46459  1.0000
  H   H5800     1.0  0.95994  0.66696  0.30556  1.0000
  C   C3275     1.0  0.77809  0.94122  0.48666  1.0000
  H   H5801     1.0  0.59951  0.97791  0.45625  1.0000
  H   H5802     1.0  0.94605  0.68198  0.28395  1.0000
  C   C3276     1.0  0.82336  0.98429  0.46650  1.0000
  H   H5803     1.0  0.66408  0.98979  0.45780  1.0000
  C   C3277     1.0  0.87242  0.81959  0.47844  1.0000
  H   H5804     1.0  0.90309  0.78390  0.47401  1.0000
  H   H5805     1.0  0.98101  0.69396  0.41911  1.0000
  H   H5806     1.0  0.88028  0.98432  0.38561  1.0000
  C   C3278     1.0  0.72307  0.98836  0.47151  1.0000
  C   C3279     1.0  0.67919  0.98942  0.48827  1.0000
  H   H5807     1.0  0.98419  0.82831  0.35020  1.0000
  H   H5808     1.0  0.88466  0.90664  0.46558  1.0000
  H   H5809     1.0  0.97459  0.70431  0.48720  1.0000
  H   H5810     1.0  0.77725  0.97872  0.35517  1.0000
  H   H5811     1.0  0.99492  0.79867  0.33125  1.0000
  C   C3280     1.0  0.98864  0.80331  0.44334  1.0000
  N   N182      1.0  0.53283  0.96905  0.33435  1.0000
  C   C3281     1.0  0.99011  0.83354  0.48364  1.0000
  H   H5812     1.0  0.96886  0.80287  0.33014  1.0000
  H   H5813     1.0  0.95150  0.73280  0.48685  1.0000
  C   C3282     1.0  0.59671  0.89397  0.24121  1.0000
  H   H5814     1.0  0.76438  0.98138  0.47536  1.0000
  C   C3283     1.0  0.83419  0.90017  0.46641  1.0000
  C   C3284     1.0  0.99404  0.82120  0.31936  1.0000
  H   H5815     1.0  0.63071  0.98740  0.45096  1.0000
  C   C3285     1.0  0.65959  0.97314  0.30192  1.0000
  H   H5816     1.0  0.94024  0.66850  0.27839  1.0000
  C   C3286     1.0  0.86794  0.96582  0.37899  1.0000
  H   H5817     1.0  0.68543  0.98455  0.41768  1.0000
  H   H5818     1.0  0.99656  0.72140  0.29336  1.0000
  Fe  Fe367     1.0  0.72046  0.95441  0.48105  1.0000
  H   H5819     1.0  0.80651  0.97167  0.47250  1.0000
  H   H5820     1.0  0.51454  0.98859  0.33468  1.0000
  H   H5821     1.0  0.86337  0.89705  0.48353  1.0000
  H   H5822     1.0  0.86316  0.95968  0.36078  1.0000
  C   C3287     1.0  0.86121  0.90534  0.47335  1.0000
  C   C3288     1.0  0.89234  0.98070  0.38570  1.0000
  H   H5823     1.0  0.99944  0.75361  0.28754  1.0000
  H   H5824     1.0  0.86396  0.85768  0.47181  1.0000
  C   C3289     1.0  0.89868  0.69296  0.47839  1.0000
  C   C3290     1.0  0.77041  0.97280  0.44938  1.0000
  C   C3291     1.0  0.55452  0.89788  0.24516  1.0000
  H   H5825     1.0  0.94393  0.80309  0.47395  1.0000
  H   H5826     1.0  0.76879  0.94414  0.48128  1.0000
  H   H5827     1.0  0.68643  0.96734  0.28172  1.0000
  S   S736      1.0  0.82318  0.93627  0.47505  1.0000
  H   H5828     1.0  0.68961  0.90823  0.46431  1.0000
  H   H5829     1.0  0.88067  0.97404  0.42509  1.0000
  H   H5830     1.0  0.59892  0.89022  0.25246  1.0000
  C   C3292     1.0  0.89462  0.79381  0.47558  1.0000
  H   H5831     1.0  0.92010  0.69687  0.47709  1.0000
  H   H5832     1.0  0.53956  0.98505  0.35282  1.0000
  H   H5833     1.0  0.73797  0.97096  0.48342  1.0000
  H   H5834     1.0  0.89350  0.98096  0.39680  1.0000
  H   H5835     1.0  0.99412  0.73209  0.30707  1.0000
  H   H5836     1.0  0.64854  0.98147  0.46783  1.0000
  H   H5837     1.0  0.66598  0.97504  0.47391  1.0000
  H   H5838     1.0  0.97217  0.74598  0.47783  1.0000
  H   H5839     1.0  0.54872  0.98179  0.32026  1.0000
  H   H5840     1.0  0.68264  0.98635  0.28352  1.0000
  C   C3293     1.0  0.89853  0.66755  0.47942  1.0000
  H   H5841     1.0  0.82580  0.98475  0.45445  1.0000
  C   C3294     1.0  0.51983  0.97975  0.32830  1.0000
  H   H5842     1.0  0.52387  0.98572  0.31682  1.0000
  H   H5843     1.0  0.87336  0.91941  0.47719  1.0000
  H   H5844     1.0  0.84006  0.87191  0.48090  1.0000
  H   H5845     1.0  0.86371  0.82952  0.47938  1.0000
  H   H5846     1.0  0.77162  0.98993  0.37626  1.0000
  C   C3295     1.0  0.80739  0.98249  0.47373  1.0000
  C   C3296     1.0  0.77378  0.98620  0.45229  1.0000
  H   H5847     1.0  0.50450  0.97162  0.35767  1.0000
  C   C3297     1.0  0.99209  0.79669  0.46986  1.0000
  H   H5848     1.0  0.67693  0.98939  0.40201  1.0000
  H   H5849     1.0  0.99382  0.72466  0.42098  1.0000
  H   H5850     1.0  0.99014  0.69729  0.38517  1.0000
  H   H5851     1.0  0.80584  0.98234  0.48563  1.0000
  S   S737      1.0  0.84861  0.98779  0.42114  1.0000
  H   H5852     1.0  0.79682  0.98281  0.38219  1.0000
  H   H5853     1.0  0.65641  0.99007  0.28153  1.0000
  H   H5854     1.0  0.81958  0.88406  0.47418  1.0000
  H   H5855     1.0  0.97568  0.67413  0.40925  1.0000
  H   H5856     1.0  0.74633  0.98852  0.31329  1.0000
  C   C3298     1.0  0.96690  0.74403  0.48946  1.0000
  H   H5857     1.0  0.83674  0.75961  0.48893  1.0000
  H   H5858     1.0  0.58392  0.87908  0.23996  1.0000
  C   C3299     1.0  0.54635  0.93580  0.61426  1.0000
  H   H5859     1.0  0.52868  0.96227  0.72898  1.0000
  C   C3300     1.0  0.85418  0.71223  0.51639  1.0000
  C   C3301     1.0  0.91646  0.81982  0.49004  1.0000
  C   C3302     1.0  0.51339  0.88565  0.70585  1.0000
  C   C3303     1.0  0.95521  0.73657  0.49457  1.0000
  H   H5860     1.0  0.98082  0.68359  0.53844  1.0000
  C   C3304     1.0  0.83140  0.73984  0.51334  1.0000
  C   C3305     1.0  0.96480  0.74651  0.51440  1.0000
  H   H5861     1.0  0.85555  0.72135  0.49322  1.0000
  C   C3306     1.0  0.97061  0.69151  0.54275  1.0000
  C   C3307     1.0  0.56451  0.97086  0.60025  1.0000
  N   N183      1.0  0.51559  0.98196  0.73733  1.0000
  H   H5862     1.0  0.93522  0.68896  0.55589  1.0000
  H   H5863     1.0  0.84349  0.70922  0.51744  1.0000
  H   H5864     1.0  0.56615  0.92873  0.62371  1.0000
  C   C3308     1.0  0.85666  0.72508  0.50280  1.0000
  H   H5865     1.0  0.53027  0.98629  0.51599  1.0000
  H   H5866     1.0  0.86523  0.74968  0.50270  1.0000
  H   H5867     1.0  0.74268  0.98734  0.49660  1.0000
  C   C3309     1.0  0.93991  0.68420  0.52802  1.0000
  C   C3310     1.0  0.86274  0.75324  0.53054  1.0000
  S   S738      1.0  0.68628  0.93755  0.52920  1.0000
  H   H5868     1.0  0.93397  0.67516  0.53032  1.0000
  C   C3311     1.0  0.98200  0.69494  0.49265  1.0000
  S   S739      1.0  0.75781  0.93710  0.51340  1.0000
  H   H5869     1.0  0.85498  0.76434  0.52994  1.0000
  H   H5870     1.0  0.97135  0.79709  0.52508  1.0000
  H   H5871     1.0  0.95048  0.69732  0.50710  1.0000
  H   H5872     1.0  0.52697  0.98480  0.60656  1.0000
  H   H5873     1.0  0.54972  0.92639  0.60865  1.0000
  C   C3312     1.0  0.53795  0.97975  0.60879  1.0000
  H   H5874     1.0  0.59635  0.96018  0.53947  1.0000
  H   H5875     1.0  0.63187  0.94855  0.54151  1.0000
  C   C3313     1.0  0.55391  0.96861  0.62659  1.0000
  H   H5876     1.0  0.52285  0.88524  0.71071  1.0000
  S   S740      1.0  0.93318  0.72546  0.51585  1.0000
  H   H5877     1.0  0.84736  0.76062  0.50898  1.0000
  C   C3314     1.0  0.52015  0.96553  0.56848  1.0000
  H   H5878     1.0  0.98452  0.70451  0.54550  1.0000
  C   C3315     1.0  0.65593  0.94388  0.53592  1.0000
  C   C3316     1.0  0.52030  0.95136  0.58035  1.0000
  H   H5879     1.0  0.69653  0.97785  0.54741  1.0000
  H   H5880     1.0  0.98823  0.70805  0.50375  1.0000
  H   H5881     1.0  0.55111  0.94502  0.60658  1.0000
  C   C3317     1.0  0.55031  0.97743  0.59715  1.0000
  H   H5882     1.0  0.65713  0.93730  0.54679  1.0000
  H   H5883     1.0  0.81150  0.93105  0.50603  1.0000
  H   H5884     1.0  0.96710  0.68763  0.55483  1.0000
  C   C3318     1.0  0.69256  0.95632  0.55758  1.0000
  H   H5885     1.0  0.94801  0.73684  0.53117  1.0000
  H   H5886     1.0  0.92328  0.81200  0.51118  1.0000
  S   S741      1.0  0.52881  0.93757  0.66586  1.0000
  C   C3319     1.0  0.92978  0.78489  0.50921  1.0000
  H   H5887     1.0  0.81225  0.72024  0.52802  1.0000
  H   H5888     1.0  0.51121  0.91433  0.62540  1.0000
  H   H5889     1.0  0.87770  0.70064  0.51404  1.0000
  H   H5890     1.0  0.50201  0.95616  0.62042  1.0000
  C   C3320     1.0  0.51616  0.92746  0.73036  1.0000
  S   S742      1.0  0.53216  0.91650  0.70569  1.0000
  C   C3321     1.0  0.85660  0.74273  0.52563  1.0000
  C   C3322     1.0  0.66705  0.95423  0.51076  1.0000
  H   H5891     1.0  0.55830  0.93186  0.57134  1.0000
  H   H5892     1.0  0.53088  0.91169  0.62445  1.0000
  H   H5893     1.0  0.57266  0.94849  0.52413  1.0000
  H   H5894     1.0  0.59065  0.97764  0.52830  1.0000
  H   H5895     1.0  0.85893  0.80521  0.49392  1.0000
  C   C3323     1.0  0.66865  0.94570  0.52483  1.0000
  H   H5896     1.0  0.52101  0.90111  0.68577  1.0000
  H   H5897     1.0  0.80096  0.72573  0.51432  1.0000
  H   H5898     1.0  0.51130  0.87438  0.70861  1.0000
  C   C3324     1.0  0.52305  0.92644  0.60470  1.0000
  N   N184      1.0  0.67605  0.98827  0.52702  1.0000
  H   H5899     1.0  0.90823  0.81315  0.49160  1.0000
  C   C3325     1.0  0.58596  0.96303  0.50820  1.0000
  H   H5900     1.0  0.68917  0.94727  0.55512  1.0000
  H   H5901     1.0  0.93722  0.77362  0.50942  1.0000
  C   C3326     1.0  0.78771  0.93414  0.50904  1.0000
  C   C3327     1.0  0.58063  0.95487  0.52434  1.0000
  C   C3328     1.0  0.86669  0.69838  0.51477  1.0000
  H   H5902     1.0  0.67685  0.95563  0.50214  1.0000
  C   C3329     1.0  0.56781  0.93550  0.57270  1.0000
  H   H5903     1.0  0.78585  0.93139  0.52099  1.0000
  H   H5904     1.0  0.51287  0.88257  0.73506  1.0000
  H   H5905     1.0  0.68463  0.95989  0.56748  1.0000
  N   N185      1.0  0.51980  0.94140  0.60852  1.0000
  H   H5906     1.0  0.53481  0.95420  0.59219  1.0000
  H   H5907     1.0  0.60558  0.97044  0.55514  1.0000
  H   H5908     1.0  0.53040  0.98664  0.68887  1.0000
  C   C3330     1.0  0.52551  0.89864  0.61267  1.0000
  H   H5909     1.0  0.86509  0.73211  0.52612  1.0000
  S   S743      1.0  0.50060  0.94986  0.69160  1.0000
  C   C3331     1.0  0.64002  0.95891  0.51899  1.0000
  C   C3332     1.0  0.97489  0.70625  0.54035  1.0000
  C   C3333     1.0  0.59546  0.95213  0.49845  1.0000
  Fe  Fe368     1.0  0.70618  0.93735  0.51026  1.0000
  C   C3334     1.0  0.95821  0.69321  0.53445  1.0000
  C   C3335     1.0  0.77565  0.93753  0.50215  1.0000
  C   C3336     1.0  0.65269  0.96106  0.50793  1.0000
  C   C3337     1.0  0.99276  0.66863  0.49804  1.0000
  H   H5910     1.0  0.95760  0.65922  0.53072  1.0000
  H   H5911     1.0  0.59393  0.98601  0.56285  1.0000
  C   C3338     1.0  0.94638  0.68697  0.51110  1.0000
  H   H5912     1.0  0.97524  0.66222  0.55198  1.0000
  H   H5913     1.0  0.52941  0.94252  0.57595  1.0000
  H   H5914     1.0  0.92507  0.69811  0.50473  1.0000
  H   H5915     1.0  0.57532  0.92576  0.57824  1.0000
  H   H5916     1.0  0.54141  0.97092  0.53693  1.0000
  H   H5917     1.0  0.52498  0.88924  0.62238  1.0000
  H   H5918     1.0  0.55983  0.96312  0.55751  1.0000
  H   H5919     1.0  0.94811  0.80827  0.51582  1.0000
  C   C3339     1.0  0.50378  0.94573  0.61660  1.0000
  C   C3340     1.0  0.58649  0.96958  0.53818  1.0000
  H   H5920     1.0  0.56533  0.97069  0.70994  1.0000
  C   C3341     1.0  0.91412  0.78429  0.50804  1.0000
  H   H5921     1.0  0.51063  0.97442  0.57219  1.0000
  H   H5922     1.0  0.81666  0.74260  0.49834  1.0000
  S   S744      1.0  0.71896  0.95490  0.50456  1.0000
  C   C3342     1.0  0.95332  0.73878  0.51956  1.0000
  C   C3343     1.0  0.90887  0.77112  0.51918  1.0000
  C   C3344     1.0  0.94257  0.67817  0.55364  1.0000
  H   H5923     1.0  0.86862  0.72555  0.50038  1.0000
  H   H5924     1.0  0.95024  0.67486  0.56139  1.0000
  C   C3345     1.0  0.51834  0.89000  0.68904  1.0000
  H   H5925     1.0  0.97560  0.80309  0.50523  1.0000
  H   H5926     1.0  0.55567  0.95607  0.71956  1.0000
  H   H5927     1.0  0.53421  0.92424  0.59718  1.0000
  C   C3346     1.0  0.56624  0.95579  0.54964  1.0000
  H   H5928     1.0  0.78613  0.97967  0.51629  1.0000
  H   H5929     1.0  0.92835  0.78687  0.52043  1.0000
  C   C3347     1.0  0.95274  0.79402  0.49973  1.0000
  S   S745      1.0  0.89644  0.73353  0.50193  1.0000
  C   C3348     1.0  0.77750  0.97665  0.49878  1.0000
  H   H5930     1.0  0.96536  0.71432  0.54544  1.0000
  H   H5931     1.0  0.94953  0.78886  0.52401  1.0000
  H   H5932     1.0  0.51653  0.96443  0.59702  1.0000
  H   H5933     1.0  0.87385  0.75444  0.52345  1.0000
  C   C3349     1.0  0.52974  0.91934  0.72353  1.0000
  C   C3350     1.0  0.93452  0.68856  0.50254  1.0000
  C   C3351     1.0  0.54907  0.97487  0.52651  1.0000
  H   H5934     1.0  0.53008  0.97681  0.63236  1.0000
  H   H5935     1.0  0.91679  0.76054  0.51719  1.0000
  H   H5936     1.0  0.90794  0.77207  0.53067  1.0000
  H   H5937     1.0  0.89771  0.77084  0.51795  1.0000
  H   H5938     1.0  0.51521  0.92623  0.59817  1.0000
  H   H5939     1.0  0.58905  0.94421  0.49827  1.0000
  C   C3352     1.0  0.67732  0.97574  0.54040  1.0000
  H   H5940     1.0  0.55792  0.98516  0.53840  1.0000
  H   H5941     1.0  0.78808  0.96922  0.49454  1.0000
  H   H5942     1.0  0.50151  0.93748  0.62696  1.0000
  C   C3353     1.0  0.56265  0.97803  0.53008  1.0000
  H   H5943     1.0  0.93114  0.69423  0.53043  1.0000
  H   H5944     1.0  0.82519  0.75118  0.51501  1.0000
  H   H5945     1.0  0.52533  0.93421  0.63023  1.0000
  C   C3354     1.0  0.92858  0.81183  0.49935  1.0000
  H   H5946     1.0  0.76590  0.98274  0.51991  1.0000
  H   H5947     1.0  0.54640  0.97814  0.73156  1.0000
  C   C3355     1.0  0.77668  0.97585  0.51506  1.0000
  Fe  Fe369     1.0  0.52452  0.93747  0.68996  1.0000
  C   C3356     1.0  0.97051  0.79506  0.51454  1.0000
  C   C3357     1.0  0.57651  0.94221  0.55767  1.0000
  H   H5948     1.0  0.96760  0.83091  0.49315  1.0000
  C   C3358     1.0  0.82135  0.73386  0.50718  1.0000
  Fe  Fe370     1.0  0.92096  0.73243  0.49739  1.0000
  H   H5949     1.0  0.58103  0.93356  0.55095  1.0000
  C   C3359     1.0  0.90798  0.83476  0.49392  1.0000
  S   S746      1.0  0.72669  0.91896  0.51106  1.0000
  H   H5950     1.0  0.55256  0.96639  0.51969  1.0000
  C   C3360     1.0  0.94841  0.73395  0.50962  1.0000
  H   H5951     1.0  0.86715  0.69464  0.50465  1.0000
  C   C3361     1.0  0.68624  0.98303  0.51353  1.0000
  H   H5952     1.0  0.96356  0.69589  0.52257  1.0000
  H   H5953     1.0  0.52283  0.97741  0.71535  1.0000
  H   H5954     1.0  0.91588  0.84188  0.49236  1.0000
  H   H5955     1.0  0.66992  0.97931  0.55052  1.0000
  H   H5956     1.0  0.97694  0.78365  0.51355  1.0000
  H   H5957     1.0  0.84614  0.74109  0.53373  1.0000
  H   H5958     1.0  0.65136  0.96766  0.49714  1.0000
  H   H5959     1.0  0.80134  0.73907  0.52416  1.0000
  S   S747      1.0  0.53379  0.95739  0.68624  1.0000
  H   H5960     1.0  0.57411  0.98754  0.54999  1.0000
  C   C3362     1.0  0.53971  0.97516  0.62348  1.0000
  H   H5961     1.0  0.55076  0.92053  0.63478  1.0000
  C   C3363     1.0  0.80221  0.93396  0.50058  1.0000
  H   H5962     1.0  0.96848  0.75040  0.52206  1.0000
  C   C3364     1.0  0.98997  0.69711  0.50182  1.0000
  C   C3365     1.0  0.64165  0.95027  0.53295  1.0000
  C   C3366     1.0  0.55438  0.96757  0.71286  1.0000
  H   H5963     1.0  0.86412  0.74873  0.54214  1.0000
  C   C3367     1.0  0.56633  0.96664  0.61493  1.0000
  H   H5964     1.0  0.93024  0.67832  0.50557  1.0000
  N   N186      1.0  0.93706  0.79628  0.49761  1.0000
  H   H5965     1.0  0.67341  0.96638  0.53912  1.0000
  H   H5966     1.0  0.90581  0.79445  0.51055  1.0000
  H   H5967     1.0  0.87313  0.84605  0.49444  1.0000
  H   H5968     1.0  0.99266  0.83245  0.49423  1.0000
  H   H5969     1.0  0.85373  0.71513  0.52689  1.0000
  H   H5970     1.0  0.68417  0.97246  0.51283  1.0000
  H   H5971     1.0  0.50318  0.90758  0.70906  1.0000
  H   H5972     1.0  0.57734  0.96159  0.61728  1.0000
  Fe  Fe371     1.0  0.53577  0.95880  0.66209  1.0000
  Fe  Fe372     1.0  0.50569  0.95180  0.66705  1.0000
  S   S748      1.0  0.54821  0.98214  0.57874  1.0000
  H   H5973     1.0  0.86464  0.68929  0.52450  1.0000
  C   C3368     1.0  0.52241  0.91303  0.61796  1.0000
  H   H5974     1.0  0.94943  0.70332  0.53657  1.0000
  C   C3369     1.0  0.52910  0.94107  0.61914  1.0000
  H   H5975     1.0  0.56349  0.94376  0.57988  1.0000
  S   S749      1.0  0.55641  0.96271  0.64489  1.0000
  H   H5976     1.0  0.57413  0.96906  0.59131  1.0000
  C   C3370     1.0  0.85399  0.74897  0.50968  1.0000
  N   N187      1.0  0.57396  0.96455  0.53560  1.0000
  H   H5977     1.0  0.82777  0.72411  0.50231  1.0000
  H   H5978     1.0  0.55023  0.93953  0.63417  1.0000
  H   H5979     1.0  0.70144  0.96514  0.53503  1.0000
  S   S750      1.0  0.87649  0.77575  0.49444  1.0000
  H   H5980     1.0  0.83205  0.73322  0.52464  1.0000
  C   C3371     1.0  0.98362  0.68077  0.49048  1.0000
  C   C3372     1.0  0.54260  0.97833  0.72157  1.0000
  Fe  Fe373     1.0  0.73962  0.93676  0.50285  1.0000
  H   H5981     1.0  0.51702  0.89914  0.60650  1.0000
  H   H5982     1.0  0.58609  0.94515  0.55969  1.0000
  H   H5983     1.0  0.92177  0.67227  0.55437  1.0000
  H   H5984     1.0  0.92264  0.67149  0.58035  1.0000
  H   H5985     1.0  0.57187  0.97806  0.65560  1.0000
  S   S751      1.0  0.51288  0.97320  0.66140  1.0000
  Fe  Fe374     1.0  0.51015  0.96998  0.68586  1.0000
  N   N188      1.0  0.84678  0.74030  0.50381  1.0000
  S   S752      1.0  0.62199  0.96633  0.51555  1.0000
  H   H5986     1.0  0.50742  0.93284  0.72425  1.0000
  H   H5987     1.0  0.95566  0.67763  0.50814  1.0000
  H   H5988     1.0  0.59045  0.94625  0.52761  1.0000
  C   C3373     1.0  0.95410  0.79690  0.51437  1.0000
  C   C3374     1.0  0.80818  0.72947  0.51920  1.0000
  C   C3375     1.0  0.55379  0.93085  0.62755  1.0000
  H   H5989     1.0  0.53684  0.89653  0.60544  1.0000
  H   H5990     1.0  0.64741  0.98840  0.54801  1.0000
  H   H5991     1.0  0.55117  0.96796  0.70246  1.0000
  N   N189      1.0  0.95112  0.68018  0.53778  1.0000
  H   H5992     1.0  0.59278  0.97080  0.50771  1.0000
  H   H5993     1.0  0.52854  0.88184  0.68512  1.0000
  H   H5994     1.0  0.93965  0.69048  0.49053  1.0000
  H   H5995     1.0  0.55768  0.95142  0.54735  1.0000
  H   H5996     1.0  0.57866  0.96981  0.56205  1.0000
  H   H5997     1.0  0.95909  0.78245  0.49942  1.0000
  H   H5998     1.0  0.97158  0.66953  0.52474  1.0000
  H   H5999     1.0  0.56818  0.98508  0.52009  1.0000
  C   C3376     1.0  0.50323  0.89210  0.73684  1.0000
  C   C3377     1.0  0.58277  0.97710  0.55151  1.0000
  H   H6000     1.0  0.55155  0.90607  0.72618  1.0000
  C   C3378     1.0  0.54009  0.98881  0.51806  1.0000
  H   H6001     1.0  0.53079  0.96909  0.56615  1.0000
  Fe  Fe375     1.0  0.61868  0.98869  0.50048  1.0000
  H   H6002     1.0  0.65794  0.98181  0.52268  1.0000
  C   C3379     1.0  0.93239  0.66694  0.55827  1.0000
  C   C3380     1.0  0.52299  0.95331  0.59489  1.0000
  S   S753      1.0  0.98565  0.75913  0.49286  1.0000
  H   H6003     1.0  0.69807  0.97989  0.51444  1.0000
  C   C3381     1.0  0.96264  0.66641  0.53436  1.0000
  H   H6004     1.0  0.70389  0.95189  0.56010  1.0000
  H   H6005     1.0  0.60580  0.94593  0.50256  1.0000
  C   C3382     1.0  0.52704  0.97450  0.72572  1.0000
  H   H6006     1.0  0.86370  0.86213  0.50231  1.0000
  C   C3383     1.0  0.69294  0.96934  0.54428  1.0000
  H   H6007     1.0  0.52697  0.95233  0.62141  1.0000
  C   C3384     1.0  0.86328  0.85555  0.49463  1.0000
  H   H6008     1.0  0.57621  0.96951  0.50323  1.0000
  C   C3385     1.0  0.97153  0.74921  0.49934  1.0000
  H   H6009     1.0  0.91408  0.78310  0.49694  1.0000
  H   H6010     1.0  0.60125  0.98837  0.54313  1.0000
  H   H6011     1.0  0.97823  0.71099  0.52838  1.0000
  H   H6012     1.0  0.58348  0.98796  0.65912  1.0000
  C   C3386     1.0  0.59675  0.98071  0.55322  1.0000
  H   H6013     1.0  0.50958  0.94826  0.58195  1.0000
  H   H6014     1.0  0.54201  0.98962  0.71448  1.0000
  H   H6015     1.0  0.93642  0.81936  0.49614  1.0000
  C   C3387     1.0  0.54106  0.91240  0.73142  1.0000
  H   H6016     1.0  0.50821  0.90194  0.73296  1.0000
  H   H6017     1.0  0.50938  0.89023  0.68356  1.0000
  H   H6018     1.0  0.85304  0.85106  0.49877  1.0000
  C   C3388     1.0  0.57189  0.98844  0.65851  1.0000
  H   H6019     1.0  0.77736  0.96420  0.52124  1.0000
  H   H6020     1.0  0.76828  0.97194  0.49838  1.0000
  H   H6021     1.0  0.90152  0.83324  0.50552  1.0000
  H   H6022     1.0  0.56452  0.98909  0.66957  1.0000
  H   H6023     1.0  0.95895  0.80124  0.49043  1.0000
  C   C3389     1.0  0.50034  0.98022  0.73742  1.0000
  H   H6024     1.0  0.63017  0.98949  0.53269  1.0000
  H   H6025     1.0  0.50637  0.95859  0.73127  1.0000
  C   C3390     1.0  0.92832  0.66184  0.57507  1.0000
  H   H6026     1.0  0.51863  0.96371  0.55811  1.0000
  H   H6027     1.0  0.66740  0.98873  0.49320  1.0000
  C   C3391     1.0  0.54920  0.71221  0.87635  1.0000
  S   S754      1.0  0.52263  0.92208  0.77164  1.0000
  S   S755      1.0  0.56986  0.70110  0.96146  1.0000
  H   H6028     1.0  0.55631  0.71832  0.90099  1.0000
  C   C3392     1.0  0.51529  0.74672  0.79027  1.0000
  H   H6029     1.0  0.56488  0.76435  0.92266  1.0000
  C   C3393     1.0  0.56117  0.68818  0.95950  1.0000
  H   H6030     1.0  0.54410  0.74271  0.90524  1.0000
  H   H6031     1.0  0.56400  0.74316  0.88293  1.0000
  H   H6032     1.0  0.51739  0.87592  0.76072  1.0000
  C   C3394     1.0  0.54894  0.72704  0.86888  1.0000
  H   H6033     1.0  0.56962  0.72264  0.93380  1.0000
  H   H6034     1.0  0.59429  0.74637  0.88617  1.0000
  C   C3395     1.0  0.56138  0.70092  0.87210  1.0000
  C   C3396     1.0  0.56434  0.68396  0.94593  1.0000
  C   C3397     1.0  0.54469  0.70916  0.83904  1.0000
  H   H6035     1.0  0.51749  0.77984  0.92348  1.0000
  C   C3398     1.0  0.55075  0.68234  0.97138  1.0000
  H   H6036     1.0  0.59583  0.72092  0.93474  1.0000
  N   N190      1.0  0.56681  0.74335  0.90457  1.0000
  C   C3399     1.0  0.57292  0.71914  0.85307  1.0000
  C   C3400     1.0  0.57890  0.73714  0.91347  1.0000
  C   C3401     1.0  0.54365  0.67216  0.96974  1.0000
  H   H6037     1.0  0.53983  0.95898  0.74970  1.0000
  H   H6038     1.0  0.54217  0.71499  0.93420  1.0000
  H   H6039     1.0  0.55154  0.72865  0.82518  1.0000
  C   C3402     1.0  0.58674  0.73028  0.93814  1.0000
  Fe  Fe376     1.0  0.52565  0.79402  0.86374  1.0000
  C   C3403     1.0  0.51521  0.76938  0.92383  1.0000
  H   H6040     1.0  0.56648  0.71378  0.91539  1.0000
  H   H6041     1.0  0.56324  0.75679  0.80810  1.0000
  S   S756      1.0  0.53432  0.77105  0.87592  1.0000
  H   H6042     1.0  0.58731  0.73940  0.85976  1.0000
  H   H6043     1.0  0.57164  0.76518  0.89638  1.0000
  H   H6044     1.0  0.54595  0.74487  0.80284  1.0000
  H   H6045     1.0  0.52140  0.82905  0.82166  1.0000
  H   H6046     1.0  0.54555  0.70151  0.92312  1.0000
  H   H6047     1.0  0.54653  0.76160  0.92407  1.0000
  H   H6048     1.0  0.50899  0.70744  0.94067  1.0000
  H   H6049     1.0  0.53245  0.71886  0.91925  1.0000
  H   H6050     1.0  0.52566  0.73740  0.83775  1.0000
  H   H6051     1.0  0.58183  0.75852  0.87458  1.0000
  H   H6052     1.0  0.55574  0.77218  0.81715  1.0000
  H   H6053     1.0  0.58648  0.72687  0.91016  1.0000
  C   C3404     1.0  0.50617  0.85814  0.96378  1.0000
  C   C3405     1.0  0.53550  0.75236  0.80753  1.0000
  H   H6054     1.0  0.58268  0.69579  0.85729  1.0000
  H   H6055     1.0  0.51000  0.69319  0.86828  1.0000
  C   C3406     1.0  0.52052  0.81803  0.79969  1.0000
  H   H6056     1.0  0.54608  0.71785  0.81582  1.0000
  Fe  Fe377     1.0  0.51182  0.76727  0.87731  1.0000
  H   H6057     1.0  0.57232  0.68855  0.93671  1.0000
  H   H6058     1.0  0.50853  0.97732  0.76125  1.0000
  Fe  Fe378     1.0  0.52703  0.74364  0.96928  1.0000
  H   H6059     1.0  0.55902  0.67123  0.93353  1.0000
  C   C3407     1.0  0.59480  0.73883  0.86700  1.0000
  C   C3408     1.0  0.50794  0.85652  0.82973  1.0000
  C   C3409     1.0  0.54317  0.71353  0.92286  1.0000
  C   C3410     1.0  0.52715  0.73234  0.82816  1.0000
  H   H6060     1.0  0.58278  0.72743  0.95033  1.0000
  C   C3411     1.0  0.51545  0.75833  0.93668  1.0000
  H   H6061     1.0  0.59117  0.74040  0.93542  1.0000
  S   S757      1.0  0.55121  0.74152  0.96815  1.0000
  H   H6062     1.0  0.54575  0.78750  0.92310  1.0000
  H   H6063     1.0  0.51436  0.82553  0.93244  1.0000
  H   H6064     1.0  0.60400  0.74426  0.86020  1.0000
  H   H6065     1.0  0.58622  0.74507  0.91092  1.0000
  H   H6066     1.0  0.55911  0.78866  0.90572  1.0000
  C   C3412     1.0  0.58619  0.74677  0.87963  1.0000
  C   C3413     1.0  0.55348  0.76618  0.80992  1.0000
  H   H6067     1.0  0.59972  0.72704  0.87139  1.0000
  H   H6068     1.0  0.57703  0.72756  0.89033  1.0000
  H   H6069     1.0  0.55654  0.70290  0.83793  1.0000
  Fe  Fe379     1.0  0.51261  0.66998  0.91215  1.0000
  H   H6070     1.0  0.51117  0.71224  0.86030  1.0000
  H   H6071     1.0  0.52429  0.73051  0.77617  1.0000
  S   S758      1.0  0.53355  0.78822  0.84143  1.0000
  H   H6072     1.0  0.53237  0.76109  0.79793  1.0000
  H   H6073     1.0  0.52553  0.98320  0.75472  1.0000
  H   H6074     1.0  0.52265  0.79876  0.93769  1.0000
  H   H6075     1.0  0.54075  0.78606  0.90685  1.0000
  H   H6076     1.0  0.53962  0.73577  0.87224  1.0000
  C   C3414     1.0  0.52650  0.86096  0.84163  1.0000
  H   H6077     1.0  0.53016  0.84223  0.83202  1.0000
  C   C3415     1.0  0.52061  0.84926  0.83835  1.0000
  H   H6078     1.0  0.52326  0.95220  0.75382  1.0000
  C   C3416     1.0  0.51247  0.74478  0.93718  1.0000
  C   C3417     1.0  0.55581  0.72010  0.91208  1.0000
  C   C3418     1.0  0.51906  0.97626  0.75263  1.0000
  H   H6079     1.0  0.54120  0.71301  0.84961  1.0000
  Fe  Fe380     1.0  0.53986  0.76489  0.85398  1.0000
  S   S759      1.0  0.52875  0.71930  0.97302  1.0000
  C   C3419     1.0  0.52911  0.95540  0.77259  1.0000
  C   C3420     1.0  0.52515  0.92129  0.75310  1.0000
  H   H6080     1.0  0.51722  0.85025  0.96277  1.0000
  H   H6081     1.0  0.53713  0.94453  0.77450  1.0000
  H   H6082     1.0  0.56459  0.74152  0.93513  1.0000
  C   C3421     1.0  0.55585  0.76641  0.91663  1.0000
  H   H6083     1.0  0.54782  0.90854  0.75204  1.0000
  C   C3422     1.0  0.53926  0.76050  0.81743  1.0000
  H   H6084     1.0  0.51743  0.83196  0.95371  1.0000
  H   H6085     1.0  0.54006  0.70953  0.88536  1.0000
  H   H6086     1.0  0.55355  0.76437  0.89553  1.0000
  C   C3423     1.0  0.52034  0.80461  0.94684  1.0000
  Fe  Fe381     1.0  0.54452  0.67268  0.89777  1.0000
  H   H6087     1.0  0.54821  0.73888  0.92283  1.0000
  S   S760      1.0  0.56259  0.68215  0.88060  1.0000
  C   C3424     1.0  0.51339  0.73769  0.78034  1.0000
  H   H6088     1.0  0.50907  0.74528  0.77069  1.0000
  C   C3425     1.0  0.54317  0.72231  0.82598  1.0000
  H   H6089     1.0  0.53003  0.77021  0.81962  1.0000
  C   C3426     1.0  0.57323  0.70447  0.86056  1.0000
  C   C3427     1.0  0.55679  0.67422  0.94412  1.0000
  C   C3428     1.0  0.57376  0.73295  0.93056  1.0000
  S   S761      1.0  0.52744  0.81579  0.86660  1.0000
  C   C3429     1.0  0.55317  0.73691  0.91147  1.0000
  C   C3430     1.0  0.57299  0.73974  0.88937  1.0000
  H   H6090     1.0  0.54096  0.75318  0.82817  1.0000
  S   S762      1.0  0.52798  0.68121  0.91687  1.0000
  C   C3431     1.0  0.55002  0.78319  0.91277  1.0000
  H   H6091     1.0  0.50765  0.85420  0.93625  1.0000
  S   S763      1.0  0.56094  0.74865  0.84718  1.0000
  H   H6092     1.0  0.51109  0.68423  0.96952  1.0000
  H   H6093     1.0  0.53771  0.70154  0.83942  1.0000
  C   C3432     1.0  0.54653  0.66824  0.95607  1.0000
  H   H6094     1.0  0.58211  0.72170  0.84408  1.0000
  C   C3433     1.0  0.56207  0.76000  0.90247  1.0000
  H   H6095     1.0  0.51733  0.86817  0.84814  1.0000
  C   C3434     1.0  0.56080  0.73045  0.85713  1.0000
  H   H6096     1.0  0.55222  0.77391  0.79919  1.0000
  H   H6097     1.0  0.51352  0.87105  0.97463  1.0000
  H   H6098     1.0  0.50533  0.71150  0.95888  1.0000
  Fe  Fe382     1.0  0.55250  0.71710  0.97398  1.0000
  H   H6099     1.0  0.51657  0.89546  0.75718  1.0000
  H   H6100     1.0  0.51997  0.84463  0.80695  1.0000
  C   C3435     1.0  0.52820  0.96010  0.75627  1.0000
  H   H6101     1.0  0.53144  0.86790  0.83118  1.0000
  H   H6102     1.0  0.53105  0.80613  0.94798  1.0000
  H   H6103     1.0  0.50775  0.70129  0.84954  1.0000
  C   C3436     1.0  0.50990  0.88690  0.76182  1.0000
  H   H6104     1.0  0.50539  0.88692  0.77374  1.0000
  C   C3437     1.0  0.51209  0.80803  0.89462  1.0000
  H   H6105     1.0  0.50059  0.66454  0.98326  1.0000
  H   H6106     1.0  0.50028  0.95814  0.75099  1.0000
  H   H6107     1.0  0.51033  0.87864  0.87970  1.0000
  H   H6108     1.0  0.53302  0.96359  0.77592  1.0000
  H   H6109     1.0  0.51918  0.72492  0.83202  1.0000
  H   H6110     1.0  0.51363  0.68079  0.95136  1.0000
  S   S764      1.0  0.52840  0.66341  0.89164  1.0000
  H   H6111     1.0  0.51274  0.86390  0.81953  1.0000
  H   H6112     1.0  0.50721  0.84308  0.87395  1.0000
  H   H6113     1.0  0.51411  0.72848  0.80936  1.0000
  S   S765      1.0  0.51797  0.75964  0.85603  1.0000
  C   C3438     1.0  0.51363  0.92785  0.74537  1.0000
  H   H6114     1.0  0.52870  0.82403  0.79155  1.0000
  H   H6115     1.0  0.51802  0.95412  0.77963  1.0000
  H   H6116     1.0  0.51922  0.79714  0.89433  1.0000
  C   C3439     1.0  0.51433  0.81967  0.88260  1.0000
  H   H6117     1.0  0.51046  0.77604  0.90205  1.0000
  H   H6118     1.0  0.51642  0.84236  0.84903  1.0000
  H   H6119     1.0  0.53239  0.72950  0.79929  1.0000
  H   H6120     1.0  0.50527  0.73069  0.78650  1.0000
  H   H6121     1.0  0.51031  0.75949  0.82868  1.0000
  Fe  Fe383     1.0  0.51092  0.78358  0.84564  1.0000
  H   H6122     1.0  0.50282  0.93316  0.75100  1.0000
  H   H6123     1.0  0.52367  0.70185  0.95091  1.0000
  H   H6124     1.0  0.52626  0.80951  0.80798  1.0000
  S   S766      1.0  0.51807  0.76251  0.95226  1.0000
  C   C3440     1.0  0.50942  0.81952  0.94349  1.0000
  C   C3441     1.0  0.51320  0.83733  0.81549  1.0000
  H   H6125     1.0  0.51614  0.81226  0.79381  1.0000
  C   C3442     1.0  0.52146  0.73642  0.80382  1.0000
  H   H6126     1.0  0.52306  0.75384  0.78344  1.0000
  H   H6127     1.0  0.51263  0.73623  0.94714  1.0000
  H   H6128     1.0  0.50680  0.76464  0.81073  1.0000
  C   C3443     1.0  0.51150  0.70327  0.95189  1.0000
  C   C3444     1.0  0.53893  0.91374  0.74604  1.0000
  N   N191      1.0  0.52329  0.74402  0.81483  1.0000
  C   C3445     1.0  0.50541  0.70353  0.86079  1.0000
  H   H6129     1.0  0.53528  0.85542  0.84818  1.0000
  C   C3446     1.0  0.50905  0.75484  0.81982  1.0000
  H   H6130     1.0  0.53034  0.77080  0.98370  1.0000
  C   C3447     1.0  0.50756  0.82878  0.80736  1.0000
  C   C3448     1.0  0.51140  0.76720  0.91166  1.0000
  H   H6131     1.0  0.50520  0.82700  0.84389  1.0000
  H   H6132     1.0  0.53570  0.66759  0.97899  1.0000
  H   H6133     1.0  0.54826  0.68561  0.98187  1.0000
  H   H6134     1.0  0.51542  0.79752  0.95713  1.0000
  C   C3449     1.0  0.50731  0.68839  0.95891  1.0000
  H   H6135     1.0  0.50627  0.86700  0.95362  1.0000
  H   H6136     1.0  0.51330  0.79567  0.98202  1.0000
  H   H6137     1.0  0.50421  0.75396  0.79370  1.0000
  C   C3450     1.0  0.50774  0.75400  0.91232  1.0000
  C   C3451     1.0  0.50849  0.74267  0.92498  1.0000
  H   H6138     1.0  0.50578  0.73240  0.92541  1.0000
  C   C3452     1.0  0.50672  0.82874  0.95531  1.0000
  H   H6139     1.0  0.50363  0.66103  0.95975  1.0000
  C   C3453     1.0  0.50536  0.83395  0.88312  1.0000
  H   H6140     1.0  0.50543  0.82139  0.96649  1.0000
  C   C3454     1.0  0.50431  0.86534  0.97673  1.0000
  S   S767      1.0  0.50248  0.79090  0.86721  1.0000
  H   H6141     1.0  0.50170  0.83655  0.79879  1.0000
  S   S768      1.0  0.50179  0.75215  0.89739  1.0000
  H   H6142     1.0  0.50188  0.86125  0.79626  1.0000
  Fe  Fe384     1.0  0.53613  0.65895  0.93048  1.0000
  N   N192      1.0  0.50127  0.84599  0.82587  1.0000
  C   C3455     1.0  0.52119  0.79230  0.98915  1.0000
  H   H6143     1.0  0.58175  0.65856  0.98663  1.0000
  H   H6144     1.0  0.50471  0.85680  0.98715  1.0000
  C   C3456     1.0  0.50077  0.81045  0.90703  1.0000
