data_image0
_chemical_formula_structural       HSCHSHC2NHC7H5CH3C2HC2HCHCHCHCH3CH2C2H3C3HCH8CFeC2H2CH5CH5CH6CH7CHC2FeH2CNH2SFeHS2HCH4CH4CH2SHCSHFeS4NSC2H4FeSHSFeSHSHFeSHSHC6H7CH2C6H7C2HNCHC6H4SHC6H4SC2HCHCHCHSHFeHCH4C2H3CNC12H19SCH9FeHFeH3CH2C2SHCH2CH2CHSCSH5CHNHCH4SH3CH4SHC2HC4H6SCHC2HCH7FeHNCH5CH4CH2CH2SH4S2HSCH3FeCHCH2CHCH2NC5HC2HCSC2H2CH12CHC2H4CH3NCHCH2C2HC4H3CHCH2FeCH11CH5CH4NC11H13CH13CH2CH2CHCH2SCH3NCH2CH3SCNHCHC4H2CHFeC2HCHSH4SH4C2H2CFeH2FeH3C2H3CFeH4CH6CHCH2CSC2SHFeSH3CS2FeS2H2SH2FeSHSHCH2SHSCHSHFeHSC6H5SC2HSHC6H4SC6H4CH3C2HCH4C5HCHC3H3SCHC2H2CHC6HNHC6H2CH17CH6CH2C2HNC8H3CNHSH11CHSHC3H3FeH2C2H4CHFeH4CH3CH3C2HCHFe2SHCHCHCSH2CHCH4Fe2H6CHCHCH2CHCNSHSH2C2H3CH2FeH8Fe2HSH2C3H2CH3SC2H4CH3NHCNCHCHC2HNHC4HC4HC2SH6C2HCH4C2H5SH6CH2CNHCH3CHC2H2C3H2CH2CH3CHC2HCH3FeH3CHCFeH2SHCH9CH2C4H3CFeCH6C2HSHCHSH3CFeHCH4SCH3CHCHCHCSCHSH5CHSCH3FeCH2CFeSHCSH2CH3SC6H5CH5NCHC4NCH2C2H6C4H2C2H4CH2CH4CSH2CH2C2H3CH6CH5C4HCHC3HCSHCHSC2H10CH3NHCH2FeH3CH7C2HCH2FeH3CH4C3HCSHFeSHFe2SHSHC2HS2HSHFeHSFeH3CSH5C2HCH3CFeHC6H4CSC5H3FeCH2CH2CNHCH5CH2CH7FeHSH2CHS2H2CHSCHC3H2CHCSC2HCHFeHSHC5H6CNH4CHFeHCHCHC2HS2H3CH2CFeCH7CHCH4C2H2SHSHCHFeSCHCFeHSFeHSHFeSCSFeS2FeSHFeSHSHFeS2FeS2FeSCSHFeCFeS2HSCH2FeHS2FeCSFeCH2FeSHSHC2H3FeS2C6H5C2HC3HCHC2H2C4HNHC6H9CHC4HCH2C6H4C2H2C2HCH5CH2C2HCH3C3HNH2C6H4CH5C2H2C2H3C2H4C2FeCH3CH3CH3CH6FeH5NC12H16NC2HCSH4CH4CH8CH3CH2CHCH3CSFeCNC2H3CH2SHCHCHC2H2CSCH7CHCH2C2HCH3CHC2HCSHC3HSH2CHSH3CH2C2H6SHC2H4CH4SHCH3C3H4C2HCHSCH2CHSH4C2H5CH2C2HCH16CH3CH2CH6C3NHCH8CH4C2H2CHS2HC2H2SH3CH5CFeC2SCHCNHCSH2C2H3SFeCH7CNH3C4H3SHC2NC5H2CHNH5CHNH2CH2CH3CH9C2H2CHSH2C2H5FeHCH2C2H7C2FeC2HC3H4SFeSH2FeSFeSH2FeH2C2HCFeSH2SHSHSCH2FeSHSCFeC2HCHSFeHSFeCSFeSHSHCSH3FeH3SHCH2C4H2SC6H3C6H2CH2CHC3H3C6H4C6H5CHSCHFeHSC8H2C2HC4NCNCH2CHCH3CH5CNH5SHCH2C2H2CH7CHCHCH5C2HCSH3CH3NCHC3HCH2C3H9CH6FeNHCH3SH4C3H13FeC2HCHCHC2H5SH3C3HCH3C2H3CHCH2CHSHSHNH2C2H3CH2SCH2SNH2C2HCSC2HCH9CH2SHSCH4C2HCHSHSCHSH3CH6CH2C2H3CH5C2HC2FeHSH2CHCH2CHFe2H4CH4C2H8C4FeHCH3CHCH3NHCHSH2CH3FeC2HC3H3CH4CHC3H5NH2CSHCH8NCSH3SCHSHSFeHFeS2HC2HCHSFeH2C2HCH3C5H2SH2CHCSNH2C6H8SHCH8SC3H2C2H5CH2CH3SHC2H3CSH2CH5C2HCH2CFeH5CHCH4CH2SCH7CH3CHCFeHCH2CNC11H6SC2FeCH8CHNC2HNCHCH3CHFeHCH2SC2SFe2CSFeS2CSCFeH2FeSHS2H2C2HCH3C6H4CHC4SC2H2C4H5SHCHC3H5CHFeH3C2H5CH5CH2CH3FeCHC2SH6CH2SCH2CHCH4NHC2HC3H4NH6FeHC2HSH2CSHNHCHC2SH2CHCHFeCH2CH2CSFeHFeCSHC3H3SH3FeHSFeHSCFeS3H5CHS2FeS2FeSHFeSCSC2HFeHSFeHSHCH2SFeHSFeHSH3FeSHSH2C6H4C2H2C3H3CH2C4H3C6H7C4HCHC6H5C3H4SC7H7CH3C2HCH4NC3H3CNC4HC2HC2HCH6C3HFeH3C2H2CHSHSH6FeH2SH3SH4CHCHCH4CH4CHSH2C3H2CH3CHCHCH2FeNC7SCHCFeH9SH7CHCHSH6NC10HCH21CH7CH6CH6C5H11CH5CH3C2H4CH2CNC2H4CHFeH3CH3NH2S2HCSH6SFeCFeCSH2C3H4C2H2CHCH2NHC2HCH3CH3CHCHSHC4S2H2CH2CSHCSH4CFeCHSC2H3FeCH4C4HC3HCH6CSH2CH2CH9C2FeCHCHCHC2H2CH2FeS2H5SHSH2CFeHC2HFeSHFeSHSFeHSHSH2SCH2FeHCFeSH3C3H4C6H3C4HCH3SH3CHC6H4C6H4CH2C2HC6H5SCH3FeNHC2H3C3H6CH2SH7CH6CH2CHCH5C4H3CH10CH2CH2CH9C3HFeHSCHNC4FeC4H3CH3CH5CH3CHC2HSNH7FeCH3CHSNHCH4CH3CH3CH3CH6C3H2C3HCSH4CH8CH2CH4CSCHC2HCHSHCH3C2HCH2SH2C3H2CH3SCHCH3CH2CSH3C2H3NH2FeHC2HNCH2CSH3CSH4SC2HCH2CNH2CH2CHCH7C3H2CSCHCHCHCNHSNH5CHCHNHCHC2H2CHCFeC2SH4FeH3C3FeCHC2HSH2SH2CHCHSCH6S2NSFeS2H2FeH2C2HNHFeHC7H5CH4SHC2H2SCH5CNCH2CHSH2C3HC2HC3H2CH2SCH6CH10C2H2C2H4C2HCFeH2CHCH2CH2C3HCHC2HCH5C2SHCH2CHCHCH3C3H2FeH2CH4CH2FeH2FeSHC2HSH2FeSC2S2H3CH2CSCSHSH2NH10SHC2HCH2CH3CH5C6H2CH3C4SH3C2H2CH5CH3FeSCHCFeCHCH3CH4CHCHCH5CFeCHC2H2CH3CS2NH6C2H3CFeH5C2H6CH3NC3HCH2CFeS2FeS2HSHFeSFeS2H2SHFeS2FeSFeS3FeS2H4S2HS2FeS2H2FeSH2FeS2FeSHFeSFeS3FeS2FeSHFeSFeSCSC7HNH6C7H4C6H5CH2C2H5CH3CHC3HCH6C6H4C6H3C2H3NHC8H4C6H5CH12CHCH2CH2CSFeCH3CHCHC2H3CH3NC2H5FeH3CHCH2CHFeH3C2H2CH3C3HCFeH2NCH6C3H4CH2C3H2CFeH3SNCHCH3FeH2SHC2H2CH3CHC4H5SCHNHC2HC2H2CH3CHC2H4CH3CH7CHCHC4H2CH2CH2CHCH6C2H2CH3C2H4NH2CHCHCH2C2H5CH2C3H3CH4CHC2H5CHSH2FeH6CH2CHC2H2CFeH2NC3HCH2C2H3C3H3CH2SCH6CHCHC2NHNH3CH2CHC3H4C3HC2HCHC2SH2CH2CH2CH3C2HSH3SHSHCHSH2CH2CSH5CHCH4CHCH3C2H5CHCHFeNH4CH3CH5SHC2H2S2HFeSHFeS3C3HCH2C6H4C4H5FeH2CH2CHC4H2C2HNH2C2H2CH2SC6HCH4CH2SC2H2CHC2H3SCH3SCHSNH2C3HCHCH2C2NC4H2NCH2CHCHC2H3C2H10CNH2FeH4CHCH4C3SCH3CH2C4H4SHC2H3SHSCSHSCH2C2H3C3H12CH2CHCHC2H3CSH7CH8C3HCH4C3H2CH8C2HCHFeNC5HC4HCHCH8CH8CH8C2H4SH5C2H9CH3C2H2C3HCH2SH3C2SCH6CH3CHNHC7H4CH3C3H5CHCH4CHCH3Fe2CHCHCH3CHCHC3H4C2HC3HNH5SCNCH2CH6SCSH3CH7CH4SCH2C2H5
_chemical_formula_sum              "H3072 S384 C1728 N96 Fe192"
_cell_length_a       77.0945
_cell_length_b       77.0321
_cell_length_c       77.0885
_cell_angle_alpha    80.904
_cell_angle_beta     80.7394
_cell_angle_gamma    80.7734

_space_group_name_H-M_alt    "P 1"
_space_group_IT_number       1

loop_
  _space_group_symop_operation_xyz
  'x, y, z'

loop_
  _atom_site_type_symbol
  _atom_site_label
  _atom_site_symmetry_multiplicity
  _atom_site_fract_x
  _atom_site_fract_y
  _atom_site_fract_z
  _atom_site_occupancy
  H   H1        1.0  0.43740  0.41223  0.02109  1.0000
  S   S1        1.0  0.46683  0.43063  0.07847  1.0000
  C   C1        1.0  0.45613  0.40344  0.13241  1.0000
  H   H2        1.0  0.45242  0.40878  0.17888  1.0000
  S   S2        1.0  0.42378  0.47028  0.19794  1.0000
  H   H3        1.0  0.42987  0.41259  0.16336  1.0000
  C   C2        1.0  0.44675  0.44024  0.20595  1.0000
  C   C3        1.0  0.45614  0.42737  0.21732  1.0000
  N   N1        1.0  0.46240  0.41763  0.14041  1.0000
  H   H4        1.0  0.46425  0.41595  0.21231  1.0000
  C   C4        1.0  0.46322  0.44930  0.06283  1.0000
  C   C5        1.0  0.47659  0.45334  0.04889  1.0000
  C   C6        1.0  0.47321  0.46745  0.03551  1.0000
  C   C7        1.0  0.45659  0.47784  0.03643  1.0000
  C   C8        1.0  0.44350  0.47435  0.05084  1.0000
  C   C9        1.0  0.44677  0.46000  0.06401  1.0000
  C   C10       1.0  0.47502  0.39017  0.18492  1.0000
  H   H5        1.0  0.48351  0.47044  0.02462  1.0000
  H   H6        1.0  0.47856  0.47169  0.20423  1.0000
  H   H7        1.0  0.43646  0.45704  0.07491  1.0000
  H   H8        1.0  0.48448  0.44895  0.24227  1.0000
  H   H9        1.0  0.47336  0.36513  0.11271  1.0000
  C   C11       1.0  0.41541  0.43888  0.16157  1.0000
  H   H10       1.0  0.42740  0.46871  0.23513  1.0000
  H   H11       1.0  0.48010  0.39465  0.11410  1.0000
  H   H12       1.0  0.36927  0.44126  0.21202  1.0000
  C   C12       1.0  0.48136  0.44356  0.13047  1.0000
  C   C13       1.0  0.43584  0.48425  0.14920  1.0000
  H   H13       1.0  0.47058  0.45275  0.13689  1.0000
  C   C14       1.0  0.49417  0.45372  0.18748  1.0000
  C   C15       1.0  0.47460  0.42709  0.12596  1.0000
  H   H14       1.0  0.45345  0.36844  0.12835  1.0000
  C   C16       1.0  0.43505  0.45702  0.23027  1.0000
  H   H15       1.0  0.46679  0.49214  0.10130  1.0000
  C   C17       1.0  0.45015  0.40617  0.04436  1.0000
  H   H16       1.0  0.46911  0.43146  0.02361  1.0000
  C   C18       1.0  0.48095  0.49358  0.06837  1.0000
  H   H17       1.0  0.45837  0.41214  0.05174  1.0000
  C   C19       1.0  0.48882  0.45989  0.20575  1.0000
  H   H18       1.0  0.45997  0.48888  0.13215  1.0000
  H   H19       1.0  0.48677  0.41804  0.12177  1.0000
  H   H20       1.0  0.45760  0.39346  0.04049  1.0000
  C   C20       1.0  0.46861  0.48134  0.23970  1.0000
  H   H21       1.0  0.46729  0.38364  0.19691  1.0000
  H   H22       1.0  0.46469  0.47284  0.23119  1.0000
  C   C21       1.0  0.38026  0.44924  0.21106  1.0000
  C   C22       1.0  0.46260  0.37527  0.11782  1.0000
  H   H23       1.0  0.38144  0.46679  0.01257  1.0000
  H   H24       1.0  0.48484  0.37982  0.17890  1.0000
  H   H25       1.0  0.44870  0.40977  0.12122  1.0000
  C   C23       1.0  0.42874  0.42449  0.15327  1.0000
  C   C24       1.0  0.44543  0.41892  0.02798  1.0000
  C   C25       1.0  0.43607  0.45500  0.21243  1.0000
  H   H26       1.0  0.46780  0.43142  0.11401  1.0000
  C   C26       1.0  0.37718  0.47587  0.00087  1.0000
  H   H27       1.0  0.42308  0.42103  0.14208  1.0000
  H   H28       1.0  0.47832  0.38162  0.13578  1.0000
  H   H29       1.0  0.45029  0.43803  0.15676  1.0000
  H   H30       1.0  0.45605  0.38914  0.16786  1.0000
  H   H31       1.0  0.44582  0.45501  0.01404  1.0000
  H   H32       1.0  0.48296  0.44898  0.21466  1.0000
  H   H33       1.0  0.43701  0.43081  0.03272  1.0000
  H   H34       1.0  0.48049  0.45044  0.99931  1.0000
  C   C27       1.0  0.44402  0.44388  0.24177  1.0000
  Fe  Fe1       1.0  0.48929  0.41208  0.06656  1.0000
  C   C28       1.0  0.47073  0.38892  0.12517  1.0000
  C   C29       1.0  0.46246  0.42414  0.01579  1.0000
  H   H35       1.0  0.44181  0.47108  0.15528  1.0000
  H   H36       1.0  0.42018  0.44251  0.17321  1.0000
  C   C30       1.0  0.44689  0.43117  0.14632  1.0000
  H   H37       1.0  0.43201  0.44579  0.00260  1.0000
  H   H38       1.0  0.45531  0.38177  0.10667  1.0000
  H   H39       1.0  0.48481  0.40109  0.15077  1.0000
  H   H40       1.0  0.48222  0.39984  0.18911  1.0000
  H   H41       1.0  0.49200  0.48990  0.07646  1.0000
  C   C31       1.0  0.46254  0.39948  0.17175  1.0000
  H   H42       1.0  0.41329  0.45094  0.15171  1.0000
  H   H43       1.0  0.43786  0.40329  0.05332  1.0000
  H   H44       1.0  0.44407  0.44181  0.13509  1.0000
  H   H45       1.0  0.43073  0.48251  0.05181  1.0000
  H   H46       1.0  0.44767  0.43868  0.19212  1.0000
  C   C32       1.0  0.44525  0.45032  0.00119  1.0000
  H   H47       1.0  0.39174  0.44361  0.20198  1.0000
  H   H48       1.0  0.39730  0.45622  0.22734  1.0000
  H   H49       1.0  0.49640  0.41895  0.99898  1.0000
  H   H50       1.0  0.40247  0.43391  0.16614  1.0000
  H   H51       1.0  0.47772  0.42051  0.16074  1.0000
  H   H52       1.0  0.44656  0.39628  0.14208  1.0000
  C   C33       1.0  0.47272  0.40988  0.15552  1.0000
  H   H53       1.0  0.37595  0.46307  0.20522  1.0000
  H   H54       1.0  0.48966  0.44586  0.04862  1.0000
  H   H55       1.0  0.49156  0.43930  0.13953  1.0000
  H   H56       1.0  0.39581  0.48737  0.12423  1.0000
  H   H57       1.0  0.48227  0.45070  0.18273  1.0000
  H   H58       1.0  0.44514  0.47866  0.12263  1.0000
  H   H59       1.0  0.38621  0.48615  0.99720  1.0000
  C   C34       1.0  0.44590  0.48917  0.13074  1.0000
  H   H60       1.0  0.47144  0.41152  0.01396  1.0000
  C   C35       1.0  0.45458  0.42903  0.23531  1.0000
  C   C36       1.0  0.48987  0.45408  0.11359  1.0000
  Fe  Fe2       1.0  0.49131  0.39706  0.23944  1.0000
  H   H61       1.0  0.36348  0.48248  0.00467  1.0000
  H   H62       1.0  0.36497  0.47017  0.23593  1.0000
  C   C37       1.0  0.38583  0.44880  0.22930  1.0000
  N   N2        1.0  0.45983  0.43500  0.99802  1.0000
  H   H63       1.0  0.48866  0.49448  0.22173  1.0000
  H   H64       1.0  0.42506  0.48319  0.00380  1.0000
  S   S3        1.0  0.48705  0.38321  0.06950  1.0000
  Fe  Fe3       1.0  0.40730  0.49564  0.20589  1.0000
  H   H65       1.0  0.39000  0.43466  0.23418  1.0000
  S   S4        1.0  0.45207  0.49504  0.01953  1.0000
  S   S5        1.0  0.49048  0.37493  0.01916  1.0000
  H   H66       1.0  0.47994  0.45913  0.10436  1.0000
  C   C38       1.0  0.48816  0.48479  0.23411  1.0000
  H   H67       1.0  0.42170  0.48365  0.14841  1.0000
  H   H68       1.0  0.47449  0.48170  0.06854  1.0000
  H   H69       1.0  0.43652  0.49414  0.15804  1.0000
  H   H70       1.0  0.44755  0.49337  0.09123  1.0000
  C   C39       1.0  0.37034  0.45681  0.24238  1.0000
  H   H71       1.0  0.35981  0.44826  0.24336  1.0000
  H   H72       1.0  0.44207  0.49578  0.24360  1.0000
  H   H73       1.0  0.49106  0.49207  0.24448  1.0000
  H   H74       1.0  0.49505  0.46558  0.11696  1.0000
  C   C40       1.0  0.49654  0.37927  0.99564  1.0000
  H   H75       1.0  0.21901  0.45763  0.38389  1.0000
  H   H76       1.0  0.49121  0.46566  0.26800  1.0000
  S   S6        1.0  0.46523  0.41253  0.25007  1.0000
  H   H77       1.0  0.38396  0.48326  0.25020  1.0000
  C   C41       1.0  0.15148  0.37254  0.48686  1.0000
  S   S7        1.0  0.40917  0.04451  0.47873  1.0000
  H   H78       1.0  0.47988  0.06998  0.46953  1.0000
  Fe  Fe4       1.0  0.39742  0.07135  0.46674  1.0000
  S   S8        1.0  0.38918  0.07558  0.43965  1.0000
  S   S9        1.0  0.49468  0.26970  0.38154  1.0000
  S   S10       1.0  0.10944  0.49023  0.38451  1.0000
  S   S11       1.0  0.45001  0.08885  0.37593  1.0000
  N   N3        1.0  0.49436  0.19816  0.32095  1.0000
  S   S12       1.0  0.09446  0.44871  0.37222  1.0000
  C   C42       1.0  0.29777  0.33006  0.47567  1.0000
  C   C43       1.0  0.34114  0.45681  0.27304  1.0000
  H   H79       1.0  0.49458  0.42480  0.27167  1.0000
  H   H80       1.0  0.40741  0.44051  0.27564  1.0000
  H   H81       1.0  0.00317  0.41087  0.40494  1.0000
  H   H82       1.0  0.46444  0.12897  0.47448  1.0000
  Fe  Fe5       1.0  0.05233  0.41127  0.46256  1.0000
  S   S13       1.0  0.04762  0.40824  0.43530  1.0000
  H   H83       1.0  0.26760  0.33248  0.42814  1.0000
  S   S14       1.0  0.45387  0.24155  0.39054  1.0000
  Fe  Fe6       1.0  0.39829  0.25549  0.48188  1.0000
  S   S15       1.0  0.42400  0.26349  0.46669  1.0000
  H   H84       1.0  0.00900  0.44725  0.39665  1.0000
  S   S16       1.0  0.37519  0.24883  0.47131  1.0000
  H   H85       1.0  0.35980  0.46796  0.28445  1.0000
  Fe  Fe7       1.0  0.23940  0.40133  0.46000  1.0000
  S   S17       1.0  0.23925  0.41305  0.43108  1.0000
  H   H86       1.0  0.02440  0.38629  0.45961  1.0000
  S   S18       1.0  0.23682  0.37228  0.46784  1.0000
  H   H87       1.0  0.40686  0.43496  0.25420  1.0000
  C   C44       1.0  0.26554  0.46190  0.40493  1.0000
  C   C45       1.0  0.26758  0.45471  0.42253  1.0000
  C   C46       1.0  0.25939  0.43989  0.43088  1.0000
  C   C47       1.0  0.24959  0.43183  0.42144  1.0000
  C   C48       1.0  0.24782  0.43886  0.40378  1.0000
  C   C49       1.0  0.25547  0.45403  0.39564  1.0000
  H   H88       1.0  0.27558  0.46056  0.42972  1.0000
  H   H89       1.0  0.26098  0.43448  0.44445  1.0000
  H   H90       1.0  0.24069  0.43241  0.39628  1.0000
  H   H91       1.0  0.25403  0.45930  0.38200  1.0000
  H   H92       1.0  0.26614  0.47441  0.30878  1.0000
  H   H93       1.0  0.34449  0.44245  0.27766  1.0000
  H   H94       1.0  0.15443  0.35881  0.48456  1.0000
  C   C50       1.0  0.38805  0.47067  0.25876  1.0000
  H   H95       1.0  0.46665  0.47459  0.25355  1.0000
  H   H96       1.0  0.37333  0.42994  0.26637  1.0000
  C   C51       1.0  0.44597  0.24668  0.41216  1.0000
  C   C52       1.0  0.42912  0.24290  0.42041  1.0000
  C   C53       1.0  0.42246  0.24735  0.43748  1.0000
  C   C54       1.0  0.43252  0.25590  0.44620  1.0000
  C   C55       1.0  0.44944  0.25941  0.43806  1.0000
  C   C56       1.0  0.45619  0.25473  0.42114  1.0000
  H   H97       1.0  0.42119  0.23659  0.41355  1.0000
  H   H98       1.0  0.40946  0.24444  0.44372  1.0000
  H   H99       1.0  0.45729  0.26598  0.44475  1.0000
  H   H100      1.0  0.46922  0.25762  0.41494  1.0000
  H   H101      1.0  0.48147  0.12650  0.48803  1.0000
  H   H102      1.0  0.02406  0.38861  0.42061  1.0000
  H   H103      1.0  0.14436  0.49015  0.35513  1.0000
  C   C57       1.0  0.02379  0.46908  0.43184  1.0000
  C   C58       1.0  0.41000  0.48146  0.27478  1.0000
  H   H104      1.0  0.00496  0.48151  0.34686  1.0000
  N   N4        1.0  0.37443  0.45821  0.26061  1.0000
  C   C59       1.0  0.17531  0.41064  0.44287  1.0000
  H   H105      1.0  0.03856  0.45374  0.39935  1.0000
  C   C60       1.0  0.08209  0.43726  0.39010  1.0000
  C   C61       1.0  0.07771  0.44389  0.40637  1.0000
  C   C62       1.0  0.06716  0.43499  0.42040  1.0000
  C   C63       1.0  0.06095  0.41953  0.41812  1.0000
  C   C64       1.0  0.06537  0.41290  0.40187  1.0000
  C   C65       1.0  0.07614  0.42163  0.38795  1.0000
  H   H106      1.0  0.08260  0.45577  0.40818  1.0000
  H   H107      1.0  0.06371  0.44025  0.43285  1.0000
  H   H108      1.0  0.06064  0.40089  0.40011  1.0000
  H   H109      1.0  0.07953  0.41652  0.37535  1.0000
  S   S19       1.0  0.27602  0.48043  0.39471  1.0000
  H   H110      1.0  0.41581  0.01155  0.36719  1.0000
  C   C66       1.0  0.40641  0.07920  0.42231  1.0000
  C   C67       1.0  0.40219  0.08637  0.40544  1.0000
  C   C68       1.0  0.41568  0.08965  0.39137  1.0000
  C   C69       1.0  0.43346  0.08552  0.39405  1.0000
  C   C70       1.0  0.43775  0.07841  0.41092  1.0000
  C   C71       1.0  0.42420  0.07521  0.42509  1.0000
  H   H111      1.0  0.38844  0.08951  0.40330  1.0000
  H   H112      1.0  0.41233  0.09519  0.37833  1.0000
  H   H113      1.0  0.45150  0.07531  0.41305  1.0000
  H   H114      1.0  0.42751  0.06959  0.43812  1.0000
  S   S20       1.0  0.21490  0.41035  0.47789  1.0000
  C   C72       1.0  0.26634  0.29699  0.48971  1.0000
  C   C73       1.0  0.48114  0.19677  0.30888  1.0000
  H   H115      1.0  0.19275  0.49025  0.39072  1.0000
  C   C74       1.0  0.25201  0.47458  0.30728  1.0000
  H   H116      1.0  0.20987  0.30811  0.48942  1.0000
  C   C75       1.0  0.40419  0.41353  0.27532  1.0000
  H   H117      1.0  0.00408  0.49584  0.38964  1.0000
  C   C76       1.0  0.23708  0.29555  0.48213  1.0000
  H   H118      1.0  0.03577  0.46799  0.42183  1.0000
  S   S21       1.0  0.06852  0.43018  0.46928  1.0000
  H   H119      1.0  0.39059  0.46468  0.28744  1.0000
  Fe  Fe8       1.0  0.48241  0.24546  0.38084  1.0000
  H   H120      1.0  0.47840  0.04156  0.32312  1.0000
  C   C77       1.0  0.42461  0.04563  0.37169  1.0000
  H   H121      1.0  0.46458  0.02853  0.38564  1.0000
  H   H122      1.0  0.33048  0.46279  0.29982  1.0000
  H   H123      1.0  0.48192  0.06012  0.33338  1.0000
  H   H124      1.0  0.01981  0.38069  0.38320  1.0000
  C   C78       1.0  0.38023  0.44005  0.27032  1.0000
  C   C79       1.0  0.48323  0.00179  0.48191  1.0000
  H   H125      1.0  0.31444  0.45761  0.28750  1.0000
  H   H126      1.0  0.38052  0.29533  0.46366  1.0000
  H   H127      1.0  0.42158  0.06000  0.34521  1.0000
  C   C80       1.0  0.20546  0.45383  0.38641  1.0000
  N   N5        1.0  0.42983  0.13621  0.42504  1.0000
  C   C81       1.0  0.43650  0.13414  0.40586  1.0000
  C   C82       1.0  0.41317  0.12762  0.43062  1.0000
  C   C83       1.0  0.42638  0.15578  0.42672  1.0000
  C   C84       1.0  0.44335  0.12737  0.43697  1.0000
  C   C85       1.0  0.45023  0.10757  0.43532  1.0000
  C   C86       1.0  0.45491  0.14011  0.39853  1.0000
  C   C87       1.0  0.41568  0.16089  0.44445  1.0000
  C   C88       1.0  0.39730  0.13586  0.42050  1.0000
  C   C89       1.0  0.38028  0.12863  0.42949  1.0000
  C   C90       1.0  0.46518  0.10042  0.44637  1.0000
  C   C91       1.0  0.46015  0.13782  0.37896  1.0000
  C   C92       1.0  0.41379  0.18092  0.44470  1.0000
  H   H128      1.0  0.42698  0.14197  0.39717  1.0000
  H   H129      1.0  0.43690  0.12018  0.40348  1.0000
  H   H130      1.0  0.41580  0.11341  0.42859  1.0000
  H   H131      1.0  0.40880  0.12736  0.44516  1.0000
  H   H132      1.0  0.41936  0.16340  0.41575  1.0000
  H   H133      1.0  0.43913  0.16127  0.42511  1.0000
  H   H134      1.0  0.45501  0.13470  0.43477  1.0000
  H   H135      1.0  0.43770  0.12786  0.45114  1.0000
  H   H136      1.0  0.45548  0.10552  0.42147  1.0000
  H   H137      1.0  0.43944  0.09935  0.44013  1.0000
  H   H138      1.0  0.45476  0.15432  0.39962  1.0000
  H   H139      1.0  0.46545  0.13217  0.40583  1.0000
  H   H140      1.0  0.42225  0.15413  0.45597  1.0000
  H   H141      1.0  0.40210  0.15727  0.44628  1.0000
  H   H142      1.0  0.39469  0.15050  0.41981  1.0000
  H   H143      1.0  0.40001  0.13251  0.40673  1.0000
  H   H144      1.0  0.36919  0.13448  0.42187  1.0000
  H   H145      1.0  0.38192  0.11399  0.43001  1.0000
  H   H146      1.0  0.37669  0.13206  0.44321  1.0000
  S   S22       1.0  0.06449  0.38798  0.48022  1.0000
  C   C93       1.0  0.01126  0.38438  0.41931  1.0000
  H   H147      1.0  0.47661  0.10790  0.44194  1.0000
  H   H148      1.0  0.35371  0.48043  0.26440  1.0000
  H   H149      1.0  0.46105  0.12366  0.37718  1.0000
  H   H150      1.0  0.47335  0.14214  0.37407  1.0000
  H   H151      1.0  0.42693  0.18520  0.44447  1.0000
  H   H152      1.0  0.40755  0.18831  0.43317  1.0000
  H   H153      1.0  0.40510  0.18448  0.45692  1.0000
  H   H154      1.0  0.36437  0.33668  0.48402  1.0000
  H   H155      1.0  0.00179  0.47993  0.49081  1.0000
  Fe  Fe9       1.0  0.42718  0.05976  0.48851  1.0000
  H   H156      1.0  0.22143  0.46469  0.42091  1.0000
  Fe  Fe10      1.0  0.21314  0.38169  0.48700  1.0000
  H   H157      1.0  0.24083  0.49438  0.41385  1.0000
  H   H158      1.0  0.42053  0.47023  0.27188  1.0000
  H   H159      1.0  0.38322  0.00500  0.45158  1.0000
  C   C94       1.0  0.03840  0.45070  0.37236  1.0000
  H   H160      1.0  0.38906  0.04491  0.36734  1.0000
  H   H161      1.0  0.39869  0.41109  0.28959  1.0000
  C   C95       1.0  0.45354  0.20956  0.29450  1.0000
  C   C96       1.0  0.46570  0.20049  0.36763  1.0000
  S   S23       1.0  0.49448  0.24311  0.35257  1.0000
  H   H162      1.0  0.20800  0.27912  0.48008  1.0000
  C   C97       1.0  0.01130  0.46136  0.39326  1.0000
  H   H163      1.0  0.48810  0.19295  0.29592  1.0000
  H   H164      1.0  0.45292  0.20832  0.37246  1.0000
  C   C98       1.0  0.42676  0.00697  0.37530  1.0000
  H   H165      1.0  0.40769  0.31883  0.43910  1.0000
  H   H166      1.0  0.46048  0.10108  0.46069  1.0000
  C   C99       1.0  0.45421  0.04458  0.35465  1.0000
  H   H167      1.0  0.38990  0.05869  0.34610  1.0000
  S   S24       1.0  0.41739  0.08629  0.47393  1.0000
  C   C100      1.0  0.38683  0.33562  0.41692  1.0000
  S   S25       1.0  0.06588  0.48944  0.39219  1.0000
  H   H168      1.0  0.44551  0.19996  0.30317  1.0000
  H   H169      1.0  0.04491  0.36063  0.47131  1.0000
  H   H170      1.0  0.25952  0.33186  0.47777  1.0000
  H   H171      1.0  0.48089  0.04094  0.36254  1.0000
  H   H172      1.0  0.37586  0.34362  0.39200  1.0000
  C   C101      1.0  0.35760  0.46664  0.27083  1.0000
  H   H173      1.0  0.31425  0.31294  0.45800  1.0000
  N   N6        1.0  0.00243  0.47194  0.40800  1.0000
  H   H174      1.0  0.21280  0.43651  0.36604  1.0000
  C   C102      1.0  0.46161  0.25445  0.49277  1.0000
  H   H175      1.0  0.46468  0.02175  0.41812  1.0000
  H   H176      1.0  0.44378  0.02320  0.43258  1.0000
  H   H177      1.0  0.46981  0.08633  0.44451  1.0000
  H   H178      1.0  0.21977  0.47833  0.40050  1.0000
  S   S26       1.0  0.49009  0.09646  0.39801  1.0000
  H   H179      1.0  0.39112  0.02568  0.42344  1.0000
  H   H180      1.0  0.38312  0.03665  0.44274  1.0000
  H   H181      1.0  0.29126  0.33833  0.46526  1.0000
  C   C103      1.0  0.16131  0.39925  0.49207  1.0000
  H   H182      1.0  0.45958  0.20398  0.28212  1.0000
  H   H183      1.0  0.03302  0.34549  0.46397  1.0000
  H   H184      1.0  0.27536  0.30577  0.49253  1.0000
  H   H185      1.0  0.44164  0.16011  0.47772  1.0000
  S   S27       1.0  0.45552  0.04688  0.48831  1.0000
  H   H186      1.0  0.36746  0.33487  0.45215  1.0000
  C   C104      1.0  0.02520  0.37347  0.45449  1.0000
  C   C105      1.0  0.41976  0.30003  0.42102  1.0000
  H   H187      1.0  0.24680  0.34200  0.43949  1.0000
  C   C106      1.0  0.46972  0.20481  0.34745  1.0000
  C   C107      1.0  0.03172  0.35865  0.46859  1.0000
  C   C108      1.0  0.01803  0.39455  0.38624  1.0000
  C   C109      1.0  0.44852  0.16218  0.48874  1.0000
  H   H188      1.0  0.03992  0.46253  0.45323  1.0000
  H   H189      1.0  0.38156  0.48712  0.28029  1.0000
  H   H190      1.0  0.41790  0.18567  0.48248  1.0000
  H   H191      1.0  0.47627  0.20410  0.37409  1.0000
  H   H192      1.0  0.27276  0.29162  0.47732  1.0000
  H   H193      1.0  0.00519  0.46655  0.38095  1.0000
  S   S28       1.0  0.37704  0.07636  0.49042  1.0000
  C   C110      1.0  0.31973  0.30458  0.48484  1.0000
  H   H194      1.0  0.03543  0.37293  0.44265  1.0000
  C   C111      1.0  0.45092  0.03570  0.38662  1.0000
  C   C112      1.0  0.24411  0.49344  0.30047  1.0000
  H   H195      1.0  0.27448  0.31296  0.45510  1.0000
  C   C113      1.0  0.48824  0.43797  0.27534  1.0000
  H   H196      1.0  0.03169  0.45692  0.36073  1.0000
  H   H197      1.0  0.03107  0.39798  0.38792  1.0000
  H   H198      1.0  0.03618  0.43660  0.37576  1.0000
  H   H199      1.0  0.45201  0.04968  0.38789  1.0000
  H   H200      1.0  0.45304  0.05898  0.35586  1.0000
  H   H201      1.0  0.37596  0.43966  0.28488  1.0000
  H   H202      1.0  0.24437  0.28872  0.47086  1.0000
  Fe  Fe11      1.0  0.25385  0.37289  0.48894  1.0000
  H   H203      1.0  0.46121  0.21976  0.31599  1.0000
  N   N7        1.0  0.44296  0.03518  0.37010  1.0000
  C   C114      1.0  0.41569  0.04927  0.35458  1.0000
  H   H204      1.0  0.18852  0.49297  0.31338  1.0000
  H   H205      1.0  0.41763  0.03731  0.34778  1.0000
  H   H206      1.0  0.12330  0.37401  0.48597  1.0000
  H   H207      1.0  0.20717  0.44300  0.41361  1.0000
  H   H208      1.0  0.37524  0.16718  0.46781  1.0000
  C   C115      1.0  0.02840  0.45798  0.44916  1.0000
  H   H209      1.0  0.16041  0.49375  0.42005  1.0000
  H   H210      1.0  0.48384  0.17960  0.34287  1.0000
  H   H211      1.0  0.17596  0.47704  0.35512  1.0000
  H   H212      1.0  0.43678  0.32031  0.42011  1.0000
  C   C116      1.0  0.39580  0.05549  0.35865  1.0000
  H   H213      1.0  0.47401  0.43987  0.27356  1.0000
  H   H214      1.0  0.48914  0.43810  0.28955  1.0000
  C   C117      1.0  0.00663  0.49071  0.40338  1.0000
  H   H215      1.0  0.24473  0.46994  0.32042  1.0000
  H   H216      1.0  0.20397  0.49279  0.43562  1.0000
  S   S29       1.0  0.25804  0.40164  0.47968  1.0000
  H   H217      1.0  0.45162  0.04303  0.42076  1.0000
  H   H218      1.0  0.45525  0.00780  0.37141  1.0000
  H   H219      1.0  0.41521  0.30597  0.40818  1.0000
  H   H220      1.0  0.41550  0.03926  0.38255  1.0000
  S   S30       1.0  0.33575  0.28605  0.47881  1.0000
  S   S31       1.0  0.02860  0.41883  0.48213  1.0000
  H   H221      1.0  0.44295  0.44527  0.25566  1.0000
  S   S32       1.0  0.20829  0.49219  0.35030  1.0000
  C   C118      1.0  0.47918  0.07059  0.48351  1.0000
  H   H222      1.0  0.18537  0.39877  0.44104  1.0000
  H   H223      1.0  0.39345  0.06761  0.36532  1.0000
  H   H224      1.0  0.21442  0.42526  0.38820  1.0000
  Fe  Fe12      1.0  0.08944  0.47776  0.37441  1.0000
  C   C119      1.0  0.03161  0.46079  0.38822  1.0000
  H   H225      1.0  0.42188  0.28540  0.42133  1.0000
  C   C120      1.0  0.16538  0.38149  0.48907  1.0000
  H   H226      1.0  0.39832  0.40541  0.26770  1.0000
  H   H227      1.0  0.15420  0.39472  0.44756  1.0000
  C   C121      1.0  0.39634  0.00981  0.44869  1.0000
  H   H228      1.0  0.19291  0.43224  0.38090  1.0000
  C   C122      1.0  0.20644  0.43582  0.38008  1.0000
  H   H229      1.0  0.38156  0.36155  0.40147  1.0000
  H   H230      1.0  0.45031  0.14593  0.37085  1.0000
  N   N8        1.0  0.38690  0.30414  0.43564  1.0000
  C   C123      1.0  0.48367  0.04541  0.33433  1.0000
  C   C124      1.0  0.37580  0.30622  0.45342  1.0000
  C   C125      1.0  0.38613  0.28564  0.43181  1.0000
  C   C126      1.0  0.37958  0.31749  0.42108  1.0000
  C   C127      1.0  0.23132  0.49429  0.42628  1.0000
  H   H231      1.0  0.10313  0.48047  0.45132  1.0000
  C   C128      1.0  0.36735  0.28088  0.43158  1.0000
  C   C129      1.0  0.44136  0.02734  0.40443  1.0000
  H   H232      1.0  0.42754  0.03397  0.40715  1.0000
  C   C130      1.0  0.37951  0.16284  0.48068  1.0000
  S   S33       1.0  0.48690  0.05411  0.39722  1.0000
  C   C131      1.0  0.36845  0.26367  0.42367  1.0000
  C   C132      1.0  0.43777  0.30562  0.42161  1.0000
  H   H233      1.0  0.38217  0.31189  0.40827  1.0000
  H   H234      1.0  0.36174  0.30485  0.45301  1.0000
  C   C133      1.0  0.21861  0.30421  0.47736  1.0000
  H   H235      1.0  0.39258  0.27555  0.44171  1.0000
  H   H236      1.0  0.39381  0.28346  0.41864  1.0000
  H   H237      1.0  0.44481  0.01531  0.35245  1.0000
  H   H238      1.0  0.36485  0.32019  0.42409  1.0000
  H   H239      1.0  0.41009  0.29663  0.44905  1.0000
  H   H240      1.0  0.42290  0.00261  0.43599  1.0000
  H   H241      1.0  0.47043  0.01089  0.48262  1.0000
  H   H242      1.0  0.38685  0.34168  0.42898  1.0000
  H   H243      1.0  0.35929  0.29152  0.42367  1.0000
  H   H244      1.0  0.36021  0.27881  0.44528  1.0000
  H   H245      1.0  0.40070  0.33395  0.41012  1.0000
  H   H246      1.0  0.49275  0.01675  0.39108  1.0000
  C   C134      1.0  0.44324  0.01624  0.36692  1.0000
  H   H247      1.0  0.40645  0.03387  0.43475  1.0000
  C   C135      1.0  0.31090  0.31561  0.47158  1.0000
  C   C136      1.0  0.40598  0.30534  0.43701  1.0000
  H   H248      1.0  0.39980  0.01257  0.46129  1.0000
  H   H249      1.0  0.42154  0.00982  0.38891  1.0000
  H   H250      1.0  0.17439  0.41330  0.45675  1.0000
  H   H251      1.0  0.44155  0.01296  0.40433  1.0000
  C   C137      1.0  0.37583  0.34889  0.40462  1.0000
  H   H252      1.0  0.37666  0.25263  0.43101  1.0000
  H   H253      1.0  0.35492  0.26004  0.42464  1.0000
  H   H254      1.0  0.37433  0.26536  0.40948  1.0000
  N   N9        1.0  0.19478  0.47041  0.41399  1.0000
  C   C138      1.0  0.18467  0.46719  0.43244  1.0000
  H   H255      1.0  0.05287  0.45111  0.36856  1.0000
  C   C139      1.0  0.19781  0.45304  0.40641  1.0000
  H   H256      1.0  0.41877  0.40923  0.27393  1.0000
  H   H257      1.0  0.46945  0.00838  0.45025  1.0000
  C   C140      1.0  0.19454  0.45418  0.44634  1.0000
  C   C141      1.0  0.17243  0.49131  0.35378  1.0000
  H   H258      1.0  0.35129  0.32085  0.47981  1.0000
  C   C142      1.0  0.45096  0.02894  0.41987  1.0000
  C   C143      1.0  0.48364  0.00245  0.44880  1.0000
  C   C144      1.0  0.18257  0.45196  0.46421  1.0000
  C   C145      1.0  0.26044  0.31893  0.45466  1.0000
  H   H259      1.0  0.17199  0.46226  0.43176  1.0000
  H   H260      1.0  0.18061  0.47968  0.43834  1.0000
  H   H261      1.0  0.45781  0.17174  0.48264  1.0000
  C   C146      1.0  0.36505  0.32363  0.47937  1.0000
  H   H262      1.0  0.18513  0.44735  0.40822  1.0000
  C   C147      1.0  0.47432  0.03734  0.35207  1.0000
  H   H263      1.0  0.46177  0.26544  0.48153  1.0000
  H   H264      1.0  0.44933  0.04395  0.34197  1.0000
  Fe  Fe13      1.0  0.47768  0.08062  0.38254  1.0000
  C   C148      1.0  0.39421  0.02751  0.43656  1.0000
  H   H265      1.0  0.19869  0.44084  0.44218  1.0000
  H   H266      1.0  0.20656  0.45931  0.44855  1.0000
  H   H267      1.0  0.48849  0.22675  0.32081  1.0000
  H   H268      1.0  0.19709  0.46352  0.37797  1.0000
  H   H269      1.0  0.46464  0.18616  0.37160  1.0000
  H   H270      1.0  0.01705  0.45932  0.45996  1.0000
  H   H271      1.0  0.36192  0.35173  0.41114  1.0000
  H   H272      1.0  0.47490  0.22394  0.29524  1.0000
  H   H273      1.0  0.44754  0.30070  0.41061  1.0000
  H   H274      1.0  0.38832  0.32744  0.46082  1.0000
  H   H275      1.0  0.03539  0.47428  0.38434  1.0000
  C   C149      1.0  0.21271  0.49272  0.42275  1.0000
  H   H276      1.0  0.17074  0.44592  0.46300  1.0000
  H   H277      1.0  0.19000  0.44315  0.47418  1.0000
  H   H278      1.0  0.17820  0.46497  0.46915  1.0000
  H   H279      1.0  0.15885  0.40499  0.42498  1.0000
  H   H280      1.0  0.33578  0.45839  0.26026  1.0000
  C   C150      1.0  0.00769  0.46306  0.42573  1.0000
  H   H281      1.0  0.38290  0.13488  0.47780  1.0000
  H   H282      1.0  0.47655  0.02270  0.35250  1.0000
  H   H283      1.0  0.17988  0.42208  0.43361  1.0000
  H   H284      1.0  0.42508  0.05883  0.37561  1.0000
  N   N10       1.0  0.12591  0.42334  0.43475  1.0000
  C   C151      1.0  0.11137  0.43635  0.44304  1.0000
  C   C152      1.0  0.11991  0.40520  0.43937  1.0000
  C   C153      1.0  0.14243  0.42264  0.44320  1.0000
  C   C154      1.0  0.12891  0.42797  0.41476  1.0000
  C   C155      1.0  0.14301  0.44046  0.40683  1.0000
  C   C156      1.0  0.11480  0.45587  0.44109  1.0000
  C   C157      1.0  0.15741  0.40719  0.43906  1.0000
  C   C158      1.0  0.10199  0.40343  0.43354  1.0000
  C   C159      1.0  0.09887  0.38405  0.43596  1.0000
  C   C160      1.0  0.14287  0.44592  0.38691  1.0000
  C   C161      1.0  0.10023  0.46663  0.45254  1.0000
  H   H285      1.0  0.44454  0.22195  0.29091  1.0000
  H   H286      1.0  0.10816  0.43164  0.45747  1.0000
  H   H287      1.0  0.09895  0.43704  0.43723  1.0000
  H   H288      1.0  0.12993  0.39506  0.43321  1.0000
  H   H289      1.0  0.11880  0.40094  0.45399  1.0000
  H   H290      1.0  0.13901  0.42134  0.45791  1.0000
  H   H291      1.0  0.14814  0.43525  0.43959  1.0000
  H   H292      1.0  0.13309  0.41575  0.40825  1.0000
  H   H293      1.0  0.11617  0.43403  0.40981  1.0000
  H   H294      1.0  0.15651  0.43359  0.40867  1.0000
  H   H295      1.0  0.14082  0.45270  0.41314  1.0000
  H   H296      1.0  0.12757  0.45699  0.44533  1.0000
  H   H297      1.0  0.11455  0.46214  0.42712  1.0000
  C   C162      1.0  0.18390  0.48407  0.40215  1.0000
  H   H298      1.0  0.27153  0.49158  0.43487  1.0000
  H   H299      1.0  0.09080  0.41049  0.44179  1.0000
  H   H300      1.0  0.10155  0.40894  0.41939  1.0000
  H   H301      1.0  0.09908  0.37804  0.45003  1.0000
  H   H302      1.0  0.08566  0.38335  0.43229  1.0000
  H   H303      1.0  0.10915  0.37632  0.42731  1.0000
  H   H304      1.0  0.12968  0.45310  0.38422  1.0000
  H   H305      1.0  0.15300  0.45487  0.38156  1.0000
  H   H306      1.0  0.14590  0.43407  0.37982  1.0000
  H   H307      1.0  0.08711  0.46702  0.44815  1.0000
  H   H308      1.0  0.09958  0.46084  0.46674  1.0000
  H   H309      1.0  0.02241  0.35871  0.48113  1.0000
  H   H310      1.0  0.01456  0.37058  0.41590  1.0000
  C   C163      1.0  0.47124  0.13651  0.48194  1.0000
  H   H311      1.0  0.47328  0.18579  0.31470  1.0000
  H   H312      1.0  0.19621  0.29750  0.46722  1.0000
  C   C164      1.0  0.20958  0.29110  0.47016  1.0000
  H   H313      1.0  0.25341  0.30971  0.44960  1.0000
  H   H314      1.0  0.00832  0.35749  0.44609  1.0000
  C   C165      1.0  0.26057  0.33579  0.44120  1.0000
  H   H315      1.0  0.43444  0.19831  0.48640  1.0000
  C   C166      1.0  0.40050  0.43321  0.26815  1.0000
  H   H316      1.0  0.47053  0.21921  0.34443  1.0000
  H   H317      1.0  0.22259  0.48348  0.29151  1.0000
  S   S34       1.0  0.25960  0.48925  0.34638  1.0000
  C   C167      1.0  0.42504  0.18887  0.49271  1.0000
  H   H318      1.0  0.23871  0.33192  0.47121  1.0000
  H   H319      1.0  0.44267  0.29981  0.43436  1.0000
  H   H320      1.0  0.21750  0.49069  0.31255  1.0000
  N   N11       1.0  0.99871  0.38463  0.43653  1.0000
  C   C168      1.0  0.48699  0.19342  0.34021  1.0000
  H   H321      1.0  0.02500  0.49563  0.46188  1.0000
  H   H322      1.0  0.25141  0.46533  0.29777  1.0000
  C   C169      1.0  0.46790  0.21371  0.30416  1.0000
  H   H323      1.0  0.26753  0.34554  0.44560  1.0000
  H   H324      1.0  0.02079  0.48310  0.43435  1.0000
  H   H325      1.0  0.03202  0.44379  0.44733  1.0000
  S   S35       1.0  0.18738  0.36979  0.48852  1.0000
  C   C170      1.0  0.39161  0.47581  0.27645  1.0000
  N   N12       1.0  0.24839  0.30760  0.48736  1.0000
  H   H326      1.0  0.45835  0.20184  0.34178  1.0000
  C   C171      1.0  0.38028  0.17563  0.49165  1.0000
  H   H327      1.0  0.23607  0.48299  0.43602  1.0000
  C   C172      1.0  0.25134  0.32325  0.47324  1.0000
  C   C173      1.0  0.48881  0.08200  0.48927  1.0000
  C   C174      1.0  0.38386  0.14449  0.48631  1.0000
  C   C175      1.0  0.37494  0.32411  0.46049  1.0000
  H   H328      1.0  0.99769  0.48881  0.46908  1.0000
  H   H329      1.0  0.02094  0.49132  0.40320  1.0000
  C   C176      1.0  0.00686  0.37091  0.45030  1.0000
  H   H330      1.0  0.17485  0.47755  0.39613  1.0000
  Fe  Fe14      1.0  0.35770  0.26549  0.49088  1.0000
  C   C177      1.0  0.32623  0.46451  0.28648  1.0000
  C   C178      1.0  0.21270  0.47582  0.41423  1.0000
  H   H331      1.0  0.32227  0.47887  0.28222  1.0000
  C   C179      1.0  0.48091  0.14932  0.46732  1.0000
  H   H332      1.0  0.21745  0.28706  0.45770  1.0000
  S   S36       1.0  0.37436  0.19863  0.48379  1.0000
  H   H333      1.0  0.41174  0.48571  0.28743  1.0000
  H   H334      1.0  0.43540  0.13275  0.49297  1.0000
  H   H335      1.0  0.21943  0.31596  0.46707  1.0000
  H   H336      1.0  0.48598  0.15968  0.47271  1.0000
  S   S37       1.0  0.10766  0.41038  0.49245  1.0000
  H   H337      1.0  0.00940  0.40783  0.44048  1.0000
  H   H338      1.0  0.40081  0.46514  0.25164  1.0000
  H   H339      1.0  0.41156  0.49273  0.26405  1.0000
  H   H340      1.0  0.49654  0.16250  0.31632  1.0000
  C   C180      1.0  0.29284  0.33353  0.49324  1.0000
  C   C181      1.0  0.22416  0.49435  0.29885  1.0000
  H   H341      1.0  0.01053  0.44838  0.42591  1.0000
  H   H342      1.0  0.01313  0.40358  0.37479  1.0000
  C   C182      1.0  0.00468  0.39671  0.40297  1.0000
  Fe  Fe15      1.0  0.37549  0.22543  0.49309  1.0000
  H   H343      1.0  0.47158  0.15612  0.45797  1.0000
  H   H344      1.0  0.99804  0.37016  0.46323  1.0000
  Fe  Fe16      1.0  0.07917  0.40766  0.48887  1.0000
  H   H345      1.0  0.46841  0.24194  0.48789  1.0000
  H   H346      1.0  0.23745  0.49210  0.26453  1.0000
  H   H347      1.0  0.48928  0.27294  0.48984  1.0000
  C   C183      1.0  0.14358  0.40773  0.49322  1.0000
  C   C184      1.0  0.13378  0.38112  0.48768  1.0000
  H   H348      1.0  0.49428  0.03041  0.48909  1.0000
  H   H349      1.0  0.29402  0.49371  0.43749  1.0000
  H   H350      1.0  0.49223  0.12895  0.45048  1.0000
  C   C185      1.0  0.12969  0.39875  0.49103  1.0000
  Fe  Fe17      1.0  0.04604  0.43543  0.49085  1.0000
  H   H351      1.0  0.37201  0.31329  0.48859  1.0000
  H   H352      1.0  0.07415  0.44966  0.49416  1.0000
  H   H353      1.0  0.23449  0.28466  0.49313  1.0000
  H   H354      1.0  0.49015  0.00757  0.43545  1.0000
  C   C186      1.0  0.49284  0.00753  0.46301  1.0000
  H   H355      1.0  0.49245  0.02222  0.46069  1.0000
  H   H356      1.0  0.17179  0.40641  0.49367  1.0000
  H   H357      1.0  0.29337  0.26917  0.49449  1.0000
  H   H358      1.0  0.16563  0.49402  0.29357  1.0000
  H   H359      1.0  0.99731  0.42987  0.46117  1.0000
  H   H360      1.0  0.03165  0.49339  0.35195  1.0000
  C   C187      1.0  0.00340  0.49404  0.35200  1.0000
  H   H361      1.0  0.49649  0.09064  0.47966  1.0000
  C   C188      1.0  0.41076  0.99608  0.43992  1.0000
  H   H362      1.0  0.27354  0.49395  0.49480  1.0000
  H   H363      1.0  0.36319  0.03033  0.55904  1.0000
  C   C189      1.0  0.49139  0.31040  0.64942  1.0000
  S   S38       1.0  0.02290  0.37853  0.51770  1.0000
  C   C190      1.0  0.47047  0.25865  0.50769  1.0000
  C   C191      1.0  0.37484  0.00631  0.52090  1.0000
  S   S39       1.0  0.46572  0.10605  0.55823  1.0000
  H   H364      1.0  0.25960  0.28450  0.51747  1.0000
  Fe  Fe18      1.0  0.48559  0.27747  0.61472  1.0000
  S   S40       1.0  0.40931  0.06425  0.51375  1.0000
  H   H365      1.0  0.17667  0.48820  0.66891  1.0000
  H   H366      1.0  0.23342  0.30356  0.51372  1.0000
  H   H367      1.0  0.44752  0.25288  0.49773  1.0000
  C   C192      1.0  0.47051  0.39311  0.66749  1.0000
  S   S41       1.0  0.09453  0.47060  0.57787  1.0000
  S   S42       1.0  0.26355  0.45170  0.57440  1.0000
  Fe  Fe19      1.0  0.46854  0.27204  0.58246  1.0000
  S   S43       1.0  0.45250  0.28270  0.55990  1.0000
  S   S44       1.0  0.46069  0.26611  0.61203  1.0000
  H   H368      1.0  0.39323  0.06129  0.59209  1.0000
  H   H369      1.0  0.46257  0.27068  0.51257  1.0000
  S   S45       1.0  0.35618  0.24141  0.51205  1.0000
  H   H370      1.0  0.32091  0.43442  0.54953  1.0000
  H   H371      1.0  0.33697  0.49002  0.60854  1.0000
  Fe  Fe20      1.0  0.38092  0.24895  0.51974  1.0000
  S   S46       1.0  0.38657  0.24780  0.54793  1.0000
  H   H372      1.0  0.04788  0.40956  0.60193  1.0000
  S   S47       1.0  0.22975  0.38031  0.50893  1.0000
  H   H373      1.0  0.49628  0.40192  0.66455  1.0000
  C   C193      1.0  0.05487  0.47013  0.50484  1.0000
  H   H374      1.0  0.26005  0.27024  0.50092  1.0000
  H   H375      1.0  0.48508  0.00355  0.52576  1.0000
  S   S48       1.0  0.22577  0.43281  0.51334  1.0000
  H   H376      1.0  0.30013  0.42956  0.56234  1.0000
  S   S49       1.0  0.10143  0.48452  0.52658  1.0000
  C   C194      1.0  0.47318  0.19923  0.58747  1.0000
  H   H377      1.0  0.11523  0.42119  0.53591  1.0000
  S   S50       1.0  0.48159  0.42744  0.69236  1.0000
  H   H378      1.0  0.02969  0.44101  0.57674  1.0000
  Fe  Fe21      1.0  0.38888  0.48159  0.71072  1.0000
  H   H379      1.0  0.44295  0.20900  0.51246  1.0000
  S   S51       1.0  0.39948  0.45234  0.71200  1.0000
  C   C195      1.0  0.45869  0.43424  0.69731  1.0000
  C   C196      1.0  0.45198  0.45232  0.69428  1.0000
  C   C197      1.0  0.43380  0.45811  0.69884  1.0000
  C   C198      1.0  0.42227  0.44575  0.70611  1.0000
  C   C199      1.0  0.42895  0.42764  0.70878  1.0000
  C   C200      1.0  0.44713  0.42190  0.70447  1.0000
  H   H380      1.0  0.42000  0.41807  0.71435  1.0000
  H   H381      1.0  0.45222  0.40796  0.70678  1.0000
  H   H382      1.0  0.44802  0.21055  0.55080  1.0000
  H   H383      1.0  0.25102  0.31630  0.51221  1.0000
  H   H384      1.0  0.34661  0.43289  0.61861  1.0000
  S   S52       1.0  0.24448  0.48297  0.61052  1.0000
  C   C201      1.0  0.34085  0.47822  0.61815  1.0000
  C   C202      1.0  0.07194  0.46096  0.50123  1.0000
  H   H385      1.0  0.39793  0.01698  0.55005  1.0000
  S   S53       1.0  0.37641  0.02907  0.52149  1.0000
  H   H386      1.0  0.32876  0.44683  0.57424  1.0000
  C   C203      1.0  0.43468  0.27215  0.55671  1.0000
  C   C204      1.0  0.42914  0.27481  0.53988  1.0000
  C   C205      1.0  0.41472  0.26704  0.53695  1.0000
  C   C206      1.0  0.40521  0.25716  0.55102  1.0000
  C   C207      1.0  0.41058  0.25471  0.56792  1.0000
  C   C208      1.0  0.42550  0.26183  0.57069  1.0000
  H   H387      1.0  0.43588  0.28309  0.52910  1.0000
  H   H388      1.0  0.41068  0.26914  0.52389  1.0000
  H   H389      1.0  0.40310  0.24737  0.57895  1.0000
  H   H390      1.0  0.42949  0.25988  0.58376  1.0000
  S   S54       1.0  0.46974  0.15247  0.57089  1.0000
  C   C209      1.0  0.25383  0.44695  0.55660  1.0000
  C   C210      1.0  0.24196  0.45966  0.54782  1.0000
  C   C211      1.0  0.23379  0.45519  0.53435  1.0000
  C   C212      1.0  0.23754  0.43805  0.52936  1.0000
  C   C213      1.0  0.24971  0.42544  0.53785  1.0000
  C   C214      1.0  0.25776  0.42987  0.55145  1.0000
  H   H391      1.0  0.23876  0.47283  0.55162  1.0000
  H   H392      1.0  0.22440  0.46503  0.52787  1.0000
  H   H393      1.0  0.25269  0.41219  0.53416  1.0000
  H   H394      1.0  0.26695  0.41995  0.55812  1.0000
  C   C215      1.0  0.42219  0.20508  0.54564  1.0000
  H   H395      1.0  0.20559  0.46024  0.62483  1.0000
  H   H396      1.0  0.47877  0.30741  0.54515  1.0000
  H   H397      1.0  0.42281  0.33716  0.64963  1.0000
  C   C216      1.0  0.08634  0.46615  0.50706  1.0000
  C   C217      1.0  0.08363  0.47998  0.51732  1.0000
  H   H398      1.0  0.21570  0.44005  0.56944  1.0000
  C   C218      1.0  0.05230  0.48468  0.51428  1.0000
  H   H399      1.0  0.46089  0.46189  0.68861  1.0000
  H   H400      1.0  0.45448  0.99835  0.50664  1.0000
  H   H401      1.0  0.20770  0.48950  0.63367  1.0000
  H   H402      1.0  0.38607  0.17937  0.51698  1.0000
  C   C219      1.0  0.42210  0.20930  0.60922  1.0000
  C   C220      1.0  0.24036  0.31399  0.50492  1.0000
  C   C221      1.0  0.38711  0.04945  0.59851  1.0000
  C   C222      1.0  0.21018  0.48399  0.64745  1.0000
  C   C223      1.0  0.38907  0.04696  0.61820  1.0000
  H   H403      1.0  0.42867  0.47208  0.69661  1.0000
  C   C224      1.0  0.20708  0.47312  0.70839  1.0000
  H   H404      1.0  0.42122  0.22387  0.60512  1.0000
  C   C225      1.0  0.42609  0.14626  0.55615  1.0000
  C   C226      1.0  0.20323  0.44815  0.57458  1.0000
  C   C227      1.0  0.00161  0.35234  0.56335  1.0000
  H   H405      1.0  0.42756  0.10639  0.52601  1.0000
  H   H406      1.0  0.01003  0.34560  0.51938  1.0000
  H   H407      1.0  0.37273  0.05250  0.59747  1.0000
  S   S55       1.0  0.39975  0.23149  0.50238  1.0000
  C   C228      1.0  0.47826  0.07132  0.51979  1.0000
  H   H408      1.0  0.44636  0.01081  0.53511  1.0000
  C   C229      1.0  0.36420  0.04126  0.56647  1.0000
  C   C230      1.0  0.43654  0.10151  0.51448  1.0000
  H   H409      1.0  0.47765  0.07174  0.53383  1.0000
  H   H410      1.0  0.00421  0.34170  0.57452  1.0000
  C   C231      1.0  0.47475  0.16345  0.60242  1.0000
  H   H411      1.0  0.46718  0.36371  0.69583  1.0000
  C   C232      1.0  0.45794  0.03925  0.58903  1.0000
  C   C233      1.0  0.49144  0.28373  0.52036  1.0000
  C   C234      1.0  0.41330  0.20071  0.59696  1.0000
  C   C235      1.0  0.42188  0.17659  0.56638  1.0000
  C   C236      1.0  0.46967  0.03095  0.57584  1.0000
  C   C237      1.0  0.14974  0.47193  0.51265  1.0000
  H   H412      1.0  0.35337  0.47062  0.61242  1.0000
  N   N13       1.0  0.44252  0.37771  0.66952  1.0000
  H   H413      1.0  0.31474  0.47231  0.59838  1.0000
  C   C238      1.0  0.43496  0.36594  0.65955  1.0000
  C   C239      1.0  0.43238  0.39620  0.66649  1.0000
  C   C240      1.0  0.44021  0.37129  0.68922  1.0000
  C   C241      1.0  0.45515  0.35740  0.69641  1.0000
  C   C242      1.0  0.48164  0.15906  0.50774  1.0000
  C   C243      1.0  0.31525  0.30844  0.50230  1.0000
  H   H414      1.0  0.47244  0.01988  0.51217  1.0000
  H   H415      1.0  0.40583  0.39212  0.66224  1.0000
  C   C244      1.0  0.44965  0.34984  0.71572  1.0000
  H   H416      1.0  0.41778  0.19951  0.53495  1.0000
  H   H417      1.0  0.43566  0.13664  0.51508  1.0000
  H   H418      1.0  0.39321  0.14704  0.52730  1.0000
  H   H419      1.0  0.44706  0.05369  0.55537  1.0000
  H   H420      1.0  0.42079  0.36506  0.66484  1.0000
  H   H421      1.0  0.44387  0.32299  0.64765  1.0000
  H   H422      1.0  0.43506  0.40200  0.65228  1.0000
  H   H423      1.0  0.43699  0.40520  0.67424  1.0000
  H   H424      1.0  0.43899  0.38260  0.69696  1.0000
  H   H425      1.0  0.42750  0.36567  0.69329  1.0000
  H   H426      1.0  0.22578  0.45261  0.63454  1.0000
  H   H427      1.0  0.43522  0.37193  0.64536  1.0000
  H   H428      1.0  0.32186  0.30024  0.51271  1.0000
  H   H429      1.0  0.20981  0.32381  0.52839  1.0000
  H   H430      1.0  0.14532  0.48172  0.52216  1.0000
  H   H431      1.0  0.38259  0.05906  0.62408  1.0000
  H   H432      1.0  0.19136  0.39100  0.51569  1.0000
  C   C245      1.0  0.15620  0.42876  0.55802  1.0000
  H   H433      1.0  0.39066  0.21310  0.57105  1.0000
  H   H434      1.0  0.19274  0.37436  0.53487  1.0000
  H   H435      1.0  0.16548  0.41769  0.52730  1.0000
  H   H436      1.0  0.38441  0.01108  0.57046  1.0000
  H   H437      1.0  0.46095  0.34063  0.72073  1.0000
  H   H438      1.0  0.12578  0.44430  0.59273  1.0000
  C   C246      1.0  0.45686  0.00327  0.58566  1.0000
  H   H439      1.0  0.18040  0.45478  0.52513  1.0000
  H   H440      1.0  0.35278  0.06133  0.54665  1.0000
  C   C247      1.0  0.05053  0.42330  0.60180  1.0000
  C   C248      1.0  0.41189  0.00096  0.57059  1.0000
  H   H441      1.0  0.17728  0.45817  0.56767  1.0000
  N   N14       1.0  0.05688  0.43043  0.56735  1.0000
  C   C249      1.0  0.04103  0.44471  0.56679  1.0000
  C   C250      1.0  0.06349  0.42881  0.58503  1.0000
  C   C251      1.0  0.07147  0.43656  0.55316  1.0000
  C   C252      1.0  0.05296  0.41272  0.56395  1.0000
  C   C253      1.0  0.30183  0.32263  0.50646  1.0000
  C   C254      1.0  0.03444  0.45002  0.54846  1.0000
  C   C255      1.0  0.08968  0.42446  0.55258  1.0000
  C   C256      1.0  0.16816  0.45154  0.53418  1.0000
  H   H442      1.0  0.31428  0.47462  0.62915  1.0000
  H   H443      1.0  0.31754  0.48830  0.68524  1.0000
  H   H444      1.0  0.40177  0.16392  0.55802  1.0000
  C   C257      1.0  0.45203  0.99664  0.53472  1.0000
  N   N15       1.0  0.39761  0.03403  0.56999  1.0000
  H   H445      1.0  0.03918  0.49178  0.51730  1.0000
  S   S56       1.0  0.45676  0.06188  0.59193  1.0000
  H   H446      1.0  0.06773  0.44161  0.58657  1.0000
  H   H447      1.0  0.07377  0.45019  0.55457  1.0000
  H   H448      1.0  0.06746  0.43767  0.53972  1.0000
  H   H449      1.0  0.05574  0.41156  0.54953  1.0000
  H   H450      1.0  0.06219  0.40173  0.57016  1.0000
  H   H451      1.0  0.21728  0.33234  0.49550  1.0000
  H   H452      1.0  0.14446  0.45528  0.56517  1.0000
  H   H453      1.0  0.04299  0.45928  0.54020  1.0000
  H   H454      1.0  0.03526  0.43845  0.54130  1.0000
  H   H455      1.0  0.08813  0.41042  0.55240  1.0000
  H   H456      1.0  0.09615  0.42528  0.56421  1.0000
  C   C258      1.0  0.14803  0.44154  0.57167  1.0000
  H   H457      1.0  0.45857  0.34521  0.65672  1.0000
  S   S57       1.0  0.49217  0.28486  0.58492  1.0000
  H   H458      1.0  0.41537  0.20684  0.62306  1.0000
  C   C259      1.0  0.38960  0.15139  0.51415  1.0000
  C   C260      1.0  0.43533  0.06368  0.55311  1.0000
  C   C261      1.0  0.13113  0.43543  0.58251  1.0000
  H   H459      1.0  0.44593  0.36063  0.72418  1.0000
  H   H460      1.0  0.20046  0.40190  0.54141  1.0000
  H   H461      1.0  0.33408  0.45670  0.59747  1.0000
  Fe  Fe22      1.0  0.25842  0.47910  0.58319  1.0000
  H   H462      1.0  0.19492  0.46065  0.54974  1.0000
  H   H463      1.0  0.22260  0.48421  0.67619  1.0000
  C   C262      1.0  0.20406  0.46545  0.65208  1.0000
  C   C263      1.0  0.38869  0.13860  0.50322  1.0000
  H   H464      1.0  0.01138  0.46311  0.53659  1.0000
  H   H465      1.0  0.20865  0.34738  0.52172  1.0000
  H   H466      1.0  0.48602  0.25298  0.53857  1.0000
  H   H467      1.0  0.43574  0.00450  0.60755  1.0000
  C   C264      1.0  0.31425  0.49557  0.67273  1.0000
  H   H468      1.0  0.01392  0.35844  0.55850  1.0000
  Fe  Fe23      1.0  0.04119  0.39668  0.50030  1.0000
  H   H469      1.0  0.09949  0.45895  0.50418  1.0000
  H   H470      1.0  0.35457  0.00610  0.54361  1.0000
  H   H471      1.0  0.45155  0.48593  0.71356  1.0000
  H   H472      1.0  0.17826  0.49579  0.63570  1.0000
  C   C265      1.0  0.30051  0.49099  0.66480  1.0000
  H   H473      1.0  0.49357  0.15286  0.49962  1.0000
  H   H474      1.0  0.47150  0.18965  0.56306  1.0000
  H   H475      1.0  0.14060  0.42139  0.49574  1.0000
  C   C266      1.0  0.47436  0.19478  0.60561  1.0000
  H   H476      1.0  0.49296  0.39143  0.64630  1.0000
  H   H477      1.0  0.45937  0.11110  0.51967  1.0000
  H   H478      1.0  0.45744  0.15059  0.52299  1.0000
  C   C267      1.0  0.18519  0.48882  0.59887  1.0000
  C   C268      1.0  0.48811  0.08263  0.50739  1.0000
  H   H479      1.0  0.43790  0.07664  0.55599  1.0000
  C   C269      1.0  0.00922  0.46917  0.60892  1.0000
  H   H480      1.0  0.13906  0.47266  0.50433  1.0000
  Fe  Fe24      1.0  0.23308  0.40873  0.49838  1.0000
  Fe  Fe25      1.0  0.39773  0.08997  0.49850  1.0000
  S   S58       1.0  0.48495  0.10009  0.59400  1.0000
  H   H481      1.0  0.09680  0.42952  0.52391  1.0000
  C   C270      1.0  0.39514  0.19976  0.56668  1.0000
  H   H482      1.0  0.38954  0.18838  0.54369  1.0000
  C   C271      1.0  0.17732  0.41990  0.53282  1.0000
  H   H483      1.0  0.04139  0.37983  0.57655  1.0000
  C   C272      1.0  0.02278  0.47779  0.59837  1.0000
  S   S59       1.0  0.38126  0.27363  0.49991  1.0000
  H   H484      1.0  0.48649  0.03291  0.62351  1.0000
  H   H485      1.0  0.34988  0.06786  0.56865  1.0000
  C   C273      1.0  0.44435  0.13237  0.50310  1.0000
  H   H486      1.0  0.21062  0.48418  0.71419  1.0000
  C   C274      1.0  0.49041  0.39095  0.66095  1.0000
  H   H487      1.0  0.49038  0.45626  0.71664  1.0000
  H   H488      1.0  0.04421  0.45706  0.57065  1.0000
  H   H489      1.0  0.28542  0.26055  0.51701  1.0000
  H   H490      1.0  0.19809  0.48115  0.59994  1.0000
  Fe  Fe26      1.0  0.06872  0.48542  0.58953  1.0000
  Fe  Fe27      1.0  0.09260  0.49124  0.55411  1.0000
  H   H491      1.0  0.17204  0.46598  0.59930  1.0000
  H   H492      1.0  0.02437  0.41687  0.56157  1.0000
  H   H493      1.0  0.44910  0.19038  0.54117  1.0000
  H   H494      1.0  0.46969  0.24743  0.51861  1.0000
  H   H495      1.0  0.15654  0.44392  0.51254  1.0000
  H   H496      1.0  0.39902  0.20623  0.59855  1.0000
  C   C275      1.0  0.46919  0.01290  0.57421  1.0000
  H   H497      1.0  0.14934  0.49440  0.65481  1.0000
  C   C276      1.0  0.01540  0.45949  0.55003  1.0000
  H   H498      1.0  0.20053  0.43039  0.54635  1.0000
  C   C277      1.0  0.47315  0.16804  0.58439  1.0000
  H   H499      1.0  0.41738  0.03918  0.54727  1.0000
  H   H500      1.0  0.40768  0.06880  0.56188  1.0000
  C   C278      1.0  0.41193  0.39787  0.67173  1.0000
  H   H501      1.0  0.47602  0.17314  0.62700  1.0000
  C   C279      1.0  0.41608  0.16512  0.55417  1.0000
  N   N16       1.0  0.41522  0.19622  0.56377  1.0000
  S   S60       1.0  0.04503  0.47153  0.60297  1.0000
  H   H502      1.0  0.46083  0.05131  0.52345  1.0000
  S   S61       1.0  0.47364  0.21136  0.61962  1.0000
  H   H503      1.0  0.19755  0.44115  0.58745  1.0000
  H   H504      1.0  0.38220  0.06022  0.56574  1.0000
  C   C280      1.0  0.17041  0.48028  0.59844  1.0000
  C   C281      1.0  0.18622  0.40143  0.54086  1.0000
  H   H505      1.0  0.18492  0.48867  0.69717  1.0000
  H   H506      1.0  0.46849  0.39246  0.68213  1.0000
  H   H507      1.0  0.38626  0.04872  0.54721  1.0000
  C   C282      1.0  0.18988  0.45137  0.56134  1.0000
  H   H508      1.0  0.41740  0.17060  0.58012  1.0000
  H   H509      1.0  0.47638  0.16936  0.53311  1.0000
  Fe  Fe28      1.0  0.47401  0.08281  0.57836  1.0000
  H   H510      1.0  0.00616  0.45072  0.55817  1.0000
  H   H511      1.0  0.43654  0.19998  0.57749  1.0000
  H   H512      1.0  0.41852  0.17076  0.54004  1.0000
  H   H513      1.0  0.13394  0.42170  0.58941  1.0000
  H   H514      1.0  0.07542  0.41865  0.58572  1.0000
  H   H515      1.0  0.15739  0.44151  0.58120  1.0000
  H   H516      1.0  0.01252  0.45864  0.61943  1.0000
  H   H517      1.0  0.41503  0.19531  0.50257  1.0000
  Fe  Fe29      1.0  0.47855  0.23990  0.60900  1.0000
  Fe  Fe30      1.0  0.49271  0.09868  0.54350  1.0000
  H   H518      1.0  0.02875  0.41051  0.58385  1.0000
  S   S62       1.0  0.39310  0.11557  0.51165  1.0000
  H   H519      1.0  0.47824  0.28237  0.52834  1.0000
  H   H520      1.0  0.17997  0.39707  0.55447  1.0000
  C   C283      1.0  0.35009  0.05665  0.56111  1.0000
  C   C284      1.0  0.39537  0.03248  0.58999  1.0000
  C   C285      1.0  0.38553  0.16975  0.50838  1.0000
  H   H521      1.0  0.21936  0.46408  0.70447  1.0000
  H   H522      1.0  0.45900  0.34614  0.68869  1.0000
  C   C286      1.0  0.47877  0.00577  0.51343  1.0000
  H   H523      1.0  0.15949  0.41568  0.56600  1.0000
  H   H524      1.0  0.34373  0.42639  0.59818  1.0000
  H   H525      1.0  0.47206  0.21295  0.58162  1.0000
  S   S63       1.0  0.27482  0.35026  0.49970  1.0000
  C   C287      1.0  0.49205  0.05873  0.62576  1.0000
  C   C288      1.0  0.32147  0.46034  0.60607  1.0000
  H   H526      1.0  0.06165  0.43681  0.61945  1.0000
  H   H527      1.0  0.36098  0.03655  0.58081  1.0000
  H   H528      1.0  0.01866  0.38634  0.57286  1.0000
  H   H529      1.0  0.44097  0.34352  0.63297  1.0000
  C   C289      1.0  0.48953  0.31073  0.68147  1.0000
  H   H530      1.0  0.14552  0.42680  0.55068  1.0000
  H   H531      1.0  0.18771  0.42308  0.56665  1.0000
  H   H532      1.0  0.44116  0.17582  0.51243  1.0000
  N   N17       1.0  0.45816  0.14467  0.49630  1.0000
  H   H533      1.0  0.30414  0.45233  0.55585  1.0000
  C   C290      1.0  0.38308  0.04680  0.56196  1.0000
  N   N18       1.0  0.49261  0.00262  0.49752  1.0000
  C   C291      1.0  0.43741  0.33703  0.64675  1.0000
  H   H534      1.0  0.49636  0.04392  0.59335  1.0000
  C   C292      1.0  0.46165  0.37870  0.66161  1.0000
  H   H535      1.0  0.38678  0.02217  0.59612  1.0000
  C   C293      1.0  0.48741  0.45337  0.73132  1.0000
  C   C294      1.0  0.46857  0.05993  0.51395  1.0000
  H   H536      1.0  0.43347  0.06500  0.53901  1.0000
  N   N19       1.0  0.31003  0.44563  0.60964  1.0000
  H   H537      1.0  0.38899  0.41818  0.67475  1.0000
  C   C295      1.0  0.30388  0.44353  0.59254  1.0000
  C   C296      1.0  0.29370  0.45147  0.62221  1.0000
  C   C297      1.0  0.31928  0.42821  0.61797  1.0000
  C   C298      1.0  0.33970  0.42420  0.61269  1.0000
  H   H538      1.0  0.47806  0.00659  0.56395  1.0000
  C   C299      1.0  0.27887  0.43936  0.62588  1.0000
  C   C300      1.0  0.31837  0.43798  0.57730  1.0000
  C   C301      1.0  0.31036  0.43863  0.56025  1.0000
  C   C302      1.0  0.34666  0.40500  0.61942  1.0000
  H   H539      1.0  0.42130  0.13815  0.54767  1.0000
  C   C303      1.0  0.26564  0.44361  0.64219  1.0000
  C   C304      1.0  0.44531  0.01172  0.59867  1.0000
  S   S64       1.0  0.05694  0.41397  0.51089  1.0000
  H   H540      1.0  0.29481  0.43328  0.59481  1.0000
  H   H541      1.0  0.29595  0.45612  0.58739  1.0000
  H   H542      1.0  0.28749  0.46501  0.61716  1.0000
  H   H543      1.0  0.29738  0.45257  0.63534  1.0000
  H   H544      1.0  0.31712  0.42733  0.63272  1.0000
  H   H545      1.0  0.31322  0.41696  0.61510  1.0000
  C   C305      1.0  0.41870  0.05821  0.56493  1.0000
  C   C306      1.0  0.03246  0.38912  0.56827  1.0000
  H   H546      1.0  0.35868  0.20247  0.54391  1.0000
  C   C307      1.0  0.47523  0.17677  0.61298  1.0000
  H   H547      1.0  0.28443  0.42512  0.62818  1.0000
  H   H548      1.0  0.27134  0.44151  0.61440  1.0000
  H   H549      1.0  0.32449  0.42407  0.58081  1.0000
  H   H550      1.0  0.47500  0.14974  0.60841  1.0000
  C   C308      1.0  0.32607  0.46653  0.62280  1.0000
  C   C309      1.0  0.47084  0.44410  0.73619  1.0000
  H   H551      1.0  0.40332  0.04482  0.61995  1.0000
  H   H552      1.0  0.36131  0.40262  0.61587  1.0000
  H   H553      1.0  0.34343  0.40231  0.63409  1.0000
  H   H554      1.0  0.34078  0.39563  0.61325  1.0000
  H   H555      1.0  0.03607  0.38672  0.55420  1.0000
  S   S65       1.0  0.47931  0.37966  0.72207  1.0000
  H   H556      1.0  0.42390  0.13986  0.57014  1.0000
  H   H557      1.0  0.25478  0.43533  0.64402  1.0000
  H   H558      1.0  0.27229  0.44073  0.65429  1.0000
  H   H559      1.0  0.25980  0.45783  0.64054  1.0000
  H   H560      1.0  0.42431  0.16372  0.50851  1.0000
  H   H561      1.0  0.43683  0.03562  0.61059  1.0000
  C   C310      1.0  0.43465  0.17199  0.50205  1.0000
  H   H562      1.0  0.47881  0.03850  0.56676  1.0000
  H   H563      1.0  0.44188  0.22877  0.52268  1.0000
  C   C311      1.0  0.40363  0.41732  0.67130  1.0000
  N   N20       1.0  0.17220  0.43378  0.54529  1.0000
  H   H564      1.0  0.03787  0.43246  0.60267  1.0000
  C   C312      1.0  0.47262  0.18596  0.57697  1.0000
  H   H565      1.0  0.07101  0.41377  0.61897  1.0000
  H   H566      1.0  0.47014  0.36584  0.66448  1.0000
  H   H567      1.0  0.43628  0.20353  0.60899  1.0000
  C   C313      1.0  0.36527  0.20186  0.55584  1.0000
  H   H568      1.0  0.40667  0.42480  0.65788  1.0000
  C   C314      1.0  0.48741  0.30235  0.66696  1.0000
  C   C315      1.0  0.15349  0.49005  0.59717  1.0000
  H   H569      1.0  0.33682  0.05215  0.56395  1.0000
  H   H570      1.0  0.40832  0.39099  0.68530  1.0000
  C   C316      1.0  0.06664  0.48942  0.52077  1.0000
  C   C317      1.0  0.19737  0.48030  0.69238  1.0000
  C   C318      1.0  0.03369  0.40837  0.56997  1.0000
  H   H571      1.0  0.46493  0.40659  0.66172  1.0000
  H   H572      1.0  0.44212  0.08761  0.51843  1.0000
  C   C319      1.0  0.18778  0.43373  0.55504  1.0000
  H   H573      1.0  0.38268  0.03545  0.62542  1.0000
  H   H574      1.0  0.17135  0.38517  0.52958  1.0000
  C   C320      1.0  0.45158  0.11264  0.50852  1.0000
  H   H575      1.0  0.04904  0.41951  0.63049  1.0000
  H   H576      1.0  0.41452  0.18628  0.60172  1.0000
  H   H577      1.0  0.18680  0.42461  0.52113  1.0000
  C   C321      1.0  0.38535  0.20026  0.55043  1.0000
  H   H578      1.0  0.36166  0.19021  0.56543  1.0000
  C   C322      1.0  0.22743  0.33170  0.50429  1.0000
  C   C323      1.0  0.21779  0.33468  0.52273  1.0000
  H   H579      1.0  0.36032  0.21423  0.56188  1.0000
  C   C324      1.0  0.00352  0.37351  0.51082  1.0000
  H   H580      1.0  0.01443  0.47179  0.55613  1.0000
  H   H581      1.0  0.43830  0.34232  0.71680  1.0000
  H   H582      1.0  0.48535  0.46608  0.73691  1.0000
  Fe  Fe31      1.0  0.47932  0.12265  0.57223  1.0000
  H   H583      1.0  0.41243  0.99975  0.58504  1.0000
  H   H584      1.0  0.42075  0.21917  0.57382  1.0000
  H   H585      1.0  0.41642  0.21938  0.54413  1.0000
  C   C325      1.0  0.44395  0.34638  0.66003  1.0000
  H   H586      1.0  0.38799  0.21194  0.54047  1.0000
  C   C326      1.0  0.46732  0.14647  0.51169  1.0000
  Fe  Fe32      1.0  0.49348  0.40226  0.70811  1.0000
  H   H587      1.0  0.20654  0.46104  0.57685  1.0000
  H   H588      1.0  0.47676  0.17220  0.50076  1.0000
  S   S66       1.0  0.13513  0.47848  0.59780  1.0000
  H   H589      1.0  0.48938  0.31929  0.52512  1.0000
  C   C327      1.0  0.10244  0.43019  0.53612  1.0000
  H   H590      1.0  0.23507  0.34295  0.49929  1.0000
  H   H591      1.0  0.29827  0.32510  0.52010  1.0000
  H   H592      1.0  0.46282  0.38131  0.64685  1.0000
  H   H593      1.0  0.38973  0.18997  0.57763  1.0000
  H   H594      1.0  0.46240  0.21383  0.52000  1.0000
  H   H595      1.0  0.12088  0.43595  0.57378  1.0000
  H   H596      1.0  0.14040  0.45042  0.53092  1.0000
  H   H597      1.0  0.33007  0.45515  0.63275  1.0000
  H   H598      1.0  0.10508  0.44394  0.53616  1.0000
  C   C328      1.0  0.18532  0.38714  0.52954  1.0000
  H   H599      1.0  0.20695  0.44071  0.64106  1.0000
  H   H600      1.0  0.43660  0.17435  0.56520  1.0000
  C   C329      1.0  0.42211  0.20450  0.57739  1.0000
  C   C330      1.0  0.15307  0.45318  0.52262  1.0000
  C   C331      1.0  0.44261  0.20431  0.54120  1.0000
  C   C332      1.0  0.44774  0.21458  0.52293  1.0000
  H   H601      1.0  0.19837  0.46553  0.71872  1.0000
  H   H602      1.0  0.16450  0.46240  0.54252  1.0000
  H   H603      1.0  0.44054  0.14641  0.55204  1.0000
  C   C333      1.0  0.39719  0.01600  0.56474  1.0000
  Fe  Fe33      1.0  0.39057  0.05029  0.50313  1.0000
  C   C334      1.0  0.44592  0.02942  0.60039  1.0000
  H   H604      1.0  0.27854  0.49301  0.52568  1.0000
  H   H605      1.0  0.29347  0.48018  0.67140  1.0000
  H   H606      1.0  0.40864  0.42370  0.68111  1.0000
  H   H607      1.0  0.16195  0.47544  0.50390  1.0000
  H   H608      1.0  0.42641  0.03036  0.56717  1.0000
  H   H609      1.0  0.44048  0.33893  0.67337  1.0000
  C   C335      1.0  0.41535  0.03970  0.56185  1.0000
  C   C336      1.0  0.21107  0.45412  0.63719  1.0000
  H   H610      1.0  0.22747  0.33545  0.53173  1.0000
  S   S67       1.0  0.48463  0.24568  0.57965  1.0000
  H   H611      1.0  0.34320  0.48295  0.63036  1.0000
  C   C337      1.0  0.05862  0.42335  0.61866  1.0000
  H   H612      1.0  0.18940  0.46631  0.65418  1.0000
  S   S68       1.0  0.48988  0.29984  0.63044  1.0000
  H   H613      1.0  0.47420  0.13337  0.51703  1.0000
  H   H614      1.0  0.40842  0.02764  0.59476  1.0000
  H   H615      1.0  0.42090  0.05779  0.57888  1.0000
  C   C338      1.0  0.20889  0.49158  0.67789  1.0000
  Fe  Fe34      1.0  0.10857  0.48978  0.58799  1.0000
  H   H616      1.0  0.49326  0.01256  0.59823  1.0000
  C   C339      1.0  0.48755  0.16226  0.52481  1.0000
  H   H617      1.0  0.20944  0.45831  0.66415  1.0000
  H   H618      1.0  0.44807  0.42193  0.73887  1.0000
  H   H619      1.0  0.29218  0.28229  0.51224  1.0000
  H   H620      1.0  0.42505  0.00348  0.56337  1.0000
  S   S69       1.0  0.27818  0.49360  0.63919  1.0000
  C   C340      1.0  0.01823  0.49132  0.58480  1.0000
  H   H621      1.0  0.47350  0.43211  0.72940  1.0000
  H   H622      1.0  0.48185  0.06553  0.61741  1.0000
  H   H623      1.0  0.45993  0.10688  0.49721  1.0000
  C   C341      1.0  0.28553  0.27274  0.50716  1.0000
  H   H624      1.0  0.48287  0.28949  0.66938  1.0000
  C   C342      1.0  0.00019  0.35588  0.51413  1.0000
  H   H625      1.0  0.42903  0.10171  0.50334  1.0000
  C   C343      1.0  0.26652  0.28079  0.50454  1.0000
  H   H626      1.0  0.22488  0.48158  0.64672  1.0000
  C   C344      1.0  0.36261  0.99836  0.53393  1.0000
  S   S70       1.0  0.03672  0.46266  0.49853  1.0000
  C   C345      1.0  0.49172  0.30957  0.53706  1.0000
  H   H627      1.0  0.48600  0.05818  0.63988  1.0000
  S   S71       1.0  0.28096  0.49317  0.58630  1.0000
  H   H628      1.0  0.19370  0.46887  0.68742  1.0000
  H   H629      1.0  0.48931  0.22061  0.55034  1.0000
  H   H630      1.0  0.99816  0.34618  0.55249  1.0000
  H   H631      1.0  0.43589  0.39391  0.73531  1.0000
  H   H632      1.0  0.39480  0.00192  0.49853  1.0000
  C   C346      1.0  0.48994  0.26184  0.50099  1.0000
  H   H633      1.0  0.49236  0.14947  0.53256  1.0000
  S   S72       1.0  0.35976  0.48813  0.72014  1.0000
  C   C347      1.0  0.49554  0.32744  0.67893  1.0000
  H   H634      1.0  0.45961  0.45315  0.73092  1.0000
  H   H635      1.0  0.48851  0.29369  0.50871  1.0000
  H   H636      1.0  0.48655  0.30412  0.69484  1.0000
  Fe  Fe35      1.0  0.49454  0.37997  0.74477  1.0000
  C   C348      1.0  0.46852  0.06009  0.49579  1.0000
  H   H637      1.0  0.45377  0.34086  0.86081  1.0000
  H   H638      1.0  0.47192  0.31664  0.85378  1.0000
  C   C349      1.0  0.47986  0.34967  0.85980  1.0000
  Fe  Fe36      1.0  0.46442  0.40205  0.89376  1.0000
  S   S73       1.0  0.43601  0.39767  0.89864  1.0000
  H   H639      1.0  0.43905  0.46076  0.75933  1.0000
  C   C350      1.0  0.44548  0.46742  0.98746  1.0000
  S   S74       1.0  0.37955  0.46648  0.89309  1.0000
  H   H640      1.0  0.43036  0.47727  0.83060  1.0000
  H   H641      1.0  0.40719  0.47624  0.76354  1.0000
  C   C351      1.0  0.43437  0.44787  0.75916  1.0000
  H   H642      1.0  0.47993  0.34803  0.87433  1.0000
  H   H643      1.0  0.46188  0.48095  0.78515  1.0000
  H   H644      1.0  0.47546  0.46382  0.90937  1.0000
  S   S75       1.0  0.48025  0.38002  0.77334  1.0000
  C   C352      1.0  0.42091  0.41717  0.89612  1.0000
  C   C353      1.0  0.42651  0.43398  0.89280  1.0000
  C   C354      1.0  0.41392  0.44935  0.89133  1.0000
  C   C355      1.0  0.39583  0.44780  0.89322  1.0000
  C   C356      1.0  0.39038  0.43101  0.89622  1.0000
  C   C357      1.0  0.40287  0.41575  0.89773  1.0000
  H   H645      1.0  0.44047  0.43512  0.89154  1.0000
  H   H646      1.0  0.41817  0.46234  0.88902  1.0000
  H   H647      1.0  0.37641  0.42980  0.89764  1.0000
  H   H648      1.0  0.39853  0.40279  0.90026  1.0000
  H   H649      1.0  0.49111  0.41927  0.97694  1.0000
  C   C358      1.0  0.42612  0.48257  0.81747  1.0000
  H   H650      1.0  0.44959  0.36296  0.88189  1.0000
  H   H651      1.0  0.47265  0.29069  0.89858  1.0000
  H   H652      1.0  0.39158  0.45875  0.98249  1.0000
  H   H653      1.0  0.42430  0.46229  0.92157  1.0000
  H   H654      1.0  0.46468  0.41082  0.98590  1.0000
  N   N21       1.0  0.44876  0.43251  0.76306  1.0000
  C   C359      1.0  0.44829  0.42567  0.78258  1.0000
  H   H655      1.0  0.36121  0.47453  0.92794  1.0000
  C   C360      1.0  0.44759  0.41734  0.75327  1.0000
  C   C361      1.0  0.40259  0.46308  0.76490  1.0000
  C   C362      1.0  0.37508  0.44058  0.93865  1.0000
  C   C363      1.0  0.45311  0.43856  0.79406  1.0000
  N   N22       1.0  0.37405  0.46991  0.95170  1.0000
  C   C364      1.0  0.43073  0.40809  0.75843  1.0000
  H   H656      1.0  0.36132  0.41844  0.95201  1.0000
  H   H657      1.0  0.45898  0.35791  0.84255  1.0000
  C   C365      1.0  0.44700  0.43336  0.81381  1.0000
  C   C366      1.0  0.45271  0.49208  0.77925  1.0000
  H   H658      1.0  0.45772  0.41317  0.78444  1.0000
  H   H659      1.0  0.43515  0.42184  0.78852  1.0000
  H   H660      1.0  0.47209  0.37255  0.99008  1.0000
  H   H661      1.0  0.37588  0.41410  0.93198  1.0000
  H   H662      1.0  0.47754  0.42783  0.76038  1.0000
  H   H663      1.0  0.46813  0.45015  0.76282  1.0000
  C   C367      1.0  0.42799  0.47987  0.99003  1.0000
  C   C368      1.0  0.41652  0.44828  0.77184  1.0000
  C   C369      1.0  0.44969  0.41707  0.95642  1.0000
  C   C370      1.0  0.45474  0.42296  0.98657  1.0000
  H   H664      1.0  0.46775  0.43826  0.79228  1.0000
  H   H665      1.0  0.44703  0.45234  0.79004  1.0000
  C   C371      1.0  0.40690  0.47943  0.81835  1.0000
  C   C372      1.0  0.37786  0.46542  0.98544  1.0000
  H   H666      1.0  0.42768  0.40427  0.77292  1.0000
  H   H667      1.0  0.46301  0.43809  0.96045  1.0000
  H   H668      1.0  0.46293  0.48023  0.92245  1.0000
  H   H669      1.0  0.36459  0.44575  0.93013  1.0000
  C   C373      1.0  0.49341  0.42761  0.98661  1.0000
  H   H670      1.0  0.44217  0.41788  0.99267  1.0000
  H   H671      1.0  0.41830  0.45085  0.78516  1.0000
  C   C374      1.0  0.46952  0.47736  0.84566  1.0000
  H   H672      1.0  0.45099  0.44263  0.82162  1.0000
  H   H673      1.0  0.43232  0.43404  0.81646  1.0000
  H   H674      1.0  0.45318  0.41970  0.81836  1.0000
  H   H675      1.0  0.40587  0.46507  0.82219  1.0000
  C   C375      1.0  0.43295  0.39106  0.74996  1.0000
  S   S76       1.0  0.47640  0.41686  0.91062  1.0000
  H   H676      1.0  0.46230  0.40790  0.95436  1.0000
  H   H677      1.0  0.46425  0.38771  0.80813  1.0000
  C   C376      1.0  0.47308  0.47818  0.91074  1.0000
  H   H678      1.0  0.48015  0.37707  0.95725  1.0000
  H   H679      1.0  0.48173  0.28346  0.87745  1.0000
  C   C377      1.0  0.42494  0.46718  0.93424  1.0000
  C   C378      1.0  0.35935  0.47901  0.94122  1.0000
  H   H680      1.0  0.45943  0.48321  0.75331  1.0000
  H   H681      1.0  0.43430  0.47456  0.80771  1.0000
  H   H682      1.0  0.44781  0.46471  0.97357  1.0000
  C   C379      1.0  0.49045  0.48428  0.91288  1.0000
  H   H683      1.0  0.38226  0.44297  0.96372  1.0000
  H   H684      1.0  0.45539  0.37996  0.86380  1.0000
  H   H685      1.0  0.43565  0.36993  0.86475  1.0000
  H   H686      1.0  0.45939  0.40707  0.75456  1.0000
  H   H687      1.0  0.47657  0.39036  0.83531  1.0000
  H   H688      1.0  0.35920  0.44830  0.96280  1.0000
  C   C380      1.0  0.44962  0.36733  0.86744  1.0000
  H   H689      1.0  0.40850  0.44901  0.95007  1.0000
  H   H690      1.0  0.47599  0.45060  0.97751  1.0000
  H   H691      1.0  0.40220  0.48378  0.80525  1.0000
  H   H692      1.0  0.48879  0.33250  0.79752  1.0000
  H   H693      1.0  0.35696  0.48184  0.97329  1.0000
  C   C381      1.0  0.46014  0.35306  0.85672  1.0000
  C   C382      1.0  0.47711  0.44188  0.99027  1.0000
  C   C383      1.0  0.48472  0.37681  0.98434  1.0000
  C   C384      1.0  0.47847  0.38639  0.80784  1.0000
  H   H694      1.0  0.39003  0.46332  0.77430  1.0000
  C   C385      1.0  0.45179  0.43122  0.96747  1.0000
  H   H695      1.0  0.39810  0.48683  0.82842  1.0000
  C   C386      1.0  0.40858  0.46357  0.94767  1.0000
  C   C387      1.0  0.46670  0.43855  0.75650  1.0000
  C   C388      1.0  0.37246  0.45034  0.95520  1.0000
  H   H696      1.0  0.43131  0.44848  0.74539  1.0000
  C   C389      1.0  0.49496  0.43619  0.82284  1.0000
  S   S77       1.0  0.47650  0.41549  0.86769  1.0000
  H   H697      1.0  0.46024  0.48073  0.81396  1.0000
  C   C390      1.0  0.39147  0.47360  0.94075  1.0000
  H   H698      1.0  0.43926  0.48818  0.78062  1.0000
  S   S78       1.0  0.48522  0.37794  0.89483  1.0000
  C   C391      1.0  0.48974  0.38292  0.79212  1.0000
  C   C392      1.0  0.48922  0.37948  0.96566  1.0000
  H   H699      1.0  0.43891  0.40930  0.96300  1.0000
  H   H700      1.0  0.41694  0.47352  0.98743  1.0000
  H   H701      1.0  0.44635  0.42349  0.94319  1.0000
  H   H702      1.0  0.38519  0.41456  0.95182  1.0000
  H   H703      1.0  0.43715  0.46018  0.93947  1.0000
  H   H704      1.0  0.48548  0.36221  0.85471  1.0000
  H   H705      1.0  0.47423  0.32183  0.88601  1.0000
  H   H706      1.0  0.41104  0.43561  0.77353  1.0000
  H   H707      1.0  0.48217  0.43781  0.83177  1.0000
  H   H708      1.0  0.41019  0.46835  0.96003  1.0000
  C   C393      1.0  0.37429  0.42072  0.94404  1.0000
  H   H709      1.0  0.48373  0.47624  0.83982  1.0000
  H   H710      1.0  0.49585  0.47534  0.92409  1.0000
  H   H711      1.0  0.38822  0.44201  0.93071  1.0000
  N   N23       1.0  0.49142  0.33449  0.85158  1.0000
  H   H712      1.0  0.42881  0.49238  0.98075  1.0000
  C   C394      1.0  0.48544  0.38780  0.82334  1.0000
  H   H713      1.0  0.46797  0.48556  0.89859  1.0000
  H   H714      1.0  0.46868  0.47800  0.86009  1.0000
  Fe  Fe37      1.0  0.38987  0.49245  0.88473  1.0000
  H   H715      1.0  0.43929  0.44064  0.96795  1.0000
  H   H716      1.0  0.42052  0.38495  0.75336  1.0000
  H   H717      1.0  0.46396  0.46534  0.84413  1.0000
  C   C395      1.0  0.37136  0.47763  0.96902  1.0000
  H   H718      1.0  0.41923  0.41701  0.75348  1.0000
  H   H719      1.0  0.39184  0.47095  0.92689  1.0000
  H   H720      1.0  0.34631  0.47533  0.94805  1.0000
  H   H721      1.0  0.49421  0.35154  0.82650  1.0000
  H   H722      1.0  0.47720  0.33794  0.82880  1.0000
  H   H723      1.0  0.42592  0.48162  0.93156  1.0000
  H   H724      1.0  0.45631  0.47467  0.98922  1.0000
  C   C396      1.0  0.48479  0.31695  0.85845  1.0000
  C   C397      1.0  0.48259  0.31142  0.87879  1.0000
  H   H725      1.0  0.49465  0.44717  0.81163  1.0000
  C   C398      1.0  0.47374  0.29459  0.88398  1.0000
  H   H726      1.0  0.39969  0.46084  0.75182  1.0000
  H   H727      1.0  0.37754  0.49000  0.96717  1.0000
  Fe  Fe38      1.0  0.49118  0.42744  0.88457  1.0000
  H   H728      1.0  0.44393  0.38135  0.75500  1.0000
  H   H729      1.0  0.46017  0.29693  0.88018  1.0000
  H   H730      1.0  0.36908  0.45499  0.99006  1.0000
  C   C399      1.0  0.49082  0.33805  0.83180  1.0000
  H   H731      1.0  0.39272  0.48793  0.93955  1.0000
  H   H732      1.0  0.49402  0.30597  0.85278  1.0000
  H   H733      1.0  0.49578  0.30835  0.88338  1.0000
  H   H734      1.0  0.44507  0.49481  0.84338  1.0000
  C   C400      1.0  0.46037  0.49443  0.81660  1.0000
  C   C401      1.0  0.45901  0.49410  0.83698  1.0000
  C   C402      1.0  0.45920  0.49540  0.75937  1.0000
  H   H735      1.0  0.49639  0.42332  0.81763  1.0000
  C   C403      1.0  0.38569  0.51121  0.10818  1.0000
  S   S79       1.0  0.42186  0.52316  0.05231  1.0000
  H   H736      1.0  0.47970  0.60003  0.11123  1.0000
  Fe  Fe39      1.0  0.38843  0.52283  0.01985  1.0000
  S   S80       1.0  0.41459  0.53262  0.01066  1.0000
  H   H737      1.0  0.48337  0.67332  0.99744  1.0000
  Fe  Fe40      1.0  0.39521  0.51402  0.05933  1.0000
  Fe  Fe41      1.0  0.40859  0.54579  0.03517  1.0000
  S   S81       1.0  0.41515  0.57304  0.03486  1.0000
  H   H738      1.0  0.41567  0.64731  0.09872  1.0000
  S   S82       1.0  0.38135  0.53799  0.04355  1.0000
  H   H739      1.0  0.43957  0.64331  0.09525  1.0000
  C   C404      1.0  0.43443  0.52735  0.09419  1.0000
  C   C405      1.0  0.42637  0.60852  0.15885  1.0000
  H   H740      1.0  0.47495  0.51930  0.07660  1.0000
  S   S83       1.0  0.37756  0.50090  0.20671  1.0000
  S   S84       1.0  0.47093  0.62056  0.06807  1.0000
  H   H741      1.0  0.43776  0.61075  0.18244  1.0000
  S   S85       1.0  0.47501  0.64247  0.22802  1.0000
  H   H742      1.0  0.23153  0.52417  0.23575  1.0000
  Fe  Fe42      1.0  0.38297  0.52499  0.18685  1.0000
  H   H743      1.0  0.41579  0.59360  0.13523  1.0000
  S   S86       1.0  0.37217  0.53563  0.16071  1.0000
  Fe  Fe43      1.0  0.41038  0.53475  0.20729  1.0000
  H   H744      1.0  0.45807  0.51329  0.06595  1.0000
  H   H745      1.0  0.38947  0.50046  0.15251  1.0000
  H   H746      1.0  0.45450  0.58304  0.99914  1.0000
  C   C406      1.0  0.42862  0.58521  0.13184  1.0000
  S   S87       1.0  0.38089  0.54272  0.20812  1.0000
  H   H747      1.0  0.45478  0.61722  0.11349  1.0000
  H   H748      1.0  0.45398  0.58067  0.19468  1.0000
  H   H749      1.0  0.39800  0.56926  0.22571  1.0000
  H   H750      1.0  0.48652  0.49807  0.05448  1.0000
  H   H751      1.0  0.46584  0.52383  0.99527  1.0000
  C   C407      1.0  0.43886  0.56519  0.21578  1.0000
  C   C408      1.0  0.38927  0.58217  0.22448  1.0000
  H   H752      1.0  0.49463  0.57551  0.02989  1.0000
  C   C409      1.0  0.48159  0.58911  0.99716  1.0000
  H   H753      1.0  0.46466  0.59779  0.21464  1.0000
  H   H754      1.0  0.41800  0.56205  0.08121  1.0000
  H   H755      1.0  0.45623  0.50540  0.22487  1.0000
  C   C410      1.0  0.46314  0.58683  0.00771  1.0000
  Fe  Fe44      1.0  0.37783  0.51800  0.22802  1.0000
  H   H756      1.0  0.24214  0.50208  0.23249  1.0000
  C   C411      1.0  0.43356  0.57142  0.04603  1.0000
  C   C412      1.0  0.44683  0.55671  0.04546  1.0000
  C   C413      1.0  0.46168  0.55574  0.05416  1.0000
  C   C414      1.0  0.46331  0.56952  0.06338  1.0000
  C   C415      1.0  0.44981  0.58394  0.06432  1.0000
  C   C416      1.0  0.43508  0.58501  0.05551  1.0000
  H   H757      1.0  0.44612  0.54650  0.03758  1.0000
  H   H758      1.0  0.47211  0.54463  0.05323  1.0000
  H   H759      1.0  0.45053  0.59420  0.07204  1.0000
  H   H760      1.0  0.42477  0.59632  0.05614  1.0000
  C   C417      1.0  0.47847  0.59121  0.12406  1.0000
  S   S88       1.0  0.43076  0.55413  0.20091  1.0000
  C   C418      1.0  0.46099  0.58282  0.12700  1.0000
  C   C419      1.0  0.37798  0.52598  0.14063  1.0000
  C   C420      1.0  0.37362  0.53605  0.12464  1.0000
  C   C421      1.0  0.37752  0.52877  0.10851  1.0000
  C   C422      1.0  0.42735  0.63680  0.09801  1.0000
  H   H761      1.0  0.39971  0.56233  0.09893  1.0000
  H   H762      1.0  0.36703  0.54954  0.12473  1.0000
  H   H763      1.0  0.37382  0.53662  0.09641  1.0000
  Fe  Fe45      1.0  0.48620  0.63104  0.04213  1.0000
  C   C423      1.0  0.44335  0.60982  0.11505  1.0000
  H   H764      1.0  0.42581  0.51898  0.08986  1.0000
  H   H765      1.0  0.48705  0.52758  0.99958  1.0000
  C   C424      1.0  0.38626  0.50846  0.14030  1.0000
  H   H766      1.0  0.42723  0.63263  0.12607  1.0000
  H   H767      1.0  0.46360  0.55406  0.00244  1.0000
  C   C425      1.0  0.43760  0.50745  0.12182  1.0000
  N   N24       1.0  0.44403  0.59537  0.13075  1.0000
  H   H768      1.0  0.41675  0.61685  0.15076  1.0000
  C   C426      1.0  0.46751  0.50839  0.07570  1.0000
  H   H769      1.0  0.40097  0.57088  0.15643  1.0000
  H   H770      1.0  0.43308  0.56947  0.15782  1.0000
  H   H771      1.0  0.46400  0.53703  0.09692  1.0000
  H   H772      1.0  0.37777  0.58060  0.21815  1.0000
  H   H773      1.0  0.41316  0.53566  0.11524  1.0000
  C   C427      1.0  0.42700  0.62436  0.11558  1.0000
  H   H774      1.0  0.45181  0.61465  0.14454  1.0000
  H   H775      1.0  0.42790  0.58154  0.11856  1.0000
  C   C428      1.0  0.48216  0.64038  0.16027  1.0000
  H   H776      1.0  0.41436  0.61870  0.11789  1.0000
  H   H777      1.0  0.45275  0.61492  0.00315  1.0000
  H   H778      1.0  0.41166  0.54833  0.15734  1.0000
  H   H779      1.0  0.42028  0.59662  0.16544  1.0000
  H   H780      1.0  0.47371  0.64428  0.17203  1.0000
  H   H781      1.0  0.45215  0.59321  0.15685  1.0000
  H   H782      1.0  0.46225  0.57189  0.13822  1.0000
  Fe  Fe46      1.0  0.47923  0.61514  0.24356  1.0000
  H   H783      1.0  0.37415  0.60146  0.24007  1.0000
  S   S89       1.0  0.47158  0.64318  0.01852  1.0000
  H   H784      1.0  0.40581  0.56013  0.13661  1.0000
  H   H785      1.0  0.40336  0.54549  0.08441  1.0000
  C   C429      1.0  0.47756  0.51799  0.11583  1.0000
  H   H786      1.0  0.42690  0.62937  0.08689  1.0000
  S   S90       1.0  0.47744  0.64216  0.10789  1.0000
  S   S91       1.0  0.41233  0.51863  0.18510  1.0000
  H   H787      1.0  0.47899  0.59908  0.13481  1.0000
  H   H788      1.0  0.46075  0.57638  0.11504  1.0000
  C   C430      1.0  0.41074  0.56148  0.14904  1.0000
  H   H789      1.0  0.42948  0.55061  0.10875  1.0000
  S   S92       1.0  0.48259  0.56909  0.07294  1.0000
  C   C431      1.0  0.42895  0.56781  0.14510  1.0000
  H   H790      1.0  0.44456  0.60383  0.10257  1.0000
  C   C432      1.0  0.41002  0.55359  0.09131  1.0000
  C   C433      1.0  0.42189  0.54181  0.10382  1.0000
  C   C434      1.0  0.45726  0.50161  0.09391  1.0000
  H   H791      1.0  0.43852  0.55714  0.13933  1.0000
  H   H792      1.0  0.43448  0.51682  0.13189  1.0000
  C   C435      1.0  0.43412  0.56178  0.23415  1.0000
  H   H793      1.0  0.44119  0.53435  0.08183  1.0000
  C   C436      1.0  0.44445  0.60294  0.14762  1.0000
  S   S93       1.0  0.40768  0.51107  0.22824  1.0000
  C   C437      1.0  0.46024  0.52745  0.10887  1.0000
  C   C438      1.0  0.47535  0.64256  0.14396  1.0000
  H   H794      1.0  0.36550  0.57357  0.02242  1.0000
  C   C439      1.0  0.38288  0.58867  0.24281  1.0000
  H   H795      1.0  0.44001  0.60230  0.02055  1.0000
  Fe  Fe47      1.0  0.42533  0.50920  0.02855  1.0000
  H   H796      1.0  0.46164  0.64817  0.14335  1.0000
  S   S94       1.0  0.36942  0.52311  0.99997  1.0000
  H   H797      1.0  0.46086  0.60765  0.02435  1.0000
  C   C440      1.0  0.45619  0.58776  0.22014  1.0000
  C   C441      1.0  0.39969  0.59549  0.21192  1.0000
  C   C442      1.0  0.36495  0.57529  0.00793  1.0000
  C   C443      1.0  0.45103  0.58473  0.23849  1.0000
  C   C444      1.0  0.45373  0.60402  0.01431  1.0000
  H   H798      1.0  0.43443  0.63129  0.16755  1.0000
  H   H799      1.0  0.41575  0.62261  0.18138  1.0000
  H   H800      1.0  0.38820  0.58828  0.00227  1.0000
  H   H801      1.0  0.35548  0.58737  0.00452  1.0000
  H   H802      1.0  0.36005  0.56349  0.00481  1.0000
  H   H803      1.0  0.45343  0.53597  0.11897  1.0000
  C   C445      1.0  0.42879  0.61892  0.17342  1.0000
  N   N25       1.0  0.44779  0.51577  0.10489  1.0000
  H   H804      1.0  0.39122  0.60847  0.20945  1.0000
  H   H805      1.0  0.40435  0.59034  0.19905  1.0000
  H   H806      1.0  0.49348  0.53896  0.10400  1.0000
  H   H807      1.0  0.47453  0.51079  0.12931  1.0000
  C   C446      1.0  0.45580  0.49868  0.23877  1.0000
  H   H808      1.0  0.46436  0.57672  0.01944  1.0000
  Fe  Fe48      1.0  0.48978  0.63058  0.08238  1.0000
  H   H809      1.0  0.44822  0.70022  0.00687  1.0000
  C   C447      1.0  0.45009  0.57806  0.20886  1.0000
  H   H810      1.0  0.42446  0.50501  0.11924  1.0000
  C   C448      1.0  0.48626  0.63799  0.12839  1.0000
  H   H811      1.0  0.41152  0.59745  0.21756  1.0000
  C   C449      1.0  0.47821  0.63917  0.99611  1.0000
  C   C450      1.0  0.38980  0.50106  0.12424  1.0000
  H   H812      1.0  0.48528  0.50869  0.10689  1.0000
  S   S95       1.0  0.39038  0.50111  0.08833  1.0000
  S   S96       1.0  0.39967  0.49794  0.03632  1.0000
  H   H813      1.0  0.48855  0.59625  0.00484  1.0000
  H   H814      1.0  0.42597  0.55150  0.23958  1.0000
  H   H815      1.0  0.48584  0.55372  0.01591  1.0000
  C   C451      1.0  0.48964  0.53145  0.11725  1.0000
  H   H816      1.0  0.48282  0.54088  0.12651  1.0000
  H   H817      1.0  0.39227  0.56478  0.00175  1.0000
  C   C452      1.0  0.38346  0.57707  0.99780  1.0000
  Fe  Fe49      1.0  0.49111  0.59630  0.06709  1.0000
  C   C453      1.0  0.23940  0.51205  0.24190  1.0000
  H   H818      1.0  0.36060  0.56388  0.23950  1.0000
  H   H819      1.0  0.35047  0.58548  0.24310  1.0000
  H   H820      1.0  0.33105  0.55359  0.24459  1.0000
  H   H821      1.0  0.44976  0.67765  0.00234  1.0000
  H   H822      1.0  0.48099  0.69372  0.00598  1.0000
  H   H823      1.0  0.25229  0.51540  0.24415  1.0000
  H   H824      1.0  0.49446  0.56764  0.13590  1.0000
  C   C454      1.0  0.44977  0.69171  0.99620  1.0000
  H   H825      1.0  0.49656  0.58516  0.19603  1.0000
  C   C455      1.0  0.49481  0.57707  0.12340  1.0000
  H   H826      1.0  0.49631  0.56190  0.19564  1.0000
  H   H827      1.0  0.49555  0.56976  0.11193  1.0000
  H   H828      1.0  0.15803  0.56684  0.38912  1.0000
  H   H829      1.0  0.01405  0.67630  0.45748  1.0000
  C   C456      1.0  0.18947  0.56447  0.36472  1.0000
  C   C457      1.0  0.99855  0.63417  0.44677  1.0000
  H   H830      1.0  0.01406  0.57252  0.45277  1.0000
  H   H831      1.0  0.17420  0.67287  0.46408  1.0000
  S   S97       1.0  0.47441  0.91184  0.37909  1.0000
  H   H832      1.0  0.20921  0.55015  0.28448  1.0000
  S   S98       1.0  0.39556  0.88179  0.48627  1.0000
  H   H833      1.0  0.46758  0.69630  0.36002  1.0000
  C   C458      1.0  0.13729  0.67241  0.47258  1.0000
  H   H834      1.0  0.14958  0.70991  0.48911  1.0000
  Fe  Fe50      1.0  0.38906  0.91016  0.47409  1.0000
  S   S99       1.0  0.39668  0.92004  0.44532  1.0000
  C   C459      1.0  0.48276  0.87334  0.48196  1.0000
  H   H835      1.0  0.25992  0.50391  0.46446  1.0000
  C   C460      1.0  0.28599  0.69134  0.46701  1.0000
  Fe  Fe51      1.0  0.06316  0.51116  0.36930  1.0000
  H   H836      1.0  0.44591  0.85994  0.36416  1.0000
  S   S100      1.0  0.03543  0.52598  0.36563  1.0000
  Fe  Fe52      1.0  0.10437  0.51212  0.36241  1.0000
  H   H837      1.0  0.34753  0.55168  0.27012  1.0000
  S   S101      1.0  0.12751  0.52695  0.34944  1.0000
  H   H838      1.0  0.13819  0.60767  0.42511  1.0000
  Fe  Fe53      1.0  0.48986  0.90194  0.40161  1.0000
  S   S102      1.0  0.08654  0.51004  0.42707  1.0000
  C   C461      1.0  0.42701  0.96592  0.43996  1.0000
  S   S103      1.0  0.08136  0.52688  0.37845  1.0000
  Fe  Fe54      1.0  0.06732  0.62817  0.45708  1.0000
  S   S104      1.0  0.06428  0.60186  0.45036  1.0000
  S   S105      1.0  0.04452  0.65058  0.45525  1.0000
  Fe  Fe55      1.0  0.10415  0.61488  0.46888  1.0000
  S   S106      1.0  0.10315  0.58723  0.46374  1.0000
  H   H839      1.0  0.06946  0.61579  0.41129  1.0000
  Fe  Fe56      1.0  0.09292  0.60060  0.43876  1.0000
  S   S107      1.0  0.10383  0.58856  0.41402  1.0000
  H   H840      1.0  0.37090  0.54361  0.28195  1.0000
  S   S108      1.0  0.09548  0.62821  0.44291  1.0000
  H   H841      1.0  0.02623  0.62253  0.44628  1.0000
  Fe  Fe57      1.0  0.22685  0.63573  0.45655  1.0000
  S   S109      1.0  0.23023  0.60684  0.46680  1.0000
  S   S110      1.0  0.20061  0.64636  0.44609  1.0000
  Fe  Fe58      1.0  0.26438  0.64083  0.46316  1.0000
  S   S111      1.0  0.26989  0.61163  0.47361  1.0000
  S   S112      1.0  0.28859  0.65494  0.46432  1.0000
  Fe  Fe59      1.0  0.25725  0.60617  0.45103  1.0000
  S   S113      1.0  0.26889  0.58199  0.43741  1.0000
  C   C462      1.0  0.05237  0.56387  0.40069  1.0000
  S   S114      1.0  0.25363  0.63493  0.43923  1.0000
  H   H842      1.0  0.46968  0.79188  0.40898  1.0000
  Fe  Fe60      1.0  0.07465  0.59118  0.47588  1.0000
  C   C463      1.0  0.22219  0.56271  0.46702  1.0000
  Fe  Fe61      1.0  0.24804  0.53560  0.36211  1.0000
  S   S115      1.0  0.27629  0.52217  0.35735  1.0000
  S   S116      1.0  0.23719  0.56155  0.37308  1.0000
  H   H843      1.0  0.17332  0.51989  0.38797  1.0000
  S   S117      1.0  0.36173  0.91411  0.48946  1.0000
  C   C464      1.0  0.49579  0.92829  0.46290  1.0000
  H   H844      1.0  0.00738  0.52700  0.40018  1.0000
  H   H845      1.0  0.44285  0.83070  0.35666  1.0000
  Fe  Fe62      1.0  0.26930  0.51473  0.33223  1.0000
  H   H846      1.0  0.08322  0.56445  0.37497  1.0000
  S   S118      1.0  0.23708  0.51170  0.37756  1.0000
  S   S119      1.0  0.24157  0.53024  0.33607  1.0000
  Fe  Fe63      1.0  0.36202  0.77136  0.47179  1.0000
  C   C465      1.0  0.17147  0.49925  0.41083  1.0000
  S   S120      1.0  0.36241  0.80092  0.46221  1.0000
  Fe  Fe64      1.0  0.34501  0.73631  0.47733  1.0000
  C   C466      1.0  0.31191  0.68896  0.41867  1.0000
  H   H847      1.0  0.48929  0.93655  0.45195  1.0000
  H   H848      1.0  0.44189  0.95651  0.47037  1.0000
  Fe  Fe65      1.0  0.38434  0.73651  0.46255  1.0000
  S   S121      1.0  0.40757  0.72255  0.44563  1.0000
  H   H849      1.0  0.28262  0.50439  0.46605  1.0000
  S   S122      1.0  0.35945  0.75191  0.45353  1.0000
  H   H850      1.0  0.34170  0.59836  0.29853  1.0000
  C   C467      1.0  0.18581  0.50221  0.35166  1.0000
  C   C468      1.0  0.43281  0.83690  0.36674  1.0000
  H   H851      1.0  0.38330  0.69013  0.46656  1.0000
  H   H852      1.0  0.19697  0.49882  0.28060  1.0000
  H   H853      1.0  0.18240  0.51636  0.31430  1.0000
  Fe  Fe66      1.0  0.47517  0.75277  0.36491  1.0000
  S   S123      1.0  0.44580  0.76008  0.37366  1.0000
  S   S124      1.0  0.48530  0.76038  0.33600  1.0000
  C   C469      1.0  0.41814  0.73339  0.42583  1.0000
  C   C470      1.0  0.43536  0.72631  0.41901  1.0000
  C   C471      1.0  0.44416  0.73455  0.40318  1.0000
  C   C472      1.0  0.43556  0.74966  0.39385  1.0000
  C   C473      1.0  0.41828  0.75663  0.40058  1.0000
  C   C474      1.0  0.40968  0.74871  0.41668  1.0000
  H   H854      1.0  0.44200  0.71450  0.42609  1.0000
  H   H855      1.0  0.45749  0.72910  0.39810  1.0000
  H   H856      1.0  0.41159  0.76823  0.39329  1.0000
  H   H857      1.0  0.39653  0.75442  0.42196  1.0000
  H   H858      1.0  0.45368  0.84192  0.41018  1.0000
  C   C475      1.0  0.33977  0.51647  0.26896  1.0000
  C   C476      1.0  0.32450  0.51649  0.26125  1.0000
  H   H859      1.0  0.48954  0.73686  0.43914  1.0000
  C   C477      1.0  0.30574  0.51584  0.29050  1.0000
  C   C478      1.0  0.32106  0.51563  0.29822  1.0000
  C   C479      1.0  0.41889  0.83531  0.47248  1.0000
  H   H860      1.0  0.19043  0.52191  0.28041  1.0000
  C   C480      1.0  0.28060  0.53884  0.46937  1.0000
  H   H861      1.0  0.15953  0.51760  0.29474  1.0000
  C   C481      1.0  0.01808  0.57040  0.38424  1.0000
  C   C482      1.0  0.29647  0.67467  0.46790  1.0000
  H   H862      1.0  0.48483  0.83649  0.41544  1.0000
  H   H863      1.0  0.41393  0.98937  0.47559  1.0000
  C   C483      1.0  0.31085  0.70556  0.47227  1.0000
  C   C484      1.0  0.44001  0.57165  0.24544  1.0000
  C   C485      1.0  0.42762  0.85833  0.38960  1.0000
  C   C486      1.0  0.38592  0.68179  0.45571  1.0000
  H   H864      1.0  0.36214  0.70641  0.39326  1.0000
  N   N26       1.0  0.43341  0.87270  0.39779  1.0000
  H   H865      1.0  0.16839  0.72125  0.48888  1.0000
  C   C487      1.0  0.25950  0.57637  0.41987  1.0000
  C   C488      1.0  0.26727  0.56113  0.41213  1.0000
  C   C489      1.0  0.26035  0.55626  0.39805  1.0000
  C   C490      1.0  0.24568  0.56675  0.39141  1.0000
  C   C491      1.0  0.23773  0.58189  0.39930  1.0000
  C   C492      1.0  0.24457  0.58666  0.41352  1.0000
  H   H866      1.0  0.27895  0.55325  0.41679  1.0000
  H   H867      1.0  0.26661  0.54462  0.39207  1.0000
  H   H868      1.0  0.22643  0.59011  0.39420  1.0000
  H   H869      1.0  0.23851  0.59846  0.41933  1.0000
  H   H870      1.0  0.02053  0.51936  0.45624  1.0000
  H   H871      1.0  0.35731  0.71137  0.44838  1.0000
  H   H872      1.0  0.42695  0.83809  0.48218  1.0000
  H   H873      1.0  0.48457  0.98779  0.44988  1.0000
  H   H874      1.0  0.03170  0.54088  0.42610  1.0000
  C   C493      1.0  0.14896  0.62351  0.47015  1.0000
  H   H875      1.0  0.45701  0.88184  0.40285  1.0000
  C   C494      1.0  0.15896  0.55351  0.42960  1.0000
  C   C495      1.0  0.18124  0.63642  0.45496  1.0000
  C   C496      1.0  0.16643  0.63998  0.44578  1.0000
  C   C497      1.0  0.15041  0.63337  0.45323  1.0000
  H   H876      1.0  0.13345  0.54734  0.44398  1.0000
  C   C498      1.0  0.18043  0.58596  0.41465  1.0000
  H   H877      1.0  0.16724  0.64815  0.43297  1.0000
  H   H878      1.0  0.13898  0.63657  0.44623  1.0000
  C   C499      1.0  0.09354  0.53096  0.42446  1.0000
  C   C500      1.0  0.08746  0.54210  0.43745  1.0000
  C   C501      1.0  0.09089  0.55971  0.43434  1.0000
  C   C502      1.0  0.10056  0.56620  0.41831  1.0000
  C   C503      1.0  0.10734  0.55483  0.40564  1.0000
  C   C504      1.0  0.10390  0.53719  0.40875  1.0000
  H   H879      1.0  0.07932  0.53740  0.44953  1.0000
  H   H880      1.0  0.08551  0.56833  0.44419  1.0000
  H   H881      1.0  0.11494  0.55971  0.39326  1.0000
  H   H882      1.0  0.10905  0.52849  0.39884  1.0000
  C   C505      1.0  0.14976  0.51715  0.35117  1.0000
  C   C506      1.0  0.05633  0.59561  0.39077  1.0000
  H   H883      1.0  0.47460  0.87939  0.49332  1.0000
  H   H884      1.0  0.46756  0.78351  0.30710  1.0000
  C   C507      1.0  0.18105  0.52064  0.34972  1.0000
  C   C508      1.0  0.16314  0.52806  0.34916  1.0000
  H   H885      1.0  0.23786  0.52242  0.27423  1.0000
  C   C509      1.0  0.35786  0.75821  0.40604  1.0000
  H   H886      1.0  0.19123  0.52913  0.34815  1.0000
  H   H887      1.0  0.15960  0.54233  0.34707  1.0000
  H   H888      1.0  0.15247  0.53282  0.45124  1.0000
  H   H889      1.0  0.18576  0.59754  0.40609  1.0000
  H   H890      1.0  0.33110  0.70436  0.43872  1.0000
  C   C510      1.0  0.01684  0.51712  0.36116  1.0000
  H   H891      1.0  0.40504  0.83501  0.47919  1.0000
  H   H892      1.0  0.40029  0.89223  0.41605  1.0000
  C   C511      1.0  0.14734  0.54679  0.44654  1.0000
  C   C512      1.0  0.14623  0.61328  0.41289  1.0000
  H   H893      1.0  0.46974  0.84657  0.34268  1.0000
  C   C513      1.0  0.43690  0.65301  0.37814  1.0000
  H   H894      1.0  0.29345  0.52986  0.46788  1.0000
  H   H895      1.0  0.39665  0.85750  0.44126  1.0000
  H   H896      1.0  0.28500  0.71944  0.46789  1.0000
  C   C514      1.0  0.36109  0.81739  0.47633  1.0000
  C   C515      1.0  0.36671  0.83385  0.46912  1.0000
  C   C516      1.0  0.36544  0.84745  0.47973  1.0000
  H   H897      1.0  0.41672  0.91765  0.36158  1.0000
  N   N27       1.0  0.04808  0.58007  0.38748  1.0000
  H   H898      1.0  0.37177  0.83623  0.45517  1.0000
  H   H899      1.0  0.36948  0.86015  0.47392  1.0000
  C   C517      1.0  0.45574  0.90125  0.43371  1.0000
  C   C518      1.0  0.44761  0.91439  0.42170  1.0000
  C   C519      1.0  0.42940  0.92050  0.42518  1.0000
  C   C520      1.0  0.41961  0.91398  0.44107  1.0000
  C   C521      1.0  0.42813  0.90193  0.45353  1.0000
  C   C522      1.0  0.44593  0.89517  0.44966  1.0000
  H   H900      1.0  0.45524  0.91984  0.40975  1.0000
  H   H901      1.0  0.42295  0.93017  0.41562  1.0000
  H   H902      1.0  0.42101  0.89739  0.46606  1.0000
  H   H903      1.0  0.45185  0.88496  0.45898  1.0000
  C   C523      1.0  0.43582  0.89425  0.36810  1.0000
  H   H904      1.0  0.23553  0.55048  0.48895  1.0000
  H   H905      1.0  0.39753  0.87120  0.41006  1.0000
  H   H906      1.0  0.26915  0.55808  0.48817  1.0000
  H   H907      1.0  0.17877  0.55888  0.36032  1.0000
  H   H908      1.0  0.19773  0.57051  0.35283  1.0000
  C   C524      1.0  0.17854  0.58933  0.43426  1.0000
  C   C525      1.0  0.48760  0.71018  0.29463  1.0000
  H   H909      1.0  0.17706  0.57683  0.44337  1.0000
  H   H910      1.0  0.16691  0.59911  0.43796  1.0000
  C   C526      1.0  0.47269  0.79457  0.29764  1.0000
  C   C527      1.0  0.25972  0.52126  0.49118  1.0000
  H   H911      1.0  0.39578  0.52197  0.29097  1.0000
  H   H912      1.0  0.99673  0.63084  0.48352  1.0000
  H   H913      1.0  0.45026  0.75224  0.47270  1.0000
  C   C528      1.0  0.46931  0.69421  0.34583  1.0000
  C   C529      1.0  0.01437  0.59805  0.48641  1.0000
  H   H914      1.0  0.21676  0.50078  0.25633  1.0000
  H   H915      1.0  0.36116  0.97116  0.46299  1.0000
  H   H916      1.0  0.21224  0.67363  0.46336  1.0000
  H   H917      1.0  0.29245  0.57201  0.46674  1.0000
  C   C530      1.0  0.45315  0.70495  0.33746  1.0000
  C   C531      1.0  0.44914  0.72371  0.34260  1.0000
  Fe  Fe67      1.0  0.49127  0.93397  0.37275  1.0000
  C   C532      1.0  0.05654  0.62186  0.40691  1.0000
  H   H918      1.0  0.48727  0.85944  0.40810  1.0000
  H   H919      1.0  0.47974  0.98820  0.48249  1.0000
  H   H920      1.0  0.99891  0.57735  0.48253  1.0000
  C   C533      1.0  0.15449  0.49871  0.35376  1.0000
  H   H921      1.0  0.33388  0.69703  0.39989  1.0000
  H   H922      1.0  0.47978  0.72215  0.29878  1.0000
  H   H923      1.0  0.48755  0.64755  0.32041  1.0000
  C   C534      1.0  0.49286  0.90896  0.46386  1.0000
  H   H924      1.0  0.36557  0.61303  0.26528  1.0000
  H   H925      1.0  0.44119  0.98146  0.38498  1.0000
  H   H926      1.0  0.45972  0.94450  0.43158  1.0000
  C   C535      1.0  0.00987  0.66445  0.45454  1.0000
  H   H927      1.0  0.37778  0.71063  0.43461  1.0000
  H   H928      1.0  0.45609  0.70626  0.32275  1.0000
  H   H929      1.0  0.44099  0.69858  0.34154  1.0000
  H   H930      1.0  0.44565  0.72329  0.35721  1.0000
  H   H931      1.0  0.46082  0.73089  0.33808  1.0000
  H   H932      1.0  0.43777  0.73126  0.33622  1.0000
  Fe  Fe68      1.0  0.49242  0.65027  0.24611  1.0000
  H   H933      1.0  0.09785  0.56576  0.34435  1.0000
  H   H934      1.0  0.19695  0.68563  0.44889  1.0000
  H   H935      1.0  0.46792  0.80713  0.30337  1.0000
  H   H936      1.0  0.42088  0.95659  0.48443  1.0000
  H   H937      1.0  0.21283  0.71207  0.44518  1.0000
  N   N28       1.0  0.42207  0.79664  0.44402  1.0000
  C   C536      1.0  0.40717  0.79158  0.43616  1.0000
  C   C537      1.0  0.42878  0.78126  0.45713  1.0000
  C   C538      1.0  0.41428  0.81194  0.45430  1.0000
  C   C539      1.0  0.43704  0.80231  0.43006  1.0000
  C   C540      1.0  0.44085  0.79318  0.41293  1.0000
  C   C541      1.0  0.39652  0.80699  0.42501  1.0000
  C   C542      1.0  0.42659  0.81757  0.46588  1.0000
  C   C543      1.0  0.43687  0.76375  0.44972  1.0000
  C   C544      1.0  0.44092  0.74874  0.46465  1.0000
  C   C545      1.0  0.45827  0.79744  0.40171  1.0000
  C   C546      1.0  0.38444  0.80002  0.41462  1.0000
  C   C547      1.0  0.16523  0.50475  0.30176  1.0000
  H   H938      1.0  0.39746  0.78569  0.44690  1.0000
  H   H939      1.0  0.41203  0.78094  0.42777  1.0000
  H   H940      1.0  0.43946  0.78472  0.46352  1.0000
  H   H941      1.0  0.41786  0.77828  0.46806  1.0000
  H   H942      1.0  0.40196  0.80877  0.46325  1.0000
  H   H943      1.0  0.41008  0.82400  0.44513  1.0000
  H   H944      1.0  0.43452  0.81681  0.42540  1.0000
  H   H945      1.0  0.44959  0.80039  0.43597  1.0000
  H   H946      1.0  0.43016  0.79787  0.40453  1.0000
  H   H947      1.0  0.44166  0.77857  0.41576  1.0000
  H   H948      1.0  0.38786  0.81585  0.43385  1.0000
  H   H949      1.0  0.40541  0.81517  0.41558  1.0000
  H   H950      1.0  0.45173  0.85976  0.48212  1.0000
  H   H951      1.0  0.02579  0.59677  0.37702  1.0000
  H   H952      1.0  0.42774  0.75931  0.44221  1.0000
  H   H953      1.0  0.44963  0.76545  0.44110  1.0000
  N   N29       1.0  0.37342  0.57593  0.25671  1.0000
  C   C548      1.0  0.08311  0.56745  0.34682  1.0000
  C   C549      1.0  0.04421  0.56489  0.42028  1.0000
  H   H954      1.0  0.45926  0.83689  0.49001  1.0000
  C   C550      1.0  0.39623  0.69495  0.38547  1.0000
  S   S125      1.0  0.40230  0.92176  0.49251  1.0000
  H   H955      1.0  0.37554  0.79150  0.42371  1.0000
  H   H956      1.0  0.37607  0.81134  0.40786  1.0000
  H   H957      1.0  0.39242  0.79225  0.40443  1.0000
  H   H958      1.0  0.21497  0.57340  0.47462  1.0000
  C   C551      1.0  0.33907  0.69884  0.42693  1.0000
  H   H959      1.0  0.05906  0.63083  0.39427  1.0000
  H   H960      1.0  0.15727  0.61901  0.41650  1.0000
  H   H961      1.0  0.14742  0.55503  0.45708  1.0000
  H   H962      1.0  0.03083  0.57260  0.42177  1.0000
  C   C552      1.0  0.22511  0.51806  0.27279  1.0000
  H   H963      1.0  0.02254  0.56642  0.37084  1.0000
  H   H964      1.0  0.12248  0.62380  0.40054  1.0000
  H   H965      1.0  0.19814  0.55359  0.37175  1.0000
  H   H966      1.0  0.25208  0.49747  0.28759  1.0000
  H   H967      1.0  0.41892  0.98055  0.38116  1.0000
  H   H968      1.0  0.14749  0.58034  0.43378  1.0000
  H   H969      1.0  0.04252  0.59981  0.41766  1.0000
  H   H970      1.0  0.28077  0.54797  0.45663  1.0000
  C   C553      1.0  0.27049  0.51273  0.46170  1.0000
  H   H971      1.0  0.05252  0.50908  0.45270  1.0000
  H   H972      1.0  0.22829  0.69972  0.45962  1.0000
  H   H973      1.0  0.34967  0.76302  0.41801  1.0000
  C   C554      1.0  0.39739  0.53008  0.27770  1.0000
  H   H974      1.0  0.19752  0.56978  0.30722  1.0000
  H   H975      1.0  0.20723  0.58707  0.43353  1.0000
  C   C555      1.0  0.16303  0.51292  0.39689  1.0000
  H   H976      1.0  0.46081  0.86960  0.38496  1.0000
  C   C556      1.0  0.13420  0.62864  0.40390  1.0000
  H   H977      1.0  0.19139  0.57468  0.41323  1.0000
  H   H978      1.0  0.17280  0.55241  0.43236  1.0000
  H   H979      1.0  0.12938  0.63869  0.41307  1.0000
  C   C557      1.0  0.48734  0.99242  0.38360  1.0000
  S   S126      1.0  0.36148  0.51726  0.25621  1.0000
  Fe  Fe69      1.0  0.23255  0.50527  0.35153  1.0000
  C   C558      1.0  0.15174  0.57280  0.42235  1.0000
  N   N30       1.0  0.16408  0.58229  0.40809  1.0000
  C   C559      1.0  0.45315  0.87011  0.39839  1.0000
  C   C560      1.0  0.01666  0.63413  0.44839  1.0000
  H   H980      1.0  0.40160  0.95691  0.46603  1.0000
  H   H981      1.0  0.45750  0.85644  0.42484  1.0000
  H   H982      1.0  0.15878  0.54454  0.41972  1.0000
  C   C561      1.0  0.15375  0.59928  0.40024  1.0000
  H   H983      1.0  0.13921  0.57206  0.41721  1.0000
  H   H984      1.0  0.14155  0.63512  0.39163  1.0000
  S   S127      1.0  0.49121  0.72562  0.36663  1.0000
  H   H985      1.0  0.42216  0.65510  0.37978  1.0000
  C   C562      1.0  0.46023  0.85354  0.41089  1.0000
  H   H986      1.0  0.16218  0.60633  0.38916  1.0000
  C   C563      1.0  0.02231  0.64931  0.45251  1.0000
  H   H987      1.0  0.43173  0.90125  0.39478  1.0000
  C   C564      1.0  0.18003  0.62578  0.47145  1.0000
  C   C565      1.0  0.36678  0.69939  0.40582  1.0000
  H   H988      1.0  0.14245  0.59615  0.39439  1.0000
  H   H989      1.0  0.19273  0.58417  0.38028  1.0000
  C   C566      1.0  0.34240  0.56489  0.26372  1.0000
  S   S128      1.0  0.48462  0.67621  0.25929  1.0000
  C   C567      1.0  0.16984  0.57065  0.39353  1.0000
  H   H990      1.0  0.17776  0.55802  0.39861  1.0000
  H   H991      1.0  0.42958  0.88161  0.42361  1.0000
  H   H992      1.0  0.42428  0.84706  0.39993  1.0000
  H   H993      1.0  0.36461  0.68536  0.40624  1.0000
  H   H994      1.0  0.05841  0.60494  0.37823  1.0000
  H   H995      1.0  0.27247  0.69256  0.46434  1.0000
  H   H996      1.0  0.45290  0.84224  0.38046  1.0000
  C   C568      1.0  0.18155  0.57860  0.37674  1.0000
  H   H997      1.0  0.04680  0.52257  0.47043  1.0000
  C   C569      1.0  0.42419  0.87245  0.41668  1.0000
  H   H998      1.0  0.42696  0.85905  0.42436  1.0000
  H   H999      1.0  0.41507  0.86347  0.38395  1.0000
  C   C570      1.0  0.48335  0.84169  0.34449  1.0000
  C   C571      1.0  0.00602  0.58802  0.47458  1.0000
  H   H1000     1.0  0.05303  0.57113  0.42679  1.0000
  C   C572      1.0  0.44109  0.84985  0.37494  1.0000
  H   H1001     1.0  0.17351  0.58924  0.36879  1.0000
  H   H1002     1.0  0.36109  0.95905  0.44478  1.0000
  H   H1003     1.0  0.46726  0.79553  0.28497  1.0000
  C   C573      1.0  0.42812  0.89088  0.38795  1.0000
  H   H1004     1.0  0.23937  0.53069  0.46362  1.0000
  C   C574      1.0  0.37009  0.68465  0.44545  1.0000
  C   C575      1.0  0.36915  0.96136  0.45469  1.0000
  H   H1005     1.0  0.46929  0.63547  0.30339  1.0000
  C   C576      1.0  0.18379  0.50583  0.30574  1.0000
  S   S129      1.0  0.23715  0.64404  0.47942  1.0000
  H   H1006     1.0  0.39806  0.68517  0.44674  1.0000
  C   C577      1.0  0.07662  0.57386  0.36485  1.0000
  C   C578      1.0  0.40370  0.87758  0.41900  1.0000
  C   C579      1.0  0.48227  0.70182  0.28161  1.0000
  H   H1007     1.0  0.37224  0.94860  0.46331  1.0000
  S   S130      1.0  0.47897  0.96300  0.37218  1.0000
  H   H1008     1.0  0.32043  0.57561  0.24869  1.0000
  H   H1009     1.0  0.44704  0.73648  0.45887  1.0000
  C   C580      1.0  0.38622  0.96824  0.44518  1.0000
  H   H1010     1.0  0.39312  0.95860  0.43622  1.0000
  S   S131      1.0  0.12854  0.61699  0.48129  1.0000
  H   H1011     1.0  0.36171  0.60797  0.29839  1.0000
  H   H1012     1.0  0.42993  0.88631  0.36034  1.0000
  H   H1013     1.0  0.41351  0.89370  0.38811  1.0000
  C   C581      1.0  0.32653  0.70077  0.41265  1.0000
  H   H1014     1.0  0.31996  0.51530  0.31244  1.0000
  H   H1015     1.0  0.18214  0.57269  0.48914  1.0000
  C   C582      1.0  0.20513  0.68690  0.45910  1.0000
  C   C583      1.0  0.35754  0.60268  0.27248  1.0000
  H   H1016     1.0  0.48193  0.81539  0.33870  1.0000
  H   H1017     1.0  0.20041  0.55146  0.32464  1.0000
  H   H1018     1.0  0.19610  0.60958  0.43044  1.0000
  H   H1019     1.0  0.42143  0.84397  0.36008  1.0000
  H   H1020     1.0  0.38552  0.55013  0.24921  1.0000
  H   H1021     1.0  0.06976  0.59090  0.39478  1.0000
  S   S132      1.0  0.08583  0.49859  0.35075  1.0000
  H   H1022     1.0  0.45808  0.81199  0.39810  1.0000
  C   C584      1.0  0.02560  0.50854  0.46622  1.0000
  C   C585      1.0  0.39529  0.87217  0.43804  1.0000
  H   H1023     1.0  0.38165  0.58575  0.27837  1.0000
  H   H1024     1.0  0.38753  0.55445  0.28804  1.0000
  H   H1025     1.0  0.15319  0.52288  0.40343  1.0000
  H   H1026     1.0  0.29696  0.56959  0.48925  1.0000
  C   C586      1.0  0.36527  0.73856  0.40983  1.0000
  H   H1027     1.0  0.40161  0.87773  0.44750  1.0000
  H   H1028     1.0  0.39161  0.70561  0.37507  1.0000
  H   H1029     1.0  0.33716  0.57359  0.27409  1.0000
  H   H1030     1.0  0.18997  0.54296  0.29851  1.0000
  S   S133      1.0  0.49492  0.76556  0.37528  1.0000
  H   H1031     1.0  0.42825  0.82616  0.37704  1.0000
  C   C587      1.0  0.45725  0.95708  0.42249  1.0000
  H   H1032     1.0  0.15588  0.50640  0.38888  1.0000
  H   H1033     1.0  0.38093  0.87746  0.43965  1.0000
  H   H1034     1.0  0.24714  0.51544  0.49262  1.0000
  C   C588      1.0  0.35024  0.72705  0.41668  1.0000
  C   C589      1.0  0.38435  0.54727  0.27780  1.0000
  C   C590      1.0  0.35054  0.60783  0.29094  1.0000
  H   H1035     1.0  0.36230  0.57527  0.28443  1.0000
  H   H1036     1.0  0.15635  0.50179  0.31440  1.0000
  H   H1037     1.0  0.34278  0.62132  0.28971  1.0000
  H   H1038     1.0  0.31657  0.55659  0.26500  1.0000
  C   C591      1.0  0.36912  0.58420  0.27364  1.0000
  C   C592      1.0  0.16393  0.61956  0.47910  1.0000
  H   H1039     1.0  0.34184  0.72955  0.40589  1.0000
  C   C593      1.0  0.19666  0.50987  0.28839  1.0000
  H   H1040     1.0  0.30317  0.69049  0.40824  1.0000
  S   S134      1.0  0.49507  0.62327  0.26255  1.0000
  C   C594      1.0  0.38612  0.55880  0.25932  1.0000
  H   H1041     1.0  0.02105  0.60833  0.47719  1.0000
  H   H1042     1.0  0.28481  0.50453  0.41789  1.0000
  C   C595      1.0  0.49027  0.82398  0.34218  1.0000
  H   H1043     1.0  0.38838  0.66767  0.46163  1.0000
  S   S135      1.0  0.48505  0.87590  0.34961  1.0000
  H   H1044     1.0  0.25321  0.54585  0.45081  1.0000
  H   H1045     1.0  0.47654  0.88002  0.47026  1.0000
  H   H1046     1.0  0.22893  0.52810  0.30293  1.0000
  H   H1047     1.0  0.34186  0.73261  0.42829  1.0000
  C   C596      1.0  0.16736  0.68060  0.47485  1.0000
  C   C597      1.0  0.47298  0.65153  0.32295  1.0000
  H   H1048     1.0  0.37265  0.73473  0.39711  1.0000
  H   H1049     1.0  0.16171  0.69345  0.46772  1.0000
  H   H1050     1.0  0.39306  0.68845  0.41370  1.0000
  H   H1051     1.0  0.43614  0.56909  0.25962  1.0000
  H   H1052     1.0  0.32556  0.51689  0.24704  1.0000
  C   C598      1.0  0.04244  0.54643  0.43048  1.0000
  H   H1053     1.0  0.00356  0.54326  0.47049  1.0000
  H   H1054     1.0  0.45284  0.97335  0.44322  1.0000
  C   C599      1.0  0.43136  0.96481  0.47818  1.0000
  C   C600      1.0  0.31408  0.67356  0.47135  1.0000
  H   H1055     1.0  0.47831  0.90874  0.46568  1.0000
  C   C601      1.0  0.46463  0.66370  0.36013  1.0000
  H   H1056     1.0  0.42873  0.95223  0.44735  1.0000
  H   H1057     1.0  0.28487  0.52646  0.43769  1.0000
  H   H1058     1.0  0.44444  0.98378  0.42309  1.0000
  H   H1059     1.0  0.37457  0.73719  0.41964  1.0000
  H   H1060     1.0  0.44118  0.65513  0.39065  1.0000
  H   H1061     1.0  0.09829  0.54947  0.49257  1.0000
  H   H1062     1.0  0.49393  0.90153  0.49168  1.0000
  H   H1063     1.0  0.47033  0.70751  0.27593  1.0000
  H   H1064     1.0  0.34599  0.60296  0.26548  1.0000
  H   H1065     1.0  0.42082  0.96455  0.42825  1.0000
  H   H1066     1.0  0.04902  0.62996  0.41711  1.0000
  H   H1067     1.0  0.06694  0.56065  0.40080  1.0000
  H   H1068     1.0  0.39123  0.71156  0.40603  1.0000
  H   H1069     1.0  0.23115  0.50686  0.43169  1.0000
  H   H1070     1.0  0.45042  0.89095  0.36595  1.0000
  H   H1071     1.0  0.34957  0.76041  0.39515  1.0000
  C   C602      1.0  0.42362  0.98162  0.46645  1.0000
  H   H1072     1.0  0.21954  0.55895  0.31032  1.0000
  H   H1073     1.0  0.17858  0.50627  0.41834  1.0000
  H   H1074     1.0  0.14842  0.54144  0.49048  1.0000
  C   C603      1.0  0.48025  0.84846  0.40640  1.0000
  H   H1075     1.0  0.19432  0.59672  0.45216  1.0000
  H   H1076     1.0  0.07791  0.57726  0.33604  1.0000
  C   C604      1.0  0.32668  0.56259  0.25488  1.0000
  H   H1077     1.0  0.01995  0.55850  0.39428  1.0000
  H   H1078     1.0  0.16251  0.57977  0.47862  1.0000
  H   H1079     1.0  0.02747  0.58964  0.45243  1.0000
  H   H1080     1.0  0.45086  0.95459  0.41135  1.0000
  H   H1081     1.0  0.39478  0.52220  0.26777  1.0000
  H   H1082     1.0  0.48364  0.84908  0.47035  1.0000
  C   C605      1.0  0.39825  0.97042  0.45878  1.0000
  C   C606      1.0  0.02031  0.57942  0.46120  1.0000
  C   C607      1.0  0.15195  0.67039  0.48425  1.0000
  N   N31       1.0  0.26514  0.52839  0.47199  1.0000
  H   H1083     1.0  0.45421  0.67505  0.32629  1.0000
  C   C608      1.0  0.20422  0.54401  0.29798  1.0000
  H   H1084     1.0  0.46973  0.64934  0.36017  1.0000
  H   H1085     1.0  0.43433  0.99007  0.46165  1.0000
  H   H1086     1.0  0.38229  0.98095  0.43692  1.0000
  H   H1087     1.0  0.43907  0.66360  0.35062  1.0000
  H   H1088     1.0  0.03919  0.54724  0.44490  1.0000
  H   H1089     1.0  0.21036  0.52044  0.31683  1.0000
  H   H1090     1.0  0.40004  0.56175  0.25715  1.0000
  H   H1091     1.0  0.32236  0.66081  0.47217  1.0000
  C   C609      1.0  0.21514  0.52558  0.30282  1.0000
  H   H1092     1.0  0.49020  0.76022  0.43867  1.0000
  H   H1093     1.0  0.47539  0.67933  0.31563  1.0000
  H   H1094     1.0  0.46818  0.66707  0.37252  1.0000
  H   H1095     1.0  0.02163  0.58986  0.39995  1.0000
  C   C610      1.0  0.46856  0.67099  0.32699  1.0000
  C   C611      1.0  0.32113  0.68879  0.47375  1.0000
  H   H1096     1.0  0.11551  0.51292  0.48253  1.0000
  H   H1097     1.0  0.07879  0.55445  0.34645  1.0000
  C   C612      1.0  0.21918  0.69861  0.45018  1.0000
  H   H1098     1.0  0.19322  0.65677  0.48297  1.0000
  S   S136      1.0  0.28393  0.51557  0.30319  1.0000
  S   S137      1.0  0.37007  0.72002  0.48554  1.0000
  H   H1099     1.0  0.48067  0.70124  0.33931  1.0000
  C   C613      1.0  0.49217  0.68618  0.27583  1.0000
  C   C614      1.0  0.20555  0.55677  0.31086  1.0000
  H   H1100     1.0  0.41129  0.53301  0.27450  1.0000
  H   H1101     1.0  0.01766  0.51691  0.41950  1.0000
  S   S138      1.0  0.07618  0.61756  0.48366  1.0000
  H   H1102     1.0  0.45083  0.97744  0.48737  1.0000
  H   H1103     1.0  0.15699  0.65605  0.48686  1.0000
  H   H1104     1.0  0.08128  0.58687  0.36424  1.0000
  C   C615      1.0  0.43133  0.91375  0.36052  1.0000
  H   H1105     1.0  0.44160  0.63908  0.37568  1.0000
  H   H1106     1.0  0.43702  0.92246  0.36765  1.0000
  H   H1107     1.0  0.13024  0.68621  0.47147  1.0000
  H   H1108     1.0  0.46724  0.64220  0.33404  1.0000
  H   H1109     1.0  0.33457  0.68761  0.47661  1.0000
  C   C616      1.0  0.29599  0.56220  0.47827  1.0000
  Fe  Fe70      1.0  0.26465  0.49771  0.37145  1.0000
  C   C617      1.0  0.31982  0.60302  0.48650  1.0000
  C   C618      1.0  0.27468  0.51736  0.44124  1.0000
  S   S139      1.0  0.31947  0.72564  0.47352  1.0000
  C   C619      1.0  0.04583  0.60752  0.40452  1.0000
  H   H1110     1.0  0.47028  0.96150  0.41685  1.0000
  C   C620      1.0  0.30769  0.51624  0.27191  1.0000
  N   N32       1.0  0.35583  0.70737  0.42148  1.0000
  H   H1111     1.0  0.05497  0.53729  0.42818  1.0000
  C   C621      1.0  0.49335  0.66931  0.34349  1.0000
  S   S140      1.0  0.47772  0.89148  0.42882  1.0000
  H   H1112     1.0  0.33095  0.60712  0.47642  1.0000
  H   H1113     1.0  0.30366  0.69287  0.43100  1.0000
  C   C622      1.0  0.33786  0.51595  0.28755  1.0000
  C   C623      1.0  0.19507  0.59607  0.43778  1.0000
  H   H1114     1.0  0.45982  0.93199  0.48750  1.0000
  H   H1115     1.0  0.41908  0.84630  0.46128  1.0000
  H   H1116     1.0  0.05060  0.58571  0.35874  1.0000
  S   S141      1.0  0.45772  0.59724  0.25309  1.0000
  Fe  Fe71      1.0  0.08567  0.50414  0.39979  1.0000
  C   C624      1.0  0.46096  0.85086  0.49037  1.0000
  H   H1117     1.0  0.45083  0.65239  0.30820  1.0000
  H   H1118     1.0  0.22716  0.69256  0.43875  1.0000
  H   H1119     1.0  0.04871  0.55192  0.39643  1.0000
  H   H1120     1.0  0.43708  0.91579  0.34630  1.0000
  H   H1121     1.0  0.31976  0.71461  0.41035  1.0000
  H   H1122     1.0  0.41083  0.69430  0.38470  1.0000
  H   H1123     1.0  0.05219  0.56273  0.36706  1.0000
  C   C625      1.0  0.48020  0.85359  0.48363  1.0000
  N   N33       1.0  0.47352  0.67457  0.34416  1.0000
  H   H1124     1.0  0.31764  0.67476  0.42117  1.0000
  H   H1125     1.0  0.36900  0.76618  0.40192  1.0000
  H   H1126     1.0  0.03331  0.61456  0.39989  1.0000
  C   C626      1.0  0.05602  0.57552  0.36919  1.0000
  C   C627      1.0  0.35697  0.57284  0.24992  1.0000
  C   C628      1.0  0.44412  0.66601  0.36257  1.0000
  C   C629      1.0  0.19334  0.69506  0.47494  1.0000
  H   H1127     1.0  0.46015  0.79136  0.38927  1.0000
  H   H1128     1.0  0.21741  0.53006  0.26622  1.0000
  H   H1129     1.0  0.49327  0.77348  0.27584  1.0000
  S   S142      1.0  0.38815  0.75700  0.47862  1.0000
  H   H1130     1.0  0.19140  0.62266  0.47849  1.0000
  C   C630      1.0  0.99970  0.52658  0.36458  1.0000
  C   C631      1.0  0.28170  0.50072  0.43245  1.0000
  N   N34       1.0  0.41492  0.97848  0.45124  1.0000
  C   C632      1.0  0.38730  0.69897  0.40385  1.0000
  C   C633      1.0  0.02832  0.58517  0.38739  1.0000
  C   C634      1.0  0.44565  0.97133  0.43251  1.0000
  C   C635      1.0  0.23932  0.55482  0.47463  1.0000
  C   C636      1.0  0.24928  0.53946  0.46458  1.0000
  H   H1131     1.0  0.30915  0.55447  0.47455  1.0000
  H   H1132     1.0  0.34231  0.68435  0.43115  1.0000
  C   C637      1.0  0.49298  0.79174  0.29445  1.0000
  H   H1133     1.0  0.13718  0.56338  0.48713  1.0000
  N   N35       1.0  0.18048  0.68356  0.48629  1.0000
  H   H1134     1.0  0.20831  0.50465  0.41356  1.0000
  H   H1135     1.0  0.22539  0.56846  0.45292  1.0000
  H   H1136     1.0  0.03001  0.56960  0.46812  1.0000
  H   H1137     1.0  0.48377  0.84550  0.39250  1.0000
  H   H1138     1.0  0.02516  0.58856  0.49213  1.0000
  C   C638      1.0  0.36545  0.70443  0.43751  1.0000
  H   H1139     1.0  0.43867  0.67956  0.36567  1.0000
  N   N36       1.0  0.21525  0.51196  0.29072  1.0000
  H   H1140     1.0  0.12754  0.66320  0.47854  1.0000
  H   H1141     1.0  0.35854  0.68031  0.45474  1.0000
  C   C639      1.0  0.04518  0.50983  0.46626  1.0000
  H   H1142     1.0  0.14284  0.66923  0.45907  1.0000
  H   H1143     1.0  0.39328  0.68200  0.38291  1.0000
  C   C640      1.0  0.17047  0.56810  0.48542  1.0000
  H   H1144     1.0  0.37313  0.67572  0.43509  1.0000
  H   H1145     1.0  0.43625  0.98314  0.36258  1.0000
  H   H1146     1.0  0.42852  0.74583  0.47341  1.0000
  C   C641      1.0  0.29318  0.70662  0.46903  1.0000
  H   H1147     1.0  0.11934  0.54480  0.47920  1.0000
  H   H1148     1.0  0.43996  0.81888  0.45834  1.0000
  H   H1149     1.0  0.09700  0.52709  0.47393  1.0000
  H   H1150     1.0  0.47104  0.65827  0.29470  1.0000
  H   H1151     1.0  0.26258  0.52367  0.43538  1.0000
  H   H1152     1.0  0.30931  0.60030  0.47940  1.0000
  H   H1153     1.0  0.18619  0.70772  0.46894  1.0000
  H   H1154     1.0  0.24581  0.50223  0.30997  1.0000
  H   H1155     1.0  0.30808  0.62975  0.48873  1.0000
  C   C642      1.0  0.28183  0.54986  0.48421  1.0000
  C   C643      1.0  0.00484  0.52065  0.41414  1.0000
  H   H1156     1.0  0.29606  0.51639  0.26566  1.0000
  H   H1157     1.0  0.39001  0.97827  0.46886  1.0000
  C   C644      1.0  0.46553  0.64935  0.30632  1.0000
  H   H1158     1.0  0.20232  0.69880  0.48331  1.0000
  S   S143      1.0  0.06035  0.56974  0.49215  1.0000
  H   H1159     1.0  0.40677  0.99413  0.42719  1.0000
  H   H1160     1.0  0.42801  0.80756  0.47780  1.0000
  C   C645      1.0  0.49410  0.85330  0.34839  1.0000
  C   C646      1.0  0.49286  0.97925  0.37239  1.0000
  H   H1161     1.0  0.21336  0.55245  0.46794  1.0000
  H   H1162     1.0  0.48846  0.84495  0.49296  1.0000
  H   H1163     1.0  0.45912  0.50777  0.24722  1.0000
  H   H1164     1.0  0.17526  0.55816  0.47613  1.0000
  H   H1165     1.0  0.24755  0.56568  0.47290  1.0000
  Fe  Fe72      1.0  0.24238  0.61471  0.48831  1.0000
  H   H1166     1.0  0.16298  0.61189  0.49216  1.0000
  C   C647      1.0  0.22919  0.50440  0.25937  1.0000
  H   H1167     1.0  0.05123  0.49864  0.47531  1.0000
  H   H1168     1.0  0.39465  0.59200  0.24773  1.0000
  C   C648      1.0  0.10402  0.52315  0.48573  1.0000
  C   C649      1.0  0.99814  0.57685  0.38562  1.0000
  H   H1169     1.0  0.01709  0.52217  0.48951  1.0000
  H   H1170     1.0  0.49262  0.74330  0.46873  1.0000
  H   H1171     1.0  0.49013  0.93355  0.47547  1.0000
  H   H1172     1.0  0.44003  0.90926  0.48925  1.0000
  H   H1173     1.0  0.34947  0.51589  0.29381  1.0000
  H   H1174     1.0  0.47556  0.99154  0.39324  1.0000
  H   H1175     1.0  0.03556  0.62096  0.49245  1.0000
  C   C650      1.0  0.43107  0.98681  0.37602  1.0000
  C   C651      1.0  0.35423  0.81466  0.49434  1.0000
  Fe  Fe73      1.0  0.49603  0.89511  0.36339  1.0000
  C   C652      1.0  0.01486  0.50981  0.48493  1.0000
  C   C653      1.0  0.01859  0.50077  0.35483  1.0000
  H   H1176     1.0  0.99813  0.53929  0.36930  1.0000
  C   C654      1.0  0.11018  0.53942  0.49065  1.0000
  C   C655      1.0  0.43955  0.97004  0.49305  1.0000
  C   C656      1.0  0.19108  0.66614  0.49300  1.0000
  H   H1177     1.0  0.02131  0.49889  0.49394  1.0000
  H   H1178     1.0  0.49567  0.76300  0.29769  1.0000
  H   H1179     1.0  0.20462  0.66830  0.49477  1.0000
  H   H1180     1.0  0.32478  0.59068  0.49485  1.0000
  S   S144      1.0  0.43113  0.88078  0.51690  1.0000
  Fe  Fe74      1.0  0.26601  0.49916  0.61277  1.0000
  S   S145      1.0  0.46102  0.93883  0.56020  1.0000
  H   H1181     1.0  0.48178  0.52641  0.72989  1.0000
  H   H1182     1.0  0.45496  0.88577  0.54001  1.0000
  Fe  Fe75      1.0  0.47713  0.91679  0.57599  1.0000
  S   S146      1.0  0.46323  0.89343  0.59049  1.0000
  Fe  Fe76      1.0  0.47227  0.95840  0.57245  1.0000
  S   S147      1.0  0.45390  0.98120  0.58401  1.0000
  H   H1183     1.0  0.37950  0.57423  0.64808  1.0000
  H   H1184     1.0  0.03847  0.60424  0.56541  1.0000
  Fe  Fe77      1.0  0.48309  0.63962  0.70885  1.0000
  H   H1185     1.0  0.40217  0.55057  0.72655  1.0000
  H   H1186     1.0  0.39188  0.81524  0.58124  1.0000
  C   C657      1.0  0.48138  0.70955  0.65304  1.0000
  C   C658      1.0  0.14297  0.55322  0.49739  1.0000
  H   H1187     1.0  0.43228  0.93525  0.52802  1.0000
  C   C659      1.0  0.39917  0.83564  0.54940  1.0000
  Fe  Fe78      1.0  0.08149  0.52088  0.57602  1.0000
  S   S148      1.0  0.07424  0.55053  0.57163  1.0000
  H   H1188     1.0  0.13856  0.51622  0.59565  1.0000
  H   H1189     1.0  0.44796  0.72619  0.66726  1.0000
  S   S149      1.0  0.23336  0.60390  0.51667  1.0000
  H   H1190     1.0  0.47432  0.90861  0.53845  1.0000
  S   S150      1.0  0.49555  0.96044  0.55105  1.0000
  H   H1191     1.0  0.44631  0.70027  0.72381  1.0000
  S   S151      1.0  0.08285  0.50290  0.60195  1.0000
  C   C660      1.0  0.02300  0.54151  0.57137  1.0000
  H   H1192     1.0  0.48804  0.75343  0.52601  1.0000
  H   H1193     1.0  0.30194  0.52139  0.62776  1.0000
  Fe  Fe79      1.0  0.26436  0.51760  0.57458  1.0000
  S   S152      1.0  0.27838  0.53571  0.55279  1.0000
  H   H1194     1.0  0.45145  0.67194  0.71361  1.0000
  S   S153      1.0  0.25056  0.52459  0.60106  1.0000
  C   C661      1.0  0.43717  0.67672  0.71762  1.0000
  Fe  Fe80      1.0  0.39426  0.52062  0.70345  1.0000
  C   C662      1.0  0.30522  0.51413  0.64027  1.0000
  C   C663      1.0  0.26014  0.67171  0.50750  1.0000
  H   H1195     1.0  0.03919  0.57140  0.56938  1.0000
  C   C664      1.0  0.41853  0.94232  0.52981  1.0000
  H   H1196     1.0  0.37192  0.53649  0.66435  1.0000
  S   S154      1.0  0.38008  0.73817  0.52863  1.0000
  Fe  Fe81      1.0  0.46547  0.78492  0.59382  1.0000
  H   H1197     1.0  0.28820  0.60651  0.50641  1.0000
  S   S155      1.0  0.45257  0.81124  0.60330  1.0000
  Fe  Fe82      1.0  0.46235  0.76276  0.56540  1.0000
  C   C665      1.0  0.45172  0.49949  0.70610  1.0000
  S   S156      1.0  0.45107  0.76493  0.53950  1.0000
  Fe  Fe83      1.0  0.47127  0.74354  0.60216  1.0000
  S   S157      1.0  0.46922  0.71631  0.61978  1.0000
  H   H1198     1.0  0.23602  0.50723  0.63957  1.0000
  S   S158      1.0  0.44838  0.76371  0.59321  1.0000
  H   H1199     1.0  0.38213  0.79259  0.51276  1.0000
  C   C666      1.0  0.00024  0.49702  0.58270  1.0000
  S   S159      1.0  0.46265  0.63636  0.73351  1.0000
  H   H1200     1.0  0.09747  0.59104  0.53672  1.0000
  H   H1201     1.0  0.26892  0.65821  0.53184  1.0000
  H   H1202     1.0  0.48774  0.86462  0.51625  1.0000
  Fe  Fe84      1.0  0.45868  0.61138  0.72366  1.0000
  H   H1203     1.0  0.14568  0.67509  0.49692  1.0000
  H   H1204     1.0  0.06457  0.50042  0.52833  1.0000
  H   H1205     1.0  0.37695  0.86670  0.55589  1.0000
  S   S160      1.0  0.47767  0.61545  0.69845  1.0000
  H   H1206     1.0  0.41873  0.95566  0.53347  1.0000
  C   C667      1.0  0.47471  0.70290  0.63994  1.0000
  H   H1207     1.0  0.14819  0.51750  0.65773  1.0000
  H   H1208     1.0  0.17002  0.65331  0.51114  1.0000
  C   C668      1.0  0.37008  0.97026  0.52185  1.0000
  C   C669      1.0  0.47556  0.67386  0.65889  1.0000
  C   C670      1.0  0.47194  0.68494  0.64301  1.0000
  C   C671      1.0  0.38429  0.59452  0.69385  1.0000
  H   H1209     1.0  0.33795  0.61560  0.62873  1.0000
  H   H1210     1.0  0.40805  0.98362  0.55209  1.0000
  S   S161      1.0  0.38814  0.50174  0.68636  1.0000
  C   C672      1.0  0.40020  0.74490  0.53172  1.0000
  C   C673      1.0  0.41301  0.74925  0.51732  1.0000
  C   C674      1.0  0.42866  0.75500  0.52000  1.0000
  C   C675      1.0  0.43184  0.75622  0.53716  1.0000
  C   C676      1.0  0.41928  0.75150  0.55168  1.0000
  C   C677      1.0  0.40349  0.74590  0.54894  1.0000
  H   H1211     1.0  0.43833  0.75854  0.50871  1.0000
  H   H1212     1.0  0.42159  0.75239  0.56496  1.0000
  H   H1213     1.0  0.39374  0.74242  0.56019  1.0000
  C   C678      1.0  0.41945  0.55631  0.70212  1.0000
  C   C679      1.0  0.43137  0.56766  0.69279  1.0000
  C   C680      1.0  0.43538  0.58169  0.70047  1.0000
  C   C681      1.0  0.42730  0.58466  0.71753  1.0000
  C   C682      1.0  0.41518  0.57345  0.72680  1.0000
  C   C683      1.0  0.41142  0.55919  0.71923  1.0000
  H   H1214     1.0  0.20905  0.64054  0.51637  1.0000
  H   H1215     1.0  0.44456  0.59036  0.69312  1.0000
  C   C684      1.0  0.40810  0.68713  0.70573  1.0000
  H   H1216     1.0  0.16438  0.53122  0.59745  1.0000
  H   H1217     1.0  0.38368  0.91346  0.56323  1.0000
  C   C685      1.0  0.02902  0.57950  0.57764  1.0000
  H   H1218     1.0  0.41095  0.74803  0.50412  1.0000
  C   C686      1.0  0.02500  0.53697  0.53912  1.0000
  C   C687      1.0  0.11478  0.56469  0.51520  1.0000
  C   C688      1.0  0.39896  0.67647  0.72264  1.0000
  H   H1219     1.0  0.37314  0.82689  0.56037  1.0000
  H   H1220     1.0  0.40806  0.89063  0.59122  1.0000
  H   H1221     1.0  0.42810  0.89820  0.58022  1.0000
  C   C689      1.0  0.24532  0.58402  0.52575  1.0000
  C   C690      1.0  0.26259  0.57828  0.51818  1.0000
  C   C691      1.0  0.27258  0.56338  0.52658  1.0000
  C   C692      1.0  0.26518  0.55383  0.54229  1.0000
  C   C693      1.0  0.24768  0.55918  0.54955  1.0000
  C   C694      1.0  0.23783  0.57437  0.54138  1.0000
  H   H1222     1.0  0.21000  0.50343  0.68410  1.0000
  H   H1223     1.0  0.28615  0.55930  0.52104  1.0000
  H   H1224     1.0  0.24188  0.55187  0.56169  1.0000
  H   H1225     1.0  0.22447  0.57876  0.54731  1.0000
  C   C695      1.0  0.07165  0.55658  0.54916  1.0000
  C   C696      1.0  0.07406  0.54343  0.53812  1.0000
  C   C697      1.0  0.07011  0.54757  0.52080  1.0000
  C   C698      1.0  0.06508  0.56516  0.51390  1.0000
  C   C699      1.0  0.06370  0.57866  0.52445  1.0000
  C   C700      1.0  0.06671  0.57432  0.54224  1.0000
  H   H1226     1.0  0.07924  0.53003  0.54271  1.0000
  H   H1227     1.0  0.07135  0.53713  0.51261  1.0000
  H   H1228     1.0  0.06000  0.59233  0.51901  1.0000
  H   H1229     1.0  0.06531  0.58465  0.55057  1.0000
  H   H1230     1.0  0.41552  0.70613  0.67308  1.0000
  C   C701      1.0  0.43665  0.69100  0.72988  1.0000
  H   H1231     1.0  0.47076  0.57981  0.66326  1.0000
  S   S162      1.0  0.48161  0.93871  0.51236  1.0000
  C   C702      1.0  0.02597  0.59826  0.56760  1.0000
  H   H1232     1.0  0.12879  0.52236  0.50565  1.0000
  Fe  Fe85      1.0  0.40627  0.89381  0.50612  1.0000
  H   H1233     1.0  0.01980  0.52775  0.57359  1.0000
  S   S163      1.0  0.36525  0.94814  0.52330  1.0000
  C   C703      1.0  0.18369  0.65604  0.51107  1.0000
  C   C704      1.0  0.43541  0.69929  0.69172  1.0000
  C   C705      1.0  0.46163  0.87028  0.59267  1.0000
  C   C706      1.0  0.47327  0.85799  0.58304  1.0000
  C   C707      1.0  0.47093  0.83972  0.58594  1.0000
  C   C708      1.0  0.45684  0.83377  0.59831  1.0000
  C   C709      1.0  0.44526  0.84622  0.60755  1.0000
  C   C710      1.0  0.44766  0.86416  0.60483  1.0000
  H   H1234     1.0  0.43440  0.84189  0.61713  1.0000
  H   H1235     1.0  0.43860  0.87337  0.61236  1.0000
  C   C711      1.0  0.44581  0.89631  0.51497  1.0000
  C   C712      1.0  0.29764  0.61235  0.51255  1.0000
  H   H1236     1.0  0.02194  0.60155  0.51845  1.0000
  C   C713      1.0  0.46828  0.92207  0.51297  1.0000
  C   C714      1.0  0.46694  0.90887  0.52766  1.0000
  C   C715      1.0  0.45596  0.89586  0.52853  1.0000
  C   C716      1.0  0.37860  0.83880  0.55287  1.0000
  N   N37       1.0  0.35559  0.57374  0.66717  1.0000
  C   C717      1.0  0.15103  0.71931  0.51345  1.0000
  N   N38       1.0  0.42803  0.68279  0.70137  1.0000
  C   C718      1.0  0.43288  0.66865  0.68921  1.0000
  H   H1237     1.0  0.43138  0.71044  0.69976  1.0000
  H   H1238     1.0  0.14196  0.71038  0.52162  1.0000
  C   C719      1.0  0.42690  0.65031  0.69640  1.0000
  H   H1239     1.0  0.99755  0.53047  0.59790  1.0000
  C   C720      1.0  0.32780  0.60678  0.63448  1.0000
  H   H1240     1.0  0.43186  0.66503  0.72574  1.0000
  H   H1241     1.0  0.42707  0.67299  0.67668  1.0000
  H   H1242     1.0  0.44754  0.66649  0.68535  1.0000
  C   C721      1.0  0.36994  0.56492  0.65440  1.0000
  H   H1243     1.0  0.00715  0.49872  0.52136  1.0000
  H   H1244     1.0  0.00448  0.55440  0.55233  1.0000
  H   H1245     1.0  0.44097  0.98858  0.53669  1.0000
  H   H1246     1.0  0.43203  0.64451  0.70899  1.0000
  H   H1247     1.0  0.41222  0.65144  0.69839  1.0000
  C   C722      1.0  0.31315  0.55450  0.69270  1.0000
  N   N39       1.0  0.40455  0.91748  0.57750  1.0000
  H   H1248     1.0  0.42786  0.64171  0.67055  1.0000
  H   H1249     1.0  0.34618  0.94761  0.57467  1.0000
  H   H1250     1.0  0.42825  0.92383  0.55990  1.0000
  H   H1251     1.0  0.46785  0.50707  0.72285  1.0000
  H   H1252     1.0  0.35035  0.97500  0.54433  1.0000
  S   S164      1.0  0.10808  0.50930  0.56327  1.0000
  H   H1253     1.0  0.27209  0.67858  0.50374  1.0000
  C   C723      1.0  0.41398  0.88852  0.56309  1.0000
  H   H1254     1.0  0.49391  0.58022  0.66470  1.0000
  H   H1255     1.0  0.20206  0.52535  0.66042  1.0000
  C   C724      1.0  0.48188  0.68061  0.67216  1.0000
  C   C725      1.0  0.01880  0.55004  0.55260  1.0000
  H   H1256     1.0  0.04462  0.50868  0.62751  1.0000
  H   H1257     1.0  0.39743  0.59931  0.69071  1.0000
  C   C726      1.0  0.01313  0.61297  0.51223  1.0000
  H   H1258     1.0  0.01743  0.63860  0.49565  1.0000
  H   H1259     1.0  0.43812  0.93353  0.61733  1.0000
  H   H1260     1.0  0.47193  0.52311  0.68358  1.0000
  H   H1261     1.0  0.10853  0.56971  0.50301  1.0000
  H   H1262     1.0  0.27067  0.63467  0.50260  1.0000
  H   H1263     1.0  0.34974  0.80212  0.50006  1.0000
  H   H1264     1.0  0.42331  0.69892  0.73188  1.0000
  C   C727      1.0  0.41388  0.89861  0.57893  1.0000
  H   H1265     1.0  0.39083  0.96985  0.49959  1.0000
  C   C728      1.0  0.38020  0.58720  0.67787  1.0000
  H   H1266     1.0  0.46348  0.81507  0.53472  1.0000
  C   C729      1.0  0.46341  0.99426  0.51693  1.0000
  H   H1267     1.0  0.19586  0.62953  0.50535  1.0000
  H   H1268     1.0  0.30903  0.54966  0.68135  1.0000
  H   H1269     1.0  0.36422  0.56145  0.64326  1.0000
  H   H1270     1.0  0.45020  0.69704  0.69005  1.0000
  H   H1271     1.0  0.32892  0.57309  0.69792  1.0000
  C   C730      1.0  0.42315  0.86943  0.56646  1.0000
  C   C731      1.0  0.27342  0.50678  0.49974  1.0000
  H   H1272     1.0  0.24931  0.68079  0.51407  1.0000
  C   C732      1.0  0.16014  0.71143  0.49675  1.0000
  S   S165      1.0  0.38066  0.89673  0.52435  1.0000
  H   H1273     1.0  0.03501  0.52966  0.63486  1.0000
  H   H1274     1.0  0.40213  0.68067  0.73475  1.0000
  H   H1275     1.0  0.28701  0.51049  0.49650  1.0000
  C   C733      1.0  0.18311  0.50721  0.59870  1.0000
  H   H1276     1.0  0.17709  0.51891  0.63807  1.0000
  H   H1277     1.0  0.16484  0.50577  0.54713  1.0000
  H   H1278     1.0  0.05410  0.52855  0.61782  1.0000
  N   N40       1.0  0.28758  0.62660  0.52317  1.0000
  C   C734      1.0  0.27793  0.64079  0.51092  1.0000
  H   H1279     1.0  0.42951  0.97834  0.50142  1.0000
  C   C735      1.0  0.27370  0.61819  0.53658  1.0000
  C   C736      1.0  0.29982  0.63385  0.53288  1.0000
  C   C737      1.0  0.30858  0.65019  0.52305  1.0000
  H   H1280     1.0  0.32851  0.66612  0.52584  1.0000
  C   C738      1.0  0.28064  0.60173  0.54930  1.0000
  H   H1281     1.0  0.45147  0.49873  0.69186  1.0000
  H   H1282     1.0  0.32592  0.58035  0.64751  1.0000
  C   C739      1.0  0.32282  0.65416  0.53298  1.0000
  C   C740      1.0  0.38031  0.54728  0.66230  1.0000
  C   C741      1.0  0.26630  0.59698  0.56471  1.0000
  H   H1283     1.0  0.18182  0.69567  0.50937  1.0000
  H   H1284     1.0  0.03929  0.53178  0.53916  1.0000
  H   H1285     1.0  0.48951  0.56243  0.69427  1.0000
  H   H1286     1.0  0.45749  0.85355  0.50431  1.0000
  H   H1287     1.0  0.26366  0.61408  0.52970  1.0000
  H   H1288     1.0  0.26618  0.62801  0.54514  1.0000
  H   H1289     1.0  0.29262  0.63798  0.54564  1.0000
  H   H1290     1.0  0.31060  0.62317  0.53679  1.0000
  H   H1291     1.0  0.41982  0.97272  0.57014  1.0000
  C   C742      1.0  0.38526  0.91733  0.57611  1.0000
  H   H1292     1.0  0.25155  0.64906  0.52486  1.0000
  H   H1293     1.0  0.04366  0.64305  0.50792  1.0000
  H   H1294     1.0  0.29230  0.60407  0.55493  1.0000
  H   H1295     1.0  0.28452  0.58998  0.54214  1.0000
  H   H1296     1.0  0.12848  0.57763  0.53176  1.0000
  H   H1297     1.0  0.04318  0.62229  0.52238  1.0000
  Fe  Fe86      1.0  0.23029  0.50791  0.59686  1.0000
  N   N41       1.0  0.48313  0.53568  0.70158  1.0000
  H   H1298     1.0  0.31702  0.65680  0.54662  1.0000
  C   C743      1.0  0.39495  0.79623  0.50542  1.0000
  H   H1299     1.0  0.42971  0.62396  0.68875  1.0000
  H   H1300     1.0  0.41317  0.94408  0.51704  1.0000
  H   H1301     1.0  0.42169  0.94961  0.60737  1.0000
  S   S166      1.0  0.48563  0.66768  0.69312  1.0000
  H   H1302     1.0  0.40110  0.79018  0.60370  1.0000
  H   H1303     1.0  0.27110  0.58430  0.57267  1.0000
  H   H1304     1.0  0.26304  0.60754  0.57345  1.0000
  H   H1305     1.0  0.25407  0.59523  0.55967  1.0000
  C   C744      1.0  0.43829  0.82016  0.55187  1.0000
  C   C745      1.0  0.45649  0.82503  0.54334  1.0000
  C   C746      1.0  0.37180  0.85452  0.56315  1.0000
  H   H1306     1.0  0.40334  0.84673  0.53918  1.0000
  H   H1307     1.0  0.40412  0.83764  0.56155  1.0000
  H   H1308     1.0  0.41339  0.94268  0.56550  1.0000
  H   H1309     1.0  0.43217  0.83047  0.56030  1.0000
  H   H1310     1.0  0.44049  0.80724  0.56051  1.0000
  H   H1311     1.0  0.37857  0.94656  0.57063  1.0000
  H   H1312     1.0  0.02521  0.64037  0.52526  1.0000
  H   H1313     1.0  0.37905  0.59835  0.66694  1.0000
  H   H1314     1.0  0.35707  0.85695  0.56462  1.0000
  H   H1315     1.0  0.37597  0.85172  0.57657  1.0000
  H   H1316     1.0  0.32049  0.60499  0.62373  1.0000
  H   H1317     1.0  0.39708  0.91746  0.60590  1.0000
  H   H1318     1.0  0.48356  0.72329  0.65104  1.0000
  Fe  Fe87      1.0  0.37203  0.74202  0.50100  1.0000
  C   C747      1.0  0.26418  0.65467  0.52018  1.0000
  C   C748      1.0  0.15725  0.51933  0.54654  1.0000
  H   H1319     1.0  0.30423  0.60122  0.52129  1.0000
  C   C749      1.0  0.31879  0.51887  0.64833  1.0000
  H   H1320     1.0  0.45099  0.54420  0.72432  1.0000
  C   C750      1.0  0.46942  0.52539  0.69770  1.0000
  H   H1321     1.0  0.34792  0.92401  0.58194  1.0000
  C   C751      1.0  0.41385  0.92904  0.56221  1.0000
  C   C752      1.0  0.35461  0.93465  0.57329  1.0000
  H   H1322     1.0  0.33372  0.64284  0.53368  1.0000
  H   H1323     1.0  0.34697  0.82626  0.51870  1.0000
  H   H1324     1.0  0.43408  0.92629  0.58829  1.0000
  H   H1325     1.0  0.26892  0.51590  0.52572  1.0000
  H   H1326     1.0  0.14780  0.52003  0.55900  1.0000
  S   S167      1.0  0.48690  0.76493  0.60530  1.0000
  H   H1327     1.0  0.31820  0.61321  0.64472  1.0000
  H   H1328     1.0  0.34848  0.54935  0.68245  1.0000
  H   H1329     1.0  0.37977  0.90690  0.58631  1.0000
  C   C753      1.0  0.48122  0.55360  0.69028  1.0000
  C   C754      1.0  0.37281  0.93500  0.57856  1.0000
  C   C755      1.0  0.14721  0.52318  0.53048  1.0000
  H   H1330     1.0  0.45599  0.53332  0.69914  1.0000
  C   C756      1.0  0.42462  0.93554  0.61336  1.0000
  H   H1331     1.0  0.01981  0.55362  0.61293  1.0000
  H   H1332     1.0  0.00017  0.57871  0.51209  1.0000
  H   H1333     1.0  0.25534  0.49938  0.52372  1.0000
  C   C757      1.0  0.36307  0.57825  0.68260  1.0000
  C   C758      1.0  0.48446  0.57281  0.66038  1.0000
  H   H1334     1.0  0.03553  0.51822  0.59826  1.0000
  H   H1335     1.0  0.11119  0.60762  0.52610  1.0000
  H   H1336     1.0  0.40326  0.66200  0.72340  1.0000
  C   C759      1.0  0.02915  0.52617  0.60898  1.0000
  H   H1337     1.0  0.02859  0.49760  0.57621  1.0000
  C   C760      1.0  0.04148  0.52315  0.62315  1.0000
  H   H1338     1.0  0.10899  0.53040  0.51893  1.0000
  H   H1339     1.0  0.32575  0.52977  0.64183  1.0000
  C   C761      1.0  0.32537  0.56867  0.68609  1.0000
  H   H1340     1.0  0.29852  0.66222  0.52205  1.0000
  S   S168      1.0  0.39774  0.49952  0.72681  1.0000
  H   H1341     1.0  0.25596  0.66873  0.49528  1.0000
  S   S169      1.0  0.20069  0.51814  0.60213  1.0000
  H   H1342     1.0  0.20505  0.51924  0.63874  1.0000
  N   N42       1.0  0.12854  0.54868  0.51245  1.0000
  H   H1343     1.0  0.42883  0.82934  0.52639  1.0000
  H   H1344     1.0  0.35588  0.93229  0.55928  1.0000
  C   C762      1.0  0.40684  0.79938  0.51832  1.0000
  C   C763      1.0  0.31265  0.61790  0.49781  1.0000
  H   H1345     1.0  0.37320  0.84192  0.54005  1.0000
  H   H1346     1.0  0.03900  0.55025  0.59691  1.0000
  H   H1347     1.0  0.09472  0.51725  0.49681  1.0000
  C   C764      1.0  0.42691  0.81837  0.53757  1.0000
  H   H1348     1.0  0.41547  0.80982  0.57978  1.0000
  H   H1349     1.0  0.41176  0.77733  0.58637  1.0000
  S   S170      1.0  0.43127  0.60283  0.72716  1.0000
  C   C765      1.0  0.02561  0.54620  0.60157  1.0000
  H   H1350     1.0  0.03439  0.58039  0.58997  1.0000
  H   H1351     1.0  0.47999  0.49737  0.70383  1.0000
  S   S171      1.0  0.34064  0.51667  0.67431  1.0000
  N   N43       1.0  0.40731  0.81798  0.54354  1.0000
  H   H1352     1.0  0.43324  0.80589  0.53230  1.0000
  H   H1353     1.0  0.39997  0.82795  0.51733  1.0000
  C   C766      1.0  0.39904  0.81600  0.52755  1.0000
  C   C767      1.0  0.45874  0.92200  0.49899  1.0000
  H   H1354     1.0  0.40038  0.88795  0.56047  1.0000
  C   C768      1.0  0.40331  0.80525  0.57733  1.0000
  S   S172      1.0  0.41528  0.53865  0.69190  1.0000
  C   C769      1.0  0.33658  0.58872  0.64251  1.0000
  C   C770      1.0  0.26871  0.50363  0.51993  1.0000
  H   H1355     1.0  0.17714  0.51063  0.67104  1.0000
  C   C771      1.0  0.40415  0.80236  0.55770  1.0000
  H   H1356     1.0  0.01679  0.52088  0.61540  1.0000
  H   H1357     1.0  0.39142  0.79760  0.55689  1.0000
  H   H1358     1.0  0.40397  0.52886  0.65566  1.0000
  H   H1359     1.0  0.38424  0.54827  0.67522  1.0000
  H   H1360     1.0  0.43756  0.56557  0.67951  1.0000
  H   H1361     1.0  0.38459  0.81522  0.53135  1.0000
  H   H1362     1.0  0.02315  0.54376  0.52558  1.0000
  H   H1363     1.0  0.38800  0.78374  0.58898  1.0000
  H   H1364     1.0  0.48008  0.83026  0.57878  1.0000
  C   C772      1.0  0.40089  0.78805  0.58982  1.0000
  H   H1365     1.0  0.41460  0.79085  0.55529  1.0000
  H   H1366     1.0  0.03774  0.54002  0.57051  1.0000
  S   S173      1.0  0.36541  0.52977  0.71232  1.0000
  H   H1367     1.0  0.40819  0.78731  0.52817  1.0000
  S   S174      1.0  0.35507  0.86214  0.51116  1.0000
  C   C773      1.0  0.16620  0.51700  0.59742  1.0000
  H   H1368     1.0  0.33811  0.55567  0.66325  1.0000
  H   H1369     1.0  0.34549  0.58269  0.63161  1.0000
  H   H1370     1.0  0.00488  0.61911  0.52339  1.0000
  H   H1371     1.0  0.49102  0.54632  0.72291  1.0000
  C   C774      1.0  0.43364  0.63717  0.68307  1.0000
  C   C775      1.0  0.29578  0.50021  0.64852  1.0000
  H   H1372     1.0  0.38465  0.58403  0.70550  1.0000
  C   C776      1.0  0.20874  0.51480  0.65226  1.0000
  H   H1373     1.0  0.46741  0.56036  0.69250  1.0000
  S   S175      1.0  0.48394  0.74133  0.57382  1.0000
  H   H1374     1.0  0.00358  0.57726  0.59357  1.0000
  S   S176      1.0  0.47824  0.78471  0.56578  1.0000
  C   C777      1.0  0.40684  0.93162  0.54405  1.0000
  H   H1375     1.0  0.26838  0.58556  0.50610  1.0000
  S   S177      1.0  0.06574  0.50426  0.56482  1.0000
  H   H1376     1.0  0.39964  0.93877  0.59371  1.0000
  H   H1377     1.0  0.12418  0.54036  0.54078  1.0000
  H   H1378     1.0  0.13023  0.58685  0.50857  1.0000
  C   C778      1.0  0.36021  0.98064  0.53435  1.0000
  H   H1379     1.0  0.42823  0.90929  0.60618  1.0000
  H   H1380     1.0  0.48412  0.86250  0.57361  1.0000
  H   H1381     1.0  0.28737  0.64805  0.50126  1.0000
  H   H1382     1.0  0.15694  0.52225  0.51828  1.0000
  H   H1383     1.0  0.02580  0.56182  0.54802  1.0000
  H   H1384     1.0  0.99683  0.50812  0.57282  1.0000
  C   C779      1.0  0.39710  0.54174  0.64983  1.0000
  H   H1385     1.0  0.40425  0.70137  0.70757  1.0000
  H   H1386     1.0  0.16802  0.54879  0.50871  1.0000
  C   C780      1.0  0.12137  0.58102  0.52003  1.0000
  C   C781      1.0  0.40536  0.92449  0.59458  1.0000
  H   H1387     1.0  0.09782  0.59904  0.51325  1.0000
  H   H1388     1.0  0.37061  0.93711  0.59272  1.0000
  H   H1389     1.0  0.16671  0.52901  0.54565  1.0000
  C   C782      1.0  0.10594  0.59551  0.52428  1.0000
  H   H1390     1.0  0.49588  0.97428  0.50613  1.0000
  H   H1391     1.0  0.32001  0.54304  0.70087  1.0000
  H   H1392     1.0  0.22811  0.54204  0.65596  1.0000
  H   H1393     1.0  0.10385  0.56091  0.52572  1.0000
  H   H1394     1.0  0.23476  0.50944  0.66258  1.0000
  C   C783      1.0  0.01169  0.57096  0.58229  1.0000
  C   C784      1.0  0.11923  0.53454  0.50773  1.0000
  H   H1395     1.0  0.31485  0.64834  0.50940  1.0000
  C   C785      1.0  0.17159  0.69332  0.50160  1.0000
  C   C786      1.0  0.48589  0.55376  0.66990  1.0000
  Fe  Fe88      1.0  0.36951  0.88636  0.50331  1.0000
  H   H1396     1.0  0.13871  0.51256  0.53173  1.0000
  S   S178      1.0  0.24309  0.50309  0.56943  1.0000
  H   H1397     1.0  0.43751  0.69783  0.66322  1.0000
  H   H1398     1.0  0.22812  0.54034  0.63279  1.0000
  C   C787      1.0  0.34224  0.56115  0.67424  1.0000
  H   H1399     1.0  0.33804  0.59873  0.66697  1.0000
  C   C788      1.0  0.37878  0.67968  0.72343  1.0000
  H   H1400     1.0  0.42316  0.86268  0.55477  1.0000
  H   H1401     1.0  0.39332  0.93912  0.54491  1.0000
  C   C789      1.0  0.03486  0.63348  0.51538  1.0000
  H   H1402     1.0  0.01553  0.60677  0.57534  1.0000
  Fe  Fe89      1.0  0.36866  0.50747  0.73503  1.0000
  Fe  Fe90      1.0  0.35917  0.50947  0.69643  1.0000
  H   H1403     1.0  0.43718  0.86924  0.56829  1.0000
  H   H1404     1.0  0.42158  0.89500  0.55109  1.0000
  H   H1405     1.0  0.01724  0.52562  0.54228  1.0000
  H   H1406     1.0  0.37260  0.67229  0.73585  1.0000
  C   C790      1.0  0.48483  0.69852  0.66901  1.0000
  H   H1407     1.0  0.15574  0.57011  0.51120  1.0000
  H   H1408     1.0  0.41490  0.93278  0.62540  1.0000
  H   H1409     1.0  0.42526  0.73460  0.67513  1.0000
  H   H1410     1.0  0.24825  0.53362  0.64268  1.0000
  C   C791      1.0  0.15152  0.50853  0.59641  1.0000
  C   C792      1.0  0.17379  0.50583  0.64489  1.0000
  H   H1411     1.0  0.14310  0.55103  0.53373  1.0000
  H   H1412     1.0  0.35736  0.59932  0.65123  1.0000
  H   H1413     1.0  0.46188  0.56382  0.72096  1.0000
  H   H1414     1.0  0.43126  0.72921  0.65281  1.0000
  H   H1415     1.0  0.42007  0.80105  0.51063  1.0000
  H   H1416     1.0  0.39376  0.54013  0.63674  1.0000
  H   H1417     1.0  0.02203  0.59788  0.55444  1.0000
  H   H1418     1.0  0.40159  0.68558  0.69426  1.0000
  C   C793      1.0  0.42988  0.70625  0.67309  1.0000
  C   C794      1.0  0.48036  0.53898  0.72072  1.0000
  C   C795      1.0  0.42414  0.92305  0.59995  1.0000
  C   C796      1.0  0.32349  0.50966  0.66465  1.0000
  Fe  Fe91      1.0  0.37564  0.92408  0.50886  1.0000
  H   H1419     1.0  0.46466  0.82531  0.55388  1.0000
  C   C797      1.0  0.13548  0.54160  0.52982  1.0000
  H   H1420     1.0  0.39174  0.57738  0.67374  1.0000
  H   H1421     1.0  0.36597  0.56623  0.69235  1.0000
  H   H1422     1.0  0.30108  0.56014  0.70102  1.0000
  C   C798      1.0  0.34710  0.59076  0.65748  1.0000
  H   H1423     1.0  0.40629  0.91887  0.53942  1.0000
  C   C799      1.0  0.46239  0.54980  0.72728  1.0000
  H   H1424     1.0  0.37478  0.67491  0.71199  1.0000
  H   H1425     1.0  0.41619  0.86199  0.57837  1.0000
  H   H1426     1.0  0.44465  0.95802  0.50169  1.0000
  N   N44       1.0  0.01412  0.55100  0.58688  1.0000
  H   H1427     1.0  0.40871  0.57576  0.73993  1.0000
  C   C800      1.0  0.38288  0.97787  0.50902  1.0000
  H   H1428     1.0  0.40636  0.55176  0.64804  1.0000
  S   S179      1.0  0.48598  0.93643  0.59035  1.0000
  H   H1429     1.0  0.31768  0.58004  0.67869  1.0000
  H   H1430     1.0  0.44833  0.63572  0.68002  1.0000
  C   C801      1.0  0.23359  0.53396  0.64510  1.0000
  H   H1431     1.0  0.45507  0.83842  0.53543  1.0000
  H   H1432     1.0  0.35296  0.58720  0.69027  1.0000
  H   H1433     1.0  0.46835  0.97993  0.51706  1.0000
  Fe  Fe92      1.0  0.48563  0.93885  0.54046  1.0000
  C   C802      1.0  0.43384  0.72522  0.66676  1.0000
  C   C803      1.0  0.22911  0.51504  0.65021  1.0000
  H   H1434     1.0  0.37405  0.60578  0.69736  1.0000
  C   C804      1.0  0.35269  0.82838  0.50489  1.0000
  C   C805      1.0  0.46835  0.50680  0.70851  1.0000
  C   C806      1.0  0.40870  0.98304  0.56648  1.0000
  H   H1435     1.0  0.49193  0.69886  0.59030  1.0000
  H   H1436     1.0  0.18983  0.63148  0.52852  1.0000
  H   H1437     1.0  0.47660  0.54688  0.66476  1.0000
  C   C807      1.0  0.18232  0.50027  0.66220  1.0000
  H   H1438     1.0  0.32389  0.62063  0.50386  1.0000
  H   H1439     1.0  0.28555  0.54093  0.49621  1.0000
  H   H1440     1.0  0.37372  0.69403  0.72334  1.0000
  H   H1441     1.0  0.00407  0.57533  0.57101  1.0000
  C   C808      1.0  0.15937  0.55996  0.50210  1.0000
  H   H1442     1.0  0.46685  0.67955  0.63301  1.0000
  C   C809      1.0  0.35818  0.84488  0.49765  1.0000
  C   C810      1.0  0.02521  0.62684  0.50243  1.0000
  C   C811      1.0  0.44739  0.90923  0.50006  1.0000
  H   H1443     1.0  0.25664  0.53208  0.49961  1.0000
  H   H1444     1.0  0.47331  0.66014  0.66090  1.0000
  H   H1445     1.0  0.18364  0.66391  0.52198  1.0000
  H   H1446     1.0  0.14307  0.73231  0.50964  1.0000
  H   H1447     1.0  0.16274  0.68520  0.51115  1.0000
  N   N45       1.0  0.00187  0.60626  0.50106  1.0000
  H   H1448     1.0  0.39612  0.97917  0.57419  1.0000
  H   H1449     1.0  0.43955  0.50806  0.71122  1.0000
  C   C812      1.0  0.19533  0.63836  0.51551  1.0000
  S   S180      1.0  0.47891  0.59450  0.73902  1.0000
  H   H1450     1.0  0.48855  0.97917  0.60426  1.0000
  C   C813      1.0  0.15356  0.50739  0.64873  1.0000
  H   H1451     1.0  0.48970  0.70399  0.67909  1.0000
  H   H1452     1.0  0.40148  0.78509  0.49811  1.0000
  H   H1453     1.0  0.48774  0.57271  0.64583  1.0000
  H   H1454     1.0  0.16103  0.72145  0.52151  1.0000
  H   H1455     1.0  0.49155  0.77647  0.52015  1.0000
  H   H1456     1.0  0.14787  0.51153  0.63611  1.0000
  H   H1457     1.0  0.99703  0.58970  0.53943  1.0000
  H   H1458     1.0  0.46007  0.99206  0.54569  1.0000
  N   N46       1.0  0.20238  0.49726  0.66003  1.0000
  C   C814      1.0  0.38517  0.99595  0.50847  1.0000
  S   S181      1.0  0.34563  0.75728  0.49495  1.0000
  H   H1459     1.0  0.39237  0.80828  0.49572  1.0000
  H   H1460     1.0  0.32920  0.50390  0.93551  1.0000
  H   H1461     1.0  0.45224  0.64889  0.98867  1.0000
  S   S182      1.0  0.40299  0.53873  0.87079  1.0000
  C   C815      1.0  0.39754  0.58258  0.94685  1.0000
  H   H1462     1.0  0.40202  0.60656  0.96985  1.0000
  S   S183      1.0  0.37274  0.54643  0.91640  1.0000
  H   H1463     1.0  0.39810  0.52223  0.93749  1.0000
  S   S184      1.0  0.38989  0.53476  0.82571  1.0000
  Fe  Fe93      1.0  0.42061  0.51357  0.87804  1.0000
  H   H1464     1.0  0.36952  0.50403  0.92925  1.0000
  Fe  Fe94      1.0  0.46238  0.60469  0.90273  1.0000
  S   S185      1.0  0.46048  0.63427  0.90149  1.0000
  S   S186      1.0  0.43941  0.58934  0.91117  1.0000
  H   H1465     1.0  0.44211  0.51901  0.78104  1.0000
  C   C816      1.0  0.44182  0.68261  0.74799  1.0000
  C   C817      1.0  0.47624  0.63887  0.82809  1.0000
  H   H1466     1.0  0.46490  0.51407  0.78416  1.0000
  C   C818      1.0  0.47709  0.53148  0.99028  1.0000
  H   H1467     1.0  0.35538  0.50561  0.95008  1.0000
  S   S187      1.0  0.47760  0.60358  0.87573  1.0000
  Fe  Fe95      1.0  0.38477  0.52911  0.89497  1.0000
  H   H1468     1.0  0.37510  0.57099  0.97403  1.0000
  H   H1469     1.0  0.36622  0.50814  0.82671  1.0000
  C   C819      1.0  0.35873  0.54227  0.96969  1.0000
  C   C820      1.0  0.37049  0.51302  0.81299  1.0000
  H   H1470     1.0  0.40784  0.61105  0.81812  1.0000
  C   C821      1.0  0.47832  0.55373  0.93831  1.0000
  H   H1471     1.0  0.44575  0.56168  0.81432  1.0000
  H   H1472     1.0  0.45976  0.53647  0.75451  1.0000
  H   H1473     1.0  0.42948  0.61945  0.79127  1.0000
  C   C822      1.0  0.38208  0.52578  0.80892  1.0000
  C   C823      1.0  0.47087  0.64221  0.96582  1.0000
  C   C824      1.0  0.42798  0.50262  0.81281  1.0000
  C   C825      1.0  0.41066  0.59350  0.97015  1.0000
  C   C826      1.0  0.35938  0.54718  0.95131  1.0000
  H   H1474     1.0  0.43859  0.64335  0.87201  1.0000
  H   H1475     1.0  0.46824  0.56482  0.93379  1.0000
  S   S188      1.0  0.47067  0.64836  0.84826  1.0000
  H   H1476     1.0  0.34865  0.55638  0.94617  1.0000
  H   H1477     1.0  0.47204  0.54588  0.95031  1.0000
  C   C827      1.0  0.46839  0.64697  0.81298  1.0000
  H   H1478     1.0  0.45905  0.65899  0.81376  1.0000
  C   C828      1.0  0.37332  0.53982  0.93951  1.0000
  S   S189      1.0  0.40975  0.49827  0.86078  1.0000
  N   N47       1.0  0.40091  0.57953  0.96593  1.0000
  H   H1479     1.0  0.39709  0.51375  0.97036  1.0000
  H   H1480     1.0  0.37311  0.60195  0.94716  1.0000
  C   C829      1.0  0.44700  0.53659  0.88914  1.0000
  C   C830      1.0  0.43111  0.54242  0.89947  1.0000
  C   C831      1.0  0.42899  0.55847  0.90639  1.0000
  C   C832      1.0  0.44287  0.56868  0.90336  1.0000
  C   C833      1.0  0.45910  0.56246  0.89381  1.0000
  C   C834      1.0  0.46114  0.54645  0.88664  1.0000
  H   H1481     1.0  0.42022  0.53478  0.90190  1.0000
  H   H1482     1.0  0.41632  0.56318  0.91361  1.0000
  H   H1483     1.0  0.47007  0.56998  0.89186  1.0000
  H   H1484     1.0  0.47349  0.54189  0.87882  1.0000
  H   H1485     1.0  0.44982  0.61216  0.95515  1.0000
  H   H1486     1.0  0.46524  0.58625  0.82420  1.0000
  H   H1487     1.0  0.47283  0.49908  0.75695  1.0000
  H   H1488     1.0  0.37818  0.61530  0.91611  1.0000
  S   S190      1.0  0.49128  0.61429  0.77574  1.0000
  H   H1489     1.0  0.47912  0.59858  0.98506  1.0000
  C   C835      1.0  0.38714  0.52788  0.94645  1.0000
  H   H1490     1.0  0.44170  0.52531  0.82768  1.0000
  H   H1491     1.0  0.49488  0.56255  0.76703  1.0000
  H   H1492     1.0  0.47270  0.55648  0.84327  1.0000
  H   H1493     1.0  0.44222  0.52917  0.95027  1.0000
  H   H1494     1.0  0.41805  0.57281  0.87286  1.0000
  H   H1495     1.0  0.44905  0.61779  0.85184  1.0000
  H   H1496     1.0  0.41150  0.62969  0.82759  1.0000
  H   H1497     1.0  0.43299  0.56135  0.94780  1.0000
  S   S191      1.0  0.48620  0.59855  0.91678  1.0000
  C   C836      1.0  0.43284  0.55777  0.81294  1.0000
  C   C837      1.0  0.43583  0.54148  0.80326  1.0000
  C   C838      1.0  0.42840  0.59625  0.95821  1.0000
  H   H1498     1.0  0.46441  0.50571  0.83988  1.0000
  H   H1499     1.0  0.46939  0.59699  0.84178  1.0000
  C   C839      1.0  0.42331  0.55261  0.95492  1.0000
  C   C840      1.0  0.47266  0.63969  0.79681  1.0000
  H   H1500     1.0  0.43958  0.60717  0.97775  1.0000
  H   H1501     1.0  0.35439  0.49763  0.80265  1.0000
  H   H1502     1.0  0.41348  0.59421  0.88047  1.0000
  H   H1503     1.0  0.44298  0.54523  0.78981  1.0000
  H   H1504     1.0  0.37524  0.59388  0.97500  1.0000
  C   C841      1.0  0.43698  0.61069  0.96379  1.0000
  H   H1505     1.0  0.47946  0.51177  0.90619  1.0000
  H   H1506     1.0  0.41384  0.59022  0.98400  1.0000
  C   C842      1.0  0.49254  0.61612  0.81076  1.0000
  H   H1507     1.0  0.34106  0.52199  0.92492  1.0000
  H   H1508     1.0  0.42477  0.63991  0.84622  1.0000
  H   H1509     1.0  0.46069  0.52851  0.81168  1.0000
  S   S192      1.0  0.44867  0.51773  0.87847  1.0000
  H   H1510     1.0  0.49472  0.61713  0.83819  1.0000
  C   C843      1.0  0.38305  0.58053  0.97746  1.0000
  C   C844      1.0  0.37241  0.53047  0.97677  1.0000
  H   H1511     1.0  0.42270  0.53826  0.80181  1.0000
  H   H1512     1.0  0.34742  0.54757  0.97850  1.0000
  H   H1513     1.0  0.39028  0.57198  0.94438  1.0000
  C   C845      1.0  0.48839  0.62342  0.82681  1.0000
  S   S193      1.0  0.40302  0.50460  0.90275  1.0000
  H   H1514     1.0  0.40861  0.62787  0.86087  1.0000
  H   H1515     1.0  0.44721  0.55832  0.75139  1.0000
  C   C846      1.0  0.34185  0.50730  0.92756  1.0000
  H   H1516     1.0  0.49066  0.56956  0.83626  1.0000
  H   H1517     1.0  0.49063  0.55092  0.91198  1.0000
  H   H1518     1.0  0.42295  0.63070  0.88674  1.0000
  H   H1519     1.0  0.38604  0.57670  0.86692  1.0000
  H   H1520     1.0  0.39952  0.60187  0.91277  1.0000
  C   C847      1.0  0.36380  0.50707  0.79929  1.0000
  C   C848      1.0  0.44682  0.52545  0.81328  1.0000
  H   H1521     1.0  0.46126  0.64622  0.95666  1.0000
  C   C849      1.0  0.38093  0.52579  0.77723  1.0000
  H   H1522     1.0  0.47843  0.57353  0.97051  1.0000
  H   H1523     1.0  0.39336  0.61189  0.94263  1.0000
  C   C850      1.0  0.38674  0.52332  0.96507  1.0000
  Fe  Fe96      1.0  0.48597  0.62803  0.91374  1.0000
  H   H1524     1.0  0.42504  0.55496  0.82627  1.0000
  H   H1525     1.0  0.38222  0.59705  0.87675  1.0000
  H   H1526     1.0  0.37946  0.59154  0.91760  1.0000
  H   H1527     1.0  0.41019  0.58143  0.93773  1.0000
  H   H1528     1.0  0.44213  0.53650  0.97138  1.0000
  C   C851      1.0  0.38601  0.60241  0.92049  1.0000
  H   H1529     1.0  0.42442  0.52531  0.96804  1.0000
  C   C852      1.0  0.48857  0.63657  0.95939  1.0000
  H   H1530     1.0  0.45540  0.67504  0.74642  1.0000
  H   H1531     1.0  0.42521  0.56902  0.80526  1.0000
  H   H1532     1.0  0.47088  0.55599  0.75095  1.0000
  H   H1533     1.0  0.43262  0.63852  0.80086  1.0000
  C   C853      1.0  0.47759  0.56894  0.84461  1.0000
  H   H1534     1.0  0.42622  0.60054  0.94425  1.0000
  H   H1535     1.0  0.46665  0.64613  0.78529  1.0000
  S   S194      1.0  0.37004  0.51644  0.87832  1.0000
  C   C854      1.0  0.36886  0.51347  0.78134  1.0000
  H   H1536     1.0  0.41526  0.54989  0.94519  1.0000
  H   H1537     1.0  0.47308  0.53740  0.92032  1.0000
  H   H1538     1.0  0.47957  0.56885  0.85855  1.0000
  H   H1539     1.0  0.43797  0.58390  0.95918  1.0000
  H   H1540     1.0  0.41904  0.56091  0.98109  1.0000
  H   H1541     1.0  0.41121  0.63681  0.79524  1.0000
  H   H1542     1.0  0.38867  0.57612  0.88980  1.0000
  C   C855      1.0  0.41096  0.56109  0.97031  1.0000
  H   H1543     1.0  0.40154  0.55135  0.97570  1.0000
  H   H1544     1.0  0.44622  0.57932  0.86260  1.0000
  H   H1545     1.0  0.41536  0.65185  0.87464  1.0000
  C   C856      1.0  0.38698  0.60068  0.94036  1.0000
  H   H1546     1.0  0.42826  0.62365  0.96240  1.0000
  C   C857      1.0  0.38728  0.53208  0.79094  1.0000
  Fe  Fe97      1.0  0.39072  0.52305  0.85488  1.0000
  H   H1547     1.0  0.43759  0.60655  0.87068  1.0000
  C   C858      1.0  0.43365  0.53483  0.96162  1.0000
  H   H1548     1.0  0.45009  0.50617  0.75275  1.0000
  H   H1549     1.0  0.38477  0.53102  0.76352  1.0000
  C   C859      1.0  0.46583  0.64384  0.98399  1.0000
  N   N48       1.0  0.43206  0.60032  0.84580  1.0000
  C   C860      1.0  0.41381  0.59488  0.85156  1.0000
  C   C861      1.0  0.43422  0.60790  0.82635  1.0000
  C   C862      1.0  0.44540  0.58372  0.84825  1.0000
  C   C863      1.0  0.43598  0.61326  0.85702  1.0000
  C   C864      1.0  0.42256  0.63041  0.85852  1.0000
  C   C865      1.0  0.41012  0.58615  0.87110  1.0000
  C   C866      1.0  0.46461  0.58518  0.83881  1.0000
  C   C867      1.0  0.41792  0.61957  0.81907  1.0000
  C   C868      1.0  0.42319  0.62914  0.80047  1.0000
  C   C869      1.0  0.42506  0.63957  0.87395  1.0000
  C   C870      1.0  0.39056  0.58391  0.87638  1.0000
  H   H1550     1.0  0.39598  0.54216  0.78757  1.0000
  H   H1551     1.0  0.41154  0.58529  0.84300  1.0000
  H   H1552     1.0  0.40319  0.60621  0.84952  1.0000
  H   H1553     1.0  0.44567  0.61563  0.82312  1.0000
  H   H1554     1.0  0.43755  0.59695  0.81798  1.0000
  H   H1555     1.0  0.44100  0.57245  0.84348  1.0000
  S   S195      1.0  0.35880  0.50662  0.76473  1.0000
  C   C871      1.0  0.48467  0.56330  0.98044  1.0000
  C   C872      1.0  0.48487  0.62422  0.79561  1.0000
  Fe  Fe98      1.0  0.47750  0.63262  0.87466  1.0000
  C   C873      1.0  0.48481  0.54218  0.92360  1.0000
  H   H1556     1.0  0.49445  0.68669  0.95807  1.0000
  H   H1557     1.0  0.44172  0.69317  0.75630  1.0000
  H   H1558     1.0  0.48959  0.55943  0.94147  1.0000
  H   H1559     1.0  0.45935  0.55410  0.98077  1.0000
  H   H1560     1.0  0.49426  0.71491  0.96450  1.0000
  H   H1561     1.0  0.46733  0.68580  0.97278  1.0000
  H   H1562     1.0  0.49043  0.71863  0.98700  1.0000
  H   H1563     1.0  0.41971  0.50842  0.80215  1.0000
  C   C874      1.0  0.46694  0.69394  0.98355  1.0000
  H   H1564     1.0  0.46619  0.70810  0.97770  1.0000
  N   N49       1.0  0.44657  0.50750  0.80773  1.0000
  C   C875      1.0  0.48743  0.50390  0.91635  1.0000
  C   C876      1.0  0.47018  0.55134  0.98915  1.0000
  H   H1565     1.0  0.48304  0.52780  0.97704  1.0000
  N   N50       1.0  0.49314  0.57231  0.99231  1.0000
  C   C877      1.0  0.45999  0.55008  0.74729  1.0000
  H   H1566     1.0  0.34362  0.50214  0.91462  1.0000
  C   C878      1.0  0.35751  0.49962  0.93760  1.0000
  H   H1567     1.0  0.47838  0.50419  0.92915  1.0000
  H   H1568     1.0  0.42104  0.50885  0.82453  1.0000
  H   H1569     1.0  0.49342  0.52030  0.94268  1.0000
  C   C879      1.0  0.45181  0.50908  0.78788  1.0000
  H   H1570     1.0  0.43230  0.67354  0.75495  1.0000
  Fe  Fe99      1.0  0.48451  0.61952  0.74724  1.0000
  H   H1571     1.0  0.49510  0.55493  0.97243  1.0000
  C   C880      1.0  0.49574  0.63279  0.98981  1.0000
  H   H1572     1.0  0.43823  0.69562  0.98878  1.0000
  H   H1573     1.0  0.47394  0.49746  0.81084  1.0000
  S   S196      1.0  0.49633  0.63803  0.93623  1.0000
  C   C881      1.0  0.48340  0.68773  0.99339  1.0000
  C   C882      1.0  0.58167  0.43140  0.18840  1.0000
  S   S197      1.0  0.62051  0.48158  0.11552  1.0000
  Fe  Fe100     1.0  0.60843  0.48535  0.05127  1.0000
  Fe  Fe101     1.0  0.51355  0.37963  0.07939  1.0000
  C   C883      1.0  0.62073  0.41678  0.18957  1.0000
  S   S198      1.0  0.51858  0.36362  0.10625  1.0000
  Fe  Fe102     1.0  0.52734  0.40684  0.04959  1.0000
  S   S199      1.0  0.55023  0.42158  0.03799  1.0000
  S   S200      1.0  0.52837  0.37728  0.05164  1.0000
  C   C884      1.0  0.57772  0.48892  0.18824  1.0000
  S   S201      1.0  0.59594  0.47282  0.07780  1.0000
  C   C885      1.0  0.60025  0.43465  0.15950  1.0000
  Fe  Fe103     1.0  0.51827  0.38740  0.20688  1.0000
  H   H1574     1.0  0.60237  0.46753  0.16833  1.0000
  H   H1575     1.0  0.52979  0.46085  0.23462  1.0000
  Fe  Fe104     1.0  0.53029  0.40126  0.23825  1.0000
  S   S202      1.0  0.51473  0.40854  0.07760  1.0000
  H   H1576     1.0  0.64361  0.40017  0.19936  1.0000
  S   S203      1.0  0.54003  0.37737  0.22403  1.0000
  S   S204      1.0  0.64540  0.48737  0.22076  1.0000
  H   H1577     1.0  0.55305  0.41230  0.14140  1.0000
  H   H1578     1.0  0.57258  0.43883  0.01039  1.0000
  C   C886      1.0  0.62551  0.42199  0.02256  1.0000
  C   C887      1.0  0.63809  0.41446  0.19740  1.0000
  H   H1579     1.0  0.60228  0.44111  0.02060  1.0000
  C   C888      1.0  0.58437  0.46915  0.19247  1.0000
  H   H1580     1.0  0.62295  0.44477  0.18034  1.0000
  H   H1581     1.0  0.60126  0.41995  0.16075  1.0000
  H   H1582     1.0  0.61012  0.40846  0.10025  1.0000
  C   C889      1.0  0.54832  0.44087  0.04797  1.0000
  C   C890      1.0  0.56320  0.44942  0.04675  1.0000
  C   C891      1.0  0.56219  0.46431  0.05533  1.0000
  C   C892      1.0  0.54646  0.47042  0.06571  1.0000
  C   C893      1.0  0.53139  0.46216  0.06660  1.0000
  C   C894      1.0  0.53227  0.44751  0.05756  1.0000
  H   H1583     1.0  0.57562  0.44441  0.03944  1.0000
  H   H1584     1.0  0.51911  0.39995  0.11322  1.0000
  H   H1585     1.0  0.58906  0.43990  0.15180  1.0000
  H   H1586     1.0  0.52051  0.44145  0.05797  1.0000
  C   C895      1.0  0.52041  0.38710  0.15761  1.0000
  H   H1587     1.0  0.61686  0.45464  0.14586  1.0000
  C   C896      1.0  0.60901  0.48076  0.99766  1.0000
  C   C897      1.0  0.51902  0.37304  0.12591  1.0000
  C   C898      1.0  0.51932  0.36198  0.14229  1.0000
  C   C899      1.0  0.51993  0.36895  0.15807  1.0000
  S   S205      1.0  0.49769  0.37285  0.22531  1.0000
  C   C900      1.0  0.51931  0.39122  0.12557  1.0000
  C   C901      1.0  0.60736  0.42790  0.01637  1.0000
  H   H1588     1.0  0.52022  0.36023  0.17052  1.0000
  H   H1589     1.0  0.51907  0.46700  0.07432  1.0000
  C   C902      1.0  0.57848  0.41748  0.23725  1.0000
  C   C903      1.0  0.56326  0.43626  0.18184  1.0000
  C   C904      1.0  0.56583  0.38430  0.07147  1.0000
  C   C905      1.0  0.63957  0.46712  0.99635  1.0000
  H   H1590     1.0  0.63987  0.48823  0.17159  1.0000
  H   H1591     1.0  0.60914  0.44050  0.20058  1.0000
  H   H1592     1.0  0.55409  0.41085  0.19287  1.0000
  H   H1593     1.0  0.55056  0.43192  0.09291  1.0000
  H   H1594     1.0  0.52955  0.45759  0.10543  1.0000
  S   S206      1.0  0.51005  0.41200  0.22008  1.0000
  H   H1595     1.0  0.62936  0.43392  0.15346  1.0000
  C   C906      1.0  0.54974  0.42527  0.19327  1.0000
  H   H1596     1.0  0.59650  0.48509  0.00535  1.0000
  C   C907      1.0  0.61247  0.43660  0.18705  1.0000
  C   C908      1.0  0.61980  0.49270  0.13422  1.0000
  C   C909      1.0  0.61893  0.43450  0.12919  1.0000
  H   H1597     1.0  0.61937  0.41990  0.13013  1.0000
  H   H1598     1.0  0.55392  0.48308  0.23114  1.0000
  H   H1599     1.0  0.58061  0.43230  0.08086  1.0000
  H   H1600     1.0  0.58002  0.43368  0.20249  1.0000
  H   H1601     1.0  0.57646  0.40878  0.06868  1.0000
  C   C910      1.0  0.56362  0.42927  0.24287  1.0000
  H   H1602     1.0  0.58222  0.40921  0.00711  1.0000
  Fe  Fe105     1.0  0.50180  0.38424  0.04144  1.0000
  H   H1603     1.0  0.58063  0.46459  0.16620  1.0000
  H   H1604     1.0  0.56255  0.38704  0.00268  1.0000
  H   H1605     1.0  0.56647  0.49100  0.18044  1.0000
  C   C911      1.0  0.49754  0.45231  0.24389  1.0000
  C   C912      1.0  0.61723  0.44011  0.14761  1.0000
  H   H1606     1.0  0.58285  0.38270  0.15192  1.0000
  H   H1607     1.0  0.62425  0.42206  0.03709  1.0000
  H   H1608     1.0  0.58525  0.41677  0.18884  1.0000
  H   H1609     1.0  0.56170  0.38847  0.16487  1.0000
  H   H1610     1.0  0.55800  0.45045  0.18250  1.0000
  C   C913      1.0  0.55449  0.42723  0.10633  1.0000
  H   H1611     1.0  0.59835  0.41842  0.02340  1.0000
  H   H1612     1.0  0.63500  0.43123  0.01594  1.0000
  H   H1613     1.0  0.57369  0.47094  0.05388  1.0000
  H   H1614     1.0  0.58976  0.39888  0.12196  1.0000
  H   H1615     1.0  0.63138  0.43833  0.12113  1.0000
  C   C914      1.0  0.59557  0.42256  0.23507  1.0000
  H   H1616     1.0  0.61154  0.40877  0.19885  1.0000
  H   H1617     1.0  0.53516  0.46624  0.12381  1.0000
  C   C915      1.0  0.55397  0.44425  0.11495  1.0000
  H   H1618     1.0  0.54372  0.41970  0.11355  1.0000
  H   H1619     1.0  0.55832  0.39102  0.13357  1.0000
  H   H1620     1.0  0.56207  0.45363  0.10602  1.0000
  Fe  Fe106     1.0  0.62173  0.47477  0.23549  1.0000
  C   C916      1.0  0.51955  0.47277  0.23546  1.0000
  H   H1621     1.0  0.61134  0.43393  0.06512  1.0000
  C   C917      1.0  0.57804  0.40937  0.12296  1.0000
  C   C918      1.0  0.59099  0.46069  0.17516  1.0000
  S   S207      1.0  0.52170  0.39688  0.17675  1.0000
  H   H1622     1.0  0.52024  0.41223  0.14075  1.0000
  H   H1623     1.0  0.55905  0.44126  0.12789  1.0000
  H   H1624     1.0  0.57742  0.40405  0.15999  1.0000
  H   H1625     1.0  0.62971  0.41867  0.07277  1.0000
  H   H1626     1.0  0.56398  0.43369  0.16799  1.0000
  H   H1627     1.0  0.58520  0.45563  0.99959  1.0000
  C   C919      1.0  0.58571  0.42557  0.09332  1.0000
  H   H1628     1.0  0.54790  0.42794  0.20723  1.0000
  H   H1629     1.0  0.56356  0.38665  0.05738  1.0000
  S   S208      1.0  0.62250  0.46864  0.02997  1.0000
  C   C920      1.0  0.56402  0.40173  0.13778  1.0000
  H   H1630     1.0  0.57328  0.46293  0.20077  1.0000
  H   H1631     1.0  0.61970  0.43664  0.08502  1.0000
  C   C921      1.0  0.57210  0.39380  0.15462  1.0000
  H   H1632     1.0  0.60310  0.40422  0.08035  1.0000
  C   C922      1.0  0.56999  0.39901  0.09733  1.0000
  H   H1633     1.0  0.59531  0.46788  0.20055  1.0000
  H   H1634     1.0  0.52648  0.44533  0.12757  1.0000
  H   H1635     1.0  0.60767  0.44140  0.12226  1.0000
  H   H1636     1.0  0.64801  0.42180  0.18833  1.0000
  N   N51       1.0  0.59636  0.44082  0.17754  1.0000
  H   H1637     1.0  0.63581  0.41940  0.21046  1.0000
  C   C923      1.0  0.56624  0.40201  0.07785  1.0000
  C   C924      1.0  0.62364  0.47318  0.00646  1.0000
  H   H1638     1.0  0.65087  0.46104  0.00293  1.0000
  C   C925      1.0  0.63101  0.48544  0.14703  1.0000
  C   C926      1.0  0.61694  0.42677  0.07712  1.0000
  C   C927      1.0  0.53508  0.45387  0.11814  1.0000
  H   H1639     1.0  0.55317  0.41016  0.07672  1.0000
  H   H1640     1.0  0.58817  0.43657  0.09998  1.0000
  H   H1641     1.0  0.51611  0.45377  0.21100  1.0000
  H   H1642     1.0  0.55492  0.37749  0.07950  1.0000
  N   N52       1.0  0.57206  0.41532  0.10497  1.0000
  H   H1643     1.0  0.57865  0.37552  0.07239  1.0000
  H   H1644     1.0  0.51912  0.34789  0.14279  1.0000
  H   H1645     1.0  0.62372  0.41117  0.17689  1.0000
  H   H1646     1.0  0.58194  0.38884  0.09836  1.0000
  H   H1647     1.0  0.58279  0.42037  0.12781  1.0000
  H   H1648     1.0  0.55878  0.39250  0.10518  1.0000
  Fe  Fe107     1.0  0.60734  0.49183  0.09067  1.0000
  H   H1649     1.0  0.53676  0.42882  0.18822  1.0000
  C   C928      1.0  0.52007  0.39815  0.14126  1.0000
  C   C929      1.0  0.60412  0.41476  0.08825  1.0000
  H   H1650     1.0  0.50395  0.44144  0.18823  1.0000
  S   S209      1.0  0.54601  0.48787  0.07804  1.0000
  H   H1651     1.0  0.64000  0.47334  0.14525  1.0000
  H   H1652     1.0  0.63085  0.40835  0.01961  1.0000
  C   C930      1.0  0.54701  0.46161  0.99964  1.0000
  S   S210      1.0  0.61934  0.44592  0.23453  1.0000
  H   H1653     1.0  0.53282  0.48482  0.20995  1.0000
  N   N53       1.0  0.50205  0.46878  0.23162  1.0000
  H   H1654     1.0  0.54043  0.45042  0.00738  1.0000
  C   C931      1.0  0.59785  0.43956  0.23806  1.0000
  H   H1655     1.0  0.57313  0.49465  0.20078  1.0000
  C   C932      1.0  0.52738  0.48857  0.22329  1.0000
  C   C933      1.0  0.50491  0.46480  0.21271  1.0000
  S   S211      1.0  0.50193  0.41356  0.03814  1.0000
  H   H1656     1.0  0.57683  0.40440  0.23488  1.0000
  H   H1657     1.0  0.60707  0.41328  0.23113  1.0000
  C   C934      1.0  0.60879  0.42925  0.99587  1.0000
  H   H1658     1.0  0.50712  0.44060  0.24033  1.0000
  C   C935      1.0  0.58296  0.45128  0.24363  1.0000
  H   H1659     1.0  0.50098  0.44551  0.10668  1.0000
  Fe  Fe108     1.0  0.51892  0.36401  0.24351  1.0000
  C   C936      1.0  0.63097  0.49385  0.16200  1.0000
  H   H1660     1.0  0.50890  0.47644  0.20332  1.0000
  H   H1661     1.0  0.55124  0.46905  0.00908  1.0000
  C   C937      1.0  0.57835  0.44478  0.99707  1.0000
  H   H1662     1.0  0.52219  0.38638  0.99641  1.0000
  H   H1663     1.0  0.49996  0.46423  0.17775  1.0000
  C   C938      1.0  0.54262  0.49400  0.23079  1.0000
  S   S212      1.0  0.60174  0.49531  0.22327  1.0000
  Fe  Fe109     1.0  0.57362  0.49496  0.07398  1.0000
  H   H1664     1.0  0.87067  0.43177  0.38626  1.0000
  Fe  Fe110     1.0  0.90778  0.39060  0.46098  1.0000
  C   C939      1.0  0.83882  0.37698  0.47752  1.0000
  S   S213      1.0  0.91154  0.39901  0.43161  1.0000
  H   H1665     1.0  0.52317  0.35455  0.32777  1.0000
  C   C940      1.0  0.86351  0.39591  0.43162  1.0000
  C   C941      1.0  0.71611  0.45543  0.48477  1.0000
  C   C942      1.0  0.52218  0.28093  0.49001  1.0000
  H   H1666     1.0  0.69036  0.48838  0.44154  1.0000
  H   H1667     1.0  0.56702  0.30334  0.39183  1.0000
  H   H1668     1.0  0.56876  0.02339  0.36056  1.0000
  S   S214      1.0  0.88259  0.40153  0.47684  1.0000
  H   H1669     1.0  0.81376  0.42931  0.34555  1.0000
  H   H1670     1.0  0.53309  0.03470  0.49171  1.0000
  H   H1671     1.0  0.86978  0.47222  0.38327  1.0000
  Fe  Fe111     1.0  0.60469  0.07334  0.45919  1.0000
  H   H1672     1.0  0.63308  0.00006  0.41224  1.0000
  S   S215      1.0  0.61497  0.05453  0.43870  1.0000
  Fe  Fe112     1.0  0.60972  0.10951  0.47031  1.0000
  H   H1673     1.0  0.52341  0.32253  0.37421  1.0000
  S   S216      1.0  0.62517  0.13325  0.46269  1.0000
  C   C943      1.0  0.51086  0.18510  0.31686  1.0000
  Fe  Fe113     1.0  0.57302  0.10008  0.47048  1.0000
  S   S217      1.0  0.54740  0.11437  0.46217  1.0000
  S   S218      1.0  0.62079  0.08081  0.47810  1.0000
  S   S219      1.0  0.59630  0.10203  0.44925  1.0000
  H   H1674     1.0  0.82123  0.47089  0.37632  1.0000
  H   H1675     1.0  0.54609  0.01278  0.42641  1.0000
  H   H1676     1.0  0.82616  0.40898  0.42951  1.0000
  H   H1677     1.0  0.65352  0.31341  0.47250  1.0000
  H   H1678     1.0  0.57265  0.32377  0.37844  1.0000
  C   C944      1.0  0.87522  0.45881  0.37966  1.0000
  H   H1679     1.0  0.71599  0.30764  0.48387  1.0000
  S   S220      1.0  0.50598  0.06012  0.43847  1.0000
  S   S221      1.0  0.52624  0.06773  0.39022  1.0000
  Fe  Fe114     1.0  0.64041  0.26620  0.47584  1.0000
  S   S222      1.0  0.61720  0.28465  0.46617  1.0000
  S   S223      1.0  0.66726  0.27502  0.47842  1.0000
  Fe  Fe115     1.0  0.61858  0.23379  0.48403  1.0000
  S   S224      1.0  0.59410  0.25086  0.47553  1.0000
  H   H1680     1.0  0.59487  0.31050  0.39831  1.0000
  Fe  Fe116     1.0  0.61250  0.26227  0.45259  1.0000
  S   S225      1.0  0.60581  0.26466  0.42454  1.0000
  C   C945      1.0  0.60426  0.02103  0.45173  1.0000
  S   S226      1.0  0.63706  0.24439  0.46032  1.0000
  C   C946      1.0  0.50310  0.01808  0.49349  1.0000
  C   C947      1.0  0.86357  0.41253  0.41727  1.0000
  H   H1681     1.0  0.49811  0.04044  0.33328  1.0000
  Fe  Fe117     1.0  0.51673  0.22540  0.36516  1.0000
  H   H1682     1.0  0.87296  0.39628  0.44097  1.0000
  S   S227      1.0  0.53111  0.19951  0.35562  1.0000
  Fe  Fe118     1.0  0.51727  0.25072  0.39163  1.0000
  H   H1683     1.0  0.97558  0.46911  0.46656  1.0000
  S   S228      1.0  0.52709  0.25613  0.41622  1.0000
  H   H1684     1.0  0.51158  0.45051  0.26682  1.0000
  C   C948      1.0  0.52128  0.30353  0.39765  1.0000
  H   H1685     1.0  0.53268  0.29486  0.36279  1.0000
  H   H1686     1.0  0.50849  0.21704  0.32877  1.0000
  S   S229      1.0  0.53211  0.24835  0.36441  1.0000
  Fe  Fe119     1.0  0.75505  0.48215  0.36603  1.0000
  H   H1687     1.0  0.54133  0.31986  0.38688  1.0000
  S   S230      1.0  0.76470  0.45505  0.38007  1.0000
  Fe  Fe120     1.0  0.76248  0.37315  0.47533  1.0000
  H   H1688     1.0  0.91736  0.49000  0.48952  1.0000
  S   S231      1.0  0.79182  0.36984  0.46378  1.0000
  H   H1689     1.0  0.52324  0.13930  0.31668  1.0000
  H   H1690     1.0  0.57957  0.03988  0.36724  1.0000
  H   H1691     1.0  0.55567  0.24405  0.46630  1.0000
  Fe  Fe121     1.0  0.73036  0.40001  0.46733  1.0000
  S   S232      1.0  0.71789  0.42323  0.44951  1.0000
  H   H1692     1.0  0.54673  0.14914  0.42049  1.0000
  S   S233      1.0  0.74114  0.37378  0.45812  1.0000
  H   H1693     1.0  0.53413  0.13807  0.40893  1.0000
  H   H1694     1.0  0.94415  0.38065  0.44309  1.0000
  C   C949      1.0  0.75153  0.44646  0.39938  1.0000
  C   C950      1.0  0.73312  0.45122  0.40197  1.0000
  C   C951      1.0  0.72291  0.44375  0.41730  1.0000
  C   C952      1.0  0.73108  0.43183  0.43027  1.0000
  C   C953      1.0  0.74950  0.42720  0.42778  1.0000
  C   C954      1.0  0.75965  0.43429  0.41222  1.0000
  H   H1695     1.0  0.72674  0.46034  0.39198  1.0000
  H   H1696     1.0  0.70864  0.44713  0.41910  1.0000
  H   H1697     1.0  0.75589  0.41791  0.43767  1.0000
  H   H1698     1.0  0.77383  0.43031  0.41009  1.0000
  C   C955      1.0  0.51999  0.32360  0.27894  1.0000
  C   C956      1.0  0.81339  0.42990  0.33115  1.0000
  H   H1699     1.0  0.50692  0.00157  0.46098  1.0000
  H   H1700     1.0  0.82185  0.49023  0.31914  1.0000
  C   C957      1.0  0.52116  0.29544  0.29938  1.0000
  C   C958      1.0  0.52434  0.30496  0.28213  1.0000
  C   C959      1.0  0.63824  0.02705  0.47757  1.0000
  H   H1701     1.0  0.59413  0.10612  0.40822  1.0000
  H   H1702     1.0  0.52462  0.28117  0.30147  1.0000
  H   H1703     1.0  0.53020  0.29783  0.27113  1.0000
  C   C960      1.0  0.69255  0.32601  0.47924  1.0000
  H   H1704     1.0  0.50762  0.16077  0.33554  1.0000
  H   H1705     1.0  0.62277  0.21900  0.44364  1.0000
  C   C961      1.0  0.67675  0.29506  0.47778  1.0000
  C   C962      1.0  0.66705  0.31205  0.47516  1.0000
  C   C963      1.0  0.67481  0.32732  0.47606  1.0000
  C   C964      1.0  0.95551  0.45653  0.41517  1.0000
  H   H1706     1.0  0.87430  0.42698  0.44199  1.0000
  H   H1707     1.0  0.55382  0.08838  0.41746  1.0000
  H   H1708     1.0  0.66499  0.01762  0.46543  1.0000
  C   C965      1.0  0.58382  0.26296  0.42187  1.0000
  C   C966      1.0  0.56977  0.26623  0.43536  1.0000
  C   C967      1.0  0.55239  0.26465  0.43309  1.0000
  C   C968      1.0  0.54892  0.25955  0.41745  1.0000
  C   C969      1.0  0.56288  0.25668  0.40373  1.0000
  C   C970      1.0  0.58029  0.25845  0.40593  1.0000
  H   H1709     1.0  0.57226  0.27014  0.44749  1.0000
  H   H1710     1.0  0.54160  0.26718  0.44362  1.0000
  H   H1711     1.0  0.56033  0.25279  0.39160  1.0000
  H   H1712     1.0  0.59111  0.25600  0.39540  1.0000
  H   H1713     1.0  0.58064  0.09458  0.33426  1.0000
  H   H1714     1.0  0.87453  0.45899  0.36535  1.0000
  H   H1715     1.0  0.88938  0.45582  0.38166  1.0000
  C   C971      1.0  0.51575  0.14982  0.37338  1.0000
  C   C972      1.0  0.51613  0.16846  0.37167  1.0000
  C   C973      1.0  0.52996  0.17622  0.36041  1.0000
  C   C974      1.0  0.98261  0.47270  0.40858  1.0000
  H   H1716     1.0  0.85093  0.44784  0.38736  1.0000
  C   C975      1.0  0.98118  0.37980  0.43351  1.0000
  H   H1717     1.0  0.55614  0.03958  0.37400  1.0000
  C   C976      1.0  0.53511  0.09944  0.45649  1.0000
  C   C977      1.0  0.53534  0.08222  0.46558  1.0000
  C   C978      1.0  0.52597  0.07024  0.46029  1.0000
  C   C979      1.0  0.51668  0.07540  0.44576  1.0000
  C   C980      1.0  0.51643  0.09264  0.43675  1.0000
  C   C981      1.0  0.52542  0.10471  0.44226  1.0000
  H   H1718     1.0  0.54240  0.07824  0.47690  1.0000
  H   H1719     1.0  0.52618  0.05690  0.46716  1.0000
  H   H1720     1.0  0.92058  0.49535  0.45650  1.0000
  H   H1721     1.0  0.52518  0.11802  0.43526  1.0000
  H   H1722     1.0  0.50900  0.34683  0.29129  1.0000
  C   C982      1.0  0.62801  0.18370  0.47112  1.0000
  C   C983      1.0  0.63041  0.16760  0.46389  1.0000
  C   C984      1.0  0.62151  0.15330  0.47238  1.0000
  H   H1723     1.0  0.67813  0.49138  0.41323  1.0000
  H   H1724     1.0  0.62739  0.09803  0.40367  1.0000
  H   H1725     1.0  0.63525  0.19439  0.46461  1.0000
  H   H1726     1.0  0.63937  0.16615  0.45172  1.0000
  S   S234      1.0  0.52275  0.02768  0.36559  1.0000
  C   C985      1.0  0.84055  0.36482  0.49289  1.0000
  C   C986      1.0  0.91172  0.42202  0.42848  1.0000
  C   C987      1.0  0.91490  0.43123  0.41140  1.0000
  C   C988      1.0  0.91377  0.44980  0.40900  1.0000
  C   C989      1.0  0.90936  0.45915  0.42362  1.0000
  C   C990      1.0  0.90662  0.44989  0.44067  1.0000
  C   C991      1.0  0.90787  0.43140  0.44308  1.0000
  H   H1727     1.0  0.91797  0.42407  0.40005  1.0000
  H   H1728     1.0  0.91618  0.45679  0.39585  1.0000
  H   H1729     1.0  0.90330  0.45700  0.45207  1.0000
  H   H1730     1.0  0.90527  0.42460  0.45630  1.0000
  H   H1731     1.0  0.67932  0.48794  0.31827  1.0000
  H   H1732     1.0  0.84561  0.44345  0.31943  1.0000
  H   H1733     1.0  0.54393  0.29136  0.47195  1.0000
  C   C992      1.0  0.80987  0.36847  0.47587  1.0000
  H   H1734     1.0  0.49844  0.24977  0.29713  1.0000
  H   H1735     1.0  0.55694  0.99666  0.47251  1.0000
  H   H1736     1.0  0.79040  0.46505  0.47790  1.0000
  C   C993      1.0  0.82421  0.46152  0.34273  1.0000
  C   C994      1.0  0.55586  0.00472  0.45935  1.0000
  H   H1737     1.0  0.50343  0.33021  0.32161  1.0000
  C   C995      1.0  0.61411  0.03166  0.43845  1.0000
  H   H1738     1.0  0.59592  0.02709  0.46241  1.0000
  H   H1739     1.0  0.83212  0.44880  0.34758  1.0000
  H   H1740     1.0  0.83370  0.43376  0.40837  1.0000
  H   H1741     1.0  0.87893  0.44329  0.41299  1.0000
  N   N54       1.0  0.85581  0.43035  0.42321  1.0000
  C   C996      1.0  0.71371  0.48525  0.46485  1.0000
  C   C997      1.0  0.86466  0.44470  0.39066  1.0000
  C   C998      1.0  0.76290  0.48170  0.42360  1.0000
  H   H1742     1.0  0.52858  0.35505  0.34956  1.0000
  H   H1743     1.0  0.55052  0.20493  0.47614  1.0000
  H   H1744     1.0  0.61718  0.48866  0.30193  1.0000
  C   C999      1.0  0.69190  0.49020  0.40612  1.0000
  N   N55       1.0  0.55800  0.30516  0.35600  1.0000
  C   C1000     1.0  0.55491  0.32478  0.34937  1.0000
  C   C1001     1.0  0.57528  0.30086  0.36367  1.0000
  C   C1002     1.0  0.56002  0.29549  0.34001  1.0000
  C   C1003     1.0  0.68326  0.49601  0.30589  1.0000
  H   H1745     1.0  0.84926  0.38495  0.47215  1.0000
  C   C1004     1.0  0.56599  0.44604  0.24628  1.0000
  C   C1005     1.0  0.56655  0.27529  0.34299  1.0000
  H   H1746     1.0  0.79775  0.45528  0.35575  1.0000
  C   C1006     1.0  0.86485  0.44452  0.41084  1.0000
  C   C1007     1.0  0.80710  0.46467  0.35616  1.0000
  H   H1747     1.0  0.57328  0.02711  0.39865  1.0000
  C   C1008     1.0  0.56275  0.26606  0.32811  1.0000
  H   H1748     1.0  0.56706  0.32896  0.34085  1.0000
  H   H1749     1.0  0.53708  0.15617  0.31614  1.0000
  H   H1750     1.0  0.57841  0.28632  0.36773  1.0000
  H   H1751     1.0  0.58642  0.30469  0.35336  1.0000
  H   H1752     1.0  0.56943  0.30141  0.32895  1.0000
  H   H1753     1.0  0.54713  0.29716  0.33474  1.0000
  C   C1009     1.0  0.51362  0.30442  0.31382  1.0000
  C   C1010     1.0  0.83933  0.45645  0.31316  1.0000
  C   C1011     1.0  0.53381  0.35080  0.33638  1.0000
  H   H1754     1.0  0.99340  0.39776  0.47013  1.0000
  Fe  Fe122     1.0  0.92517  0.37301  0.49318  1.0000
  H   H1755     1.0  0.96429  0.49566  0.48110  1.0000
  H   H1756     1.0  0.56013  0.26901  0.35581  1.0000
  H   H1757     1.0  0.58114  0.27295  0.34314  1.0000
  C   C1012     1.0  0.71344  0.46493  0.46622  1.0000
  C   C1013     1.0  0.53252  0.31256  0.38168  1.0000
  H   H1758     1.0  0.55323  0.05721  0.43694  1.0000
  H   H1759     1.0  0.55956  0.19500  0.38890  1.0000
  C   C1014     1.0  0.55741  0.21553  0.46764  1.0000
  H   H1760     1.0  0.83771  0.45413  0.29965  1.0000
  S   S235      1.0  0.76054  0.48982  0.33646  1.0000
  H   H1761     1.0  0.80862  0.44838  0.30793  1.0000
  S   S236      1.0  0.96753  0.49390  0.35240  1.0000
  H   H1762     1.0  0.56772  0.25166  0.33051  1.0000
  H   H1763     1.0  0.54824  0.26763  0.32763  1.0000
  H   H1764     1.0  0.56946  0.27175  0.31508  1.0000
  H   H1765     1.0  0.50565  0.17681  0.37878  1.0000
  H   H1766     1.0  0.53709  0.19484  0.40024  1.0000
  H   H1767     1.0  0.52155  0.18710  0.32423  1.0000
  Fe  Fe123     1.0  0.60093  0.27135  0.48994  1.0000
  H   H1768     1.0  0.79510  0.45443  0.32740  1.0000
  H   H1769     1.0  0.54772  0.28667  0.37802  1.0000
  S   S237      1.0  0.50020  0.07918  0.36018  1.0000
  H   H1770     1.0  0.97250  0.40236  0.46123  1.0000
  H   H1771     1.0  0.95093  0.46196  0.42790  1.0000
  H   H1772     1.0  0.59038  0.22382  0.44771  1.0000
  S   S238      1.0  0.70186  0.34593  0.47965  1.0000
  H   H1773     1.0  0.80285  0.40482  0.33560  1.0000
  H   H1774     1.0  0.51633  0.18754  0.30256  1.0000
  H   H1775     1.0  0.69684  0.47605  0.40494  1.0000
  H   H1776     1.0  0.60452  0.31097  0.37534  1.0000
  C   C1015     1.0  0.70436  0.48847  0.43503  1.0000
  H   H1777     1.0  0.59887  0.29041  0.38834  1.0000
  C   C1016     1.0  0.55905  0.00577  0.39430  1.0000
  H   H1778     1.0  0.54248  0.01269  0.45965  1.0000
  C   C1017     1.0  0.57612  0.30914  0.38050  1.0000
  H   H1779     1.0  0.77196  0.45579  0.47299  1.0000
  H   H1780     1.0  0.96832  0.37538  0.46162  1.0000
  H   H1781     1.0  0.79917  0.46568  0.38434  1.0000
  H   H1782     1.0  0.54748  0.23291  0.48754  1.0000
  C   C1018     1.0  0.61568  0.21361  0.43472  1.0000
  H   H1783     1.0  0.77095  0.46863  0.42175  1.0000
  H   H1784     1.0  0.54999  0.26958  0.48360  1.0000
  H   H1785     1.0  0.80040  0.48405  0.32417  1.0000
  H   H1786     1.0  0.52760  0.32414  0.34410  1.0000
  C   C1019     1.0  0.52457  0.15353  0.31228  1.0000
  H   H1787     1.0  0.95959  0.46392  0.48575  1.0000
  S   S239      1.0  0.50969  0.29331  0.33612  1.0000
  H   H1788     1.0  0.62598  0.03411  0.47264  1.0000
  H   H1789     1.0  0.97767  0.42646  0.47679  1.0000
  C   C1020     1.0  0.54312  0.14682  0.35322  1.0000
  C   C1021     1.0  0.98413  0.42524  0.46300  1.0000
  C   C1022     1.0  0.69453  0.29377  0.48074  1.0000
  H   H1790     1.0  0.78055  0.42341  0.48814  1.0000
  H   H1791     1.0  0.97746  0.35549  0.45222  1.0000
  C   C1023     1.0  0.59476  0.30499  0.38586  1.0000
  H   H1792     1.0  0.74812  0.47103  0.44774  1.0000
  H   H1793     1.0  0.51824  0.47581  0.24929  1.0000
  H   H1794     1.0  0.66218  0.49011  0.29300  1.0000
  C   C1024     1.0  0.97573  0.45451  0.41086  1.0000
  H   H1795     1.0  0.72951  0.45646  0.48769  1.0000
  C   C1025     1.0  0.81376  0.48042  0.31674  1.0000
  H   H1796     1.0  0.58455  0.46426  0.24632  1.0000
  C   C1026     1.0  0.62498  0.00577  0.42333  1.0000
  H   H1797     1.0  0.71500  0.44112  0.48546  1.0000
  H   H1798     1.0  0.65349  0.03629  0.45258  1.0000
  Fe  Fe124     1.0  0.91076  0.49549  0.39293  1.0000
  N   N56       1.0  0.56861  0.19899  0.43984  1.0000
  C   C1027     1.0  0.57006  0.18287  0.45378  1.0000
  C   C1028     1.0  0.55689  0.21438  0.44772  1.0000
  C   C1029     1.0  0.56005  0.19428  0.42518  1.0000
  C   C1030     1.0  0.58662  0.20391  0.43178  1.0000
  C   C1031     1.0  0.59713  0.21076  0.44410  1.0000
  C   C1032     1.0  0.58088  0.16557  0.44775  1.0000
  C   C1033     1.0  0.55317  0.20994  0.41154  1.0000
  S   S240      1.0  0.62042  0.48805  0.25979  1.0000
  C   C1034     1.0  0.60528  0.00256  0.45102  1.0000
  H   H1799     1.0  0.62833  0.10083  0.37974  1.0000
  C   C1035     1.0  0.57746  0.14973  0.46185  1.0000
  Fe  Fe125     1.0  0.50191  0.06959  0.41032  1.0000
  H   H1800     1.0  0.55646  0.17996  0.45964  1.0000
  H   H1801     1.0  0.57636  0.18532  0.46498  1.0000
  H   H1802     1.0  0.55986  0.22717  0.43970  1.0000
  H   H1803     1.0  0.54266  0.21383  0.44703  1.0000
  H   H1804     1.0  0.54856  0.18704  0.43085  1.0000
  H   H1805     1.0  0.56961  0.18514  0.41725  1.0000
  H   H1806     1.0  0.59509  0.19252  0.42603  1.0000
  H   H1807     1.0  0.58546  0.21468  0.42044  1.0000
  H   H1808     1.0  0.59857  0.20124  0.45629  1.0000
  S   S241      1.0  0.91923  0.48298  0.36808  1.0000
  H   H1809     1.0  0.57737  0.16241  0.43536  1.0000
  H   H1810     1.0  0.59531  0.16660  0.44575  1.0000
  H   H1811     1.0  0.56325  0.21883  0.40620  1.0000
  H   H1812     1.0  0.54120  0.21800  0.41769  1.0000
  H   H1813     1.0  0.81683  0.44812  0.37920  1.0000
  H   H1814     1.0  0.57109  0.21384  0.47094  1.0000
  H   H1815     1.0  0.52476  0.21519  0.29989  1.0000
  C   C1036     1.0  0.53937  0.33072  0.33820  1.0000
  H   H1816     1.0  0.52027  0.24576  0.28478  1.0000
  C   C1037     1.0  0.52927  0.13894  0.36395  1.0000
  H   H1817     1.0  0.62911  0.33616  0.48678  1.0000
  S   S242      1.0  0.52445  0.33487  0.25675  1.0000
  H   H1818     1.0  0.57995  0.15209  0.47499  1.0000
  H   H1819     1.0  0.56355  0.14712  0.46291  1.0000
  H   H1820     1.0  0.58643  0.13780  0.45805  1.0000
  H   H1821     1.0  0.51226  0.29574  0.39330  1.0000
  H   H1822     1.0  0.99175  0.39379  0.40042  1.0000
  H   H1823     1.0  0.76066  0.48885  0.41030  1.0000
  N   N57       1.0  0.70400  0.37417  0.42279  1.0000
  C   C1038     1.0  0.71235  0.35506  0.42663  1.0000
  C   C1039     1.0  0.71811  0.38642  0.41729  1.0000
  C   C1040     1.0  0.69319  0.37925  0.43988  1.0000
  C   C1041     1.0  0.69172  0.37658  0.40897  1.0000
  C   C1042     1.0  0.70004  0.37071  0.39080  1.0000
  C   C1043     1.0  0.69948  0.34090  0.43105  1.0000
  C   C1044     1.0  0.68353  0.39862  0.43901  1.0000
  C   C1045     1.0  0.73605  0.37887  0.40699  1.0000
  C   C1046     1.0  0.74812  0.39318  0.40062  1.0000
  C   C1047     1.0  0.68576  0.37104  0.37905  1.0000
  H   H1824     1.0  0.85605  0.47165  0.32420  1.0000
  C   C1048     1.0  0.67559  0.40306  0.45752  1.0000
  H   H1825     1.0  0.72020  0.35360  0.43787  1.0000
  H   H1826     1.0  0.72198  0.35087  0.41527  1.0000
  H   H1827     1.0  0.71282  0.39890  0.40924  1.0000
  H   H1828     1.0  0.72175  0.39095  0.42910  1.0000
  H   H1829     1.0  0.70182  0.37703  0.45057  1.0000
  H   H1830     1.0  0.68265  0.37069  0.44473  1.0000
  H   H1831     1.0  0.67992  0.36969  0.41419  1.0000
  H   H1832     1.0  0.68623  0.39082  0.40599  1.0000
  H   H1833     1.0  0.70735  0.35708  0.39220  1.0000
  H   H1834     1.0  0.70919  0.38007  0.38372  1.0000
  H   H1835     1.0  0.68992  0.34304  0.44308  1.0000
  H   H1836     1.0  0.69193  0.34107  0.41992  1.0000
  H   H1837     1.0  0.67242  0.40039  0.43107  1.0000
  H   H1838     1.0  0.69260  0.40841  0.43296  1.0000
  H   H1839     1.0  0.74329  0.36833  0.41583  1.0000
  H   H1840     1.0  0.73415  0.37311  0.39529  1.0000
  H   H1841     1.0  0.75224  0.39753  0.41218  1.0000
  H   H1842     1.0  0.76026  0.38769  0.39229  1.0000
  H   H1843     1.0  0.74131  0.40481  0.39263  1.0000
  H   H1844     1.0  0.67817  0.38455  0.37691  1.0000
  H   H1845     1.0  0.69210  0.36727  0.36593  1.0000
  C   C1049     1.0  0.54805  0.23325  0.47301  1.0000
  H   H1846     1.0  0.53434  0.23607  0.46953  1.0000
  H   H1847     1.0  0.70014  0.31243  0.43855  1.0000
  H   H1848     1.0  0.75063  0.47772  0.48772  1.0000
  H   H1849     1.0  0.84849  0.48263  0.30385  1.0000
  H   H1850     1.0  0.66841  0.41681  0.45651  1.0000
  H   H1851     1.0  0.73844  0.47104  0.42788  1.0000
  H   H1852     1.0  0.97817  0.48058  0.39620  1.0000
  C   C1050     1.0  0.97041  0.36916  0.44933  1.0000
  H   H1853     1.0  0.87787  0.41254  0.41167  1.0000
  H   H1854     1.0  0.72380  0.45861  0.45665  1.0000
  H   H1855     1.0  0.98332  0.37126  0.42273  1.0000
  H   H1856     1.0  0.95097  0.44336  0.41640  1.0000
  H   H1857     1.0  0.89429  0.48736  0.49028  1.0000
  H   H1858     1.0  0.89765  0.49288  0.45723  1.0000
  C   C1051     1.0  0.65191  0.02356  0.46135  1.0000
  H   H1859     1.0  0.63186  0.00004  0.48146  1.0000
  H   H1860     1.0  0.50666  0.13272  0.46541  1.0000
  H   H1861     1.0  0.79869  0.41831  0.31496  1.0000
  H   H1862     1.0  0.70039  0.46241  0.46350  1.0000
  H   H1863     1.0  0.85684  0.41006  0.40632  1.0000
  H   H1864     1.0  0.97939  0.44850  0.39835  1.0000
  C   C1052     1.0  0.85982  0.43082  0.44166  1.0000
  C   C1053     1.0  0.82405  0.42210  0.43431  1.0000
  C   C1054     1.0  0.85453  0.44883  0.44903  1.0000
  C   C1055     1.0  0.80447  0.42949  0.43392  1.0000
  C   C1056     1.0  0.85810  0.44706  0.46823  1.0000
  H   H1865     1.0  0.85355  0.42073  0.45148  1.0000
  H   H1866     1.0  0.85869  0.45801  0.41376  1.0000
  H   H1867     1.0  0.83116  0.44839  0.42431  1.0000
  H   H1868     1.0  0.82641  0.42038  0.44831  1.0000
  H   H1869     1.0  0.86248  0.45897  0.44125  1.0000
  H   H1870     1.0  0.84023  0.45369  0.44877  1.0000
  H   H1871     1.0  0.80132  0.43162  0.42012  1.0000
  H   H1872     1.0  0.79605  0.41987  0.44202  1.0000
  H   H1873     1.0  0.80117  0.44225  0.43949  1.0000
  H   H1874     1.0  0.62345  0.20086  0.43131  1.0000
  H   H1875     1.0  0.66615  0.39375  0.46408  1.0000
  C   C1057     1.0  0.83619  0.43445  0.42203  1.0000
  H   H1876     1.0  0.63171  0.03194  0.41378  1.0000
  H   H1877     1.0  0.83229  0.47191  0.34375  1.0000
  H   H1878     1.0  0.56239  0.08529  0.34823  1.0000
  H   H1879     1.0  0.59598  0.11166  0.38491  1.0000
  H   H1880     1.0  0.85033  0.39504  0.43946  1.0000
  C   C1058     1.0  0.62416  0.02391  0.42417  1.0000
  H   H1881     1.0  0.67648  0.36142  0.38520  1.0000
  H   H1882     1.0  0.54353  0.32711  0.32459  1.0000
  H   H1883     1.0  0.70950  0.47440  0.43371  1.0000
  C   C1059     1.0  0.50003  0.21636  0.31853  1.0000
  C   C1060     1.0  0.99309  0.49037  0.48325  1.0000
  H   H1884     1.0  0.57222  0.04079  0.43275  1.0000
  H   H1885     1.0  0.56570  0.12312  0.38312  1.0000
  H   H1886     1.0  0.79785  0.40514  0.48516  1.0000
  H   H1887     1.0  0.87648  0.44950  0.30771  1.0000
  C   C1061     1.0  0.95220  0.36739  0.44502  1.0000
  H   H1888     1.0  0.71846  0.31868  0.42229  1.0000
  H   H1889     1.0  0.88300  0.37874  0.41594  1.0000
  C   C1062     1.0  0.54744  0.14179  0.40905  1.0000
  N   N58       1.0  0.57438  0.09678  0.39636  1.0000
  C   C1063     1.0  0.57313  0.01866  0.38831  1.0000
  C   C1064     1.0  0.86937  0.37879  0.42333  1.0000
  H   H1890     1.0  0.95342  0.36098  0.43286  1.0000
  H   H1891     1.0  0.86949  0.36724  0.43398  1.0000
  H   H1892     1.0  0.86007  0.37731  0.41423  1.0000
  H   H1893     1.0  0.58489  0.07408  0.34881  1.0000
  C   C1065     1.0  0.54186  0.28270  0.48486  1.0000
  H   H1894     1.0  0.55273  0.33288  0.36039  1.0000
  Fe  Fe126     1.0  0.51050  0.05356  0.37620  1.0000
  H   H1895     1.0  0.56937  0.01192  0.42493  1.0000
  H   H1896     1.0  0.50932  0.09672  0.42554  1.0000
  H   H1897     1.0  0.58598  0.06016  0.40901  1.0000
  C   C1066     1.0  0.51092  0.22212  0.30036  1.0000
  H   H1898     1.0  0.55849  0.08603  0.38118  1.0000
  H   H1899     1.0  0.88038  0.47196  0.29957  1.0000
  H   H1900     1.0  0.57459  0.06001  0.44221  1.0000
  N   N59       1.0  0.82155  0.46189  0.32369  1.0000
  H   H1901     1.0  0.97568  0.43388  0.45378  1.0000
  H   H1902     1.0  0.55361  0.13871  0.34582  1.0000
  S   S243      1.0  0.51095  0.38738  0.25861  1.0000
  S   S244      1.0  0.58021  0.07084  0.47883  1.0000
  H   H1903     1.0  0.50504  0.14392  0.38186  1.0000
  C   C1067     1.0  0.87077  0.46238  0.30072  1.0000
  S   S245      1.0  0.90857  0.36309  0.47603  1.0000
  H   H1904     1.0  0.54347  0.21440  0.38613  1.0000
  H   H1905     1.0  0.61489  0.22333  0.42248  1.0000
  H   H1906     1.0  0.56349  0.06072  0.40550  1.0000
  H   H1907     1.0  0.51312  0.31369  0.40538  1.0000
  H   H1908     1.0  0.55466  0.45499  0.25125  1.0000
  H   H1909     1.0  0.97528  0.47978  0.41965  1.0000
  S   S246      1.0  0.54177  0.42391  0.24607  1.0000
  Fe  Fe127     1.0  0.72450  0.36162  0.48256  1.0000
  C   C1068     1.0  0.51245  0.33256  0.29340  1.0000
  Fe  Fe128     1.0  0.50873  0.26622  0.35397  1.0000
  C   C1069     1.0  0.56912  0.03110  0.37149  1.0000
  S   S247      1.0  0.87656  0.49496  0.34352  1.0000
  H   H1910     1.0  0.59266  0.09987  0.36048  1.0000
  H   H1911     1.0  0.80190  0.47554  0.29407  1.0000
  C   C1070     1.0  0.61656  0.18578  0.48690  1.0000
  C   C1071     1.0  0.77641  0.46290  0.48259  1.0000
  C   C1072     1.0  0.81145  0.46218  0.37515  1.0000
  H   H1912     1.0  0.53229  0.12817  0.49386  1.0000
  H   H1913     1.0  0.50311  0.14854  0.44601  1.0000
  H   H1914     1.0  0.94522  0.35908  0.45623  1.0000
  H   H1915     1.0  0.55416  0.17084  0.34272  1.0000
  C   C1073     1.0  0.51188  0.24207  0.29756  1.0000
  C   C1074     1.0  0.56773  0.05521  0.43265  1.0000
  H   H1916     1.0  0.54823  0.11171  0.39510  1.0000
  H   H1917     1.0  0.77042  0.48942  0.43003  1.0000
  C   C1075     1.0  0.57204  0.06490  0.41395  1.0000
  H   H1918     1.0  0.85032  0.43725  0.47689  1.0000
  C   C1076     1.0  0.56203  0.11416  0.39548  1.0000
  H   H1919     1.0  0.97227  0.39189  0.42872  1.0000
  H   H1920     1.0  0.98899  0.41266  0.43174  1.0000
  N   N60       1.0  0.71469  0.49593  0.44652  1.0000
  H   H1921     1.0  0.51750  0.27704  0.47846  1.0000
  C   C1077     1.0  0.54802  0.20303  0.39582  1.0000
  C   C1078     1.0  0.59296  0.10084  0.39589  1.0000
  H   H1922     1.0  0.55797  0.11738  0.42386  1.0000
  C   C1079     1.0  0.57854  0.09787  0.36201  1.0000
  H   H1923     1.0  0.58031  0.07455  0.38113  1.0000
  H   H1924     1.0  0.68626  0.40227  0.46584  1.0000
  H   H1925     1.0  0.78613  0.42406  0.33573  1.0000
  C   C1080     1.0  0.70234  0.30903  0.48154  1.0000
  H   H1926     1.0  0.82643  0.42365  0.32499  1.0000
  H   H1927     1.0  0.57037  0.11095  0.35947  1.0000
  H   H1928     1.0  0.60783  0.07818  0.38287  1.0000
  C   C1081     1.0  0.74515  0.47886  0.43492  1.0000
  H   H1929     1.0  0.70233  0.28080  0.48261  1.0000
  C   C1082     1.0  0.54287  0.29896  0.36945  1.0000
  H   H1930     1.0  0.54523  0.35785  0.33019  1.0000
  S   S248      1.0  0.50376  0.22662  0.39314  1.0000
  H   H1931     1.0  0.57427  0.12989  0.41056  1.0000
  C   C1083     1.0  0.62624  0.09144  0.39215  1.0000
  C   C1084     1.0  0.56845  0.08541  0.41360  1.0000
  C   C1085     1.0  0.57258  0.08801  0.38066  1.0000
  C   C1086     1.0  0.57649  0.08723  0.34749  1.0000
  S   S249      1.0  0.75267  0.40049  0.48245  1.0000
  S   S250      1.0  0.90671  0.48235  0.42108  1.0000
  H   H1932     1.0  0.76563  0.48845  0.47060  1.0000
  H   H1933     1.0  0.63683  0.07985  0.39152  1.0000
  C   C1087     1.0  0.81159  0.35633  0.49123  1.0000
  H   H1934     1.0  0.60715  0.07565  0.40666  1.0000
  H   H1935     1.0  0.57437  0.08876  0.42471  1.0000
  C   C1088     1.0  0.79938  0.41864  0.32919  1.0000
  S   S251      1.0  0.71301  0.38835  0.49107  1.0000
  H   H1936     1.0  0.66706  0.34030  0.47410  1.0000
  C   C1089     1.0  0.56132  0.12525  0.41079  1.0000
  S   S252      1.0  0.53011  0.11559  0.36436  1.0000
  H   H1937     1.0  0.94928  0.46551  0.40441  1.0000
  H   H1938     1.0  0.52469  0.99797  0.40608  1.0000
  H   H1939     1.0  0.78379  0.49319  0.49261  1.0000
  H   H1940     1.0  0.85428  0.46009  0.47321  1.0000
  C   C1090     1.0  0.54343  0.16515  0.35143  1.0000
  Fe  Fe129     1.0  0.51336  0.09361  0.37663  1.0000
  C   C1091     1.0  0.60810  0.08514  0.39433  1.0000
  H   H1941     1.0  0.55103  0.15070  0.39660  1.0000
  S   S253      1.0  0.92611  0.39933  0.47660  1.0000
  C   C1092     1.0  0.97394  0.48547  0.48757  1.0000
  C   C1093     1.0  0.51168  0.00860  0.36926  1.0000
  H   H1942     1.0  0.87246  0.44280  0.46907  1.0000
  H   H1943     1.0  0.80015  0.47835  0.35328  1.0000
  H   H1944     1.0  0.71781  0.32135  0.44531  1.0000
  Fe  Fe130     1.0  0.88445  0.37488  0.49336  1.0000
  C   C1094     1.0  0.76446  0.48061  0.48400  1.0000
  H   H1945     1.0  0.64744  0.01450  0.45363  1.0000
  H   H1946     1.0  0.52535  0.15613  0.29760  1.0000
  H   H1947     1.0  0.98139  0.44520  0.42167  1.0000
  H   H1948     1.0  0.58664  0.01134  0.38542  1.0000
  C   C1095     1.0  0.50861  0.16513  0.32102  1.0000
  C   C1096     1.0  0.70966  0.32223  0.43447  1.0000
  C   C1097     1.0  0.85318  0.46953  0.31111  1.0000
  C   C1098     1.0  0.50934  0.32305  0.31065  1.0000
  H   H1949     1.0  0.61877  0.31844  0.48158  1.0000
  C   C1099     1.0  0.80899  0.44926  0.32213  1.0000
  C   C1100     1.0  0.61020  0.15530  0.48829  1.0000
  C   C1101     1.0  0.82367  0.37858  0.46896  1.0000
  H   H1950     1.0  0.82260  0.38760  0.45685  1.0000
  C   C1102     1.0  0.90760  0.48614  0.48217  1.0000
  H   H1951     1.0  0.52996  0.29461  0.40645  1.0000
  H   H1952     1.0  0.51783  0.24579  0.30843  1.0000
  H   H1953     1.0  0.60162  0.00767  0.48957  1.0000
  H   H1954     1.0  0.91161  0.47199  0.48022  1.0000
  H   H1955     1.0  0.84328  0.49271  0.36761  1.0000
  H   H1956     1.0  0.54597  0.01432  0.39602  1.0000
  C   C1103     1.0  0.98606  0.40588  0.45983  1.0000
  S   S254      1.0  0.58578  0.10902  0.49106  1.0000
  H   H1957     1.0  0.86889  0.46060  0.28715  1.0000
  H   H1958     1.0  0.51377  0.01644  0.48215  1.0000
  C   C1104     1.0  0.97303  0.46783  0.48127  1.0000
  H   H1959     1.0  0.72485  0.48727  0.47154  1.0000
  H   H1960     1.0  0.60525  0.33761  0.48958  1.0000
  C   C1105     1.0  0.61779  0.32841  0.49077  1.0000
  H   H1961     1.0  0.60282  0.03028  0.49134  1.0000
  H   H1962     1.0  0.50518  0.21882  0.28919  1.0000
  H   H1963     1.0  0.49721  0.19392  0.34870  1.0000
  H   H1964     1.0  0.64339  0.03609  0.48476  1.0000
  H   H1965     1.0  0.82427  0.48072  0.28824  1.0000
  H   H1966     1.0  0.70130  0.49008  0.47336  1.0000
  H   H1967     1.0  0.98295  0.45722  0.48685  1.0000
  H   H1968     1.0  0.51510  0.29422  0.49236  1.0000
  H   H1969     1.0  0.55846  0.99856  0.38301  1.0000
  C   C1106     1.0  0.63506  0.00943  0.48975  1.0000
  C   C1107     1.0  0.49766  0.45272  0.26392  1.0000
  Fe  Fe131     1.0  0.90097  0.40804  0.49373  1.0000
  C   C1108     1.0  0.81147  0.48376  0.29680  1.0000
  H   H1970     1.0  0.56600  0.01388  0.45684  1.0000
  C   C1109     1.0  0.55872  0.00342  0.42637  1.0000
  H   H1971     1.0  0.99645  0.46516  0.43657  1.0000
  C   C1110     1.0  0.49665  0.13923  0.45667  1.0000
  H   H1972     1.0  0.49710  0.25016  0.49474  1.0000
  C   C1111     1.0  0.49689  0.00686  0.38224  1.0000
  C   C1112     1.0  0.99629  0.40318  0.44138  1.0000
  H   H1973     1.0  0.64821  0.00364  0.49365  1.0000
  H   H1974     1.0  0.80208  0.42412  0.49427  1.0000
  C   C1113     1.0  0.79205  0.41537  0.49391  1.0000
  H   H1975     1.0  0.77407  0.40092  0.54732  1.0000
  H   H1976     1.0  0.62722  0.26763  0.55851  1.0000
  Fe  Fe132     1.0  0.92465  0.46096  0.57450  1.0000
  S   S255      1.0  0.92405  0.43204  0.57470  1.0000
  S   S256      1.0  0.91836  0.47526  0.59846  1.0000
  H   H1977     1.0  0.52321  0.14416  0.58862  1.0000
  H   H1978     1.0  0.96418  0.38238  0.59555  1.0000
  H   H1979     1.0  0.50314  0.00626  0.61790  1.0000
  H   H1980     1.0  0.64145  0.43397  0.73231  1.0000
  H   H1981     1.0  0.76728  0.49210  0.66387  1.0000
  S   S257      1.0  0.53652  0.08432  0.58612  1.0000
  H   H1982     1.0  0.53737  0.15354  0.50615  1.0000
  S   S258      1.0  0.59781  0.06500  0.52448  1.0000
  H   H1983     1.0  0.86719  0.49482  0.53945  1.0000
  H   H1984     1.0  0.77511  0.45264  0.57111  1.0000
  C   C1114     1.0  0.78510  0.37039  0.53306  1.0000
  Fe  Fe133     1.0  0.73644  0.38644  0.50552  1.0000
  H   H1985     1.0  0.84234  0.41310  0.58640  1.0000
  C   C1115     1.0  0.66840  0.44920  0.64456  1.0000
  C   C1116     1.0  0.54355  0.03344  0.60992  1.0000
  H   H1986     1.0  0.59912  0.40981  0.66236  1.0000
  Fe  Fe134     1.0  0.50751  0.25763  0.58462  1.0000
  S   S259      1.0  0.53336  0.24674  0.56930  1.0000
  H   H1987     1.0  0.55792  0.02146  0.51469  1.0000
  Fe  Fe135     1.0  0.52856  0.38518  0.71982  1.0000
  S   S260      1.0  0.55646  0.39035  0.72136  1.0000
  H   H1988     1.0  0.77942  0.41725  0.52059  1.0000
  S   S261      1.0  0.73543  0.39336  0.53336  1.0000
  Fe  Fe136     1.0  0.74773  0.48099  0.57186  1.0000
  H   H1989     1.0  0.56814  0.30803  0.58885  1.0000
  S   S262      1.0  0.74793  0.46989  0.54607  1.0000
  H   H1990     1.0  0.60821  0.29341  0.54012  1.0000
  S   S263      1.0  0.79969  0.47341  0.60572  1.0000
  H   H1991     1.0  0.64929  0.28876  0.56296  1.0000
  H   H1992     1.0  0.97639  0.43115  0.51090  1.0000
  S   S264      1.0  0.74961  0.46887  0.60025  1.0000
  C   C1117     1.0  0.80153  0.39537  0.52126  1.0000
  H   H1993     1.0  0.93187  0.35838  0.56210  1.0000
  H   H1994     1.0  0.85862  0.40745  0.52443  1.0000
  Fe  Fe137     1.0  0.59129  0.48117  0.72900  1.0000
  H   H1995     1.0  0.54168  0.31708  0.56706  1.0000
  C   C1118     1.0  0.64052  0.45340  0.66699  1.0000
  Fe  Fe138     1.0  0.63025  0.48830  0.72073  1.0000
  S   S265      1.0  0.65741  0.48001  0.70394  1.0000
  H   H1996     1.0  0.82833  0.34457  0.51112  1.0000
  H   H1997     1.0  0.55057  0.28713  0.58093  1.0000
  H   H1998     1.0  0.58965  0.31014  0.60947  1.0000
  C   C1119     1.0  0.69834  0.47958  0.66248  1.0000
  C   C1120     1.0  0.68770  0.47629  0.67914  1.0000
  C   C1121     1.0  0.67001  0.48460  0.68234  1.0000
  H   H1999     1.0  0.60195  0.28924  0.60372  1.0000
  H   H2000     1.0  0.54095  0.12520  0.56722  1.0000
  H   H2001     1.0  0.71189  0.47310  0.66044  1.0000
  H   H2002     1.0  0.69330  0.46729  0.68972  1.0000
  C   C1122     1.0  0.73834  0.41484  0.53684  1.0000
  C   C1123     1.0  0.74126  0.42826  0.52265  1.0000
  C   C1124     1.0  0.74406  0.44502  0.52581  1.0000
  C   C1125     1.0  0.74399  0.44858  0.54315  1.0000
  C   C1126     1.0  0.74102  0.43520  0.55738  1.0000
  C   C1127     1.0  0.73813  0.41842  0.55421  1.0000
  H   H2003     1.0  0.74617  0.45531  0.51477  1.0000
  H   H2004     1.0  0.74083  0.43781  0.57080  1.0000
  H   H2005     1.0  0.73569  0.40815  0.56526  1.0000
  C   C1128     1.0  0.55941  0.41262  0.72186  1.0000
  C   C1129     1.0  0.54808  0.42681  0.71428  1.0000
  C   C1130     1.0  0.55111  0.44439  0.71404  1.0000
  C   C1131     1.0  0.56530  0.44801  0.72162  1.0000
  H   H2006     1.0  0.96696  0.44543  0.52757  1.0000
  C   C1132     1.0  0.57360  0.41622  0.72952  1.0000
  H   H2007     1.0  0.53718  0.42422  0.70824  1.0000
  H   H2008     1.0  0.63710  0.29741  0.50153  1.0000
  H   H2009     1.0  0.64716  0.41226  0.72521  1.0000
  S   S266      1.0  0.49825  0.09872  0.51417  1.0000
  H   H2010     1.0  0.62081  0.41677  0.71024  1.0000
  H   H2011     1.0  0.81901  0.42716  0.57529  1.0000
  H   H2012     1.0  0.53772  0.12630  0.59907  1.0000
  C   C1133     1.0  0.98629  0.36619  0.56956  1.0000
  H   H2013     1.0  0.83097  0.47133  0.56497  1.0000
  C   C1134     1.0  0.56680  0.27675  0.52363  1.0000
  C   C1135     1.0  0.55340  0.28621  0.53447  1.0000
  C   C1136     1.0  0.54244  0.27714  0.54808  1.0000
  C   C1137     1.0  0.54513  0.25862  0.55110  1.0000
  C   C1138     1.0  0.55827  0.24918  0.54004  1.0000
  C   C1139     1.0  0.56889  0.25821  0.52614  1.0000
  H   H2014     1.0  0.55161  0.30058  0.53240  1.0000
  H   H2015     1.0  0.53221  0.28442  0.55647  1.0000
  H   H2016     1.0  0.56043  0.23483  0.54240  1.0000
  H   H2017     1.0  0.57911  0.25080  0.51776  1.0000
  C   C1140     1.0  0.55327  0.07924  0.56865  1.0000
  C   C1141     1.0  0.56960  0.07000  0.57260  1.0000
  C   C1142     1.0  0.58306  0.06550  0.55890  1.0000
  C   C1143     1.0  0.58041  0.07054  0.54117  1.0000
  C   C1144     1.0  0.56410  0.07987  0.53713  1.0000
  C   C1145     1.0  0.55044  0.08404  0.55090  1.0000
  H   H2018     1.0  0.57182  0.06623  0.58627  1.0000
  H   H2019     1.0  0.59568  0.05833  0.56205  1.0000
  H   H2020     1.0  0.56194  0.08366  0.52343  1.0000
  H   H2021     1.0  0.53777  0.09097  0.54773  1.0000
  C   C1146     1.0  0.56500  0.28718  0.61179  1.0000
  H   H2022     1.0  0.64182  0.01040  0.53469  1.0000
  H   H2023     1.0  0.54345  0.14854  0.59526  1.0000
  C   C1147     1.0  0.53735  0.13888  0.58973  1.0000
  C   C1148     1.0  0.93039  0.36882  0.55052  1.0000
  H   H2024     1.0  0.62926  0.41793  0.67647  1.0000
  C   C1149     1.0  0.91858  0.43145  0.55372  1.0000
  C   C1150     1.0  0.90880  0.41861  0.55100  1.0000
  C   C1151     1.0  0.90288  0.41951  0.53460  1.0000
  C   C1152     1.0  0.90654  0.43340  0.52108  1.0000
  C   C1153     1.0  0.91682  0.44587  0.52362  1.0000
  C   C1154     1.0  0.92315  0.44466  0.53981  1.0000
  H   H2025     1.0  0.90538  0.40830  0.56167  1.0000
  H   H2026     1.0  0.89477  0.40996  0.53274  1.0000
  H   H2027     1.0  0.98472  0.42627  0.54920  1.0000
  H   H2028     1.0  0.93135  0.45417  0.54158  1.0000
  H   H2029     1.0  0.94495  0.39860  0.59297  1.0000
  S   S267      1.0  0.74703  0.35870  0.49920  1.0000
  C   C1155     1.0  0.83602  0.47295  0.60215  1.0000
  H   H2030     1.0  0.62213  0.03811  0.50860  1.0000
  H   H2031     1.0  0.83625  0.45921  0.60801  1.0000
  H   H2032     1.0  0.60582  0.31235  0.51332  1.0000
  Fe  Fe139     1.0  0.92925  0.49410  0.54860  1.0000
  N   N61       1.0  0.96728  0.39548  0.55819  1.0000
  H   H2033     1.0  0.86279  0.46932  0.56149  1.0000
  C   C1156     1.0  0.96835  0.40468  0.57391  1.0000
  C   C1157     1.0  0.96671  0.40945  0.54207  1.0000
  H   H2034     1.0  0.50333  0.06655  0.62361  1.0000
  H   H2035     1.0  0.50405  0.34837  0.65898  1.0000
  H   H2036     1.0  0.65302  0.01957  0.51356  1.0000
  C   C1158     1.0  0.62016  0.28509  0.53411  1.0000
  C   C1159     1.0  0.95962  0.39674  0.59244  1.0000
  C   C1160     1.0  0.96369  0.40611  0.60707  1.0000
  H   H2037     1.0  0.61228  0.48140  0.66349  1.0000
  H   H2038     1.0  0.57622  0.47038  0.68130  1.0000
  H   H2039     1.0  0.51081  0.02699  0.57093  1.0000
  H   H2040     1.0  0.80142  0.34791  0.49628  1.0000
  H   H2041     1.0  0.76952  0.37559  0.56876  1.0000
  H   H2042     1.0  0.96172  0.41870  0.57206  1.0000
  C   C1161     1.0  0.98238  0.42061  0.53755  1.0000
  H   H2043     1.0  0.73964  0.48945  0.51407  1.0000
  H   H2044     1.0  0.51140  0.22271  0.55423  1.0000
  S   S268      1.0  0.85913  0.36261  0.50446  1.0000
  H   H2045     1.0  0.51832  0.30639  0.60227  1.0000
  H   H2046     1.0  0.78627  0.44422  0.59021  1.0000
  H   H2047     1.0  0.56122  0.12937  0.57370  1.0000
  H   H2048     1.0  0.50040  0.33372  0.63346  1.0000
  H   H2049     1.0  0.85286  0.37922  0.55720  1.0000
  H   H2050     1.0  0.91993  0.45645  0.51309  1.0000
  H   H2051     1.0  0.62207  0.31637  0.54460  1.0000
  C   C1162     1.0  0.60334  0.01672  0.49892  1.0000
  H   H2052     1.0  0.50821  0.25483  0.54011  1.0000
  H   H2053     1.0  0.51992  0.31012  0.56974  1.0000
  H   H2054     1.0  0.66078  0.45058  0.63324  1.0000
  H   H2055     1.0  0.83247  0.39189  0.53594  1.0000
  H   H2056     1.0  0.95869  0.42054  0.60477  1.0000
  H   H2057     1.0  0.58315  0.40787  0.68220  1.0000
  C   C1163     1.0  0.62516  0.42880  0.71343  1.0000
  H   H2058     1.0  0.63184  0.25709  0.53879  1.0000
  H   H2059     1.0  0.78430  0.35100  0.55760  1.0000
  C   C1164     1.0  0.53548  0.27982  0.62536  1.0000
  H   H2060     1.0  0.53130  0.01008  0.61990  1.0000
  C   C1165     1.0  0.85212  0.48024  0.59756  1.0000
  H   H2061     1.0  0.56045  0.29798  0.62025  1.0000
  H   H2062     1.0  0.52998  0.01106  0.57363  1.0000
  H   H2063     1.0  0.67107  0.29856  0.53704  1.0000
  H   H2064     1.0  0.58268  0.23133  0.57977  1.0000
  H   H2065     1.0  0.83888  0.36259  0.56711  1.0000
  C   C1166     1.0  0.50725  0.04006  0.60171  1.0000
  C   C1167     1.0  0.52881  0.31659  0.57587  1.0000
  C   C1168     1.0  0.68682  0.27714  0.52474  1.0000
  C   C1169     1.0  0.99127  0.47469  0.60666  1.0000
  H   H2066     1.0  0.86456  0.47209  0.59981  1.0000
  H   H2067     1.0  0.77545  0.39848  0.51141  1.0000
  H   H2068     1.0  0.53123  0.26743  0.67146  1.0000
  C   C1170     1.0  0.63637  0.43785  0.69709  1.0000
  H   H2069     1.0  0.77090  0.37634  0.53482  1.0000
  H   H2070     1.0  0.96949  0.48403  0.50208  1.0000
  H   H2071     1.0  0.99573  0.38838  0.55251  1.0000
  H   H2072     1.0  0.58691  0.43651  0.73613  1.0000
  H   H2073     1.0  0.84983  0.36252  0.54450  1.0000
  H   H2074     1.0  0.59122  0.43794  0.67591  1.0000
  H   H2075     1.0  0.79150  0.37313  0.57495  1.0000
  H   H2076     1.0  0.54169  0.02598  0.54382  1.0000
  H   H2077     1.0  0.81113  0.36218  0.55493  1.0000
  H   H2078     1.0  0.59426  0.26868  0.55733  1.0000
  C   C1171     1.0  0.60092  0.42717  0.68161  1.0000
  H   H2079     1.0  0.61348  0.43805  0.71807  1.0000
  H   H2080     1.0  0.99039  0.44345  0.51949  1.0000
  C   C1172     1.0  0.59714  0.40971  0.67696  1.0000
  H   H2081     1.0  0.55717  0.16829  0.51428  1.0000
  H   H2082     1.0  0.52485  0.49424  0.69364  1.0000
  C   C1173     1.0  0.52232  0.03777  0.50266  1.0000
  H   H2083     1.0  0.98195  0.33761  0.51358  1.0000
  H   H2084     1.0  0.64214  0.44856  0.70144  1.0000
  H   H2085     1.0  0.84191  0.42221  0.51308  1.0000
  H   H2086     1.0  0.62737  0.41708  0.74063  1.0000
  H   H2087     1.0  0.78727  0.43070  0.57274  1.0000
  H   H2088     1.0  0.70588  0.46109  0.49501  1.0000
  H   H2089     1.0  0.54243  0.45523  0.70785  1.0000
  H   H2090     1.0  0.97438  0.35938  0.57357  1.0000
  H   H2091     1.0  0.51523  0.05121  0.59828  1.0000
  C   C1174     1.0  0.49926  0.33566  0.66139  1.0000
  C   C1175     1.0  0.97409  0.38216  0.50128  1.0000
  C   C1176     1.0  0.51192  0.02209  0.50886  1.0000
  H   H2092     1.0  0.56551  0.26076  0.57914  1.0000
  Fe  Fe140     1.0  0.50304  0.36197  0.70982  1.0000
  H   H2093     1.0  0.61786  0.46956  0.69252  1.0000
  S   S269      1.0  0.89818  0.43533  0.50107  1.0000
  C   C1177     1.0  0.55506  0.25901  0.60772  1.0000
  H   H2094     1.0  0.79410  0.40389  0.55383  1.0000
  N   N62       1.0  0.55381  0.15059  0.53901  1.0000
  C   C1178     1.0  0.54129  0.14036  0.53292  1.0000
  C   C1179     1.0  0.55219  0.16901  0.52857  1.0000
  C   C1180     1.0  0.57299  0.14217  0.53604  1.0000
  C   C1181     1.0  0.57674  0.12160  0.53787  1.0000
  Fe  Fe141     1.0  0.51037  0.09304  0.57628  1.0000
  C   C1182     1.0  0.56245  0.18252  0.53422  1.0000
  C   C1183     1.0  0.59668  0.11517  0.53646  1.0000
  C   C1184     1.0  0.76997  0.49068  0.49776  1.0000
  C   C1185     1.0  0.97095  0.36437  0.50457  1.0000
  H   H2095     1.0  0.52727  0.14580  0.53741  1.0000
  H   H2096     1.0  0.54273  0.12630  0.53914  1.0000
  H   H2097     1.0  0.53797  0.17502  0.52923  1.0000
  C   C1186     1.0  0.63509  0.30629  0.51203  1.0000
  H   H2098     1.0  0.57938  0.14689  0.52245  1.0000
  H   H2099     1.0  0.58070  0.14654  0.54521  1.0000
  H   H2100     1.0  0.57173  0.11670  0.52712  1.0000
  C   C1187     1.0  0.78650  0.39345  0.55182  1.0000
  H   H2101     1.0  0.52660  0.28946  0.65977  1.0000
  H   H2102     1.0  0.57630  0.17665  0.53585  1.0000
  H   H2103     1.0  0.64596  0.31463  0.50863  1.0000
  H   H2104     1.0  0.60364  0.12063  0.52346  1.0000
  H   H2105     1.0  0.60235  0.11920  0.54733  1.0000
  C   C1188     1.0  0.78711  0.44435  0.57567  1.0000
  H   H2106     1.0  0.68715  0.26812  0.53747  1.0000
  H   H2107     1.0  0.95414  0.41881  0.54363  1.0000
  H   H2108     1.0  0.67161  0.30070  0.51346  1.0000
  C   C1189     1.0  0.58531  0.48031  0.67564  1.0000
  H   H2109     1.0  0.53126  0.29395  0.62745  1.0000
  C   C1190     1.0  0.98346  0.38201  0.55476  1.0000
  C   C1191     1.0  0.81962  0.48332  0.59952  1.0000
  H   H2110     1.0  0.62548  0.29284  0.56877  1.0000
  S   S270      1.0  0.90588  0.47959  0.55846  1.0000
  N   N63       1.0  0.63594  0.29528  0.53002  1.0000
  H   H2111     1.0  0.80230  0.46602  0.56821  1.0000
  H   H2112     1.0  0.65401  0.27291  0.54083  1.0000
  H   H2113     1.0  0.60042  0.25652  0.53850  1.0000
  H   H2114     1.0  0.52732  0.26845  0.51659  1.0000
  H   H2115     1.0  0.52838  0.04077  0.51372  1.0000
  H   H2116     1.0  0.92839  0.36239  0.53919  1.0000
  H   H2117     1.0  0.86730  0.43194  0.53599  1.0000
  Fe  Fe142     1.0  0.77215  0.48521  0.59824  1.0000
  C   C1192     1.0  0.54084  0.26973  0.64322  1.0000
  H   H2118     1.0  0.86479  0.41917  0.60304  1.0000
  H   H2119     1.0  0.54324  0.25266  0.60687  1.0000
  H   H2120     1.0  0.97820  0.40429  0.60756  1.0000
  C   C1193     1.0  0.78056  0.38279  0.56999  1.0000
  H   H2121     1.0  0.91847  0.37857  0.55366  1.0000
  S   S271      1.0  0.51722  0.36054  0.73394  1.0000
  N   N64       1.0  0.51810  0.02276  0.59733  1.0000
  H   H2122     1.0  0.80361  0.45204  0.55156  1.0000
  C   C1194     1.0  0.80366  0.45197  0.56591  1.0000
  H   H2123     1.0  0.98669  0.49287  0.54924  1.0000
  H   H2124     1.0  0.57430  0.27744  0.61937  1.0000
  H   H2125     1.0  0.88191  0.41615  0.58441  1.0000
  H   H2126     1.0  0.53920  0.31424  0.60057  1.0000
  C   C1195     1.0  0.57635  0.43387  0.72969  1.0000
  H   H2127     1.0  0.98243  0.40561  0.57485  1.0000
  H   H2128     1.0  0.57980  0.28693  0.58446  1.0000
  H   H2129     1.0  0.64506  0.31710  0.53886  1.0000
  C   C1196     1.0  0.62026  0.43067  0.67417  1.0000
  H   H2130     1.0  0.86625  0.43865  0.56291  1.0000
  H   H2131     1.0  0.82677  0.43811  0.53836  1.0000
  H   H2132     1.0  0.61620  0.32988  0.51843  1.0000
  C   C1197     1.0  0.52731  0.27509  0.65890  1.0000
  H   H2133     1.0  0.95819  0.36771  0.54187  1.0000
  H   H2134     1.0  0.76794  0.38721  0.59648  1.0000
  H   H2135     1.0  0.58554  0.48914  0.68563  1.0000
  C   C1198     1.0  0.83803  0.46353  0.55428  1.0000
  H   H2136     1.0  0.52326  0.27496  0.62323  1.0000
  H   H2137     1.0  0.58615  0.02842  0.52111  1.0000
  H   H2138     1.0  0.98342  0.37669  0.54224  1.0000
  H   H2139     1.0  0.57845  0.22729  0.60367  1.0000
  H   H2140     1.0  0.53849  0.11302  0.51286  1.0000
  H   H2141     1.0  0.60298  0.46257  0.65989  1.0000
  C   C1199     1.0  0.63744  0.29899  0.56258  1.0000
  C   C1200     1.0  0.77374  0.39501  0.58415  1.0000
  C   C1201     1.0  0.63511  0.30774  0.54346  1.0000
  H   H2142     1.0  0.59974  0.30837  0.58697  1.0000
  H   H2143     1.0  0.65517  0.42791  0.65962  1.0000
  C   C1202     1.0  0.63952  0.31279  0.57406  1.0000
  C   C1203     1.0  0.97875  0.43610  0.52297  1.0000
  C   C1204     1.0  0.64371  0.03812  0.53211  1.0000
  H   H2144     1.0  0.82106  0.39154  0.55840  1.0000
  C   C1205     1.0  0.53748  0.03916  0.54843  1.0000
  S   S272      1.0  0.50577  0.11658  0.55581  1.0000
  H   H2145     1.0  0.61638  0.28216  0.52163  1.0000
  H   H2146     1.0  0.51845  0.12886  0.51484  1.0000
  H   H2147     1.0  0.74760  0.49149  0.68006  1.0000
  H   H2148     1.0  0.75876  0.34825  0.54207  1.0000
  C   C1206     1.0  0.65317  0.28270  0.52871  1.0000
  H   H2149     1.0  0.51397  0.27223  0.65747  1.0000
  H   H2150     1.0  0.52244  0.33040  0.57720  1.0000
  H   H2151     1.0  0.65181  0.31885  0.56891  1.0000
  H   H2152     1.0  0.84872  0.49207  0.52891  1.0000
  H   H2153     1.0  0.55700  0.13737  0.50665  1.0000
  H   H2154     1.0  0.62793  0.32343  0.57428  1.0000
  H   H2155     1.0  0.64768  0.42751  0.69368  1.0000
  H   H2156     1.0  0.56927  0.01049  0.49628  1.0000
  C   C1207     1.0  0.65793  0.44108  0.66166  1.0000
  H   H2157     1.0  0.77570  0.45442  0.49569  1.0000
  H   H2158     1.0  0.56902  0.03414  0.49568  1.0000
  C   C1208     1.0  0.60394  0.47103  0.66999  1.0000
  H   H2159     1.0  0.68678  0.26920  0.51390  1.0000
  H   H2160     1.0  0.64048  0.30632  0.58788  1.0000
  H   H2161     1.0  0.78481  0.40104  0.58730  1.0000
  H   H2162     1.0  0.59803  0.42660  0.69617  1.0000
  C   C1209     1.0  0.56947  0.25435  0.59207  1.0000
  S   S273      1.0  0.61637  0.46674  0.73852  1.0000
  C   C1210     1.0  0.94698  0.37803  0.54544  1.0000
  H   H2163     1.0  0.50180  0.02575  0.52013  1.0000
  C   C1211     1.0  0.82087  0.44141  0.57262  1.0000
  C   C1212     1.0  0.95036  0.38721  0.56090  1.0000
  H   H2164     1.0  0.96655  0.40339  0.52998  1.0000
  C   C1213     1.0  0.78629  0.35118  0.54304  1.0000
  H   H2165     1.0  0.93876  0.39750  0.56354  1.0000
  S   S274      1.0  0.50647  0.40419  0.73162  1.0000
  H   H2166     1.0  0.52456  0.04511  0.54397  1.0000
  C   C1214     1.0  0.84312  0.37111  0.55460  1.0000
  H   H2167     1.0  0.50820  0.20594  0.54166  1.0000
  H   H2168     1.0  0.57022  0.19565  0.50742  1.0000
  H   H2169     1.0  0.55572  0.18693  0.54697  1.0000
  C   C1215     1.0  0.85322  0.43679  0.57099  1.0000
  C   C1216     1.0  0.57595  0.29581  0.59480  1.0000
  H   H2170     1.0  0.94964  0.37718  0.57289  1.0000
  C   C1217     1.0  0.63600  0.42269  0.72879  1.0000
  H   H2171     1.0  0.51335  0.04982  0.49810  1.0000
  H   H2172     1.0  0.57035  0.11518  0.55059  1.0000
  S   S275      1.0  0.50260  0.25056  0.61421  1.0000
  H   H2173     1.0  0.60651  0.24658  0.55974  1.0000
  H   H2174     1.0  0.99480  0.41232  0.53262  1.0000
  C   C1218     1.0  0.56969  0.02113  0.50433  1.0000
  C   C1219     1.0  0.61254  0.46004  0.68595  1.0000
  C   C1220     1.0  0.54777  0.15256  0.55833  1.0000
  H   H2175     1.0  0.53421  0.16032  0.55984  1.0000
  H   H2176     1.0  0.74130  0.42573  0.50925  1.0000
  C   C1221     1.0  0.53242  0.12675  0.50836  1.0000
  H   H2177     1.0  0.52132  0.01051  0.51362  1.0000
  H   H2178     1.0  0.53312  0.49292  0.71443  1.0000
  H   H2179     1.0  0.55650  0.16031  0.56326  1.0000
  S   S276      1.0  0.56865  0.47042  0.72041  1.0000
  C   C1222     1.0  0.56170  0.02670  0.61586  1.0000
  H   H2180     1.0  0.56041  0.01705  0.62817  1.0000
  C   C1223     1.0  0.54745  0.13521  0.57163  1.0000
  H   H2181     1.0  0.66665  0.43922  0.67216  1.0000
  H   H2182     1.0  0.58233  0.40532  0.73555  1.0000
  H   H2183     1.0  0.76330  0.40570  0.57966  1.0000
  C   C1224     1.0  0.85496  0.42115  0.51781  1.0000
  H   H2184     1.0  0.56763  0.03806  0.61856  1.0000
  H   H2185     1.0  0.69903  0.28363  0.52186  1.0000
  C   C1225     1.0  0.75254  0.49463  0.66573  1.0000
  S   S277      1.0  0.94859  0.47378  0.56216  1.0000
  H   H2186     1.0  0.52507  0.25386  0.50199  1.0000
  H   H2187     1.0  0.54933  0.03270  0.57225  1.0000
  H   H2188     1.0  0.85224  0.44458  0.58220  1.0000
  C   C1226     1.0  0.53443  0.01787  0.60660  1.0000
  C   C1227     1.0  0.53159  0.30659  0.59420  1.0000
  H   H2189     1.0  0.67142  0.46245  0.64607  1.0000
  H   H2190     1.0  0.81017  0.38789  0.51106  1.0000
  H   H2191     1.0  0.54555  0.04339  0.59805  1.0000
  N   N65       1.0  0.54948  0.27849  0.60926  1.0000
  H   H2192     1.0  0.80943  0.40520  0.52405  1.0000
  H   H2193     1.0  0.52002  0.23081  0.52175  1.0000
  Fe  Fe143     1.0  0.90051  0.49474  0.58154  1.0000
  H   H2194     1.0  0.83047  0.46778  0.54282  1.0000
  C   C1228     1.0  0.85462  0.43469  0.53047  1.0000
  C   C1229     1.0  0.53583  0.03740  0.56860  1.0000
  H   H2195     1.0  0.53127  0.05078  0.57243  1.0000
  N   N66       1.0  0.83805  0.44385  0.56048  1.0000
  C   C1230     1.0  0.83861  0.43360  0.54522  1.0000
  H   H2196     1.0  0.51490  0.29500  0.52432  1.0000
  H   H2197     1.0  0.82127  0.44537  0.58585  1.0000
  C   C1231     1.0  0.86900  0.41221  0.59116  1.0000
  S   S278      1.0  0.95078  0.35732  0.50180  1.0000
  H   H2198     1.0  0.85359  0.44809  0.52259  1.0000
  H   H2199     1.0  0.94481  0.38783  0.53351  1.0000
  H   H2200     1.0  0.53535  0.04055  0.62052  1.0000
  C   C1232     1.0  0.78575  0.40657  0.51256  1.0000
  S   S279      1.0  0.51663  0.38497  0.69503  1.0000
  H   H2201     1.0  0.77452  0.34020  0.52403  1.0000
  H   H2202     1.0  0.83780  0.41936  0.55023  1.0000
  H   H2203     1.0  0.85900  0.40854  0.56775  1.0000
  H   H2204     1.0  0.60590  0.39833  0.68314  1.0000
  S   S280      1.0  0.58110  0.28831  0.50742  1.0000
  C   C1233     1.0  0.58656  0.01752  0.51313  1.0000
  C   C1234     1.0  0.52306  0.02397  0.57746  1.0000
  H   H2205     1.0  0.58606  0.00490  0.52227  1.0000
  C   C1235     1.0  0.85491  0.41682  0.57866  1.0000
  H   H2206     1.0  0.86546  0.46303  0.53968  1.0000
  H   H2207     1.0  0.56058  0.22909  0.59065  1.0000
  C   C1236     1.0  0.85629  0.47046  0.54940  1.0000
  N   N67       1.0  0.62097  0.01090  0.50574  1.0000
  H   H2208     1.0  0.54959  0.20593  0.51879  1.0000
  H   H2209     1.0  0.58222  0.25840  0.59370  1.0000
  C   C1237     1.0  0.82718  0.38327  0.54789  1.0000
  H   H2210     1.0  0.95699  0.40046  0.62011  1.0000
  H   H2211     1.0  0.55401  0.27244  0.64531  1.0000
  C   C1238     1.0  0.62371  0.02469  0.51651  1.0000
  H   H2212     1.0  0.68115  0.44052  0.64151  1.0000
  C   C1239     1.0  0.60473  0.25928  0.55071  1.0000
  H   H2213     1.0  0.54126  0.25521  0.64352  1.0000
  H   H2214     1.0  0.57078  0.02029  0.60526  1.0000
  H   H2215     1.0  0.65380  0.27463  0.51774  1.0000
  H   H2216     1.0  0.59918  0.17273  0.50788  1.0000
  H   H2217     1.0  0.98978  0.37088  0.58127  1.0000
  H   H2218     1.0  0.77069  0.48139  0.51041  1.0000
  H   H2219     1.0  0.60189  0.45509  0.69609  1.0000
  C   C1240     1.0  0.99039  0.38670  0.50435  1.0000
  C   C1241     1.0  0.67048  0.29130  0.52586  1.0000
  C   C1242     1.0  0.62229  0.26683  0.54601  1.0000
  H   H2220     1.0  0.64440  0.46524  0.67128  1.0000
  H   H2221     1.0  0.82076  0.36470  0.53255  1.0000
  C   C1243     1.0  0.57298  0.23430  0.59157  1.0000
  S   S281      1.0  0.49990  0.07443  0.56236  1.0000
  C   C1244     1.0  0.98420  0.35136  0.51087  1.0000
  H   H2222     1.0  0.59910  0.10048  0.53756  1.0000
  C   C1245     1.0  0.81370  0.37234  0.54330  1.0000
  H   H2223     1.0  0.53067  0.27939  0.59103  1.0000
  C   C1246     1.0  0.59286  0.30118  0.59908  1.0000
  H   H2224     1.0  0.62070  0.43346  0.65949  1.0000
  C   C1247     1.0  0.49958  0.25220  0.53083  1.0000
  N   N68       1.0  0.62706  0.44524  0.68115  1.0000
  H   H2225     1.0  0.98095  0.46861  0.61565  1.0000
  S   S282      1.0  0.90111  0.38227  0.51195  1.0000
  N   N69       1.0  0.50004  0.26611  0.51465  1.0000
  H   H2226     1.0  0.49852  0.17049  0.52160  1.0000
  H   H2227     1.0  0.54455  0.00877  0.59911  1.0000
  H   H2228     1.0  0.87090  0.39768  0.59561  1.0000
  H   H2229     1.0  0.49953  0.31524  0.54515  1.0000
  H   H2230     1.0  0.56062  0.25195  0.61975  1.0000
  C   C1248     1.0  0.56317  0.19913  0.52043  1.0000
  H   H2231     1.0  0.79952  0.34363  0.53908  1.0000
  C   C1249     1.0  0.54090  0.28724  0.59322  1.0000
  H   H2232     1.0  0.50417  0.28301  0.54411  1.0000
  N   N70       1.0  0.79663  0.38270  0.53776  1.0000
  H   H2233     1.0  0.57060  0.20849  0.52482  1.0000
  C   C1250     1.0  0.50190  0.29206  0.53175  1.0000
  H   H2234     1.0  0.78821  0.36877  0.51874  1.0000
  C   C1251     1.0  0.61769  0.31929  0.50987  1.0000
  C   C1252     1.0  0.50351  0.21975  0.54446  1.0000
  H   H2235     1.0  0.54753  0.04795  0.54231  1.0000
  H   H2236     1.0  0.63460  0.45841  0.65459  1.0000
  C   C1253     1.0  0.69146  0.49123  0.64855  1.0000
  H   H2237     1.0  0.86499  0.42361  0.50603  1.0000
  C   C1254     1.0  0.54294  0.14035  0.51261  1.0000
  Fe  Fe144     1.0  0.73110  0.49337  0.60804  1.0000
  C   C1255     1.0  0.98659  0.48889  0.59375  1.0000
  C   C1256     1.0  0.77234  0.34127  0.53845  1.0000
  S   S283      1.0  0.62410  0.25375  0.50036  1.0000
  H   H2238     1.0  0.65637  0.03572  0.53779  1.0000
  H   H2239     1.0  0.61322  0.02552  0.52819  1.0000
  H   H2240     1.0  0.58004  0.48851  0.66395  1.0000
  H   H2241     1.0  0.99117  0.48486  0.51921  1.0000
  Fe  Fe145     1.0  0.94139  0.48974  0.58474  1.0000
  H   H2242     1.0  0.50753  0.03304  0.63066  1.0000
  H   H2243     1.0  0.74768  0.48567  0.65817  1.0000
  H   H2244     1.0  0.99258  0.40043  0.50221  1.0000
  C   C1257     1.0  0.50629  0.00837  0.60318  1.0000
  C   C1258     1.0  0.49722  0.32723  0.64685  1.0000
  C   C1259     1.0  0.85408  0.49009  0.54172  1.0000
  Fe  Fe146     1.0  0.59556  0.07995  0.49728  1.0000
  C   C1260     1.0  0.51911  0.26675  0.50650  1.0000
  H   H2245     1.0  0.49905  0.44468  0.73626  1.0000
  C   C1261     1.0  0.50575  0.23269  0.52732  1.0000
  C   C1262     1.0  0.64153  0.02186  0.52398  1.0000
  H   H2246     1.0  0.49699  0.37814  0.66721  1.0000
  S   S284      1.0  0.61310  0.20576  0.49669  1.0000
  H   H2247     1.0  0.96388  0.39238  0.49663  1.0000
  H   H2248     1.0  0.63259  0.04091  0.54285  1.0000
  S   S285      1.0  0.49813  0.33717  0.69811  1.0000
  H   H2249     1.0  0.64397  0.04999  0.52182  1.0000
  H   H2250     1.0  0.77333  0.32765  0.54588  1.0000
  C   C1263     1.0  0.82690  0.35441  0.49958  1.0000
  H   H2251     1.0  0.70849  0.49558  0.52960  1.0000
  C   C1264     1.0  0.49835  0.03994  0.62127  1.0000
  H   H2252     1.0  0.49799  0.22879  0.51801  1.0000
  S   S286      1.0  0.77113  0.49554  0.56968  1.0000
  C   C1265     1.0  0.60776  0.17143  0.49548  1.0000
  H   H2253     1.0  0.54650  0.28889  0.49501  1.0000
  H   H2254     1.0  0.60353  0.14433  0.49512  1.0000
  H   H2255     1.0  0.53047  0.39037  0.96350  1.0000
  H   H2256     1.0  0.52930  0.37962  0.80768  1.0000
  H   H2257     1.0  0.53354  0.46056  0.84184  1.0000
  H   H2258     1.0  0.54403  0.49341  0.82241  1.0000
  S   S287      1.0  0.56742  0.49328  0.90220  1.0000
  S   S288      1.0  0.51357  0.40519  0.88518  1.0000
  N   N71       1.0  0.65343  0.47244  0.85362  1.0000
  S   S289      1.0  0.51322  0.38380  0.84340  1.0000
  Fe  Fe147     1.0  0.57838  0.46767  0.91718  1.0000
  S   S290      1.0  0.56468  0.44365  0.92164  1.0000
  S   S291      1.0  0.60663  0.46843  0.90471  1.0000
  H   H2259     1.0  0.61788  0.44404  0.93683  1.0000
  H   H2260     1.0  0.57569  0.38343  0.98147  1.0000
  Fe  Fe148     1.0  0.60833  0.48283  0.92770  1.0000
  H   H2261     1.0  0.62583  0.47199  0.86440  1.0000
  H   H2262     1.0  0.61789  0.41734  0.99195  1.0000
  C   C1266     1.0  0.60676  0.48233  0.80889  1.0000
  C   C1267     1.0  0.56048  0.43808  0.79623  1.0000
  H   H2263     1.0  0.54804  0.41998  0.88281  1.0000
  N   N72       1.0  0.59153  0.43093  0.98834  1.0000
  H   H2264     1.0  0.63704  0.47929  0.83253  1.0000
  Fe  Fe149     1.0  0.49805  0.39362  0.91055  1.0000
  H   H2265     1.0  0.64045  0.46063  0.87890  1.0000
  C   C1268     1.0  0.64113  0.46869  0.97782  1.0000
  C   C1269     1.0  0.51844  0.45186  0.88975  1.0000
  C   C1270     1.0  0.53269  0.46145  0.88384  1.0000
  C   C1271     1.0  0.54709  0.45881  0.89347  1.0000
  C   C1272     1.0  0.54703  0.44689  0.90921  1.0000
  C   C1273     1.0  0.53266  0.43752  0.91520  1.0000
  C   C1274     1.0  0.51837  0.44009  0.90555  1.0000
  H   H2266     1.0  0.53283  0.47048  0.87160  1.0000
  H   H2267     1.0  0.55850  0.46546  0.88833  1.0000
  H   H2268     1.0  0.53258  0.42818  0.92729  1.0000
  H   H2269     1.0  0.50926  0.42613  0.84485  1.0000
  H   H2270     1.0  0.50835  0.44966  0.83793  1.0000
  C   C1275     1.0  0.51507  0.38181  0.80774  1.0000
  H   H2271     1.0  0.51697  0.37834  0.78010  1.0000
  H   H2272     1.0  0.63016  0.44778  0.84670  1.0000
  H   H2273     1.0  0.66431  0.48896  0.88177  1.0000
  H   H2274     1.0  0.52149  0.42558  0.97652  1.0000
  S   S292      1.0  0.50115  0.45372  0.87706  1.0000
  H   H2275     1.0  0.56620  0.49242  0.82743  1.0000
  C   C1276     1.0  0.66309  0.48513  0.82073  1.0000
  C   C1277     1.0  0.60045  0.47904  0.84145  1.0000
  H   H2276     1.0  0.66876  0.46019  0.88544  1.0000
  H   H2277     1.0  0.64916  0.43671  0.85679  1.0000
  S   S293      1.0  0.58108  0.47952  0.94105  1.0000
  C   C1278     1.0  0.69382  0.44588  0.87605  1.0000
  H   H2278     1.0  0.59992  0.43344  0.93257  1.0000
  H   H2279     1.0  0.50218  0.48800  0.94721  1.0000
  H   H2280     1.0  0.59744  0.47075  0.85394  1.0000
  H   H2281     1.0  0.61058  0.44323  0.87546  1.0000
  H   H2282     1.0  0.57358  0.42620  0.84818  1.0000
  C   C1279     1.0  0.65153  0.49118  0.85794  1.0000
  N   N73       1.0  0.54422  0.43766  0.82843  1.0000
  C   C1280     1.0  0.59540  0.43675  0.96862  1.0000
  H   H2283     1.0  0.56834  0.45963  0.83516  1.0000
  H   H2284     1.0  0.56764  0.46592  0.97767  1.0000
  C   C1281     1.0  0.54490  0.42743  0.84679  1.0000
  H   H2285     1.0  0.52658  0.46391  0.94023  1.0000
  S   S294      1.0  0.62998  0.47685  0.94535  1.0000
  H   H2286     1.0  0.52706  0.44054  0.80818  1.0000
  H   H2287     1.0  0.54498  0.41299  0.84636  1.0000
  C   C1282     1.0  0.56063  0.41705  0.87387  1.0000
  C   C1283     1.0  0.63872  0.46317  0.86470  1.0000
  C   C1284     1.0  0.56293  0.45450  0.98689  1.0000
  H   H2288     1.0  0.51318  0.44456  0.98794  1.0000
  C   C1285     1.0  0.56071  0.43141  0.81633  1.0000
  C   C1286     1.0  0.55858  0.46665  0.82653  1.0000
  H   H2289     1.0  0.57837  0.44060  0.77144  1.0000
  C   C1287     1.0  0.50382  0.38499  0.82353  1.0000
  C   C1288     1.0  0.52898  0.47470  0.94718  1.0000
  C   C1289     1.0  0.67171  0.46263  0.85599  1.0000
  H   H2290     1.0  0.67587  0.45267  0.84655  1.0000
  H   H2291     1.0  0.57169  0.41906  0.88064  1.0000
  C   C1290     1.0  0.62668  0.47602  0.96888  1.0000
  H   H2292     1.0  0.69515  0.43809  0.88930  1.0000
  H   H2293     1.0  0.55809  0.44613  0.97883  1.0000
  S   S295      1.0  0.51316  0.38563  0.93462  1.0000
  C   C1291     1.0  0.61243  0.43130  0.93848  1.0000
  H   H2294     1.0  0.62218  0.42178  0.93122  1.0000
  H   H2295     1.0  0.52258  0.48821  0.91533  1.0000
  H   H2296     1.0  0.56300  0.41661  0.81779  1.0000
  H   H2297     1.0  0.58518  0.42183  0.78722  1.0000
  H   H2298     1.0  0.57274  0.43513  0.82015  1.0000
  H   H2299     1.0  0.58328  0.43889  0.96211  1.0000
  C   C1292     1.0  0.63625  0.44531  0.85914  1.0000
  H   H2300     1.0  0.62944  0.43194  0.88600  1.0000
  H   H2301     1.0  0.56235  0.40295  0.87162  1.0000
  H   H2302     1.0  0.64722  0.48715  0.79926  1.0000
  H   H2303     1.0  0.65317  0.46030  0.83009  1.0000
  H   H2304     1.0  0.50737  0.43275  0.91035  1.0000
  H   H2305     1.0  0.53533  0.34029  0.88674  1.0000
  H   H2306     1.0  0.60196  0.45790  0.82562  1.0000
  H   H2307     1.0  0.54897  0.48603  0.84485  1.0000
  H   H2308     1.0  0.52741  0.47007  0.96165  1.0000
  H   H2309     1.0  0.55923  0.44314  0.85950  1.0000
  C   C1293     1.0  0.55407  0.48579  0.83056  1.0000
  C   C1294     1.0  0.66122  0.48313  0.80172  1.0000
  H   H2310     1.0  0.60437  0.41088  0.95903  1.0000
  H   H2311     1.0  0.49989  0.48238  0.90077  1.0000
  C   C1295     1.0  0.50811  0.38105  0.79206  1.0000
  C   C1296     1.0  0.60917  0.42387  0.95809  1.0000
  H   H2312     1.0  0.62220  0.42173  0.96300  1.0000
  H   H2313     1.0  0.60024  0.44994  0.96625  1.0000
  H   H2314     1.0  0.51720  0.32364  0.82269  1.0000
  H   H2315     1.0  0.64102  0.48629  0.88659  1.0000
  C   C1297     1.0  0.56452  0.39201  0.98825  1.0000
  C   C1298     1.0  0.60293  0.47180  0.82534  1.0000
  H   H2316     1.0  0.54146  0.34284  0.86302  1.0000
  C   C1299     1.0  0.51376  0.33949  0.87209  1.0000
  Fe  Fe150     1.0  0.61061  0.48471  0.75996  1.0000
  H   H2317     1.0  0.58769  0.44407  0.79036  1.0000
  H   H2318     1.0  0.66546  0.46917  0.79919  1.0000
  C   C1300     1.0  0.52850  0.43298  0.82153  1.0000
  H   H2319     1.0  0.53062  0.41864  0.81975  1.0000
  C   C1301     1.0  0.50581  0.38428  0.95798  1.0000
  H   H2320     1.0  0.55234  0.43021  0.79067  1.0000
  H   H2321     1.0  0.56892  0.41585  0.97072  1.0000
  C   C1302     1.0  0.57910  0.43597  0.78574  1.0000
  H   H2322     1.0  0.69979  0.43727  0.86574  1.0000
  H   H2323     1.0  0.56525  0.46710  0.81262  1.0000
  C   C1303     1.0  0.50318  0.32483  0.82044  1.0000
  C   C1304     1.0  0.65096  0.47372  0.83435  1.0000
  C   C1305     1.0  0.50259  0.33091  0.80064  1.0000
  H   H2324     1.0  0.51749  0.34291  0.84389  1.0000
  C   C1306     1.0  0.56057  0.42942  0.85629  1.0000
  H   H2325     1.0  0.55466  0.45225  0.79393  1.0000
  C   C1307     1.0  0.67421  0.45220  0.87460  1.0000
  C   C1308     1.0  0.51024  0.43656  0.83316  1.0000
  H   H2326     1.0  0.55231  0.39111  0.98275  1.0000
  C   C1309     1.0  0.54162  0.45747  0.82906  1.0000
  H   H2327     1.0  0.59571  0.40249  0.98797  1.0000
  H   H2328     1.0  0.53275  0.43159  0.85593  1.0000
  H   H2329     1.0  0.53366  0.46470  0.81862  1.0000
  H   H2330     1.0  0.62222  0.42262  0.86880  1.0000
  H   H2331     1.0  0.66735  0.44024  0.87702  1.0000
  C   C1310     1.0  0.51758  0.38681  0.96928  1.0000
  C   C1311     1.0  0.62387  0.43520  0.87326  1.0000
  S   S296      1.0  0.61095  0.47215  0.78911  1.0000
  H   H2332     1.0  0.65365  0.46393  0.97036  1.0000
  C   C1312     1.0  0.61050  0.48213  0.97887  1.0000
  H   H2333     1.0  0.54281  0.47748  0.94282  1.0000
  H   H2334     1.0  0.68175  0.47198  0.85242  1.0000
  C   C1313     1.0  0.51293  0.38453  0.98794  1.0000
  H   H2335     1.0  0.59921  0.48782  0.97216  1.0000
  C   C1314     1.0  0.51004  0.43614  0.97874  1.0000
  H   H2336     1.0  0.50977  0.35399  0.87192  1.0000
  C   C1315     1.0  0.51051  0.33383  0.85452  1.0000
  H   H2337     1.0  0.70122  0.45740  0.87454  1.0000
  H   H2338     1.0  0.51794  0.32031  0.85341  1.0000
  H   H2339     1.0  0.53814  0.32118  0.87521  1.0000
  C   C1316     1.0  0.53340  0.33565  0.87434  1.0000
  C   C1317     1.0  0.56802  0.41130  0.98517  1.0000
  C   C1318     1.0  0.51584  0.49140  0.94319  1.0000
  H   H2340     1.0  0.67723  0.48119  0.82258  1.0000
  H   H2341     1.0  0.50616  0.33278  0.88394  1.0000
  Fe  Fe151     1.0  0.59587  0.49495  0.89065  1.0000
  H   H2342     1.0  0.51092  0.32094  0.79278  1.0000
  H   H2343     1.0  0.50816  0.44426  0.96576  1.0000
  C   C1319     1.0  0.65103  0.49350  0.87762  1.0000
  H   H2344     1.0  0.49891  0.31147  0.82354  1.0000
  H   H2345     1.0  0.55639  0.41901  0.99230  1.0000
  H   H2346     1.0  0.66965  0.49175  0.79220  1.0000
  H   H2347     1.0  0.53722  0.47054  0.99207  1.0000
  C   C1320     1.0  0.58509  0.41303  0.99252  1.0000
  H   H2348     1.0  0.50785  0.34376  0.79652  1.0000
  H   H2349     1.0  0.61592  0.44083  0.99023  1.0000
  Fe  Fe152     1.0  0.49821  0.39256  0.86943  1.0000
  H   H2350     1.0  0.58171  0.58478  0.24061  1.0000
  H   H2351     1.0  0.53892  0.78976  0.22985  1.0000
  Fe  Fe153     1.0  0.52109  0.61811  0.05610  1.0000
  S   S297      1.0  0.55004  0.61929  0.04740  1.0000
  H   H2352     1.0  0.57263  0.52820  0.21813  1.0000
  C   C1321     1.0  0.56556  0.60510  0.13761  1.0000
  C   C1322     1.0  0.64860  0.51778  0.09612  1.0000
  H   H2353     1.0  0.56056  0.58935  0.21007  1.0000
  S   S298      1.0  0.50331  0.60577  0.22538  1.0000
  H   H2354     1.0  0.55228  0.49994  0.00164  1.0000
  H   H2355     1.0  0.65694  0.58922  0.06200  1.0000
  Fe  Fe154     1.0  0.59826  0.52221  0.06199  1.0000
  S   S299      1.0  0.60529  0.54941  0.05166  1.0000
  C   C1323     1.0  0.58168  0.56809  0.10221  1.0000
  C   C1324     1.0  0.64502  0.56213  0.23648  1.0000
  S   S300      1.0  0.62242  0.50194  0.06453  1.0000
  S   S301      1.0  0.62142  0.52214  0.18146  1.0000
  H   H2356     1.0  0.56163  0.55103  0.11395  1.0000
  H   H2357     1.0  0.61957  0.52078  0.02634  1.0000
  H   H2358     1.0  0.61288  0.58618  0.08897  1.0000
  C   C1325     1.0  0.53328  0.58312  0.19593  1.0000
  H   H2359     1.0  0.60894  0.58553  0.04173  1.0000
  H   H2360     1.0  0.57846  0.60726  0.12942  1.0000
  C   C1326     1.0  0.62543  0.52710  0.01322  1.0000
  S   S302      1.0  0.62415  0.52492  0.23186  1.0000
  C   C1327     1.0  0.50010  0.63393  0.16109  1.0000
  S   S303      1.0  0.51714  0.64354  0.22695  1.0000
  H   H2361     1.0  0.64886  0.51088  0.10989  1.0000
  S   S304      1.0  0.50924  0.60554  0.08270  1.0000
  H   H2362     1.0  0.50698  0.54781  0.00418  1.0000
  H   H2363     1.0  0.63976  0.56598  0.12757  1.0000
  N   N74       1.0  0.55195  0.58357  0.18649  1.0000
  H   H2364     1.0  0.55869  0.59698  0.13091  1.0000
  H   H2365     1.0  0.61540  0.56821  0.07676  1.0000
  H   H2366     1.0  0.57557  0.59348  0.19062  1.0000
  H   H2367     1.0  0.50318  0.56895  0.21436  1.0000
  H   H2368     1.0  0.66036  0.52489  0.09203  1.0000
  H   H2369     1.0  0.55040  0.55439  0.21393  1.0000
  H   H2370     1.0  0.54563  0.58495  0.02030  1.0000
  H   H2371     1.0  0.63155  0.53732  0.08096  1.0000
  H   H2372     1.0  0.55884  0.63887  0.20242  1.0000
  H   H2373     1.0  0.56769  0.55154  0.09029  1.0000
  S   S305      1.0  0.58391  0.51315  0.08887  1.0000
  H   H2374     1.0  0.57861  0.57593  0.01419  1.0000
  C   C1328     1.0  0.56541  0.62500  0.20184  1.0000
  C   C1329     1.0  0.60837  0.50842  0.13668  1.0000
  H   H2375     1.0  0.52958  0.66754  0.02548  1.0000
  C   C1330     1.0  0.51087  0.62907  0.14556  1.0000
  H   H2376     1.0  0.52881  0.55591  0.19407  1.0000
  H   H2377     1.0  0.65289  0.57267  0.22948  1.0000
  C   C1331     1.0  0.62010  0.57254  0.08810  1.0000
  H   H2378     1.0  0.64679  0.57675  0.09263  1.0000
  H   H2379     1.0  0.57097  0.52165  0.01230  1.0000
  H   H2380     1.0  0.61981  0.57334  0.15473  1.0000
  C   C1332     1.0  0.60877  0.51720  0.15134  1.0000
  H   H2381     1.0  0.52539  0.59648  0.19361  1.0000
  H   H2382     1.0  0.57816  0.62526  0.19280  1.0000
  H   H2383     1.0  0.64249  0.54847  0.10778  1.0000
  H   H2384     1.0  0.60024  0.52960  0.15289  1.0000
  H   H2385     1.0  0.59095  0.53888  0.02006  1.0000
  C   C1333     1.0  0.56457  0.59929  0.04888  1.0000
  C   C1334     1.0  0.58272  0.60016  0.04438  1.0000
  C   C1335     1.0  0.59491  0.58467  0.04522  1.0000
  C   C1336     1.0  0.58909  0.56814  0.05051  1.0000
  C   C1337     1.0  0.57088  0.56706  0.05472  1.0000
  C   C1338     1.0  0.55856  0.58273  0.05406  1.0000
  H   H2386     1.0  0.56632  0.55425  0.05854  1.0000
  H   H2387     1.0  0.54449  0.58203  0.05745  1.0000
  C   C1339     1.0  0.56228  0.56518  0.18691  1.0000
  H   H2388     1.0  0.61261  0.59515  0.14335  1.0000
  H   H2389     1.0  0.63538  0.58894  0.14719  1.0000
  H   H2390     1.0  0.50193  0.52444  0.12236  1.0000
  C   C1340     1.0  0.61219  0.52983  0.99995  1.0000
  C   C1341     1.0  0.52271  0.56980  0.19043  1.0000
  C   C1342     1.0  0.59816  0.55374  0.10410  1.0000
  C   C1343     1.0  0.51493  0.68521  0.99536  1.0000
  S   S306      1.0  0.50288  0.64405  0.05645  1.0000
  H   H2391     1.0  0.58401  0.57763  0.08994  1.0000
  H   H2392     1.0  0.59958  0.54649  0.09245  1.0000
  H   H2393     1.0  0.50695  0.58357  0.12171  1.0000
  C   C1344     1.0  0.62369  0.58399  0.14393  1.0000
  C   C1345     1.0  0.50542  0.56710  0.02242  1.0000
  H   H2394     1.0  0.57496  0.60492  0.16221  1.0000
  H   H2395     1.0  0.63617  0.60172  0.07005  1.0000
  C   C1346     1.0  0.62848  0.57675  0.12614  1.0000
  H   H2396     1.0  0.51717  0.50040  0.22177  1.0000
  H   H2397     1.0  0.56037  0.55241  0.01709  1.0000
  H   H2398     1.0  0.57833  0.57549  0.11375  1.0000
  H   H2399     1.0  0.51813  0.55834  0.04605  1.0000
  H   H2400     1.0  0.62631  0.53717  0.12160  1.0000
  C   C1347     1.0  0.57027  0.57644  0.00360  1.0000
  H   H2401     1.0  0.55735  0.61827  0.13849  1.0000
  H   H2402     1.0  0.50546  0.62930  0.99891  1.0000
  H   H2403     1.0  0.54104  0.60366  0.16657  1.0000
  Fe  Fe155     1.0  0.51886  0.61620  0.24251  1.0000
  S   S307      1.0  0.58545  0.50642  0.04687  1.0000
  C   C1348     1.0  0.61224  0.57025  0.12101  1.0000
  H   H2404     1.0  0.62030  0.52274  0.09807  1.0000
  C   C1349     1.0  0.55328  0.61451  0.19505  1.0000
  Fe  Fe156     1.0  0.64283  0.50231  0.24456  1.0000
  C   C1350     1.0  0.56526  0.55965  0.10133  1.0000
  H   H2405     1.0  0.57813  0.58355  0.15459  1.0000
  C   C1351     1.0  0.51341  0.55235  0.03576  1.0000
  H   H2406     1.0  0.52220  0.57215  0.17595  1.0000
  H   H2407     1.0  0.54583  0.58222  0.16034  1.0000
  H   H2408     1.0  0.54020  0.61588  0.20357  1.0000
  C   C1352     1.0  0.56354  0.55459  0.20565  1.0000
  H   H2409     1.0  0.55141  0.62091  0.18145  1.0000
  H   H2410     1.0  0.56817  0.61906  0.21537  1.0000
  H   H2411     1.0  0.59938  0.51384  0.12718  1.0000
  H   H2412     1.0  0.53313  0.58036  0.21058  1.0000
  C   C1353     1.0  0.55095  0.59143  0.16740  1.0000
  H   H2413     1.0  0.57214  0.56057  0.21261  1.0000
  C   C1354     1.0  0.63146  0.53072  0.09485  1.0000
  H   H2414     1.0  0.58737  0.61290  0.04026  1.0000
  C   C1355     1.0  0.56114  0.59460  0.19572  1.0000
  H   H2415     1.0  0.55679  0.55714  0.17886  1.0000
  H   H2416     1.0  0.59479  0.54403  0.11603  1.0000
  H   H2417     1.0  0.58539  0.53474  0.19710  1.0000
  H   H2418     1.0  0.63275  0.58777  0.11609  1.0000
  H   H2419     1.0  0.60632  0.56175  0.13289  1.0000
  C   C1356     1.0  0.55367  0.58976  0.00767  1.0000
  Fe  Fe157     1.0  0.62487  0.50871  0.20968  1.0000
  C   C1357     1.0  0.50355  0.57160  0.19972  1.0000
  H   H2420     1.0  0.54543  0.59200  0.99675  1.0000
  C   C1358     1.0  0.64256  0.58861  0.06627  1.0000
  C   C1359     1.0  0.64008  0.57396  0.08195  1.0000
  H   H2421     1.0  0.51600  0.57521  0.01641  1.0000
  H   H2422     1.0  0.57622  0.56582  0.18052  1.0000
  C   C1360     1.0  0.56866  0.59585  0.15613  1.0000
  H   H2423     1.0  0.60253  0.58243  0.11897  1.0000
  H   H2424     1.0  0.65270  0.54904  0.23402  1.0000
  H   H2425     1.0  0.60899  0.51658  0.99897  1.0000
  C   C1361     1.0  0.57178  0.53535  0.20454  1.0000
  S   S308      1.0  0.50528  0.60607  0.04040  1.0000
  S   S309      1.0  0.51013  0.63254  0.18066  1.0000
  N   N75       1.0  0.61536  0.56041  0.10506  1.0000
  H   H2426     1.0  0.52486  0.54403  0.02907  1.0000
  H   H2427     1.0  0.55391  0.57020  0.09902  1.0000
  H   H2428     1.0  0.56354  0.52856  0.19793  1.0000
  H   H2429     1.0  0.52476  0.62427  0.14593  1.0000
  H   H2430     1.0  0.64709  0.56135  0.07749  1.0000
  H   H2431     1.0  0.51257  0.62740  0.11753  1.0000
  C   C1362     1.0  0.62928  0.54445  0.10804  1.0000
  C   C1363     1.0  0.62011  0.50998  0.16407  1.0000
  H   H2432     1.0  0.54735  0.50581  0.22229  1.0000
  H   H2433     1.0  0.63674  0.58584  0.05488  1.0000
  H   H2434     1.0  0.63232  0.56388  0.23092  1.0000
  C   C1364     1.0  0.54705  0.79281  0.23936  1.0000
  Fe  Fe158     1.0  0.50025  0.63332  0.21043  1.0000
  H   H2435     1.0  0.55761  0.60266  0.00911  1.0000
  H   H2436     1.0  0.63749  0.51818  0.00850  1.0000
  H   H2437     1.0  0.64941  0.50758  0.08722  1.0000
  H   H2438     1.0  0.50334  0.54381  0.04250  1.0000
  H   H2439     1.0  0.55390  0.55984  0.99567  1.0000
  C   C1365     1.0  0.59545  0.54278  0.00568  1.0000
  C   C1366     1.0  0.50399  0.63087  0.12939  1.0000
  H   H2440     1.0  0.53822  0.49753  0.24440  1.0000
  H   H2441     1.0  0.56121  0.79101  0.23335  1.0000
  H   H2442     1.0  0.54541  0.66354  0.00593  1.0000
  H   H2443     1.0  0.53417  0.64585  0.01854  1.0000
  H   H2444     1.0  0.62938  0.53996  0.01478  1.0000
  H   H2445     1.0  0.60032  0.55576  0.00478  1.0000
  C   C1367     1.0  0.51763  0.66504  0.00232  1.0000
  H   H2446     1.0  0.51159  0.69247  0.00715  1.0000
  H   H2447     1.0  0.50556  0.66089  0.01078  1.0000
  H   H2448     1.0  0.54414  0.53267  0.99995  1.0000
  N   N76       1.0  0.58009  0.54451  0.99527  1.0000
  C   C1368     1.0  0.49758  0.55944  0.00844  1.0000
  C   C1369     1.0  0.56542  0.55772  0.00317  1.0000
  C   C1370     1.0  0.57316  0.52689  0.99791  1.0000
  H   H2449     1.0  0.54320  0.80690  0.24159  1.0000
  C   C1371     1.0  0.53264  0.66032  0.01373  1.0000
  H   H2450     1.0  0.58859  0.49604  0.18071  1.0000
  H   H2451     1.0  0.59324  0.55260  0.24486  1.0000
  C   C1372     1.0  0.80198  0.54837  0.37555  1.0000
  Fe  Fe159     1.0  0.52435  0.90831  0.37883  1.0000
  S   S310      1.0  0.55278  0.90848  0.38158  1.0000
  S   S311      1.0  0.51153  0.91849  0.35425  1.0000
  Fe  Fe160     1.0  0.57618  0.93002  0.46336  1.0000
  S   S312      1.0  0.59909  0.92722  0.44175  1.0000
  S   S313      1.0  0.54858  0.93019  0.45781  1.0000
  H   H2452     1.0  0.78643  0.65953  0.45278  1.0000
  S   S314      1.0  0.62456  0.92802  0.47074  1.0000
  H   H2453     1.0  0.71164  0.51636  0.47536  1.0000
  Fe  Fe161     1.0  0.60860  0.94854  0.45318  1.0000
  S   S315      1.0  0.61826  0.97198  0.43450  1.0000
  Fe  Fe162     1.0  0.61215  0.90691  0.46168  1.0000
  S   S316      1.0  0.62598  0.88051  0.45269  1.0000
  S   S317      1.0  0.58466  0.95256  0.47347  1.0000
  H   H2454     1.0  0.80352  0.67146  0.40418  1.0000
  H   H2455     1.0  0.49708  0.65479  0.34324  1.0000
  S   S318      1.0  0.92166  0.62824  0.47156  1.0000
  H   H2456     1.0  0.81178  0.50316  0.36264  1.0000
  Fe  Fe163     1.0  0.94381  0.59290  0.44168  1.0000
  S   S319      1.0  0.93343  0.62053  0.43061  1.0000
  S   S320      1.0  0.95680  0.57232  0.42449  1.0000
  Fe  Fe164     1.0  0.94658  0.62855  0.45156  1.0000
  S   S321      1.0  0.96326  0.65099  0.44721  1.0000
  Fe  Fe165     1.0  0.90946  0.61729  0.45149  1.0000
  S   S322      1.0  0.88212  0.62263  0.44191  1.0000
  S   S323      1.0  0.95859  0.60108  0.46101  1.0000
  S   S324      1.0  0.91938  0.58892  0.46101  1.0000
  Fe  Fe166     1.0  0.90917  0.53238  0.37269  1.0000
  S   S325      1.0  0.91766  0.52275  0.34619  1.0000
  S   S326      1.0  0.90141  0.56069  0.37735  1.0000
  H   H2457     1.0  0.54897  0.76669  0.25382  1.0000
  H   H2458     1.0  0.61202  0.68618  0.42278  1.0000
  H   H2459     1.0  0.99078  0.51864  0.45955  1.0000
  H   H2460     1.0  0.64724  0.70729  0.33601  1.0000
  S   S327      1.0  0.93039  0.51465  0.38631  1.0000
  S   S328      1.0  0.88861  0.51431  0.38221  1.0000
  H   H2461     1.0  0.60169  0.69767  0.44125  1.0000
  S   S329      1.0  0.52870  0.72655  0.39623  1.0000
  S   S330      1.0  0.52470  0.74552  0.34646  1.0000
  Fe  Fe167     1.0  0.74009  0.51998  0.37269  1.0000
  S   S331      1.0  0.74390  0.53058  0.34355  1.0000
  S   S332      1.0  0.72988  0.53386  0.39710  1.0000
  H   H2462     1.0  0.81893  0.52470  0.38616  1.0000
  H   H2463     1.0  0.52967  0.78734  0.29725  1.0000
  Fe  Fe168     1.0  0.77078  0.51341  0.34345  1.0000
  S   S333      1.0  0.79686  0.52384  0.33121  1.0000
  H   H2464     1.0  0.53701  0.72812  0.25222  1.0000
  H   H2465     1.0  0.78141  0.56168  0.35108  1.0000
  Fe  Fe169     1.0  0.77567  0.62110  0.46637  1.0000
  S   S334      1.0  0.76539  0.63613  0.44179  1.0000
  S   S335      1.0  0.80098  0.62495  0.47661  1.0000
  Fe  Fe170     1.0  0.74184  0.60347  0.47758  1.0000
  S   S336      1.0  0.72928  0.61721  0.45364  1.0000
  H   H2466     1.0  0.69893  0.51236  0.41539  1.0000
  Fe  Fe171     1.0  0.75656  0.61028  0.43884  1.0000
  S   S337      1.0  0.76290  0.59982  0.41220  1.0000
  Fe  Fe172     1.0  0.73884  0.64190  0.45867  1.0000
  S   S338      1.0  0.72464  0.67050  0.46030  1.0000
  S   S339      1.0  0.76849  0.59494  0.46242  1.0000
  S   S340      1.0  0.74970  0.62839  0.48363  1.0000
  Fe  Fe173     1.0  0.61329  0.77502  0.47322  1.0000
  S   S341      1.0  0.62193  0.76678  0.44586  1.0000
  S   S342      1.0  0.61317  0.80082  0.48473  1.0000
  Fe  Fe174     1.0  0.59356  0.74285  0.48619  1.0000
  S   S343      1.0  0.60040  0.73267  0.45995  1.0000
  H   H2467     1.0  0.84572  0.65890  0.44122  1.0000
  Fe  Fe175     1.0  0.62813  0.73869  0.46007  1.0000
  S   S344      1.0  0.64814  0.71546  0.44988  1.0000
  Fe  Fe176     1.0  0.59392  0.76081  0.44784  1.0000
  S   S345      1.0  0.57607  0.77192  0.42675  1.0000
  C   C1373     1.0  0.51187  0.84692  0.35013  1.0000
  S   S346      1.0  0.58510  0.77051  0.47408  1.0000
  C   C1374     1.0  0.70318  0.68259  0.45744  1.0000
  C   C1375     1.0  0.69830  0.69922  0.46362  1.0000
  C   C1376     1.0  0.68146  0.70927  0.46184  1.0000
  C   C1377     1.0  0.66931  0.70303  0.45346  1.0000
  C   C1378     1.0  0.67423  0.68642  0.44724  1.0000
  C   C1379     1.0  0.69093  0.67622  0.44931  1.0000
  C   C1380     1.0  0.64152  0.56343  0.25634  1.0000
  H   H2468     1.0  0.67802  0.72202  0.46662  1.0000
  N   N77       1.0  0.99531  0.50862  0.48660  1.0000
  H   H2469     1.0  0.69445  0.66358  0.44432  1.0000
  H   H2470     1.0  0.63079  0.69203  0.49356  1.0000
  H   H2471     1.0  0.57195  0.98414  0.44605  1.0000
  H   H2472     1.0  0.53902  0.74731  0.27499  1.0000
  H   H2473     1.0  0.79220  0.71141  0.44546  1.0000
  H   H2474     1.0  0.71755  0.49656  0.40815  1.0000
  C   C1381     1.0  0.59618  0.73284  0.37977  1.0000
  C   C1382     1.0  0.73958  0.55191  0.40119  1.0000
  C   C1383     1.0  0.73592  0.55732  0.41813  1.0000
  C   C1384     1.0  0.74297  0.57195  0.42173  1.0000
  C   C1385     1.0  0.75369  0.58137  0.40833  1.0000
  C   C1386     1.0  0.75732  0.57597  0.39139  1.0000
  C   C1387     1.0  0.75045  0.56120  0.38785  1.0000
  H   H2475     1.0  0.72748  0.55026  0.42846  1.0000
  H   H2476     1.0  0.73994  0.57611  0.43477  1.0000
  H   H2477     1.0  0.76526  0.58342  0.38088  1.0000
  H   H2478     1.0  0.75317  0.55730  0.37469  1.0000
  C   C1388     1.0  0.54172  0.73939  0.40462  1.0000
  C   C1389     1.0  0.54149  0.75756  0.39881  1.0000
  C   C1390     1.0  0.55207  0.76737  0.40572  1.0000
  C   C1391     1.0  0.56291  0.75913  0.41852  1.0000
  C   C1392     1.0  0.56317  0.74098  0.42430  1.0000
  C   C1393     1.0  0.55260  0.73116  0.41740  1.0000
  H   H2479     1.0  0.53322  0.76406  0.38892  1.0000
  H   H2480     1.0  0.55184  0.78140  0.40109  1.0000
  H   H2481     1.0  0.57151  0.73451  0.43410  1.0000
  H   H2482     1.0  0.55286  0.71710  0.42197  1.0000
  H   H2483     1.0  0.51547  0.66718  0.27910  1.0000
  C   C1394     1.0  0.80584  0.70926  0.43824  1.0000
  H   H2484     1.0  0.59794  0.99431  0.46135  1.0000
  H   H2485     1.0  0.80601  0.57003  0.40202  1.0000
  C   C1395     1.0  0.51504  0.74568  0.26459  1.0000
  C   C1396     1.0  0.50313  0.70316  0.30201  1.0000
  H   H2486     1.0  0.57746  0.96278  0.39297  1.0000
  H   H2487     1.0  0.65391  0.66948  0.48227  1.0000
  H   H2488     1.0  0.54838  0.86791  0.38345  1.0000
  H   H2489     1.0  0.55339  0.78385  0.26550  1.0000
  H   H2490     1.0  0.54842  0.84629  0.39678  1.0000
  C   C1397     1.0  0.81149  0.57819  0.37344  1.0000
  H   H2491     1.0  0.52766  0.75638  0.44923  1.0000
  H   H2492     1.0  0.99658  0.59726  0.46692  1.0000
  H   H2493     1.0  0.52761  0.67315  0.36693  1.0000
  C   C1398     1.0  0.55625  0.85466  0.38632  1.0000
  H   H2494     1.0  0.89577  0.53650  0.41150  1.0000
  C   C1399     1.0  0.52509  0.78300  0.26588  1.0000
  C   C1400     1.0  0.98616  0.64946  0.44906  1.0000
  C   C1401     1.0  0.80492  0.64314  0.40705  1.0000
  H   H2495     1.0  0.82948  0.56962  0.39380  1.0000
  C   C1402     1.0  0.54459  0.78042  0.25688  1.0000
  H   H2496     1.0  0.52519  0.68202  0.30159  1.0000
  H   H2497     1.0  0.70405  0.62132  0.48730  1.0000
  H   H2498     1.0  0.54889  0.77012  0.32522  1.0000
  H   H2499     1.0  0.56868  0.75655  0.34964  1.0000
  H   H2500     1.0  0.86904  0.55002  0.36763  1.0000
  H   H2501     1.0  0.98275  0.67651  0.45423  1.0000
  C   C1403     1.0  0.94189  0.57061  0.41016  1.0000
  C   C1404     1.0  0.92444  0.57922  0.41273  1.0000
  C   C1405     1.0  0.91215  0.57684  0.40206  1.0000
  C   C1406     1.0  0.91730  0.56578  0.38887  1.0000
  C   C1407     1.0  0.93492  0.55773  0.38585  1.0000
  C   C1408     1.0  0.94722  0.56012  0.39649  1.0000
  H   H2502     1.0  0.92027  0.58760  0.42304  1.0000
  H   H2503     1.0  0.89857  0.58324  0.40430  1.0000
  H   H2504     1.0  0.93910  0.54973  0.37520  1.0000
  H   H2505     1.0  0.96078  0.55371  0.39423  1.0000
  C   C1409     1.0  0.86023  0.62059  0.45285  1.0000
  C   C1410     1.0  0.84774  0.61612  0.44342  1.0000
  C   C1411     1.0  0.82973  0.61632  0.45086  1.0000
  C   C1412     1.0  0.82388  0.62156  0.46764  1.0000
  C   C1413     1.0  0.83645  0.62557  0.47724  1.0000
  C   C1414     1.0  0.85449  0.62509  0.46992  1.0000
  H   H2506     1.0  0.85198  0.61281  0.43012  1.0000
  H   H2507     1.0  0.82028  0.61314  0.44330  1.0000
  H   H2508     1.0  0.81940  0.65934  0.46312  1.0000
  C   C1415     1.0  0.50134  0.89685  0.47934  1.0000
  C   C1416     1.0  0.67344  0.49725  0.29150  1.0000
  H   H2509     1.0  0.63446  0.57689  0.25804  1.0000
  H   H2510     1.0  0.62084  0.77899  0.40630  1.0000
  H   H2511     1.0  0.86988  0.55664  0.45346  1.0000
  N   N78       1.0  0.61397  0.73303  0.38549  1.0000
  H   H2512     1.0  0.74085  0.50273  0.44663  1.0000
  C   C1417     1.0  0.70594  0.51473  0.44837  1.0000
  C   C1418     1.0  0.68426  0.61172  0.47633  1.0000
  C   C1419     1.0  0.62188  0.85850  0.46167  1.0000
  C   C1420     1.0  0.60986  0.85490  0.47700  1.0000
  C   C1421     1.0  0.60714  0.83723  0.48367  1.0000
  C   C1422     1.0  0.61616  0.82292  0.47498  1.0000
  C   C1423     1.0  0.62813  0.82653  0.45963  1.0000
  C   C1424     1.0  0.63100  0.84418  0.45307  1.0000
  H   H2513     1.0  0.70181  0.55084  0.45075  1.0000
  H   H2514     1.0  0.68759  0.54078  0.46932  1.0000
  H   H2515     1.0  0.63561  0.81566  0.45313  1.0000
  H   H2516     1.0  0.64051  0.84674  0.44134  1.0000
  C   C1425     1.0  0.55199  0.91446  0.40270  1.0000
  C   C1426     1.0  0.53965  0.90809  0.41665  1.0000
  C   C1427     1.0  0.53850  0.91324  0.43344  1.0000
  C   C1428     1.0  0.54968  0.92468  0.43642  1.0000
  C   C1429     1.0  0.56204  0.93107  0.42247  1.0000
  C   C1430     1.0  0.56335  0.92580  0.40565  1.0000
  H   H2517     1.0  0.53103  0.89908  0.41452  1.0000
  H   H2518     1.0  0.52915  0.90814  0.44419  1.0000
  H   H2519     1.0  0.57032  0.94040  0.42448  1.0000
  H   H2520     1.0  0.57284  0.93080  0.39484  1.0000
  H   H2521     1.0  0.63888  0.53594  0.26421  1.0000
  C   C1431     1.0  0.65688  0.54005  0.32268  1.0000
  H   H2522     1.0  0.50258  0.97879  0.42072  1.0000
  H   H2523     1.0  0.61255  0.76979  0.37137  1.0000
  H   H2524     1.0  0.62258  0.74582  0.40528  1.0000
  H   H2525     1.0  0.55644  0.76203  0.28673  1.0000
  H   H2526     1.0  0.60034  0.78562  0.39687  1.0000
  H   H2527     1.0  0.79888  0.51684  0.41366  1.0000
  H   H2528     1.0  0.95363  0.50854  0.43299  1.0000
  H   H2529     1.0  0.76140  0.68369  0.48950  1.0000
  H   H2530     1.0  0.58940  0.56350  0.28219  1.0000
  H   H2531     1.0  0.63061  0.53489  0.32167  1.0000
  H   H2532     1.0  0.59739  0.60145  0.28181  1.0000
  H   H2533     1.0  0.78479  0.58431  0.35080  1.0000
  C   C1432     1.0  0.57918  0.55695  0.24760  1.0000
  H   H2534     1.0  0.51303  0.84707  0.43813  1.0000
  C   C1433     1.0  0.82256  0.50718  0.35280  1.0000
  H   H2535     1.0  0.66552  0.63977  0.48907  1.0000
  H   H2536     1.0  0.60303  0.53584  0.28520  1.0000
  C   C1434     1.0  0.75901  0.52053  0.48440  1.0000
  H   H2537     1.0  0.52068  0.76906  0.31041  1.0000
  H   H2538     1.0  0.59956  0.50408  0.29304  1.0000
  C   C1435     1.0  0.71259  0.52415  0.46196  1.0000
  S   S347      1.0  0.62141  0.74731  0.48742  1.0000
  Fe  Fe177     1.0  0.89799  0.50333  0.35671  1.0000
  C   C1436     1.0  0.70158  0.54230  0.46380  1.0000
  H   H2539     1.0  0.58604  0.98218  0.38076  1.0000
  H   H2540     1.0  0.81346  0.51208  0.29337  1.0000
  H   H2541     1.0  0.88994  0.51398  0.43558  1.0000
  C   C1437     1.0  0.88725  0.52752  0.43951  1.0000
  H   H2542     1.0  0.70792  0.52353  0.43548  1.0000
  C   C1438     1.0  0.93578  0.52878  0.44628  1.0000
  H   H2543     1.0  0.52853  0.57290  0.25725  1.0000
  C   C1439     1.0  0.52113  0.85248  0.46233  1.0000
  C   C1440     1.0  0.98649  0.52217  0.47320  1.0000
  H   H2544     1.0  0.93664  0.56236  0.48295  1.0000
  H   H2545     1.0  0.77302  0.52123  0.47832  1.0000
  H   H2546     1.0  0.51526  0.72318  0.25068  1.0000
  C   C1441     1.0  0.78980  0.57202  0.34476  1.0000
  H   H2547     1.0  0.65170  0.70044  0.49017  1.0000
  H   H2548     1.0  0.57731  0.59510  0.27708  1.0000
  H   H2549     1.0  0.62976  0.51255  0.28112  1.0000
  N   N79       1.0  0.80772  0.67497  0.44107  1.0000
  C   C1442     1.0  0.79365  0.52639  0.40273  1.0000
  C   C1443     1.0  0.78905  0.67359  0.45058  1.0000
  H   H2550     1.0  0.88783  0.51844  0.47391  1.0000
  H   H2551     1.0  0.52036  0.85574  0.35293  1.0000
  H   H2552     1.0  0.65463  0.53960  0.33733  1.0000
  H   H2553     1.0  0.76713  0.55301  0.46424  1.0000
  H   H2554     1.0  0.60291  0.86570  0.48388  1.0000
  Fe  Fe178     1.0  0.50270  0.73380  0.33817  1.0000
  H   H2555     1.0  0.56998  0.76179  0.31355  1.0000
  H   H2556     1.0  0.95333  0.53073  0.42110  1.0000
  H   H2557     1.0  0.51278  0.97032  0.35156  1.0000
  C   C1444     1.0  0.52459  0.75102  0.27880  1.0000
  H   H2558     1.0  0.68077  0.67612  0.48940  1.0000
  C   C1445     1.0  0.54841  0.97987  0.41338  1.0000
  H   H2559     1.0  0.77899  0.68094  0.44222  1.0000
  H   H2560     1.0  0.69162  0.49755  0.39253  1.0000
  C   C1446     1.0  0.55434  0.58100  0.24870  1.0000
  H   H2561     1.0  0.74506  0.56473  0.46840  1.0000
  Fe  Fe179     1.0  0.93799  0.50356  0.36059  1.0000
  H   H2562     1.0  0.79787  0.69453  0.42030  1.0000
  H   H2563     1.0  0.93632  0.52987  0.48806  1.0000
  H   H2564     1.0  0.60321  0.57562  0.26497  1.0000
  C   C1447     1.0  0.59885  0.57337  0.27947  1.0000
  C   C1448     1.0  0.98030  0.55382  0.45845  1.0000
  H   H2565     1.0  0.54983  0.97326  0.40130  1.0000
  H   H2566     1.0  0.78661  0.66250  0.42035  1.0000
  C   C1449     1.0  0.55698  0.77001  0.31195  1.0000
  H   H2567     1.0  0.54020  0.54075  0.26244  1.0000
  H   H2568     1.0  0.55412  0.79610  0.46084  1.0000
  H   H2569     1.0  0.69726  0.52442  0.26133  1.0000
  C   C1450     1.0  0.67969  0.64052  0.48973  1.0000
  C   C1451     1.0  0.63918  0.54505  0.31536  1.0000
  C   C1452     1.0  0.95283  0.52278  0.43444  1.0000
  H   H2570     1.0  0.82180  0.72455  0.41711  1.0000
  C   C1453     1.0  0.76443  0.67986  0.47593  1.0000
  Fe  Fe180     1.0  0.50622  0.77136  0.34669  1.0000
  H   H2571     1.0  0.69212  0.59828  0.47649  1.0000
  H   H2572     1.0  0.83209  0.62976  0.49018  1.0000
  N   N80       1.0  0.52392  0.75391  0.47802  1.0000
  C   C1454     1.0  0.80839  0.69239  0.42906  1.0000
  H   H2573     1.0  0.79103  0.50676  0.29895  1.0000
  H   H2574     1.0  0.52754  0.98935  0.48258  1.0000
  H   H2575     1.0  0.90789  0.55033  0.46357  1.0000
  H   H2576     1.0  0.68477  0.64805  0.47682  1.0000
  H   H2577     1.0  0.83023  0.53110  0.31206  1.0000
  H   H2578     1.0  0.71441  0.52218  0.28650  1.0000
  C   C1455     1.0  0.58614  0.97285  0.39327  1.0000
  C   C1456     1.0  0.86723  0.53960  0.41592  1.0000
  C   C1457     1.0  0.51768  0.99499  0.35869  1.0000
  H   H2579     1.0  0.79150  0.56394  0.31858  1.0000
  H   H2580     1.0  0.52261  0.79682  0.26913  1.0000
  H   H2581     1.0  0.52065  0.78953  0.48717  1.0000
  H   H2582     1.0  0.61881  0.54902  0.25997  1.0000
  C   C1458     1.0  0.50823  0.81783  0.34312  1.0000
  H   H2583     1.0  0.81563  0.70842  0.44750  1.0000
  H   H2584     1.0  0.97321  0.65647  0.48791  1.0000
  C   C1459     1.0  0.51178  0.87190  0.46255  1.0000
  C   C1460     1.0  0.50170  0.67358  0.35912  1.0000
  C   C1461     1.0  0.50872  0.75768  0.49251  1.0000
  H   H2585     1.0  0.52927  0.99603  0.34879  1.0000
  H   H2586     1.0  0.92088  0.51515  0.43197  1.0000
  C   C1462     1.0  0.90715  0.49767  0.46413  1.0000
  Fe  Fe181     1.0  0.73310  0.50609  0.33878  1.0000
  H   H2587     1.0  0.87537  0.54624  0.47488  1.0000
  H   H2588     1.0  0.97187  0.52214  0.47557  1.0000
  H   H2589     1.0  0.52127  0.74207  0.29135  1.0000
  S   S348      1.0  0.71045  0.50274  0.32303  1.0000
  N   N81       1.0  0.62540  0.54930  0.28618  1.0000
  C   C1463     1.0  0.61384  0.53499  0.29345  1.0000
  H   H2590     1.0  0.54244  0.72912  0.45529  1.0000
  C   C1464     1.0  0.64204  0.54640  0.29483  1.0000
  H   H2591     1.0  0.54527  0.76309  0.48786  1.0000
  H   H2592     1.0  0.66331  0.52675  0.31951  1.0000
  H   H2593     1.0  0.54750  0.76479  0.46455  1.0000
  Fe  Fe182     1.0  0.93317  0.59989  0.47941  1.0000
  H   H2594     1.0  0.51957  0.96252  0.42977  1.0000
  H   H2595     1.0  0.50087  0.74484  0.26990  1.0000
  S   S349      1.0  0.57555  0.52176  0.25925  1.0000
  H   H2596     1.0  0.56553  0.70431  0.46293  1.0000
  C   C1465     1.0  0.49808  0.74682  0.44037  1.0000
  C   C1466     1.0  0.51897  0.82939  0.34717  1.0000
  H   H2597     1.0  0.65096  0.53438  0.29082  1.0000
  H   H2598     1.0  0.64992  0.55752  0.29001  1.0000
  C   C1467     1.0  0.51898  0.97899  0.48785  1.0000
  H   H2599     1.0  0.63292  0.55801  0.31956  1.0000
  H   H2600     1.0  0.51570  0.75533  0.25230  1.0000
  H   H2601     1.0  0.78748  0.51904  0.39462  1.0000
  C   C1468     1.0  0.98929  0.54169  0.47302  1.0000
  H   H2602     1.0  0.81905  0.64088  0.40102  1.0000
  C   C1469     1.0  0.50838  0.98034  0.36029  1.0000
  C   C1470     1.0  0.98928  0.62109  0.49266  1.0000
  C   C1471     1.0  0.52992  0.78652  0.47512  1.0000
  C   C1472     1.0  0.50453  0.74282  0.45853  1.0000
  H   H2603     1.0  0.62041  0.79369  0.38567  1.0000
  H   H2604     1.0  0.62741  0.74485  0.36042  1.0000
  H   H2605     1.0  0.61754  0.70434  0.39246  1.0000
  H   H2606     1.0  0.98257  0.50877  0.41052  1.0000
  H   H2607     1.0  0.84866  0.68613  0.46535  1.0000
  S   S350      1.0  0.72749  0.49684  0.36834  1.0000
  C   C1473     1.0  0.51677  0.97303  0.41852  1.0000
  H   H2608     1.0  0.60525  0.84660  0.40607  1.0000
  N   N82       1.0  0.56154  0.99293  0.41096  1.0000
  H   H2609     1.0  0.96578  0.55329  0.46066  1.0000
  C   C1474     1.0  0.68949  0.62123  0.49026  1.0000
  C   C1475     1.0  0.85063  0.51723  0.32723  1.0000
  H   H2610     1.0  0.61822  0.81850  0.42857  1.0000
  C   C1476     1.0  0.81528  0.59522  0.39787  1.0000
  C   C1477     1.0  0.78425  0.67950  0.46932  1.0000
  H   H2611     1.0  0.72655  0.52636  0.45757  1.0000
  H   H2612     1.0  0.58083  0.86513  0.38106  1.0000
  C   C1478     1.0  0.61493  0.78203  0.39376  1.0000
  H   H2613     1.0  0.49718  0.80315  0.28495  1.0000
  H   H2614     1.0  0.98155  0.61592  0.48411  1.0000
  H   H2615     1.0  0.79882  0.53962  0.36657  1.0000
  C   C1479     1.0  0.61585  0.99487  0.43679  1.0000
  H   H2616     1.0  0.70761  0.70438  0.46989  1.0000
  C   C1480     1.0  0.56756  0.54450  0.25410  1.0000
  C   C1481     1.0  0.81277  0.66021  0.42966  1.0000
  H   H2617     1.0  0.60011  0.75246  0.40223  1.0000
  H   H2618     1.0  0.60366  0.72661  0.42290  1.0000
  H   H2619     1.0  0.84541  0.56638  0.33910  1.0000
  H   H2620     1.0  0.99106  0.56612  0.38335  1.0000
  C   C1482     1.0  0.58867  0.59089  0.28476  1.0000
  H   H2621     1.0  0.58549  0.73355  0.39128  1.0000
  H   H2622     1.0  0.51511  0.89996  0.47862  1.0000
  H   H2623     1.0  0.56293  0.89205  0.46202  1.0000
  C   C1483     1.0  0.84042  0.50149  0.35571  1.0000
  H   H2624     1.0  0.81270  0.64720  0.43825  1.0000
  H   H2625     1.0  0.86426  0.57826  0.47435  1.0000
  H   H2626     1.0  0.82650  0.66026  0.42254  1.0000
  H   H2627     1.0  0.58640  0.76070  0.37168  1.0000
  H   H2628     1.0  0.77280  0.58027  0.32423  1.0000
  H   H2629     1.0  0.85602  0.54497  0.42542  1.0000
  H   H2630     1.0  0.51908  0.96692  0.40605  1.0000
  C   C1484     1.0  0.80817  0.72572  0.42459  1.0000
  H   H2631     1.0  0.59153  0.71310  0.41353  1.0000
  C   C1485     1.0  0.69319  0.51647  0.27375  1.0000
  H   H2632     1.0  0.53249  0.85803  0.43446  1.0000
  C   C1486     1.0  0.61356  0.74900  0.39490  1.0000
  C   C1487     1.0  0.60488  0.71478  0.41606  1.0000
  C   C1488     1.0  0.61920  0.76618  0.38339  1.0000
  C   C1489     1.0  0.61120  0.69853  0.42878  1.0000
  H   H2633     1.0  0.54619  0.74831  0.30515  1.0000
  H   H2634     1.0  0.82546  0.60255  0.38920  1.0000
  C   C1490     1.0  0.51668  0.75641  0.46058  1.0000
  H   H2635     1.0  0.65863  0.71910  0.34806  1.0000
  H   H2636     1.0  0.98339  0.54650  0.48579  1.0000
  C   C1491     1.0  0.80092  0.66052  0.41509  1.0000
  H   H2637     1.0  0.52281  0.79071  0.46342  1.0000
  H   H2638     1.0  0.59000  0.99147  0.41038  1.0000
  C   C1492     1.0  0.56382  0.87736  0.46426  1.0000
  H   H2639     1.0  0.57541  0.87176  0.47119  1.0000
  C   C1493     1.0  0.90140  0.51757  0.46630  1.0000
  H   H2640     1.0  0.63378  0.76425  0.37912  1.0000
  H   H2641     1.0  0.57686  0.73314  0.35123  1.0000
  H   H2642     1.0  0.62442  0.69957  0.43217  1.0000
  H   H2643     1.0  0.55126  0.96895  0.42428  1.0000
  H   H2644     1.0  0.81492  0.54183  0.40006  1.0000
  H   H2645     1.0  0.55167  0.87373  0.47295  1.0000
  C   C1494     1.0  0.54468  0.79805  0.47312  1.0000
  C   C1495     1.0  0.61786  0.71647  0.39846  1.0000
  H   H2646     1.0  0.63152  0.71549  0.40196  1.0000
  H   H2647     1.0  0.80193  0.60301  0.39698  1.0000
  C   C1496     1.0  0.64576  0.71879  0.34345  1.0000
  H   H2648     1.0  0.59253  0.83719  0.44572  1.0000
  H   H2649     1.0  0.86663  0.54780  0.40274  1.0000
  H   H2650     1.0  0.60232  0.81393  0.41566  1.0000
  C   C1497     1.0  0.50761  0.67911  0.28335  1.0000
  C   C1498     1.0  0.84743  0.56335  0.35324  1.0000
  H   H2651     1.0  0.59328  0.87390  0.44123  1.0000
  H   H2652     1.0  0.60742  0.89488  0.42086  1.0000
  H   H2653     1.0  0.62421  0.89647  0.38183  1.0000
  H   H2654     1.0  0.82107  0.69206  0.41979  1.0000
  N   N83       1.0  0.90164  0.53052  0.44938  1.0000
  H   H2655     1.0  0.63025  0.90720  0.39873  1.0000
  H   H2656     1.0  0.79466  0.58681  0.31825  1.0000
  C   C1499     1.0  0.87952  0.55551  0.46296  1.0000
  H   H2657     1.0  0.56644  0.85547  0.44952  1.0000
  C   C1500     1.0  0.70302  0.51521  0.28810  1.0000
  H   H2658     1.0  0.91948  0.53825  0.42569  1.0000
  C   C1501     1.0  0.57363  0.74474  0.35867  1.0000
  H   H2659     1.0  0.59568  0.71998  0.37514  1.0000
  H   H2660     1.0  0.84711  0.57595  0.35862  1.0000
  C   C1502     1.0  0.88492  0.54036  0.42212  1.0000
  C   C1503     1.0  0.52894  0.77295  0.29754  1.0000
  H   H2661     1.0  0.60969  0.56656  0.30411  1.0000
  H   H2662     1.0  0.84289  0.68273  0.43577  1.0000
  H   H2663     1.0  0.62273  0.87755  0.41142  1.0000
  H   H2664     1.0  0.70709  0.54911  0.47293  1.0000
  H   H2665     1.0  0.50290  0.87479  0.45210  1.0000
  C   C1504     1.0  0.59008  0.74822  0.36563  1.0000
  H   H2666     1.0  0.78332  0.53646  0.40858  1.0000
  H   H2667     1.0  0.51013  0.92953  0.46032  1.0000
  C   C1505     1.0  0.58176  0.87608  0.43372  1.0000
  C   C1506     1.0  0.61172  0.88835  0.40876  1.0000
  C   C1507     1.0  0.56558  0.87007  0.44664  1.0000
  H   H2668     1.0  0.61141  0.85348  0.42458  1.0000
  H   H2669     1.0  0.60570  0.95302  0.40552  1.0000
  H   H2670     1.0  0.58116  0.97232  0.42151  1.0000
  C   C1508     1.0  0.62886  0.73264  0.37012  1.0000
  H   H2671     1.0  0.64173  0.73250  0.37505  1.0000
  H   H2672     1.0  0.56284  0.74214  0.36975  1.0000
  H   H2673     1.0  0.88529  0.55436  0.42355  1.0000
  H   H2674     1.0  0.52251  0.88027  0.45759  1.0000
  C   C1509     1.0  0.70402  0.49805  0.41577  1.0000
  H   H2675     1.0  0.60044  0.75013  0.35403  1.0000
  C   C1510     1.0  0.73370  0.49674  0.43820  1.0000
  C   C1511     1.0  0.61913  0.90228  0.39429  1.0000
  H   H2676     1.0  0.57834  0.89078  0.43075  1.0000
  H   H2677     1.0  0.59995  0.80696  0.43926  1.0000
  H   H2678     1.0  0.86619  0.67087  0.45525  1.0000
  H   H2679     1.0  0.88199  0.58366  0.45710  1.0000
  H   H2680     1.0  0.95731  0.64210  0.48613  1.0000
  C   C1512     1.0  0.51309  0.68761  0.29615  1.0000
  H   H2681     1.0  0.81756  0.68237  0.46337  1.0000
  S   S351      1.0  0.51058  0.88417  0.38653  1.0000
  H   H2682     1.0  0.97143  0.52705  0.36502  1.0000
  H   H2683     1.0  0.53397  0.83476  0.44324  1.0000
  Fe  Fe183     1.0  0.51206  0.73921  0.37453  1.0000
  H   H2684     1.0  0.81899  0.58823  0.36473  1.0000
  H   H2685     1.0  0.63371  0.51307  0.30329  1.0000
  H   H2686     1.0  0.64246  0.73112  0.33428  1.0000
  H   H2687     1.0  0.88686  0.57335  0.47895  1.0000
  H   H2688     1.0  0.86132  0.52064  0.31693  1.0000
  H   H2689     1.0  0.98239  0.56772  0.45847  1.0000
  C   C1513     1.0  0.82072  0.67213  0.45431  1.0000
  H   H2690     1.0  0.55326  0.87537  0.44076  1.0000
  H   H2691     1.0  0.60870  0.91375  0.39166  1.0000
  C   C1514     1.0  0.61497  0.56699  0.28975  1.0000
  H   H2692     1.0  0.63484  0.70406  0.36742  1.0000
  C   C1515     1.0  0.87816  0.57380  0.46870  1.0000
  C   C1516     1.0  0.63107  0.71690  0.35925  1.0000
  H   H2693     1.0  0.61866  0.71634  0.35392  1.0000
  H   H2694     1.0  0.66601  0.54993  0.31696  1.0000
  C   C1517     1.0  0.85190  0.67287  0.46079  1.0000
  Fe  Fe184     1.0  0.60226  0.50993  0.24599  1.0000
  H   H2695     1.0  0.73510  0.53984  0.48892  1.0000
  H   H2696     1.0  0.60175  0.87515  0.39072  1.0000
  N   N84       1.0  0.58688  0.86794  0.41664  1.0000
  C   C1518     1.0  0.59614  0.88108  0.40301  1.0000
  C   C1519     1.0  0.59966  0.85103  0.41913  1.0000
  C   C1520     1.0  0.60400  0.81763  0.42858  1.0000
  H   H2697     1.0  0.58640  0.89276  0.39891  1.0000
  C   C1521     1.0  0.54754  0.72819  0.46806  1.0000
  H   H2698     1.0  0.50060  0.77067  0.48889  1.0000
  H   H2699     1.0  0.54394  0.70028  0.47442  1.0000
  C   C1522     1.0  0.91919  0.52789  0.43757  1.0000
  C   C1523     1.0  0.59246  0.83523  0.43175  1.0000
  H   H2700     1.0  0.80606  0.73768  0.43146  1.0000
  H   H2701     1.0  0.66504  0.68143  0.44067  1.0000
  H   H2702     1.0  0.99622  0.53048  0.42195  1.0000
  C   C1524     1.0  0.98449  0.51964  0.36218  1.0000
  C   C1525     1.0  0.55891  0.99245  0.44504  1.0000
  C   C1526     1.0  0.57056  0.86504  0.40957  1.0000
  H   H2703     1.0  0.56176  0.87785  0.40739  1.0000
  H   H2704     1.0  0.56239  0.85648  0.41932  1.0000
  H   H2705     1.0  0.57884  0.83369  0.43009  1.0000
  C   C1527     1.0  0.85459  0.50627  0.34278  1.0000
  H   H2706     1.0  0.68706  0.61920  0.46286  1.0000
  H   H2707     1.0  0.60687  0.53698  0.30695  1.0000
  S   S352      1.0  0.66654  0.50966  0.25626  1.0000
  C   C1528     1.0  0.81601  0.57680  0.39249  1.0000
  H   H2708     1.0  0.78904  0.55583  0.38051  1.0000
  H   H2709     1.0  0.80209  0.63174  0.41736  1.0000
  H   H2710     1.0  0.49793  0.68762  0.36133  1.0000
  H   H2711     1.0  0.86736  0.54049  0.34805  1.0000
  H   H2712     1.0  0.81792  0.59388  0.41180  1.0000
  H   H2713     1.0  0.53375  0.85089  0.46802  1.0000
  C   C1529     1.0  0.54761  0.76231  0.29949  1.0000
  H   H2714     1.0  0.58165  0.84328  0.39382  1.0000
  C   C1530     1.0  0.80876  0.53530  0.39132  1.0000
  H   H2715     1.0  0.79737  0.58432  0.37416  1.0000
  C   C1531     1.0  0.57381  0.85668  0.39208  1.0000
  C   C1532     1.0  0.84064  0.67163  0.44653  1.0000
  N   N85       1.0  0.52014  0.77013  0.28219  1.0000
  H   H2716     1.0  0.52690  0.67906  0.34348  1.0000
  N   N86       1.0  0.81422  0.56116  0.36537  1.0000
  H   H2717     1.0  0.74872  0.54564  0.45692  1.0000
  H   H2718     1.0  0.83741  0.54820  0.37754  1.0000
  H   H2719     1.0  0.55889  0.84829  0.37402  1.0000
  C   C1533     1.0  0.80971  0.56578  0.34665  1.0000
  H   H2720     1.0  0.81705  0.57658  0.33918  1.0000
  H   H2721     1.0  0.90977  0.52114  0.47531  1.0000
  C   C1534     1.0  0.81876  0.51765  0.33687  1.0000
  H   H2722     1.0  0.60915  0.95621  0.38163  1.0000
  C   C1535     1.0  0.58001  0.98268  0.40977  1.0000
  C   C1536     1.0  0.86606  0.55308  0.35378  1.0000
  C   C1537     1.0  0.99207  0.66457  0.45270  1.0000
  H   H2723     1.0  0.81408  0.55417  0.33927  1.0000
  H   H2724     1.0  0.66995  0.61023  0.47921  1.0000
  H   H2725     1.0  0.87430  0.52780  0.44832  1.0000
  H   H2726     1.0  0.87605  0.56121  0.34596  1.0000
  C   C1538     1.0  0.52196  0.67023  0.35550  1.0000
  C   C1539     1.0  0.83326  0.55231  0.36422  1.0000
  C   C1540     1.0  0.60502  0.96310  0.39354  1.0000
  H   H2727     1.0  0.65466  0.56199  0.26095  1.0000
  C   C1541     1.0  0.89863  0.54912  0.45426  1.0000
  C   C1542     1.0  0.80424  0.50316  0.29122  1.0000
  H   H2728     1.0  0.83457  0.53977  0.35836  1.0000
  C   C1543     1.0  0.83293  0.52302  0.32441  1.0000
  H   H2729     1.0  0.51166  0.72908  0.45969  1.0000
  C   C1544     1.0  0.75288  0.55138  0.46767  1.0000
  C   C1545     1.0  0.53284  0.73516  0.48249  1.0000
  S   S353      1.0  0.50502  0.92490  0.39654  1.0000
  H   H2730     1.0  0.69130  0.51504  0.45204  1.0000
  H   H2731     1.0  0.55929  0.78381  0.30648  1.0000
  C   C1546     1.0  0.52545  0.84783  0.44338  1.0000
  H   H2732     1.0  0.79148  0.66990  0.47897  1.0000
  H   H2733     1.0  0.62374  0.57756  0.28695  1.0000
  C   C1547     1.0  0.98623  0.50332  0.35579  1.0000
  H   H2734     1.0  0.90210  0.55898  0.44247  1.0000
  H   H2735     1.0  0.86376  0.62921  0.47704  1.0000
  C   C1548     1.0  0.78711  0.57601  0.32523  1.0000
  H   H2736     1.0  0.51636  0.78307  0.25569  1.0000
  H   H2737     1.0  0.50031  0.67583  0.33097  1.0000
  H   H2738     1.0  0.61446  0.97260  0.39352  1.0000
  C   C1549     1.0  0.63067  0.54874  0.26656  1.0000
  C   C1550     1.0  0.57260  0.57516  0.24515  1.0000
  H   H2739     1.0  0.93607  0.54262  0.44853  1.0000
  S   S354      1.0  0.58847  0.90855  0.48267  1.0000
  H   H2740     1.0  0.49747  0.66502  0.37158  1.0000
  H   H2741     1.0  0.58333  0.58931  0.29911  1.0000
  H   H2742     1.0  0.86585  0.52573  0.41468  1.0000
  S   S355      1.0  0.51816  0.79689  0.33668  1.0000
  H   H2743     1.0  0.79641  0.64371  0.39658  1.0000
  S   S356      1.0  0.51093  0.71317  0.31834  1.0000
  H   H2744     1.0  0.76046  0.66653  0.47643  1.0000
  C   C1551     1.0  0.69823  0.50491  0.30438  1.0000
  H   H2745     1.0  0.93601  0.52006  0.45912  1.0000
  S   S357      1.0  0.54696  0.60403  0.24675  1.0000
  H   H2746     1.0  0.96446  0.52464  0.44040  1.0000
  H   H2747     1.0  0.52665  0.65617  0.35356  1.0000
  C   C1552     1.0  0.53745  0.76645  0.47651  1.0000
  H   H2748     1.0  0.98598  0.54999  0.44520  1.0000
  H   H2749     1.0  0.50950  0.74608  0.42958  1.0000
  C   C1553     1.0  0.67835  0.50744  0.27518  1.0000
  S   S358      1.0  0.76719  0.50442  0.37253  1.0000
  H   H2750     1.0  0.99423  0.62260  0.44341  1.0000
  H   H2751     1.0  0.52287  0.72574  0.48593  1.0000
  H   H2752     1.0  0.73423  0.50580  0.42543  1.0000
  H   H2753     1.0  0.50871  0.76974  0.45840  1.0000
  H   H2754     1.0  0.52410  0.71741  0.27138  1.0000
  C   C1554     1.0  0.54262  0.56851  0.25443  1.0000
  H   H2755     1.0  0.79836  0.72756  0.41512  1.0000
  C   C1555     1.0  0.62334  0.51558  0.29441  1.0000
  H   H2756     1.0  0.60397  0.50447  0.31534  1.0000
  H   H2757     1.0  0.87614  0.60191  0.49274  1.0000
  H   H2758     1.0  0.78773  0.69282  0.46959  1.0000
  H   H2759     1.0  0.84959  0.66249  0.47233  1.0000
  C   C1556     1.0  0.54926  0.55032  0.25737  1.0000
  H   H2760     1.0  0.54842  0.98366  0.44811  1.0000
  C   C1557     1.0  0.55462  0.70868  0.47327  1.0000
  H   H2761     1.0  0.55885  0.73591  0.46608  1.0000
  H   H2762     1.0  0.80273  0.50528  0.27692  1.0000
  H   H2763     1.0  0.53293  0.82488  0.34766  1.0000
  C   C1558     1.0  0.52340  0.72750  0.25944  1.0000
  C   C1559     1.0  0.74963  0.53971  0.48555  1.0000
  H   H2764     1.0  0.53888  0.81226  0.47223  1.0000
  H   H2765     1.0  0.75290  0.51559  0.47435  1.0000
  H   H2766     1.0  0.55195  0.79478  0.48482  1.0000
  H   H2767     1.0  0.99533  0.58852  0.37550  1.0000
  H   H2768     1.0  0.75645  0.68963  0.46707  1.0000
  C   C1560     1.0  0.52852  0.98759  0.41703  1.0000
  H   H2769     1.0  0.55994  0.70675  0.48609  1.0000
  C   C1561     1.0  0.61015  0.50245  0.30164  1.0000
  H   H2770     1.0  0.52554  0.99347  0.42959  1.0000
  Fe  Fe185     1.0  0.59973  0.93091  0.49041  1.0000
  N   N87       1.0  0.50162  0.87706  0.47993  1.0000
  H   H2771     1.0  0.51307  0.84257  0.47015  1.0000
  H   H2772     1.0  0.49940  0.74773  0.49412  1.0000
  H   H2773     1.0  0.49858  0.90472  0.45084  1.0000
  H   H2774     1.0  0.51314  0.97533  0.47690  1.0000
  C   C1562     1.0  0.99566  0.50426  0.41522  1.0000
  H   H2775     1.0  0.99279  0.58048  0.39904  1.0000
  H   H2776     1.0  0.49767  0.79217  0.30723  1.0000
  H   H2777     1.0  0.54120  0.95804  0.48439  1.0000
  C   C1563     1.0  0.50025  0.77376  0.28734  1.0000
  H   H2778     1.0  0.70735  0.65481  0.49188  1.0000
  H   H2779     1.0  0.99329  0.49831  0.42932  1.0000
  H   H2780     1.0  0.53933  0.73397  0.49460  1.0000
  H   H2781     1.0  0.52397  0.87261  0.49458  1.0000
  H   H2782     1.0  0.50096  0.50313  0.71782  1.0000
  S   S359      1.0  0.53537  0.93769  0.57616  1.0000
  H   H2783     1.0  0.50258  0.97425  0.62167  1.0000
  C   C1564     1.0  0.74637  0.51403  0.65898  1.0000
  C   C1565     1.0  0.50176  0.52643  0.69669  1.0000
  H   H2784     1.0  0.66728  0.55013  0.68173  1.0000
  H   H2785     1.0  0.90267  0.56299  0.54171  1.0000
  S   S360      1.0  0.93624  0.50466  0.51968  1.0000
  S   S361      1.0  0.92283  0.51084  0.57056  1.0000
  H   H2786     1.0  0.89092  0.53689  0.56405  1.0000
  Fe  Fe186     1.0  0.75172  0.51796  0.57923  1.0000
  S   S362      1.0  0.75727  0.54550  0.56666  1.0000
  H   H2787     1.0  0.58152  0.90184  0.52870  1.0000
  Fe  Fe187     1.0  0.49842  0.60011  0.71477  1.0000
  S   S363      1.0  0.59075  0.54652  0.73207  1.0000
  S   S364      1.0  0.52766  0.76561  0.56860  1.0000
  S   S365      1.0  0.51575  0.57524  0.70650  1.0000
  C   C1566     1.0  0.53998  0.75545  0.55067  1.0000
  C   C1567     1.0  0.53666  0.73913  0.54717  1.0000
  C   C1568     1.0  0.54773  0.73056  0.53380  1.0000
  H   H2788     1.0  0.51383  0.72051  0.58458  1.0000
  C   C1569     1.0  0.55410  0.76340  0.54039  1.0000
  H   H2789     1.0  0.52572  0.73302  0.55489  1.0000
  H   H2790     1.0  0.55683  0.77596  0.54314  1.0000
  C   C1570     1.0  0.56988  0.55439  0.72498  1.0000
  C   C1571     1.0  0.55993  0.54291  0.71983  1.0000
  C   C1572     1.0  0.54338  0.54952  0.71417  1.0000
  C   C1573     1.0  0.53648  0.56755  0.71394  1.0000
  C   C1574     1.0  0.54635  0.57902  0.71924  1.0000
  C   C1575     1.0  0.56306  0.57247  0.72463  1.0000
  H   H2791     1.0  0.55027  0.83353  0.53347  1.0000
  H   H2792     1.0  0.53593  0.54062  0.70993  1.0000
  H   H2793     1.0  0.54124  0.59298  0.71890  1.0000
  H   H2794     1.0  0.79374  0.50579  0.51204  1.0000
  C   C1576     1.0  0.74839  0.55618  0.54738  1.0000
  C   C1577     1.0  0.75682  0.56972  0.53656  1.0000
  C   C1578     1.0  0.72604  0.56087  0.52758  1.0000
  C   C1579     1.0  0.73299  0.55172  0.54280  1.0000
  H   H2795     1.0  0.76865  0.57334  0.54010  1.0000
  H   H2796     1.0  0.71387  0.55771  0.52434  1.0000
  H   H2797     1.0  0.72624  0.54152  0.55122  1.0000
  H   H2798     1.0  0.61117  0.98535  0.51219  1.0000
  H   H2799     1.0  0.97653  0.56767  0.53868  1.0000
  Fe  Fe188     1.0  0.49849  0.76339  0.57676  1.0000
  H   H2800     1.0  0.95365  0.54772  0.58310  1.0000
  H   H2801     1.0  0.83522  0.52264  0.58355  1.0000
  C   C1580     1.0  0.83558  0.50864  0.58834  1.0000
  H   H2802     1.0  0.96372  0.53437  0.60119  1.0000
  H   H2803     1.0  0.95887  0.55809  0.60068  1.0000
  C   C1581     1.0  0.88809  0.52837  0.53193  1.0000
  H   H2804     1.0  0.73235  0.50403  0.49584  1.0000
  C   C1582     1.0  0.72527  0.55073  0.66056  1.0000
  C   C1583     1.0  0.56173  0.73861  0.52339  1.0000
  C   C1584     1.0  0.93751  0.52751  0.51605  1.0000
  C   C1585     1.0  0.93699  0.53684  0.49899  1.0000
  H   H2805     1.0  0.50910  0.68201  0.58208  1.0000
  H   H2806     1.0  0.89601  0.59167  0.52508  1.0000
  C   C1586     1.0  0.93865  0.55498  0.52721  1.0000
  C   C1587     1.0  0.93902  0.53653  0.52998  1.0000
  H   H2807     1.0  0.86371  0.58874  0.53327  1.0000
  N   N88       1.0  0.87631  0.56138  0.53623  1.0000
  H   H2808     1.0  0.93923  0.56192  0.53821  1.0000
  H   H2809     1.0  0.94066  0.52934  0.54286  1.0000
  C   C1588     1.0  0.56475  0.75516  0.52656  1.0000
  C   C1589     1.0  0.51867  0.70615  0.58583  1.0000
  H   H2810     1.0  0.76379  0.50499  0.52837  1.0000
  H   H2811     1.0  0.54532  0.71777  0.53136  1.0000
  C   C1590     1.0  0.73475  0.57405  0.51651  1.0000
  H   H2812     1.0  0.95954  0.58583  0.53292  1.0000
  H   H2813     1.0  0.55533  0.61841  0.74009  1.0000
  S   S366      1.0  0.60291  0.93388  0.51810  1.0000
  C   C1591     1.0  0.55353  0.93818  0.55931  1.0000
  C   C1592     1.0  0.55152  0.94001  0.54132  1.0000
  C   C1593     1.0  0.56663  0.93910  0.52834  1.0000
  C   C1594     1.0  0.58361  0.93651  0.53345  1.0000
  C   C1595     1.0  0.58547  0.93525  0.55134  1.0000
  C   C1596     1.0  0.57049  0.93608  0.56422  1.0000
  H   H2814     1.0  0.53839  0.94181  0.53750  1.0000
  C   C1597     1.0  0.56497  0.85593  0.52345  1.0000
  H   H2815     1.0  0.59857  0.93327  0.55530  1.0000
  H   H2816     1.0  0.57207  0.93473  0.57809  1.0000
  H   H2817     1.0  0.96572  0.62242  0.51274  1.0000
  H   H2818     1.0  0.49730  0.88439  0.51620  1.0000
  C   C1598     1.0  0.58088  0.88745  0.52914  1.0000
  H   H2819     1.0  0.56849  0.89957  0.55905  1.0000
  H   H2820     1.0  0.58402  0.68969  0.57007  1.0000
  S   S367      1.0  0.96421  0.49944  0.59445  1.0000
  C   C1599     1.0  0.64394  0.69029  0.49825  1.0000
  C   C1600     1.0  0.67368  0.49935  0.65166  1.0000
  H   H2821     1.0  0.75457  0.54597  0.49545  1.0000
  H   H2822     1.0  0.73021  0.57716  0.67923  1.0000
  C   C1601     1.0  0.96448  0.64689  0.49546  1.0000
  H   H2823     1.0  0.57402  0.82844  0.53370  1.0000
  C   C1602     1.0  0.63766  0.98008  0.51805  1.0000
  C   C1603     1.0  0.99180  0.59196  0.51198  1.0000
  H   H2824     1.0  0.69124  0.51487  0.67630  1.0000
  H   H2825     1.0  0.52241  0.76425  0.61553  1.0000
  H   H2826     1.0  0.58425  0.71074  0.57742  1.0000
  S   S368      1.0  0.60520  0.50176  0.71008  1.0000
  C   C1604     1.0  0.53078  0.96245  0.49514  1.0000
  H   H2827     1.0  0.50215  0.76258  0.53760  1.0000
  H   H2828     1.0  0.69228  0.55277  0.65651  1.0000
  H   H2829     1.0  0.61286  0.87676  0.50775  1.0000
  S   S369      1.0  0.62646  0.50508  0.74315  1.0000
  C   C1605     1.0  0.98172  0.54939  0.58191  1.0000
  H   H2830     1.0  0.72031  0.52629  0.62890  1.0000
  S   S370      1.0  0.70444  0.49644  0.62727  1.0000
  N   N89       1.0  0.68128  0.65016  0.50492  1.0000
  H   H2831     1.0  0.57641  0.87674  0.56495  1.0000
  H   H2832     1.0  0.90336  0.54431  0.58895  1.0000
  C   C1606     1.0  0.51396  0.75722  0.51120  1.0000
  C   C1607     1.0  0.72581  0.51798  0.66148  1.0000
  C   C1608     1.0  0.51100  0.86062  0.52886  1.0000
  H   H2833     1.0  0.91679  0.55119  0.56836  1.0000
  C   C1609     1.0  0.68953  0.52945  0.67626  1.0000
  H   H2834     1.0  0.67111  0.63150  0.55900  1.0000
  C   C1610     1.0  0.69787  0.53844  0.65800  1.0000
  H   H2835     1.0  0.69969  0.67451  0.51718  1.0000
  H   H2836     1.0  0.55238  0.89055  0.50620  1.0000
  C   C1611     1.0  0.50041  0.87026  0.51420  1.0000
  C   C1612     1.0  0.50453  0.69650  0.58119  1.0000
  N   N90       1.0  0.75816  0.50774  0.50141  1.0000
  C   C1613     1.0  0.88263  0.60504  0.50349  1.0000
  C   C1614     1.0  0.70608  0.66052  0.51865  1.0000
  C   C1615     1.0  0.72613  0.66085  0.51578  1.0000
  C   C1616     1.0  0.65928  0.64015  0.55441  1.0000
  H   H2837     1.0  0.55460  0.86268  0.51540  1.0000
  H   H2838     1.0  0.62686  0.87408  0.52480  1.0000
  N   N91       1.0  0.56420  0.88254  0.54078  1.0000
  C   C1617     1.0  0.53052  0.91119  0.51046  1.0000
  H   H2839     1.0  0.52024  0.90220  0.51361  1.0000
  H   H2840     1.0  0.57076  0.58143  0.72848  1.0000
  C   C1618     1.0  0.85199  0.49824  0.59084  1.0000
  H   H2841     1.0  0.89443  0.61148  0.49732  1.0000
  C   C1619     1.0  0.78451  0.51842  0.51205  1.0000
  H   H2842     1.0  0.52277  0.95149  0.50023  1.0000
  C   C1620     1.0  0.67264  0.64059  0.52199  1.0000
  C   C1621     1.0  0.63522  0.96423  0.53246  1.0000
  H   H2843     1.0  0.64183  0.69258  0.51235  1.0000
  H   H2844     1.0  0.52635  0.92245  0.51829  1.0000
  H   H2845     1.0  0.71782  0.54271  0.59856  1.0000
  C   C1622     1.0  0.93698  0.55528  0.49612  1.0000
  C   C1623     1.0  0.51372  0.98986  0.59745  1.0000
  H   H2846     1.0  0.70255  0.65408  0.53240  1.0000
  H   H2847     1.0  0.52757  0.98564  0.60023  1.0000
  H   H2848     1.0  0.99093  0.55083  0.60678  1.0000
  H   H2849     1.0  0.53738  0.96527  0.50598  1.0000
  H   H2850     1.0  0.70235  0.51281  0.51181  1.0000
  H   H2851     1.0  0.70749  0.63606  0.50855  1.0000
  H   H2852     1.0  0.65320  0.64859  0.56483  1.0000
  H   H2853     1.0  0.90144  0.56745  0.57976  1.0000
  H   H2854     1.0  0.50187  0.70158  0.56743  1.0000
  H   H2855     1.0  0.68226  0.62946  0.52743  1.0000
  C   C1624     1.0  0.73378  0.56345  0.68589  1.0000
  N   N92       1.0  0.71792  0.53635  0.65400  1.0000
  H   H2856     1.0  0.65248  0.66077  0.53354  1.0000
  H   H2857     1.0  0.56519  0.94024  0.51446  1.0000
  Fe  Fe189     1.0  0.50876  0.93745  0.56825  1.0000
  H   H2858     1.0  0.60126  0.88142  0.54701  1.0000
  H   H2859     1.0  0.98915  0.52528  0.50752  1.0000
  H   H2860     1.0  0.53712  0.51121  0.69734  1.0000
  H   H2861     1.0  0.75666  0.52710  0.51955  1.0000
  C   C1625     1.0  0.52730  0.50219  0.70362  1.0000
  H   H2862     1.0  0.50244  0.51972  0.68475  1.0000
  C   C1626     1.0  0.66964  0.53587  0.67995  1.0000
  H   H2863     1.0  0.56820  0.70849  0.56346  1.0000
  H   H2864     1.0  0.54921  0.86038  0.54845  1.0000
  H   H2865     1.0  0.80708  0.50943  0.59035  1.0000
  H   H2866     1.0  0.64851  0.98657  0.52083  1.0000
  C   C1627     1.0  0.88845  0.58804  0.51540  1.0000
  C   C1628     1.0  0.82863  0.54742  0.54726  1.0000
  C   C1629     1.0  0.54797  0.89435  0.53470  1.0000
  S   S371      1.0  0.57524  0.72752  0.50670  1.0000
  C   C1630     1.0  0.87216  0.57908  0.52499  1.0000
  H   H2867     1.0  0.53892  0.88632  0.60079  1.0000
  H   H2868     1.0  0.75196  0.52245  0.66651  1.0000
  H   H2869     1.0  0.51126  0.53637  0.69284  1.0000
  C   C1631     1.0  0.88493  0.54814  0.52383  1.0000
  H   H2870     1.0  0.87722  0.54921  0.51258  1.0000
  H   H2871     1.0  0.83951  0.56782  0.52853  1.0000
  C   C1632     1.0  0.97530  0.63129  0.50551  1.0000
  C   C1633     1.0  0.78902  0.52812  0.52620  1.0000
  C   C1634     1.0  0.70086  0.64988  0.50532  1.0000
  C   C1635     1.0  0.54851  0.88365  0.57316  1.0000
  H   H2872     1.0  0.58070  0.88558  0.51523  1.0000
  H   H2873     1.0  0.51316  0.51975  0.72166  1.0000
  H   H2874     1.0  0.87334  0.61451  0.51122  1.0000
  H   H2875     1.0  0.71325  0.56660  0.59559  1.0000
  S   S372      1.0  0.72599  0.58469  0.49716  1.0000
  H   H2876     1.0  0.75698  0.58863  0.51261  1.0000
  C   C1636     1.0  0.81955  0.50119  0.59232  1.0000
  C   C1637     1.0  0.59866  0.87727  0.53463  1.0000
  H   H2877     1.0  0.53058  0.70402  0.57582  1.0000
  H   H2878     1.0  0.54526  0.90665  0.54113  1.0000
  H   H2879     1.0  0.61524  0.89566  0.51796  1.0000
  S   S373      1.0  0.93527  0.58768  0.50755  1.0000
  H   H2880     1.0  0.67265  0.67680  0.51188  1.0000
  S   S374      1.0  0.50137  0.91592  0.55548  1.0000
  C   C1638     1.0  0.89166  0.51639  0.51734  1.0000
  S   S375      1.0  0.75393  0.50865  0.60809  1.0000
  H   H2881     1.0  0.73126  0.56363  0.70047  1.0000
  S   S376      1.0  0.50544  0.62428  0.72349  1.0000
  C   C1639     1.0  0.57554  0.70169  0.57450  1.0000
  H   H2882     1.0  0.52399  0.76606  0.51115  1.0000
  H   H2883     1.0  0.55821  0.91086  0.51059  1.0000
  C   C1640     1.0  0.85904  0.55647  0.54664  1.0000
  C   C1641     1.0  0.61429  0.88122  0.52038  1.0000
  H   H2884     1.0  0.72664  0.52887  0.51613  1.0000
  H   H2885     1.0  0.84967  0.54550  0.52553  1.0000
  H   H2886     1.0  0.83245  0.53341  0.55294  1.0000
  C   C1642     1.0  0.98556  0.59372  0.53190  1.0000
  C   C1643     1.0  0.56346  0.83610  0.52618  1.0000
  C   C1644     1.0  0.90355  0.55369  0.57641  1.0000
  H   H2887     1.0  0.53586  0.88780  0.53924  1.0000
  H   H2888     1.0  0.56227  0.87819  0.59649  1.0000
  H   H2889     1.0  0.87953  0.51689  0.51112  1.0000
  H   H2890     1.0  0.73050  0.66731  0.50218  1.0000
  H   H2891     1.0  0.78715  0.52681  0.49911  1.0000
  H   H2892     1.0  0.57209  0.85466  0.54967  1.0000
  H   H2893     1.0  0.53014  0.76297  0.63655  1.0000
  H   H2894     1.0  0.87668  0.52405  0.54134  1.0000
  H   H2895     1.0  0.82351  0.55549  0.55821  1.0000
  H   H2896     1.0  0.59854  0.86271  0.53674  1.0000
  H   H2897     1.0  0.85325  0.56660  0.55560  1.0000
  H   H2898     1.0  0.51003  0.75421  0.63569  1.0000
  C   C1645     1.0  0.76496  0.51467  0.51597  1.0000
  H   H2899     1.0  0.87611  0.55338  0.57512  1.0000
  H   H2900     1.0  0.66808  0.50835  0.64109  1.0000
  C   C1646     1.0  0.56248  0.86317  0.54147  1.0000
  H   H2901     1.0  0.57823  0.85753  0.51583  1.0000
  C   C1647     1.0  0.54851  0.90128  0.51460  1.0000
  H   H2902     1.0  0.69899  0.55451  0.62484  1.0000
  C   C1648     1.0  0.71354  0.55464  0.62309  1.0000
  C   C1649     1.0  0.98241  0.50300  0.53826  1.0000
  H   H2903     1.0  0.89825  0.55134  0.51744  1.0000
  H   H2904     1.0  0.81777  0.54787  0.53927  1.0000
  H   H2905     1.0  0.56509  0.52897  0.72000  1.0000
  C   C1650     1.0  0.55124  0.88762  0.59126  1.0000
  S   S377      1.0  0.87174  0.50855  0.58614  1.0000
  H   H2906     1.0  0.54535  0.86987  0.57491  1.0000
  H   H2907     1.0  0.57559  0.76141  0.51868  1.0000
  H   H2908     1.0  0.73338  0.64715  0.51771  1.0000
  H   H2909     1.0  0.98158  0.63671  0.51506  1.0000
  H   H2910     1.0  0.51368  0.84613  0.52812  1.0000
  H   H2911     1.0  0.95450  0.65393  0.50495  1.0000
  H   H2912     1.0  0.56512  0.83126  0.51309  1.0000
  C   C1651     1.0  0.72268  0.55073  0.68087  1.0000
  H   H2913     1.0  0.88551  0.57723  0.55285  1.0000
  H   H2914     1.0  0.51001  0.69966  0.61372  1.0000
  H   H2915     1.0  0.72964  0.66850  0.52546  1.0000
  H   H2916     1.0  0.70024  0.51787  0.53417  1.0000
  H   H2917     1.0  0.73471  0.55579  0.60059  1.0000
  H   H2918     1.0  0.64944  0.63174  0.55262  1.0000
  H   H2919     1.0  0.86428  0.57779  0.51448  1.0000
  H   H2920     1.0  0.55425  0.90141  0.59028  1.0000
  C   C1652     1.0  0.97141  0.58183  0.53984  1.0000
  C   C1653     1.0  0.93725  0.56445  0.51035  1.0000
  C   C1654     1.0  0.56536  0.88587  0.55935  1.0000
  H   H2921     1.0  0.66281  0.53400  0.66889  1.0000
  C   C1655     1.0  0.84452  0.55467  0.53549  1.0000
  H   H2922     1.0  0.80333  0.52956  0.52366  1.0000
  H   H2923     1.0  0.86111  0.54385  0.55574  1.0000
  H   H2924     1.0  0.90251  0.52057  0.50699  1.0000
  H   H2925     1.0  0.70859  0.55545  0.68556  1.0000
  C   C1656     1.0  0.88881  0.56373  0.54868  1.0000
  C   C1657     1.0  0.88891  0.55090  0.56632  1.0000
  C   C1658     1.0  0.75022  0.57841  0.52100  1.0000
  H   H2926     1.0  0.98456  0.51622  0.54084  1.0000
  H   H2927     1.0  0.98076  0.56313  0.57510  1.0000
  C   C1659     1.0  0.98672  0.51214  0.50494  1.0000
  H   H2928     1.0  0.89997  0.52596  0.53888  1.0000
  H   H2929     1.0  0.73244  0.51192  0.53390  1.0000
  H   H2930     1.0  0.66154  0.63409  0.51947  1.0000
  H   H2931     1.0  0.97989  0.60742  0.53417  1.0000
  H   H2932     1.0  0.96714  0.58339  0.55401  1.0000
  H   H2933     1.0  0.71907  0.56405  0.65500  1.0000
  H   H2934     1.0  0.52372  0.86591  0.52777  1.0000
  H   H2935     1.0  0.73744  0.53868  0.63031  1.0000
  C   C1660     1.0  0.96341  0.54725  0.59238  1.0000
  C   C1661     1.0  0.72733  0.51456  0.52090  1.0000
  H   H2936     1.0  0.67394  0.66040  0.53966  1.0000
  C   C1662     1.0  0.99628  0.54512  0.59424  1.0000
  H   H2937     1.0  0.72661  0.53740  0.68807  1.0000
  Fe  Fe190     1.0  0.60043  0.51699  0.73337  1.0000
  N   N93       1.0  0.53521  0.70943  0.61157  1.0000
  C   C1663     1.0  0.52296  0.69934  0.60485  1.0000
  C   C1664     1.0  0.54172  0.69843  0.62784  1.0000
  C   C1665     1.0  0.52504  0.72709  0.61576  1.0000
  C   C1666     1.0  0.55098  0.71297  0.59780  1.0000
  C   C1667     1.0  0.56259  0.69636  0.59098  1.0000
  H   H2938     1.0  0.71607  0.56716  0.62695  1.0000
  C   C1668     1.0  0.53443  0.73792  0.62594  1.0000
  C   C1669     1.0  0.52713  0.69476  0.64384  1.0000
  C   C1670     1.0  0.53510  0.68382  0.65971  1.0000
  C   C1671     1.0  0.66461  0.65192  0.53708  1.0000
  H   H2939     1.0  0.98449  0.54009  0.57184  1.0000
  C   C1672     1.0  0.52350  0.75591  0.62856  1.0000
  H   H2940     1.0  0.51340  0.99012  0.58305  1.0000
  C   C1673     1.0  0.51000  0.51273  0.71126  1.0000
  H   H2941     1.0  0.54847  0.68520  0.62465  1.0000
  H   H2942     1.0  0.55208  0.70458  0.63227  1.0000
  H   H2943     1.0  0.51176  0.72540  0.62351  1.0000
  H   H2944     1.0  0.52205  0.73578  0.60330  1.0000
  H   H2945     1.0  0.54667  0.72241  0.58624  1.0000
  H   H2946     1.0  0.56015  0.71987  0.60310  1.0000
  H   H2947     1.0  0.55457  0.68705  0.58747  1.0000
  H   H2948     1.0  0.57051  0.68906  0.60137  1.0000
  C   C1674     1.0  0.70845  0.50987  0.52424  1.0000
  H   H2949     1.0  0.53146  0.91660  0.49615  1.0000
  H   H2950     1.0  0.54753  0.74058  0.61861  1.0000
  H   H2951     1.0  0.53641  0.73080  0.63929  1.0000
  H   H2952     1.0  0.51986  0.70728  0.64823  1.0000
  H   H2953     1.0  0.51740  0.68718  0.64034  1.0000
  H   H2954     1.0  0.54450  0.69108  0.66424  1.0000
  H   H2955     1.0  0.52431  0.68129  0.67085  1.0000
  H   H2956     1.0  0.54210  0.67080  0.65622  1.0000
  C   C1675     1.0  0.72297  0.53816  0.63405  1.0000
  H   H2957     1.0  0.53679  0.89286  0.56913  1.0000
  H   H2958     1.0  0.72072  0.50787  0.65553  1.0000
  H   H2959     1.0  0.97207  0.51307  0.50600  1.0000
  H   H2960     1.0  0.69234  0.53251  0.64811  1.0000
  H   H2961     1.0  0.78127  0.54158  0.52578  1.0000
  H   H2962     1.0  0.89758  0.57923  0.50688  1.0000
  H   H2963     1.0  0.52835  0.68500  0.60534  1.0000
  H   H2964     1.0  0.78611  0.52069  0.53965  1.0000
  C   C1676     1.0  0.62008  0.99301  0.51710  1.0000
  C   C1677     1.0  0.72026  0.55490  0.60328  1.0000
  H   H2965     1.0  0.64773  0.95479  0.53230  1.0000
  H   H2966     1.0  0.66379  0.52809  0.69229  1.0000
  H   H2967     1.0  0.74816  0.55908  0.68208  1.0000
  H   H2968     1.0  0.98003  0.59078  0.50570  1.0000
  S   S378      1.0  0.72805  0.50446  0.57939  1.0000
  H   H2969     1.0  0.89579  0.50245  0.52305  1.0000
  H   H2970     1.0  0.51937  0.74349  0.51626  1.0000
  H   H2971     1.0  0.69569  0.53185  0.68748  1.0000
  H   H2972     1.0  0.73968  0.55035  0.65552  1.0000
  H   H2973     1.0  0.72153  0.51504  0.67593  1.0000
  C   C1678     1.0  0.99295  0.49854  0.52058  1.0000
  C   C1679     1.0  0.73943  0.50339  0.50744  1.0000
  H   H2974     1.0  0.63178  0.96868  0.54577  1.0000
  H   H2975     1.0  0.62455  0.95712  0.53011  1.0000
  H   H2976     1.0  0.75216  0.51640  0.64487  1.0000
  H   H2977     1.0  0.64950  0.50256  0.67042  1.0000
  H   H2978     1.0  0.64195  0.97479  0.50518  1.0000
  H   H2979     1.0  0.51009  0.98561  0.51448  1.0000
  H   H2980     1.0  0.96802  0.50299  0.53826  1.0000
  H   H2981     1.0  0.49964  0.54730  0.66619  1.0000
  H   H2982     1.0  0.50326  0.86269  0.54202  1.0000
  C   C1680     1.0  0.66305  0.49608  0.66835  1.0000
  H   H2983     1.0  0.50798  0.96272  0.60251  1.0000
  H   H2984     1.0  0.51398  0.85343  0.49536  1.0000
  H   H2985     1.0  0.59815  0.83458  0.49576  1.0000
  C   C1681     1.0  0.65352  0.67157  0.49629  1.0000
  C   C1682     1.0  0.51086  0.86794  0.49549  1.0000
  H   H2986     1.0  0.64556  0.66191  0.50489  1.0000
  H   H2987     1.0  0.68650  0.61332  0.50344  1.0000
  C   C1683     1.0  0.50247  0.97570  0.60712  1.0000
  C   C1684     1.0  0.67273  0.66913  0.50086  1.0000
  C   C1685     1.0  0.50408  0.98526  0.50237  1.0000
  H   H2988     1.0  0.84509  0.49810  0.55118  1.0000
  C   C1686     1.0  0.49789  0.76281  0.52446  1.0000
  H   H2989     1.0  0.61397  0.99484  0.53093  1.0000
  H   H2990     1.0  0.54631  0.57521  0.83441  1.0000
  S   S379      1.0  0.52451  0.58130  0.87917  1.0000
  H   H2991     1.0  0.60536  0.53554  0.93615  1.0000
  H   H2992     1.0  0.52707  0.59952  0.94087  1.0000
  H   H2993     1.0  0.61905  0.53541  0.98698  1.0000
  C   C1687     1.0  0.54176  0.59352  0.76693  1.0000
  C   C1688     1.0  0.58537  0.55125  0.97590  1.0000
  S   S380      1.0  0.55448  0.52528  0.93918  1.0000
  C   C1689     1.0  0.60617  0.50735  0.82490  1.0000
  H   H2994     1.0  0.51584  0.57338  0.81369  1.0000
  H   H2995     1.0  0.57431  0.53115  0.76772  1.0000
  H   H2996     1.0  0.51087  0.53183  0.93091  1.0000
  H   H2997     1.0  0.63275  0.51830  0.87677  1.0000
  H   H2998     1.0  0.52667  0.59147  0.83272  1.0000
  H   H2999     1.0  0.52326  0.55731  0.78899  1.0000
  C   C1690     1.0  0.52315  0.56444  0.76084  1.0000
  H   H3000     1.0  0.52842  0.71250  0.96712  1.0000
  H   H3001     1.0  0.60401  0.52759  0.96815  1.0000
  H   H3002     1.0  0.58810  0.53980  0.78025  1.0000
  C   C1691     1.0  0.59297  0.53713  0.96326  1.0000
  H   H3003     1.0  0.51514  0.53231  0.86248  1.0000
  N   N94       1.0  0.50374  0.51240  0.91680  1.0000
  H   H3004     1.0  0.52091  0.57663  0.75119  1.0000
  C   C1692     1.0  0.57573  0.53384  0.78111  1.0000
  C   C1693     1.0  0.53402  0.56690  0.89603  1.0000
  C   C1694     1.0  0.54755  0.55331  0.89156  1.0000
  C   C1695     1.0  0.55440  0.54089  0.90491  1.0000
  C   C1696     1.0  0.54752  0.54191  0.92270  1.0000
  C   C1697     1.0  0.53445  0.55580  0.92723  1.0000
  C   C1698     1.0  0.52785  0.56842  0.91388  1.0000
  H   H3005     1.0  0.55262  0.55229  0.87777  1.0000
  H   H3006     1.0  0.56492  0.53051  0.90134  1.0000
  H   H3007     1.0  0.52924  0.55655  0.94098  1.0000
  H   H3008     1.0  0.51808  0.57928  0.91743  1.0000
  C   C1699     1.0  0.52505  0.52106  0.86703  1.0000
  H   H3009     1.0  0.53686  0.52636  0.86956  1.0000
  H   H3010     1.0  0.61117  0.50852  0.79627  1.0000
  H   H3011     1.0  0.54783  0.53940  0.78897  1.0000
  C   C1700     1.0  0.51890  0.49937  0.92334  1.0000
  C   C1701     1.0  0.60253  0.49679  0.84136  1.0000
  C   C1702     1.0  0.50735  0.55446  0.76185  1.0000
  H   H3012     1.0  0.51138  0.73978  0.95271  1.0000
  H   H3013     1.0  0.50921  0.54155  0.77054  1.0000
  H   H3014     1.0  0.53386  0.67829  0.96340  1.0000
  H   H3015     1.0  0.52077  0.56557  0.98132  1.0000
  H   H3016     1.0  0.50590  0.50443  0.88028  1.0000
  C   C1703     1.0  0.55790  0.56444  0.77643  1.0000
  H   H3017     1.0  0.54348  0.58997  0.75330  1.0000
  C   C1704     1.0  0.52469  0.56937  0.77924  1.0000
  H   H3018     1.0  0.53296  0.59653  0.79894  1.0000
  H   H3019     1.0  0.51269  0.57900  0.78283  1.0000
  H   H3020     1.0  0.52755  0.49915  0.88765  1.0000
  H   H3021     1.0  0.57380  0.55926  0.97007  1.0000
  C   C1705     1.0  0.51706  0.51003  0.88382  1.0000
  H   H3022     1.0  0.50190  0.60416  0.81006  1.0000
  C   C1706     1.0  0.55245  0.50851  0.98862  1.0000
  H   H3023     1.0  0.66266  0.49809  0.85054  1.0000
  H   H3024     1.0  0.58258  0.52929  0.96168  1.0000
  H   H3025     1.0  0.57691  0.52100  0.79002  1.0000
  Fe  Fe191     1.0  0.50150  0.60037  0.88938  1.0000
  Fe  Fe192     1.0  0.57322  0.50530  0.92489  1.0000
  C   C1707     1.0  0.51049  0.57749  0.98211  1.0000
  H   H3026     1.0  0.50379  0.74701  0.97425  1.0000
  C   C1708     1.0  0.50993  0.58690  0.96276  1.0000
  H   H3027     1.0  0.50621  0.55187  0.74833  1.0000
  C   C1709     1.0  0.54009  0.58274  0.79872  1.0000
  H   H3028     1.0  0.55655  0.60877  0.78024  1.0000
  H   H3029     1.0  0.56976  0.57042  0.77771  1.0000
  H   H3030     1.0  0.55363  0.58330  0.80176  1.0000
  C   C1710     1.0  0.52274  0.68225  0.95548  1.0000
  H   H3031     1.0  0.60781  0.52109  0.82461  1.0000
  C   C1711     1.0  0.51020  0.52173  0.89872  1.0000
  H   H3032     1.0  0.58866  0.55452  0.93866  1.0000
  C   C1712     1.0  0.52801  0.59231  0.95445  1.0000
  C   C1713     1.0  0.55675  0.60476  0.76700  1.0000
  C   C1714     1.0  0.52542  0.66976  0.94143  1.0000
  H   H3033     1.0  0.64621  0.51440  0.89440  1.0000
  H   H3034     1.0  0.59529  0.56059  0.97462  1.0000
  H   H3035     1.0  0.53519  0.55587  0.75561  1.0000
  H   H3036     1.0  0.52473  0.56922  0.84343  1.0000
  C   C1715     1.0  0.53216  0.57726  0.83232  1.0000
  C   C1716     1.0  0.51462  0.73903  0.96636  1.0000
  H   H3037     1.0  0.53821  0.58044  0.95346  1.0000
  C   C1717     1.0  0.59972  0.54592  0.94475  1.0000
  C   C1718     1.0  0.55473  0.62170  0.75372  1.0000
  C   C1719     1.0  0.55956  0.54622  0.78828  1.0000
  H   H3038     1.0  0.52886  0.60243  0.76854  1.0000
  N   N95       1.0  0.50110  0.69142  0.98303  1.0000
  H   H3039     1.0  0.56145  0.54798  0.80183  1.0000
  H   H3040     1.0  0.52094  0.52947  0.89978  1.0000
  H   H3041     1.0  0.56307  0.50262  0.97884  1.0000
  H   H3042     1.0  0.55985  0.56215  0.76232  1.0000
  H   H3043     1.0  0.52928  0.51260  0.85630  1.0000
  S   S381      1.0  0.50284  0.62946  0.88666  1.0000
  C   C1720     1.0  0.53024  0.57152  0.81472  1.0000
  N   N96       1.0  0.54117  0.57711  0.78055  1.0000
  C   C1721     1.0  0.51722  0.71975  0.97516  1.0000
  H   H3044     1.0  0.51456  0.67298  0.93306  1.0000
  H   H3045     1.0  0.53952  0.50909  0.98379  1.0000
  C   C1722     1.0  0.50095  0.63199  0.97152  1.0000
  H   H3046     1.0  0.53236  0.60119  0.96241  1.0000
  H   H3047     1.0  0.54188  0.63005  0.75733  1.0000
  H   H3048     1.0  0.61032  0.55394  0.94534  1.0000
  H   H3049     1.0  0.51477  0.62828  0.96665  1.0000
  H   H3050     1.0  0.53512  0.55718  0.81532  1.0000
  H   H3051     1.0  0.56996  0.59725  0.76304  1.0000
  S   S382      1.0  0.60228  0.50603  0.86125  1.0000
  C   C1723     1.0  0.55545  0.52718  0.99060  1.0000
  S   S383      1.0  0.60075  0.50957  0.91237  1.0000
  H   H3052     1.0  0.52119  0.65706  0.99118  1.0000
  H   H3053     1.0  0.52111  0.71972  0.98844  1.0000
  H   H3054     1.0  0.52705  0.74489  0.96550  1.0000
  C   C1724     1.0  0.50450  0.68151  0.96715  1.0000
  H   H3055     1.0  0.53822  0.67108  0.93270  1.0000
  H   H3056     1.0  0.52577  0.65575  0.94778  1.0000
  H   H3057     1.0  0.57764  0.58165  0.99076  1.0000
  H   H3058     1.0  0.49943  0.53155  0.89352  1.0000
  H   H3059     1.0  0.55510  0.53555  0.97752  1.0000
  H   H3060     1.0  0.51579  0.58664  0.98909  1.0000
  H   H3061     1.0  0.65601  0.52112  0.87194  1.0000
  C   C1725     1.0  0.64623  0.51305  0.88026  1.0000
  H   H3062     1.0  0.50651  0.57808  0.95416  1.0000
  H   H3063     1.0  0.50264  0.66739  0.97132  1.0000
  H   H3064     1.0  0.56564  0.62950  0.75380  1.0000
  H   H3065     1.0  0.53111  0.50590  0.92145  1.0000
  S   S384      1.0  0.58459  0.49764  0.75134  1.0000
  C   C1726     1.0  0.60809  0.50026  0.80877  1.0000
  H   H3066     1.0  0.52342  0.69585  0.94832  1.0000
  H   H3067     1.0  0.51782  0.50123  0.95157  1.0000
  C   C1727     1.0  0.49990  0.71127  0.97724  1.0000
  C   C1728     1.0  0.49883  0.52633  0.92921  1.0000
  H   H3068     1.0  0.52817  0.68844  0.98899  1.0000
  H   H3069     1.0  0.49997  0.59895  0.96222  1.0000
  H   H3070     1.0  0.58311  0.51664  0.99195  1.0000
  H   H3071     1.0  0.65927  0.49943  0.82213  1.0000
  H   H3072     1.0  0.63927  0.49900  0.85331  1.0000
