data_image0
_chemical_formula_structural       FeHC2FeS2H3CHS2HCHFeC2FeH3C3HC2HCHCHNC2H2S2H4C2FeHSH4CHC5HCH4CH2C2HSCH8CH4FeS3HFeSHFeHSFeS2H3C7H4C6H4CFeCSNC6H12NC7H7CHCH2CHCHCH3CFeHSH2CH3SHC2H3C2H3SHSC2H7CH4C2H3C5HCH2CH2SH2CH6CH2CH2CSH5CHC4NH3FeC2H2CHSH3CFeH3SH4CH6CH2CH5CS3CHFeH4CHS2CFeCHCH2S2CH2NCHCHC2HCH2CH6FeH9CHCH5C2H4CH4C2NH4CHC2HC3H2C3HCH4SHCHC2H2CH3C2S2FeS2FeS2FeSFeS3CHSH3C5H3C2H2C6H6C2H2CH2CH3CH3NH4CHNH4CHCHCHCHC2H6CH3C2HCHCHCH2CH3C2H2FeH2CNH2CH6NC4HC3H5C2H2SCH4CH2Fe2H5C2HCH3CHCH4CH4CHCHCH2CHCH3CHCFeS2FeS2C6H4SH3CHCHC2H5CH6CH2CH3C2H7CHCH3CH6NH2C3H3CH2NHCFeH4C2H2CH2SCH3CH2CH2CHSC2H5SCHCHNHCH2CHC2HCH3FeSH6CHC2SNHCHS2HFeS2FeS2FeSFeS3C3H2C7H6C5H3CHCHC2NH4CHCHCH4CH5FeHC3HCHCHC2H3CH3CH2C5H2C2H4CHCH3CH6C2H2CH11CH2C2NHCH7FeS2FeS2FeS2FeSFeS3C2H3C6H4C4H5CSC2H3C2H2C2NC6H2CHCH2CFeCH7CH10CSCH2CH2CH4CH10C2H2CH2CH4C2HC2H7NHCH2C2HNC2H4CH2C2H2CH4CH4C4HCHCFeS2FeS2C6H4CH4CH3CH3CHCH3SC2HNH2FeH5CHSCHC3H3CH3CH2CH3CH2C3H4SH2SFeHCH2C2H3CHNC4HSC2H4C2H6CH5CH4CH5CSCHFeHCH2CFeH2CH2NHC2H2S2FeS2FeS2FeSFeS3HC2H2CH3C6H3CH3CH2C2HCH3NC2HC3HCHCH2CHCH3CHCHCH5CHCH5C2H2C2H4C3H7CNH16CHCHC2HCHC3H7C3NH8CHCH2CH2CHS2CHC2FeS2HCSH2C2SHC2H4FeH2CH4NC2HCFeHC2H2CH4CHCH3CHCHCH3FeHCSFeC3HCH2CH7C2H2C2HC2H2FeSCFeS2C2FeSHFeSC7H6C6H5CH2FeH6C4H3CHCHC2HCH2C3SCH6SCHNC11H6CH20FeHCHCS2H2CSH9C2HCHCH2CH4NH2CH4SCH4CS2HFeCH2NHC3H2C2HCH6SNSH2SH2S2H2NH5CSH2CHC2H2CH2C4SH2CHCH2FeHSHC2H2CH2FeS2CHC2HFeCH7CH4SCH2CHCHC2HNHCH2C3HCHFeH3CH5C2H2CH5SC2H2CH10C2H2C2HC
_chemical_formula_sum              "Fe64 H1024 C576 S128 N32"
_cell_length_a       44.3976
_cell_length_b       44.1127
_cell_length_c       39.5938
_cell_angle_alpha    88.5968
_cell_angle_beta     88.6045
_cell_angle_gamma    120.569

_space_group_name_H-M_alt    "P 1"
_space_group_IT_number       1

loop_
  _space_group_symop_operation_xyz
  'x, y, z'

loop_
  _atom_site_type_symbol
  _atom_site_label
  _atom_site_symmetry_multiplicity
  _atom_site_fract_x
  _atom_site_fract_y
  _atom_site_fract_z
  _atom_site_occupancy
  Fe  Fe1       1.0  0.11909  0.31932  0.32213  1.0000
  H   H1        1.0  0.24610  0.06452  0.30603  1.0000
  C   C1        1.0  0.06465  0.19056  0.28457  1.0000
  C   C2        1.0  0.49872  0.35753  0.29067  1.0000
  Fe  Fe2       1.0  0.17857  0.39387  0.29767  1.0000
  S   S1        1.0  0.18622  0.43817  0.26029  1.0000
  S   S2        1.0  0.16738  0.33870  0.28779  1.0000
  H   H2        1.0  0.05556  0.19397  0.30976  1.0000
  H   H3        1.0  0.24907  0.03508  0.23687  1.0000
  H   H4        1.0  0.23048  0.30103  0.28058  1.0000
  C   C3        1.0  0.24959  0.04205  0.30886  1.0000
  H   H5        1.0  0.47703  0.36278  0.28706  1.0000
  S   S3        1.0  0.45082  0.25389  0.31366  1.0000
  S   S4        1.0  0.35298  0.19203  0.27777  1.0000
  H   H6        1.0  0.09845  0.17466  0.26187  1.0000
  C   C4        1.0  0.48067  0.26226  0.27868  1.0000
  H   H7        1.0  0.17551  0.23873  0.24266  1.0000
  Fe  Fe3       1.0  0.32849  0.14312  0.31257  1.0000
  C   C5        1.0  0.02599  0.26571  0.32156  1.0000
  C   C6        1.0  0.28335  0.04712  0.30765  1.0000
  Fe  Fe4       1.0  0.39068  0.21867  0.31897  1.0000
  H   H8        1.0  0.12627  0.25504  0.28469  1.0000
  H   H9        1.0  0.31344  0.02125  0.31019  1.0000
  H   H10       1.0  0.00784  0.32836  0.24015  1.0000
  C   C7        1.0  0.46949  0.25239  0.24591  1.0000
  C   C8        1.0  0.03264  0.16126  0.26806  1.0000
  C   C9        1.0  0.27100  0.25460  0.30041  1.0000
  H   H11       1.0  0.22556  0.47298  0.10004  1.0000
  C   C10       1.0  0.22022  0.00769  0.31240  1.0000
  C   C11       1.0  0.25140  0.00398  0.19608  1.0000
  H   H12       1.0  0.18859  0.30022  0.23825  1.0000
  C   C12       1.0  0.15325  0.24341  0.24490  1.0000
  H   H13       1.0  0.26083  0.46164  0.24964  1.0000
  C   C13       1.0  0.24220  0.28954  0.29595  1.0000
  H   H14       1.0  0.19418  0.00400  0.31244  1.0000
  N   N1        1.0  0.12760  0.20880  0.30226  1.0000
  C   C14       1.0  0.18395  0.16611  0.27779  1.0000
  C   C15       1.0  0.24644  0.29648  0.33036  1.0000
  H   H15       1.0  0.18155  0.14668  0.25914  1.0000
  H   H16       1.0  0.14367  0.28510  0.22791  1.0000
  S   S5        1.0  0.32105  0.08937  0.29989  1.0000
  S   S6        1.0  0.28593  0.22850  0.28050  1.0000
  H   H17       1.0  0.25123  0.26376  0.25445  1.0000
  H   H18       1.0  0.07391  0.21504  0.26875  1.0000
  H   H19       1.0  0.17170  0.27787  0.19974  1.0000
  H   H20       1.0  0.29255  0.05159  0.21836  1.0000
  C   C16       1.0  0.29856  0.47927  0.33013  1.0000
  C   C17       1.0  0.25430  0.26864  0.28114  1.0000
  Fe  Fe5       1.0  0.31750  0.20699  0.30605  1.0000
  H   H21       1.0  0.18575  0.15634  0.30336  1.0000
  S   S7        1.0  0.06725  0.26985  0.31172  1.0000
  H   H22       1.0  0.13077  0.22309  0.23137  1.0000
  H   H23       1.0  0.48513  0.25366  0.19356  1.0000
  H   H24       1.0  0.15225  0.18126  0.25059  1.0000
  H   H25       1.0  0.44177  0.23837  0.24140  1.0000
  C   C18       1.0  0.16498  0.27887  0.22673  1.0000
  H   H26       1.0  0.01212  0.16853  0.26653  1.0000
  C   C19       1.0  0.28740  0.01756  0.31100  1.0000
  C   C20       1.0  0.26435  0.03913  0.21286  1.0000
  C   C21       1.0  0.22348  0.47872  0.24539  1.0000
  C   C22       1.0  0.25696  0.48315  0.24227  1.0000
  C   C23       1.0  0.27219  0.49132  0.32485  1.0000
  H   H27       1.0  0.12842  0.14481  0.28045  1.0000
  C   C24       1.0  0.09385  0.18122  0.28759  1.0000
  H   H28       1.0  0.26089  0.05744  0.19588  1.0000
  H   H29       1.0  0.20849  0.19138  0.27136  1.0000
  H   H30       1.0  0.30550  0.47242  0.30546  1.0000
  H   H31       1.0  0.03965  0.15748  0.24200  1.0000
  C   C25       1.0  0.49423  0.26117  0.21877  1.0000
  H   H32       1.0  0.49215  0.33294  0.27781  1.0000
  H   H33       1.0  0.16822  0.26340  0.29405  1.0000
  C   C26       1.0  0.15241  0.17119  0.27640  1.0000
  C   C27       1.0  0.14357  0.24366  0.28265  1.0000
  H   H34       1.0  0.13639  0.44522  0.31539  1.0000
  S   S8        1.0  0.12788  0.37336  0.32820  1.0000
  C   C28       1.0  0.15347  0.19602  0.30410  1.0000
  H   H35       1.0  0.18317  0.46604  0.08891  1.0000
  H   H36       1.0  0.19386  0.46706  0.13269  1.0000
  H   H37       1.0  0.02165  0.13608  0.28324  1.0000
  H   H38       1.0  0.08270  0.15610  0.30309  1.0000
  H   H39       1.0  0.20180  0.47294  0.32205  1.0000
  H   H40       1.0  0.24941  0.47000  0.31254  1.0000
  H   H41       1.0  0.26551  0.00962  0.17104  1.0000
  H   H42       1.0  0.18077  0.21887  0.30439  1.0000
  C   C29       1.0  0.20458  0.47869  0.10689  1.0000
  H   H43       1.0  0.14948  0.18084  0.32839  1.0000
  H   H44       1.0  0.50055  0.35346  0.31819  1.0000
  H   H45       1.0  0.28782  0.25086  0.35002  1.0000
  H   H46       1.0  0.04096  0.21174  0.57929  1.0000
  Fe  Fe6       1.0  0.15888  0.37602  0.37295  1.0000
  S   S9        1.0  0.14881  0.39815  0.41988  1.0000
  S   S10       1.0  0.14638  0.32033  0.36940  1.0000
  S   S11       1.0  0.23356  0.38811  0.64178  1.0000
  H   H47       1.0  0.29719  0.01021  0.41226  1.0000
  Fe  Fe7       1.0  0.33091  0.18451  0.37424  1.0000
  S   S12       1.0  0.30677  0.17312  0.42748  1.0000
  H   H48       1.0  0.12374  0.29596  0.54362  1.0000
  Fe  Fe8       1.0  0.20612  0.39291  0.59707  1.0000
  H   H49       1.0  0.27381  0.09104  0.56482  1.0000
  S   S13       1.0  0.23767  0.41340  0.54763  1.0000
  Fe  Fe9       1.0  0.36926  0.19303  0.60906  1.0000
  S   S14       1.0  0.31450  0.18196  0.61877  1.0000
  S   S15       1.0  0.39261  0.19102  0.55835  1.0000
  H   H50       1.0  0.14747  0.30422  0.46883  1.0000
  H   H51       1.0  0.21281  0.04975  0.54771  1.0000
  H   H52       1.0  0.03071  0.26769  0.52685  1.0000
  C   C30       1.0  0.13914  0.23808  0.39605  1.0000
  C   C31       1.0  0.33128  0.17809  0.46325  1.0000
  C   C32       1.0  0.36689  0.18925  0.46052  1.0000
  C   C33       1.0  0.38547  0.19292  0.48988  1.0000
  C   C34       1.0  0.36861  0.18580  0.52200  1.0000
  C   C35       1.0  0.33290  0.17425  0.52460  1.0000
  C   C36       1.0  0.31430  0.17036  0.49532  1.0000
  H   H53       1.0  0.38013  0.19515  0.43584  1.0000
  H   H54       1.0  0.41308  0.20166  0.48773  1.0000
  H   H55       1.0  0.31953  0.16798  0.54913  1.0000
  H   H56       1.0  0.28663  0.16133  0.49749  1.0000
  C   C37       1.0  0.17554  0.40504  0.45433  1.0000
  C   C38       1.0  0.20511  0.40161  0.45151  1.0000
  C   C39       1.0  0.22474  0.40534  0.48010  1.0000
  C   C40       1.0  0.21408  0.41113  0.51177  1.0000
  C   C41       1.0  0.18481  0.41507  0.51441  1.0000
  C   C42       1.0  0.16621  0.41298  0.48554  1.0000
  H   H57       1.0  0.21264  0.39570  0.42747  1.0000
  H   H58       1.0  0.24752  0.40250  0.47793  1.0000
  H   H59       1.0  0.17674  0.42005  0.53865  1.0000
  H   H60       1.0  0.14387  0.41650  0.48761  1.0000
  C   C43       1.0  0.05463  0.26643  0.53098  1.0000
  Fe  Fe10      1.0  0.13582  0.35995  0.63536  1.0000
  C   C44       1.0  0.27887  0.02030  0.41006  1.0000
  S   S16       1.0  0.36748  0.15921  0.65311  1.0000
  N   N2        1.0  0.32803  0.27381  0.52823  1.0000
  C   C45       1.0  0.31170  0.27482  0.49554  1.0000
  C   C46       1.0  0.33427  0.30520  0.54800  1.0000
  C   C47       1.0  0.30004  0.24271  0.47301  1.0000
  C   C48       1.0  0.36368  0.34175  0.53368  1.0000
  C   C49       1.0  0.36646  0.37111  0.55554  1.0000
  C   C50       1.0  0.28261  0.24616  0.44146  1.0000
  H   H61       1.0  0.33045  0.29835  0.47951  1.0000
  H   H62       1.0  0.28875  0.27812  0.50047  1.0000
  H   H63       1.0  0.30998  0.30661  0.55005  1.0000
  H   H64       1.0  0.34018  0.30227  0.57456  1.0000
  H   H65       1.0  0.26690  0.25533  0.57008  1.0000
  H   H66       1.0  0.38952  0.34352  0.53335  1.0000
  H   H67       1.0  0.35843  0.34704  0.50761  1.0000
  H   H68       1.0  0.38768  0.39705  0.54494  1.0000
  H   H69       1.0  0.34150  0.37128  0.55610  1.0000
  H   H70       1.0  0.37271  0.36748  0.58181  1.0000
  H   H71       1.0  0.30106  0.27029  0.42601  1.0000
  H   H72       1.0  0.27489  0.22304  0.42565  1.0000
  N   N3        1.0  0.29500  0.05682  0.42354  1.0000
  C   C51       1.0  0.26942  0.06977  0.42396  1.0000
  C   C52       1.0  0.30555  0.05565  0.45929  1.0000
  C   C53       1.0  0.32624  0.08168  0.40083  1.0000
  C   C54       1.0  0.35733  0.07495  0.40023  1.0000
  C   C55       1.0  0.32689  0.09178  0.47581  1.0000
  C   C56       1.0  0.33677  0.08718  0.51150  1.0000
  C   C57       1.0  0.11890  0.21427  0.33792  1.0000
  H   H73       1.0  0.28274  0.09781  0.43101  1.0000
  H   H74       1.0  0.24835  0.05520  0.44388  1.0000
  H   H75       1.0  0.28194  0.03976  0.47623  1.0000
  H   H76       1.0  0.32059  0.04178  0.46079  1.0000
  H   H77       1.0  0.33617  0.10957  0.40728  1.0000
  H   H78       1.0  0.36720  0.07580  0.42584  1.0000
  H   H79       1.0  0.35154  0.10970  0.46106  1.0000
  C   C58       1.0  0.15056  0.23899  0.35913  1.0000
  H   H80       1.0  0.31297  0.07075  0.52799  1.0000
  C   C59       1.0  0.26293  0.28227  0.34964  1.0000
  H   H81       1.0  0.08803  0.23946  0.57308  1.0000
  H   H82       1.0  0.43527  0.31027  0.52752  1.0000
  C   C60       1.0  0.05914  0.26750  0.56998  1.0000
  H   H83       1.0  0.31128  0.10488  0.47793  1.0000
  C   C61       1.0  0.19975  0.48163  0.34762  1.0000
  H   H84       1.0  0.16191  0.25773  0.40996  1.0000
  C   C62       1.0  0.06406  0.23782  0.58420  1.0000
  H   H85       1.0  0.15582  0.34150  0.49309  1.0000
  H   H86       1.0  0.20481  0.06463  0.41252  1.0000
  H   H87       1.0  0.35212  0.11336  0.52271  1.0000
  C   C63       1.0  0.21999  0.04738  0.57387  1.0000
  Fe  Fe11      1.0  0.19541  0.34278  0.33582  1.0000
  H   H88       1.0  0.12945  0.21157  0.40816  1.0000
  S   S17       1.0  0.39525  0.24269  0.63789  1.0000
  H   H89       1.0  0.34938  0.04893  0.38981  1.0000
  H   H90       1.0  0.11401  0.34235  0.53812  1.0000
  C   C64       1.0  0.07818  0.28841  0.47283  1.0000
  H   H91       1.0  0.04766  0.23982  0.52241  1.0000
  H   H92       1.0  0.07402  0.26205  0.46663  1.0000
  H   H93       1.0  0.37969  0.10305  0.35160  1.0000
  S   S18       1.0  0.36797  0.16914  0.35240  1.0000
  H   H94       1.0  0.02242  0.27355  0.47412  1.0000
  C   C65       1.0  0.26049  0.31013  0.63859  1.0000
  C   C66       1.0  0.07533  0.37545  0.53248  1.0000
  H   H95       1.0  0.31092  0.07738  0.64546  1.0000
  H   H96       1.0  0.11820  0.24477  0.39789  1.0000
  H   H97       1.0  0.19767  0.04164  0.59137  1.0000
  C   C67       1.0  0.15025  0.31408  0.49479  1.0000
  C   C68       1.0  0.29086  0.27714  0.64638  1.0000
  H   H98       1.0  0.25841  0.20413  0.60499  1.0000
  H   H99       1.0  0.09817  0.38891  0.54881  1.0000
  H   H100      1.0  0.35654  0.25052  0.50682  1.0000
  S   S19       1.0  0.35668  0.23666  0.34512  1.0000
  H   H101      1.0  0.25876  0.24712  0.44852  1.0000
  S   S20       1.0  0.33006  0.27574  0.64127  1.0000
  C   C69       1.0  0.29032  0.30693  0.63361  1.0000
  C   C70       1.0  0.38327  0.27582  0.55094  1.0000
  H   H102      1.0  0.06497  0.29969  0.40643  1.0000
  H   H103      1.0  0.37154  0.08151  0.65430  1.0000
  H   H104      1.0  0.04112  0.32425  0.51388  1.0000
  H   H105      1.0  0.19186  0.45812  0.36473  1.0000
  H   H106      1.0  0.24328  0.10374  0.57967  1.0000
  H   H107      1.0  0.10120  0.30808  0.45678  1.0000
  H   H108      1.0  0.25221  0.22880  0.53346  1.0000
  C   C71       1.0  0.25197  0.06824  0.39008  1.0000
  H   H109      1.0  0.31845  0.08028  0.37418  1.0000
  H   H110      1.0  0.24002  0.10917  0.40180  1.0000
  H   H111      1.0  0.41780  0.26381  0.52140  1.0000
  H   H112      1.0  0.37875  0.29682  0.50187  1.0000
  C   C72       1.0  0.22631  0.08149  0.39375  1.0000
  C   C73       1.0  0.36178  0.27456  0.52009  1.0000
  H   H113      1.0  0.38679  0.29635  0.56860  1.0000
  H   H114      1.0  0.39834  0.12931  0.38816  1.0000
  H   H115      1.0  0.32291  0.24085  0.46416  1.0000
  C   C74       1.0  0.02337  0.29215  0.33775  1.0000
  C   C75       1.0  0.18200  0.31441  0.50931  1.0000
  C   C76       1.0  0.28924  0.05420  0.65803  1.0000
  C   C77       1.0  0.25082  0.08336  0.58225  1.0000
  C   C78       1.0  0.23091  0.28370  0.65679  1.0000
  H   H116      1.0  0.05365  0.37810  0.54368  1.0000
  C   C79       1.0  0.26659  0.23321  0.55706  1.0000
  H   H117      1.0  0.05398  0.32429  0.55614  1.0000
  H   H118      1.0  0.27193  0.08509  0.37013  1.0000
  C   C80       1.0  0.30429  0.24078  0.54945  1.0000
  H   H119      1.0  0.31574  0.24199  0.57443  1.0000
  H   H120      1.0  0.43357  0.28171  0.56188  1.0000
  S   S21       1.0  0.16129  0.33722  0.60300  1.0000
  H   H121      1.0  0.36983  0.24996  0.56515  1.0000
  H   H122      1.0  0.25839  0.08289  0.60870  1.0000
  C   C81       1.0  0.41969  0.28341  0.53959  1.0000
  H   H123      1.0  0.21477  0.08071  0.36897  1.0000
  H   H124      1.0  0.24439  0.17695  0.56848  1.0000
  H   H125      1.0  0.40941  0.09675  0.37691  1.0000
  H   H126      1.0  0.30251  0.21731  0.53776  1.0000
  H   H127      1.0  0.26659  0.28763  0.37620  1.0000
  H   H128      1.0  0.05311  0.31892  0.46070  1.0000
  C   C82       1.0  0.03900  0.31206  0.63428  1.0000
  H   H129      1.0  0.28102  0.21766  0.48673  1.0000
  H   H130      1.0  0.21888  0.19508  0.58501  1.0000
  C   C83       1.0  0.27508  0.26144  0.33484  1.0000
  H   H131      1.0  0.08098  0.29313  0.57777  1.0000
  H   H132      1.0  0.10957  0.26257  0.51363  1.0000
  C   C84       1.0  0.24588  0.20025  0.58025  1.0000
  S   S22       1.0  0.17998  0.41663  0.62661  1.0000
  H   H133      1.0  0.20523  0.32994  0.49185  1.0000
  H   H134      1.0  0.08244  0.38852  0.50684  1.0000
  H   H135      1.0  0.23709  0.04099  0.38128  1.0000
  H   H136      1.0  0.20310  0.49329  0.47415  1.0000
  H   H137      1.0  0.10192  0.22609  0.33782  1.0000
  C   C85       1.0  0.06363  0.33647  0.53046  1.0000
  H   H138      1.0  0.35318  0.07480  0.51086  1.0000
  C   C86       1.0  0.16902  0.48892  0.34696  1.0000
  C   C87       1.0  0.04719  0.29131  0.45959  1.0000
  C   C88       1.0  0.38798  0.10277  0.37783  1.0000
  C   C89       1.0  0.09435  0.33159  0.51810  1.0000
  N   N4        1.0  0.08544  0.29467  0.50990  1.0000
  H   H139      1.0  0.17726  0.28722  0.51244  1.0000
  H   H140      1.0  0.01911  0.28416  0.41355  1.0000
  H   H141      1.0  0.03512  0.26444  0.58277  1.0000
  Fe  Fe12      1.0  0.33979  0.22993  0.65020  1.0000
  C   C90       1.0  0.04127  0.28164  0.42253  1.0000
  C   C91       1.0  0.11644  0.29038  0.51688  1.0000
  H   H142      1.0  0.25255  0.02679  0.55889  1.0000
  H   H143      1.0  0.10742  0.34974  0.49564  1.0000
  C   C92       1.0  0.03416  0.28474  0.65664  1.0000
  H   H144      1.0  0.26052  0.33322  0.62871  1.0000
  S   S23       1.0  0.08101  0.34916  0.62366  1.0000
  H   H145      1.0  0.22851  0.48248  0.42341  1.0000
  H   H146      1.0  0.04688  0.31590  0.34435  1.0000
  H   H147      1.0  0.31329  0.32792  0.62019  1.0000
  C   C93       1.0  0.22986  0.01837  0.57694  1.0000
  Fe  Fe13      1.0  0.18716  0.33410  0.65010  1.0000
  H   H148      1.0  0.26838  0.48878  0.65151  1.0000
  H   H149      1.0  0.41451  0.08701  0.65655  1.0000
  H   H150      1.0  0.24037  0.01929  0.60238  1.0000
  S   S24       1.0  0.19343  0.28742  0.66566  1.0000
  H   H151      1.0  0.18803  0.32704  0.53411  1.0000
  H   H152      1.0  0.17125  0.23196  0.35887  1.0000
  H   H153      1.0  0.27480  0.02093  0.38247  1.0000
  H   H154      1.0  0.18691  0.47839  0.41563  1.0000
  C   C94       1.0  0.00947  0.31031  0.61997  1.0000
  H   H155      1.0  0.01289  0.33125  0.60260  1.0000
  H   H156      1.0  0.30471  0.01855  0.63863  1.0000
  H   H157      1.0  0.03493  0.25409  0.41938  1.0000
  H   H158      1.0  0.10371  0.18839  0.35218  1.0000
  H   H159      1.0  0.24943  0.47515  0.37523  1.0000
  H   H160      1.0  0.30918  0.43074  0.65281  1.0000
  C   C95       1.0  0.32470  0.41793  0.65800  1.0000
  H   H161      1.0  0.19245  0.00369  0.63638  1.0000
  H   H162      1.0  0.06667  0.24002  0.61202  1.0000
  C   C96       1.0  0.28553  0.02081  0.65403  1.0000
  H   H163      1.0  0.12789  0.43508  0.36059  1.0000
  H   H164      1.0  0.16238  0.26646  0.34902  1.0000
  H   H165      1.0  0.28728  0.45555  0.34752  1.0000
  H   H166      1.0  0.11313  0.46155  0.33955  1.0000
  H   H167      1.0  0.31485  0.39394  0.64303  1.0000
  C   C97       1.0  0.26099  0.25031  0.66384  1.0000
  S   S25       1.0  0.20996  0.39933  0.34339  1.0000
  S   S26       1.0  0.28991  0.15557  0.33646  1.0000
  S   S27       1.0  0.23268  0.32344  0.35043  1.0000
  C   C98       1.0  0.13455  0.45554  0.34021  1.0000
  H   H168      1.0  0.35234  0.43665  0.64966  1.0000
  Fe  Fe14      1.0  0.31478  0.15184  0.66546  1.0000
  H   H169      1.0  0.22329  0.99896  0.42542  1.0000
  H   H170      1.0  0.26723  0.49614  0.60679  1.0000
  H   H171      1.0  0.40942  0.12475  0.65984  1.0000
  H   H172      1.0  0.05662  0.28567  0.66777  1.0000
  C   C99       1.0  0.39706  0.09618  0.66657  1.0000
  H   H173      1.0  0.26935  0.39468  0.70488  1.0000
  S   S28       1.0  0.15759  0.35208  0.68349  1.0000
  S   S29       1.0  0.23673  0.44315  0.71429  1.0000
  C   C100      1.0  0.39216  0.08976  0.70494  1.0000
  Fe  Fe15      1.0  0.38927  0.20808  0.68337  1.0000
  C   C101      1.0  0.33849  0.13922  0.76228  1.0000
  H   H174      1.0  0.21803  0.02942  0.71034  1.0000
  C   C102      1.0  0.21397  0.34787  0.74793  1.0000
  H   H175      1.0  0.29746  0.33954  0.77693  1.0000
  H   H176      1.0  0.27363  0.35968  0.68998  1.0000
  S   S30       1.0  0.33570  0.19916  0.69809  1.0000
  S   S31       1.0  0.42701  0.21017  0.72342  1.0000
  C   C103      1.0  0.17735  0.31610  0.75563  1.0000
  H   H177      1.0  0.19593  0.47739  0.70073  1.0000
  H   H178      1.0  0.34394  0.42748  0.76035  1.0000
  N   N5        1.0  0.35591  0.09143  0.75673  1.0000
  C   C104      1.0  0.32262  0.40870  0.69577  1.0000
  H   H179      1.0  0.23830  0.32241  0.77367  1.0000
  C   C105      1.0  0.47009  0.24451  0.73239  1.0000
  H   H180      1.0  0.36022  0.15530  0.77900  1.0000
  C   C106      1.0  0.28616  0.39423  0.76905  1.0000
  C   C107      1.0  0.34091  0.05269  0.76535  1.0000
  H   H181      1.0  0.27174  0.29804  0.72952  1.0000
  C   C108      1.0  0.29835  0.32166  0.72659  1.0000
  H   H182      1.0  0.34312  0.08949  0.70410  1.0000
  H   H183      1.0  0.37972  0.12964  0.71485  1.0000
  C   C109      1.0  0.30905  0.02684  0.74503  1.0000
  H   H184      1.0  0.21424  0.35903  0.72250  1.0000
  H   H185      1.0  0.17065  0.29602  0.73630  1.0000
  H   H186      1.0  0.15775  0.32464  0.75526  1.0000
  H   H187      1.0  0.47688  0.21242  0.76985  1.0000
  H   H188      1.0  0.33073  0.37131  0.74892  1.0000
  H   H189      1.0  0.31659  0.17259  0.77155  1.0000
  Fe  Fe16      1.0  0.20357  0.40713  0.67260  1.0000
  H   H190      1.0  0.35478  0.46377  0.80990  1.0000
  H   H191      1.0  0.34711  0.14995  0.73600  1.0000
  H   H192      1.0  0.47179  0.28355  0.69753  1.0000
  H   H193      1.0  0.30560  0.08643  0.74701  1.0000
  H   H194      1.0  0.40336  0.14055  0.76641  1.0000
  H   H195      1.0  0.29815  0.13357  0.79890  1.0000
  H   H196      1.0  0.27753  0.41230  0.75888  1.0000
  H   H197      1.0  0.28615  0.02997  0.75029  1.0000
  H   H198      1.0  0.35170  0.33177  0.72972  1.0000
  C   C110      1.0  0.48586  0.27796  0.71625  1.0000
  H   H199      1.0  0.17572  0.30401  0.78104  1.0000
  C   C111      1.0  0.23817  0.48151  0.72960  1.0000
  H   H200      1.0  0.28100  0.49338  0.76179  1.0000
  H   H201      1.0  0.39630  0.07711  0.80800  1.0000
  H   H202      1.0  0.32058  0.29931  0.76081  1.0000
  H   H203      1.0  0.20851  0.23302  0.68311  1.0000
  H   H204      1.0  0.30894  0.43923  0.82269  1.0000
  C   C112      1.0  0.32739  0.09968  0.76462  1.0000
  C   C113      1.0  0.36662  0.10066  0.71973  1.0000
  H   H205      1.0  0.41778  0.08844  0.76695  1.0000
  H   H206      1.0  0.38257  0.06145  0.71015  1.0000
  H   H207      1.0  0.33000  0.40094  0.79881  1.0000
  H   H208      1.0  0.45990  0.11578  0.81186  1.0000
  C   C114      1.0  0.23689  0.02712  0.69446  1.0000
  H   H209      1.0  0.36084  0.04491  0.76177  1.0000
  H   H210      1.0  0.30327  0.33151  0.69986  1.0000
  H   H211      1.0  0.05780  0.34900  0.70386  1.0000
  H   H212      1.0  0.21832  0.36784  0.76667  1.0000
  C   C115      1.0  0.21543  0.49259  0.71874  1.0000
  C   C116      1.0  0.30257  0.35083  0.75049  1.0000
  N   N6        1.0  0.27973  0.36642  0.74386  1.0000
  H   H213      1.0  0.31570  0.03115  0.71753  1.0000
  H   H214      1.0  0.23508  0.31712  0.72920  1.0000
  H   H215      1.0  0.45977  0.14895  0.78451  1.0000
  H   H216      1.0  0.32017  0.28824  0.71729  1.0000
  C   C117      1.0  0.32785  0.44842  0.80060  1.0000
  H   H217      1.0  0.33281  0.04709  0.79273  1.0000
  C   C118      1.0  0.30786  0.14410  0.77265  1.0000
  C   C119      1.0  0.44399  0.12733  0.80368  1.0000
  H   H218      1.0  0.28610  0.13048  0.75518  1.0000
  C   C120      1.0  0.48887  0.23800  0.75689  1.0000
  C   C121      1.0  0.38646  0.11372  0.77859  1.0000
  C   C122      1.0  0.41030  0.09894  0.78858  1.0000
  H   H219      1.0  0.37692  0.11819  0.80323  1.0000
  H   H220      1.0  0.26978  0.38177  0.79272  1.0000
  C   C123      1.0  0.32395  0.41707  0.78133  1.0000
  C   C124      1.0  0.24208  0.33689  0.74898  1.0000
  C   C125      1.0  0.28468  0.38131  0.70809  1.0000
  H   H221      1.0  0.32327  0.46609  0.78376  1.0000
  C   C126      1.0  0.32436  0.30965  0.73423  1.0000
  H   H222      1.0  0.33175  0.43354  0.70903  1.0000
  H   H223      1.0  0.43792  0.13842  0.82598  1.0000
  H   H224      1.0  0.31566  0.08924  0.79054  1.0000
  H   H225      1.0  0.41835  0.10601  0.71541  1.0000
  S   S32       1.0  0.26886  0.09896  0.68497  1.0000
  H   H226      1.0  0.04512  0.38023  0.69134  1.0000
  C   C127      1.0  0.23127  0.25368  0.66910  1.0000
  H   H227      1.0  0.34081  0.39883  0.69973  1.0000
  C   C128      1.0  0.04154  0.36047  0.71140  1.0000
  C   C129      1.0  0.26502  0.05753  0.67847  1.0000
  H   H228      1.0  0.05088  0.37370  0.73563  1.0000
  H   H229      1.0  0.26100  0.22729  0.67389  1.0000
  C   C130      1.0  0.00312  0.33127  0.71528  1.0000
  H   H230      1.0  0.37279  0.73684  0.32274  1.0000
  H   H231      1.0  0.34009  0.70819  0.29399  1.0000
  H   H232      1.0  0.20761  0.87280  0.11050  1.0000
  C   C131      1.0  0.34778  0.67219  0.01521  1.0000
  C   C132      1.0  0.35473  0.77634  0.27959  1.0000
  S   S33       1.0  0.22481  0.81885  0.24829  1.0000
  S   S34       1.0  0.15419  0.83944  0.28465  1.0000
  Fe  Fe17      1.0  0.30392  0.69262  0.19815  1.0000
  S   S35       1.0  0.28425  0.64756  0.16269  1.0000
  S   S36       1.0  0.27072  0.70307  0.23610  1.0000
  Fe  Fe18      1.0  0.38056  0.71380  0.18524  1.0000
  S   S37       1.0  0.36716  0.67120  0.14801  1.0000
  S   S38       1.0  0.43534  0.75747  0.19881  1.0000
  Fe  Fe19      1.0  0.32901  0.68519  0.12633  1.0000
  S   S39       1.0  0.31799  0.68971  0.06972  1.0000
  Fe  Fe20      1.0  0.32313  0.63570  0.18573  1.0000
  S   S40       1.0  0.31743  0.58242  0.20007  1.0000
  S   S41       1.0  0.34583  0.73096  0.16088  1.0000
  S   S42       1.0  0.33951  0.67750  0.22387  1.0000
  C   C133      1.0  0.32565  0.68448  0.02579  1.0000
  H   H233      1.0  0.29245  0.96168  0.26100  1.0000
  S   S43       1.0  0.22546  0.87016  0.32887  1.0000
  H   H234      1.0  0.17368  0.50861  0.32645  1.0000
  H   H235      1.0  0.36186  0.66646  0.03375  1.0000
  H   H236      1.0  0.44263  0.69564  0.11977  1.0000
  C   C134      1.0  0.32453  0.81586  0.30606  1.0000
  C   C135      1.0  0.28078  0.54322  0.21814  1.0000
  C   C136      1.0  0.24738  0.53896  0.22155  1.0000
  C   C137      1.0  0.29902  0.91703  0.26478  1.0000
  C   C138      1.0  0.20826  0.58869  0.09079  1.0000
  H   H237      1.0  0.31101  0.51807  0.22602  1.0000
  H   H238      1.0  0.24337  0.56021  0.21347  1.0000
  H   H239      1.0  0.32291  0.92887  0.24782  1.0000
  C   C139      1.0  0.46416  0.75682  0.22900  1.0000
  C   C140      1.0  0.45423  0.72801  0.25149  1.0000
  H   H240      1.0  0.38823  0.85473  0.19870  1.0000
  H   H241      1.0  0.42813  0.70525  0.25101  1.0000
  C   C141      1.0  0.23660  0.78591  0.24493  1.0000
  C   C142      1.0  0.23093  0.76217  0.27181  1.0000
  C   C143      1.0  0.24144  0.73705  0.26847  1.0000
  C   C144      1.0  0.25770  0.73517  0.23827  1.0000
  C   C145      1.0  0.26327  0.75881  0.21128  1.0000
  C   C146      1.0  0.25291  0.78410  0.21467  1.0000
  H   H242      1.0  0.21848  0.76319  0.29525  1.0000
  H   H243      1.0  0.23683  0.71887  0.28949  1.0000
  H   H244      1.0  0.27527  0.75742  0.18773  1.0000
  H   H245      1.0  0.25732  0.80219  0.19364  1.0000
  H   H246      1.0  0.49478  0.66670  0.03558  1.0000
  H   H247      1.0  0.19437  0.88308  0.16830  1.0000
  C   C147      1.0  0.17788  0.92839  0.21830  1.0000
  C   C148      1.0  0.23338  0.53570  0.07051  1.0000
  H   H248      1.0  0.21470  0.62629  0.12874  1.0000
  H   H249      1.0  0.35342  0.59048  0.12731  1.0000
  C   C149      1.0  0.34510  0.59439  0.10213  1.0000
  H   H250      1.0  0.35532  0.78023  0.30714  1.0000
  H   H251      1.0  0.30947  0.61702  0.06490  1.0000
  C   C150      1.0  0.24505  0.59309  0.09402  1.0000
  H   H252      1.0  0.30709  0.92213  0.29135  1.0000
  H   H253      1.0  0.14205  0.89878  0.26117  1.0000
  H   H254      1.0  0.28403  0.88808  0.26202  1.0000
  C   C151      1.0  0.02555  0.77651  0.30132  1.0000
  H   H255      1.0  0.44797  0.74535  0.08423  1.0000
  H   H256      1.0  0.46022  0.89835  0.28521  1.0000
  H   H257      1.0  0.17538  0.93015  0.19069  1.0000
  N   N7        1.0  0.24131  0.94065  0.20868  1.0000
  H   H258      1.0  0.20914  0.60657  0.07000  1.0000
  H   H259      1.0  0.26410  0.62195  0.09295  1.0000
  H   H260      1.0  0.29442  0.58731  0.27945  1.0000
  H   H261      1.0  0.43694  0.64419  0.14215  1.0000
  C   C152      1.0  0.20607  0.91904  0.22705  1.0000
  H   H262      1.0  0.16993  0.59501  0.11998  1.0000
  N   N8        1.0  0.36400  0.80969  0.25943  1.0000
  H   H263      1.0  0.37489  0.75101  0.24602  1.0000
  H   H264      1.0  0.34152  0.83578  0.20286  1.0000
  H   H265      1.0  0.35206  0.58047  0.08328  1.0000
  H   H266      1.0  0.24437  0.53117  0.30437  1.0000
  C   C153      1.0  0.21889  0.50679  0.23483  1.0000
  H   H267      1.0  0.25212  0.98068  0.24485  1.0000
  C   C154      1.0  0.36811  0.72861  0.29618  1.0000
  H   H268      1.0  0.33449  0.77653  0.21891  1.0000
  C   C155      1.0  0.29373  0.58796  0.06995  1.0000
  H   H269      1.0  0.23945  0.52947  0.12571  1.0000
  C   C156      1.0  0.46095  0.76180  0.10605  1.0000
  H   H270      1.0  0.46227  0.65266  0.09062  1.0000
  C   C157      1.0  0.36267  0.82997  0.19744  1.0000
  C   C158      1.0  0.14178  0.90067  0.23318  1.0000
  H   H271      1.0  0.24676  0.58411  0.11991  1.0000
  H   H272      1.0  0.41986  0.83149  0.25152  1.0000
  H   H273      1.0  0.25036  0.89710  0.21746  1.0000
  H   H274      1.0  0.23682  0.88708  0.16439  1.0000
  H   H275      1.0  0.19527  0.89044  0.22352  1.0000
  H   H276      1.0  0.45682  0.66314  0.21617  1.0000
  C   C159      1.0  0.48550  0.67937  0.08596  1.0000
  H   H277      1.0  0.25369  0.92130  0.27467  1.0000
  H   H278      1.0  0.22347  0.94921  0.16057  1.0000
  H   H279      1.0  0.44771  0.71335  0.15983  1.0000
  C   C160      1.0  0.45759  0.65764  0.16081  1.0000
  C   C161      1.0  0.25802  0.98328  0.31548  1.0000
  H   H280      1.0  0.30227  0.57607  0.05025  1.0000
  C   C162      1.0  0.45206  0.87414  0.30121  1.0000
  H   H281      1.0  0.29942  0.59152  0.12520  1.0000
  C   C163      1.0  0.41153  0.61463  0.20414  1.0000
  H   H282      1.0  0.49273  0.71935  0.19683  1.0000
  C   C164      1.0  0.25048  0.58812  0.03333  1.0000
  H   H283      1.0  0.38060  0.81342  0.15360  1.0000
  H   H284      1.0  0.19305  0.50354  0.23678  1.0000
  C   C165      1.0  0.23861  0.93766  0.17081  1.0000
  H   H285      1.0  0.13344  0.87446  0.22293  1.0000
  H   H286      1.0  0.42390  0.66786  0.19513  1.0000
  H   H287      1.0  0.19451  0.58105  0.14492  1.0000
  C   C166      1.0  0.19622  0.59834  0.12317  1.0000
  C   C167      1.0  0.30556  0.57971  0.10363  1.0000
  H   H288      1.0  0.32530  0.86545  0.31088  1.0000
  H   H289      1.0  0.18838  0.56134  0.08491  1.0000
  Fe  Fe21      1.0  0.19602  0.82558  0.29385  1.0000
  H   H290      1.0  0.20363  0.91145  0.11095  1.0000
  H   H291      1.0  0.12224  0.90823  0.22659  1.0000
  C   C168      1.0  0.33876  0.82203  0.26876  1.0000
  N   N9        1.0  0.25528  0.57552  0.06759  1.0000
  H   H292      1.0  0.35046  0.85051  0.26153  1.0000
  H   H293      1.0  0.35956  0.62299  0.09506  1.0000
  C   C169      1.0  0.21979  0.90018  0.11919  1.0000
  H   H294      1.0  0.32711  0.75570  0.27527  1.0000
  H   H295      1.0  0.44055  0.75945  0.12450  1.0000
  H   H296      1.0  0.28827  0.93732  0.20281  1.0000
  H   H297      1.0  0.34530  0.82343  0.32441  1.0000
  H   H298      1.0  0.26328  0.61744  0.03198  1.0000
  H   H299      1.0  0.04954  0.79761  0.28939  1.0000
  N   N10       1.0  0.48336  0.69501  0.14835  1.0000
  C   C170      1.0  0.43823  0.65336  0.19541  1.0000
  C   C171      1.0  0.35928  0.81848  0.16096  1.0000
  C   C172      1.0  0.22155  0.89976  0.15770  1.0000
  C   C173      1.0  0.37809  0.76028  0.27217  1.0000
  H   H300      1.0  0.39726  0.61232  0.22841  1.0000
  C   C174      1.0  0.26422  0.92624  0.21969  1.0000
  C   C175      1.0  0.46287  0.71213  0.13782  1.0000
  C   C176      1.0  0.47818  0.72868  0.27476  1.0000
  H   H301      1.0  0.29310  0.55088  0.10840  1.0000
  H   H302      1.0  0.36113  0.83961  0.14364  1.0000
  H   H303      1.0  0.31471  0.80810  0.25399  1.0000
  H   H304      1.0  0.24649  0.91587  0.10710  1.0000
  H   H305      1.0  0.20882  0.92174  0.25475  1.0000
  C   C177      1.0  0.27648  0.93311  0.25656  1.0000
  C   C178      1.0  0.22423  0.97812  0.31535  1.0000
  H   H306      1.0  0.39203  0.60333  0.18421  1.0000
  H   H307      1.0  0.19775  0.52259  0.11528  1.0000
  S   S44       1.0  0.18628  0.93544  0.31800  1.0000
  C   C179      1.0  0.28536  0.51518  0.22870  1.0000
  H   H308      1.0  0.31964  0.62331  0.30630  1.0000
  H   H309      1.0  0.28782  0.99141  0.21607  1.0000
  H   H310      1.0  0.39968  0.86285  0.31057  1.0000
  H   H311      1.0  0.18450  0.95382  0.22941  1.0000
  C   C180      1.0  0.02704  0.75471  0.32669  1.0000
  H   H312      1.0  0.03085  0.73036  0.22794  1.0000
  H   H313      1.0  0.30494  0.78742  0.31100  1.0000
  Fe  Fe22      1.0  0.18198  0.88156  0.32252  1.0000
  Fe  Fe23      1.0  0.12433  0.80281  0.32945  1.0000
  H   H314      1.0  0.26521  0.95356  0.15831  1.0000
  H   H315      1.0  0.28491  0.51468  0.30711  1.0000
  H   H316      1.0  0.38437  0.71689  0.28956  1.0000
  H   H317      1.0  0.49843  0.76888  0.14290  1.0000
  H   H318      1.0  0.33356  0.79424  0.15783  1.0000
  C   C181      1.0  0.40141  0.83847  0.26367  1.0000
  C   C182      1.0  0.21927  0.51844  0.10656  1.0000
  H   H319      1.0  0.47021  0.70625  0.29200  1.0000
  C   C183      1.0  0.36011  0.80094  0.22249  1.0000
  H   H320      1.0  0.38044  0.79494  0.21358  1.0000
  H   H321      1.0  0.28502  0.83001  0.29553  1.0000
  H   H322      1.0  0.24830  0.52403  0.05938  1.0000
  C   C184      1.0  0.29336  0.59986  0.30310  1.0000
  H   H323      1.0  0.47670  0.69692  0.07522  1.0000
  C   C185      1.0  0.25876  0.97891  0.21793  1.0000
  H   H324      1.0  0.40691  0.86316  0.24996  1.0000
  H   H325      1.0  0.47685  0.78975  0.09678  1.0000
  H   H326      1.0  0.20979  0.52583  0.05503  1.0000
  H   H327      1.0  0.22328  0.99272  0.19162  1.0000
  C   C186      1.0  0.48460  0.75038  0.12259  1.0000
  H   H328      1.0  0.40616  0.77967  0.27536  1.0000
  H   H329      1.0  0.47047  0.64165  0.16258  1.0000
  H   H330      1.0  0.22798  0.55182  0.33046  1.0000
  H   H331      1.0  0.46649  0.86120  0.29212  1.0000
  C   C187      1.0  0.28325  0.57401  0.33355  1.0000
  H   H332      1.0  0.45934  0.88192  0.32758  1.0000
  C   C188      1.0  0.49831  0.78611  0.23004  1.0000
  H   H333      1.0  0.40606  0.82572  0.31706  1.0000
  C   C189      1.0  0.41254  0.84889  0.30028  1.0000
  H   H334      1.0  0.26150  0.96088  0.31870  1.0000
  H   H335      1.0  0.29080  0.70152  0.00828  1.0000
  C   C190      1.0  0.30628  0.83668  0.31329  1.0000
  H   H336      1.0  0.42476  0.59912  0.20686  1.0000
  C   C191      1.0  0.24615  0.54144  0.33015  1.0000
  H   H337      1.0  0.22223  0.57794  0.02943  1.0000
  H   H338      1.0  0.25634  0.54937  0.00385  1.0000
  H   H339      1.0  0.27421  0.60885  0.30055  1.0000
  C   C192      1.0  0.26467  0.57773  0.00219  1.0000
  H   H340      1.0  0.41303  0.70753  0.63168  1.0000
  C   C193      1.0  0.07069  0.70421  0.63160  1.0000
  Fe  Fe24      1.0  0.19037  0.83150  0.37018  1.0000
  S   S45       1.0  0.21153  0.82487  0.41950  1.0000
  S   S46       1.0  0.14886  0.84580  0.36644  1.0000
  Fe  Fe25      1.0  0.16540  0.84755  0.60683  1.0000
  S   S47       1.0  0.15686  0.88296  0.64039  1.0000
  S   S48       1.0  0.15250  0.85535  0.55346  1.0000
  C   C194      1.0  0.19753  0.83575  0.45694  1.0000
  C   C195      1.0  0.20422  0.82570  0.48851  1.0000
  C   C196      1.0  0.19168  0.83265  0.51861  1.0000
  C   C197      1.0  0.17210  0.84934  0.51709  1.0000
  C   C198      1.0  0.16629  0.86022  0.48559  1.0000
  C   C199      1.0  0.17924  0.85377  0.45566  1.0000
  H   H341      1.0  0.21862  0.81198  0.48967  1.0000
  H   H342      1.0  0.19631  0.82422  0.54284  1.0000
  H   H343      1.0  0.15103  0.87296  0.48426  1.0000
  H   H344      1.0  0.17482  0.86250  0.43163  1.0000
  S   S49       1.0  0.06715  0.75957  0.34018  1.0000
  H   H345      1.0  0.12644  0.77737  0.41510  1.0000
  H   H346      1.0  0.15505  0.98409  0.58474  1.0000
  H   H347      1.0  0.26960  0.98781  0.55917  1.0000
  C   C200      1.0  0.23015  0.95601  0.41220  1.0000
  H   H348      1.0  0.01748  0.72470  0.47764  1.0000
  C   C201      1.0  0.15374  0.94520  0.48582  1.0000
  H   H349      1.0  0.23854  0.62381  0.65756  1.0000
  C   C202      1.0  0.08114  0.80042  0.43436  1.0000
  C   C203      1.0  0.48180  0.64612  0.42734  1.0000
  H   H350      1.0  0.25849  0.54570  0.39871  1.0000
  H   H351      1.0  0.08101  0.85503  0.39786  1.0000
  H   H352      1.0  0.04330  0.81723  0.44724  1.0000
  H   H353      1.0  0.25867  0.53840  0.63824  1.0000
  H   H354      1.0  0.26189  0.93408  0.58896  1.0000
  C   C204      1.0  0.11179  0.75192  0.42982  1.0000
  H   H355      1.0  0.11847  0.87395  0.42437  1.0000
  H   H356      1.0  0.36008  0.60830  0.63870  1.0000
  H   H357      1.0  0.32283  0.50064  0.34071  1.0000
  H   H358      1.0  0.04897  0.72910  0.52150  1.0000
  H   H359      1.0  0.05405  0.77769  0.64212  1.0000
  H   H360      1.0  0.30863  0.51042  0.62568  1.0000
  C   C205      1.0  0.02795  0.75033  0.46333  1.0000
  H   H361      1.0  0.14976  0.94171  0.59043  1.0000
  H   H362      1.0  0.50270  0.64187  0.35998  1.0000
  C   C206      1.0  0.09911  0.75496  0.54353  1.0000
  H   H363      1.0  0.17614  0.95921  0.46726  1.0000
  H   H364      1.0  0.11409  0.79069  0.48373  1.0000
  H   H365      1.0  0.12252  0.93395  0.64807  1.0000
  C   C207      1.0  0.19114  0.98025  0.53395  1.0000
  C   C208      1.0  0.28242  0.50752  0.62967  1.0000
  H   H366      1.0  0.43473  0.59527  0.43766  1.0000
  H   H367      1.0  0.46945  0.59304  0.41555  1.0000
  H   H368      1.0  0.18689  0.96041  0.64085  1.0000
  H   H369      1.0  0.24709  0.98838  0.45502  1.0000
  H   H370      1.0  0.22470  0.95739  0.38518  1.0000
  H   H371      1.0  0.47206  0.60139  0.46030  1.0000
  H   H372      1.0  0.08209  0.88027  0.43344  1.0000
  C   C209      1.0  0.11470  0.72445  0.40953  1.0000
  H   H373      1.0  0.10144  0.69849  0.42355  1.0000
  C   C210      1.0  0.46352  0.60653  0.43574  1.0000
  H   H374      1.0  0.06157  0.73767  0.41088  1.0000
  H   H375      1.0  0.24045  0.96139  0.52729  1.0000
  H   H376      1.0  0.23222  0.90708  0.55732  1.0000
  C   C211      1.0  0.07683  0.74310  0.51242  1.0000
  H   H377      1.0  0.27742  0.93802  0.54567  1.0000
  H   H378      1.0  0.00504  0.72087  0.41802  1.0000
  H   H379      1.0  0.28455  0.51918  0.37151  1.0000
  H   H380      1.0  0.24945  0.94716  0.41421  1.0000
  H   H381      1.0  0.11016  0.81408  0.43246  1.0000
  H   H382      1.0  0.09415  0.77336  0.55804  1.0000
  N   N11       1.0  0.23464  0.51218  0.35682  1.0000
  H   H383      1.0  0.32145  0.72632  0.65660  1.0000
  H   H384      1.0  0.10282  0.72174  0.38457  1.0000
  C   C212      1.0  0.08951  0.86128  0.42424  1.0000
  C   C213      1.0  0.07288  0.74120  0.43624  1.0000
  C   C214      1.0  0.16896  0.97025  0.59280  1.0000
  H   H385      1.0  0.07581  0.73067  0.62316  1.0000
  H   H386      1.0  0.47189  0.88667  0.66776  1.0000
  H   H387      1.0  0.20125  0.52861  0.45229  1.0000
  C   C215      1.0  0.14062  0.96255  0.65134  1.0000
  H   H388      1.0  0.37646  0.68287  0.60536  1.0000
  H   H389      1.0  0.30399  0.65515  0.65411  1.0000
  N   N12       1.0  0.20115  0.98141  0.57025  1.0000
  H   H390      1.0  0.13613  0.91825  0.47709  1.0000
  C   C216      1.0  0.28575  0.54319  0.63580  1.0000
  Fe  Fe26      1.0  0.20673  0.89437  0.66394  1.0000
  H   H391      1.0  0.07901  0.79238  0.50352  1.0000
  H   H392      1.0  0.28396  0.58816  0.35660  1.0000
  H   H393      1.0  0.24319  0.53266  0.46037  1.0000
  H   H394      1.0  0.20537  0.93596  0.42563  1.0000
  C   C217      1.0  0.39339  0.68059  0.62424  1.0000
  C   C218      1.0  0.34433  0.62034  0.64649  1.0000
  H   H395      1.0  0.14277  0.73296  0.40509  1.0000
  H   H396      1.0  0.40753  0.66845  0.61258  1.0000
  C   C219      1.0  0.03100  0.77308  0.65655  1.0000
  H   H397      1.0  0.08223  0.72417  0.49966  1.0000
  H   H398      1.0  0.27334  0.59334  0.64619  1.0000
  S   S50       1.0  0.16430  0.78605  0.33590  1.0000
  C   C220      1.0  0.24591  0.96214  0.55450  1.0000
  H   H399      1.0  0.09257  0.73168  0.56020  1.0000
  H   H400      1.0  0.05862  0.71443  0.44881  1.0000
  H   H401      1.0  0.33139  0.62160  0.62318  1.0000
  C   C221      1.0  0.21574  0.51423  0.45373  1.0000
  H   H402      1.0  0.21743  0.54008  0.38905  1.0000
  H   H403      1.0  0.07291  0.79482  0.40776  1.0000
  C   C222      1.0  0.17506  0.97552  0.63111  1.0000
  H   H404      1.0  0.12738  0.76825  0.53597  1.0000
  H   H405      1.0  0.19288  0.92865  0.57575  1.0000
  C   C223      1.0  0.23198  0.52571  0.39074  1.0000
  H   H406      1.0  0.47360  0.65801  0.44735  1.0000
  S   S51       1.0  0.13490  0.79955  0.64145  1.0000
  C   C224      1.0  0.08526  0.77512  0.48857  1.0000
  C   C225      1.0  0.37151  0.65873  0.65548  1.0000
  H   H407      1.0  0.04231  0.68488  0.62975  1.0000
  H   H408      1.0  0.12785  0.97745  0.64325  1.0000
  H   H409      1.0  0.29449  0.83008  0.33944  1.0000
  H   H410      1.0  0.12507  0.75448  0.45385  1.0000
  H   H411      1.0  0.08565  0.69662  0.61439  1.0000
  S   S52       1.0  0.21680  0.86098  0.62837  1.0000
  C   C226      1.0  0.26055  0.49968  0.35890  1.0000
  H   H412      1.0  0.47230  0.65025  0.40298  1.0000
  C   C227      1.0  0.21438  0.95652  0.57730  1.0000
  H   H413      1.0  0.13877  0.95911  0.48676  1.0000
  N   N13       1.0  0.06672  0.76671  0.45566  1.0000
  H   H414      1.0  0.18045  0.92810  0.51862  1.0000
  C   C228      1.0  0.25481  0.93354  0.56215  1.0000
  H   H415      1.0  0.22299  0.95868  0.60371  1.0000
  H   H416      1.0  0.14308  0.92738  0.53781  1.0000
  C   C229      1.0  0.24378  0.99184  0.42780  1.0000
  H   H417      1.0  0.08097  0.83556  0.47306  1.0000
  C   C230      1.0  0.16654  0.94295  0.52077  1.0000
  C   C231      1.0  0.07194  0.82782  0.44714  1.0000
  H   H418      1.0  0.29939  0.56091  0.61328  1.0000
  C   C232      1.0  0.00494  0.74221  0.43212  1.0000
  H   H419      1.0  0.21483  0.99364  0.51663  1.0000
  H   H420      1.0  0.01433  0.76558  0.41465  1.0000
  H   H421      1.0  0.02278  0.76702  0.48039  1.0000
  Fe  Fe27      1.0  0.18594  0.81619  0.66691  1.0000
  S   S53       1.0  0.25527  0.94941  0.66609  1.0000
  H   H422      1.0  0.35908  0.67255  0.66679  1.0000
  H   H423      1.0  0.16533  0.49872  0.37130  1.0000
  H   H424      1.0  0.30357  0.56659  0.33514  1.0000
  H   H425      1.0  0.17765  0.99547  0.53031  1.0000
  H   H426      1.0  0.32866  0.55570  0.66776  1.0000
  H   H427      1.0  0.50238  0.71223  0.41972  1.0000
  C   C233      1.0  0.21478  0.49742  0.42019  1.0000
  H   H428      1.0  0.11077  0.72230  0.66791  1.0000
  C   C234      1.0  0.08197  0.70452  0.66784  1.0000
  C   C235      1.0  0.25418  0.63533  0.68014  1.0000
  S   S54       1.0  0.17865  0.85018  0.70389  1.0000
  N   N14       1.0  0.07161  0.71857  0.72903  1.0000
  H   H429      1.0  0.30857  0.59237  0.72805  1.0000
  C   C236      1.0  0.46759  0.75041  0.70561  1.0000
  H   H430      1.0  0.17510  0.79613  0.75368  1.0000
  S   S55       1.0  0.19755  0.77208  0.68031  1.0000
  S   S56       1.0  0.07656  0.81997  0.70250  1.0000
  H   H431      1.0  0.40855  0.84346  0.77934  1.0000
  Fe  Fe28      1.0  0.36237  0.69541  0.78389  1.0000
  S   S57       1.0  0.33792  0.64469  0.81582  1.0000
  S   S58       1.0  0.40365  0.71269  0.74013  1.0000
  Fe  Fe29      1.0  0.30224  0.70881  0.80299  1.0000
  S   S59       1.0  0.27358  0.65902  0.83652  1.0000
  S   S60       1.0  0.28933  0.75250  0.79252  1.0000
  Fe  Fe30      1.0  0.32676  0.67415  0.85631  1.0000
  S   S61       1.0  0.34033  0.66759  0.91168  1.0000
  Fe  Fe31      1.0  0.28651  0.63246  0.79480  1.0000
  S   S62       1.0  0.24565  0.58332  0.76813  1.0000
  S   S63       1.0  0.35473  0.72561  0.82505  1.0000
  S   S64       1.0  0.31135  0.68142  0.76097  1.0000
  C   C237      1.0  0.25732  0.99037  0.66997  1.0000
  C   C238      1.0  0.33429  0.67496  0.95535  1.0000
  C   C239      1.0  0.35187  0.66735  0.98044  1.0000
  H   H432      1.0  0.12731  0.73945  0.71917  1.0000
  H   H433      1.0  0.36899  0.65776  0.97283  1.0000
  C   C240      1.0  0.22404  0.76772  0.71121  1.0000
  C   C241      1.0  0.22688  0.73729  0.71209  1.0000
  C   C242      1.0  0.24675  0.73215  0.73657  1.0000
  C   C243      1.0  0.26381  0.75728  0.76085  1.0000
  C   C244      1.0  0.26101  0.78770  0.75993  1.0000
  C   C245      1.0  0.24158  0.79308  0.73518  1.0000
  C   C246      1.0  0.32983  0.73082  0.68310  1.0000
  H   H434      1.0  0.24849  0.70856  0.73688  1.0000
  H   H435      1.0  0.27390  0.80724  0.77866  1.0000
  H   H436      1.0  0.23976  0.81663  0.73495  1.0000
  H   H437      1.0  0.35480  0.60082  0.77227  1.0000
  H   H438      1.0  0.45118  0.79955  0.81920  1.0000
  H   H439      1.0  0.39466  0.60353  0.75696  1.0000
  C   C247      1.0  0.35822  0.59593  0.71798  1.0000
  C   C248      1.0  0.25179  0.58509  0.96926  1.0000
  C   C249      1.0  0.26584  0.53265  0.76551  1.0000
  C   C250      1.0  0.24304  0.54374  0.75466  1.0000
  C   C251      1.0  0.00948  0.70809  0.74396  1.0000
  H   H440      1.0  0.28535  0.54792  0.78348  1.0000
  H   H441      1.0  0.44566  0.81594  0.76037  1.0000
  H   H442      1.0  0.11303  0.68984  0.76086  1.0000
  C   C252      1.0  0.28476  0.60066  0.67142  1.0000
  H   H443      1.0  0.25816  0.66208  0.68292  1.0000
  C   C253      1.0  0.36699  0.77732  0.72432  1.0000
  H   H444      1.0  0.19980  0.53146  0.72296  1.0000
  C   C254      1.0  0.44986  0.74212  0.73750  1.0000
  C   C255      1.0  0.30560  0.55929  0.66842  1.0000
  N   N15       1.0  0.38667  0.81552  0.73350  1.0000
  H   H445      1.0  0.05794  0.75809  0.74013  1.0000
  H   H446      1.0  0.45617  0.75059  0.79074  1.0000
  H   H447      1.0  0.10687  0.68061  0.71723  1.0000
  H   H448      1.0  0.04017  0.66161  0.73116  1.0000
  C   C256      1.0  0.44516  0.87337  0.71765  1.0000
  H   H449      1.0  0.11434  0.77619  0.77726  1.0000
  C   C257      1.0  0.31235  0.68748  0.96593  1.0000
  H   H450      1.0  0.26412  0.57956  0.94735  1.0000
  C   C258      1.0  0.47829  0.88785  0.69484  1.0000
  H   H451      1.0  0.26414  0.58175  0.69011  1.0000
  H   H452      1.0  0.31837  0.85671  0.73873  1.0000
  H   H453      1.0  0.29853  0.69349  0.94729  1.0000
  H   H454      1.0  0.03438  0.69733  0.68929  1.0000
  C   C259      1.0  0.06314  0.68294  0.74367  1.0000
  H   H455      1.0  0.06737  0.74245  0.68262  1.0000
  H   H456      1.0  0.05455  0.67971  0.77086  1.0000
  H   H457      1.0  0.16849  0.75315  0.76498  1.0000
  H   H458      1.0  0.30605  0.71954  0.70016  1.0000
  H   H459      1.0  0.38387  0.76553  0.72617  1.0000
  Fe  Fe32      1.0  0.12919  0.83565  0.67620  1.0000
  H   H460      1.0  0.06613  0.62810  0.77684  1.0000
  C   C260      1.0  0.46931  0.75694  0.76601  1.0000
  C   C261      1.0  0.10952  0.74668  0.73203  1.0000
  C   C262      1.0  0.23307  0.99371  0.69031  1.0000
  H   H461      1.0  0.29058  0.98263  0.78179  1.0000
  C   C263      1.0  0.12127  0.75656  0.76877  1.0000
  H   H462      1.0  0.30395  0.64924  0.69938  1.0000
  C   C264      1.0  0.21766  0.52328  0.73145  1.0000
  H   H463      1.0  0.35682  0.89019  0.71502  1.0000
  C   C265      1.0  0.42206  0.80324  0.77761  1.0000
  C   C266      1.0  0.00423  0.78503  0.70420  1.0000
  H   H464      1.0  0.25912  0.61320  0.96688  1.0000
  H   H465      1.0  0.05406  0.73092  0.77555  1.0000
  H   H466      1.0  0.38850  0.64041  0.74977  1.0000
  C   C267      1.0  0.09309  0.67434  0.74232  1.0000
  H   H467      1.0  0.34458  0.71721  0.68843  1.0000
  H   H468      1.0  0.23922  0.61894  0.70305  1.0000
  H   H469      1.0  0.33654  0.78230  0.68306  1.0000
  C   C268      1.0  0.07914  0.63541  0.75120  1.0000
  H   H470      1.0  0.36325  0.83887  0.70265  1.0000
  H   H471      1.0  0.40898  0.77436  0.77515  1.0000
  C   C269      1.0  0.36224  0.82984  0.72939  1.0000
  C   C270      1.0  0.33050  0.60602  0.70892  1.0000
  C   C271      1.0  0.34653  0.87684  0.74031  1.0000
  C   C272      1.0  0.37502  0.61121  0.75128  1.0000
  C   C273      1.0  0.04966  0.73045  0.74797  1.0000
  H   H472      1.0  0.34155  0.63429  0.71392  1.0000
  H   H473      1.0  0.37226  0.80053  0.78642  1.0000
  C   C274      1.0  0.36725  0.85989  0.75244  1.0000
  C   C275      1.0  0.16076  0.77273  0.77127  1.0000
  H   H474      1.0  0.34449  0.76168  0.74275  1.0000
  H   H475      1.0  0.21347  0.71744  0.69376  1.0000
  H   H476      1.0  0.11507  0.77149  0.71828  1.0000
  H   H477      1.0  0.10123  0.63032  0.75096  1.0000
  C   C276      1.0  0.35273  0.77023  0.68813  1.0000
  H   H478      1.0  0.16847  0.78106  0.79743  1.0000
  C   C277      1.0  0.30801  0.69201  0.00074  1.0000
  H   H479      1.0  0.33447  0.80855  0.73470  1.0000
  H   H480      1.0  0.39498  0.88098  0.75336  1.0000
  H   H481      1.0  0.10805  0.73333  0.78668  1.0000
  C   C278      1.0  0.39642  0.81648  0.76993  1.0000
  H   H482      1.0  0.45289  0.73908  0.68337  1.0000
  H   H483      1.0  0.45075  0.84014  0.81656  1.0000
  H   H484      1.0  0.34888  0.89673  0.75837  1.0000
  H   H485      1.0  0.37914  0.60530  0.69778  1.0000
  H   H486      1.0  0.35751  0.84890  0.77864  1.0000
  H   H487      1.0  0.41222  0.79990  0.83235  1.0000
  C   C279      1.0  0.43472  0.81124  0.81366  1.0000
  C   C280      1.0  0.41839  0.83484  0.70964  1.0000
  H   H488      1.0  0.31878  0.98308  0.74756  1.0000
  H   H489      1.0  0.34562  0.56684  0.72130  1.0000
  C   C281      1.0  0.03468  0.79107  0.68621  1.0000
  H   H490      1.0  0.06023  0.61859  0.73238  1.0000
  H   H491      1.0  0.21159  0.97059  0.70320  1.0000
  H   H492      1.0  0.43242  0.81993  0.70769  1.0000
  H   H493      1.0  0.45336  0.87578  0.74413  1.0000
  H   H494      1.0  0.41032  0.83595  0.68347  1.0000
  H   H495      1.0  0.43378  0.89029  0.71287  1.0000
  H   H496      1.0  0.22291  0.56814  0.96827  1.0000
  H   H497      1.0  0.38989  0.65878  0.67404  1.0000
  H   H498      1.0  0.28837  0.54234  0.69016  1.0000
  H   H499      1.0  0.29374  0.59360  0.00041  1.0000
  H   H500      1.0  0.14591  0.96657  0.67865  1.0000
  C   C282      1.0  0.26330  0.50169  0.75314  1.0000
  H   H501      1.0  0.00667  0.79888  0.72708  1.0000
  H   H502      1.0  0.49680  0.91576  0.70044  1.0000
  C   C283      1.0  0.29762  0.98855  0.75434  1.0000
  C   C284      1.0  0.06264  0.71640  0.69230  1.0000
  N   N16       1.0  0.31696  0.59748  0.67367  1.0000
  H   H503      1.0  0.49151  0.87252  0.69937  1.0000
  C   C285      1.0  0.28960  0.63745  0.67646  1.0000
  H   H504      1.0  0.27424  0.97070  0.74009  1.0000
  H   H505      1.0  0.07513  0.67717  0.67464  1.0000
  H   H506      1.0  0.37465  0.78081  0.66887  1.0000
  H   H507      1.0  0.62711  0.16088  0.32575  1.0000
  H   H508      1.0  0.79338  0.00890  0.32255  1.0000
  H   H509      1.0  0.96141  0.31155  0.28573  1.0000
  H   H510      1.0  0.64831  0.14220  0.28439  1.0000
  Fe  Fe33      1.0  0.79918  0.19300  0.29598  1.0000
  S   S65       1.0  0.77995  0.21107  0.25078  1.0000
  S   S66       1.0  0.84252  0.18049  0.28947  1.0000
  Fe  Fe34      1.0  0.62054  0.32294  0.18423  1.0000
  S   S67       1.0  0.64537  0.37000  0.14753  1.0000
  S   S68       1.0  0.56040  0.29062  0.18849  1.0000
  Fe  Fe35      1.0  0.69224  0.33174  0.20005  1.0000
  S   S69       1.0  0.72141  0.37953  0.16413  1.0000
  S   S70       1.0  0.71925  0.31514  0.23932  1.0000
  Fe  Fe36      1.0  0.68586  0.39712  0.18668  1.0000
  S   S71       1.0  0.69784  0.45295  0.19802  1.0000
  Fe  Fe37      1.0  0.67868  0.34904  0.12726  1.0000
  S   S72       1.0  0.69018  0.34321  0.07070  1.0000
  S   S73       1.0  0.65879  0.35123  0.22430  1.0000
  S   S74       1.0  0.65177  0.30005  0.16223  1.0000
  C   C286      1.0  0.68011  0.34775  0.02766  1.0000
  C   C287      1.0  0.65274  0.21099  0.29690  1.0000
  H   H511      1.0  0.73132  0.05804  0.31695  1.0000
  H   H512      1.0  0.65240  0.37488  0.03818  1.0000
  H   H513      1.0  0.61181  0.37804  0.32475  1.0000
  C   C288      1.0  0.76479  0.24143  0.24736  1.0000
  C   C289      1.0  0.74768  0.24217  0.21813  1.0000
  C   C290      1.0  0.73390  0.26474  0.21492  1.0000
  C   C291      1.0  0.73726  0.28706  0.24091  1.0000
  C   C292      1.0  0.75489  0.28669  0.26989  1.0000
  C   C293      1.0  0.76859  0.26409  0.27312  1.0000
  H   H514      1.0  0.74461  0.22481  0.19798  1.0000
  H   H515      1.0  0.72046  0.26468  0.19247  1.0000
  H   H516      1.0  0.75776  0.30393  0.29010  1.0000
  H   H517      1.0  0.78168  0.26390  0.29568  1.0000
  C   C294      1.0  0.53047  0.27977  0.22393  1.0000
  C   C295      1.0  0.54167  0.28927  0.25675  1.0000
  C   C296      1.0  0.63504  0.39704  0.30876  1.0000
  C   C297      1.0  0.87651  0.27222  0.24004  1.0000
  H   H518      1.0  0.56937  0.30325  0.26127  1.0000
  H   H519      1.0  0.55329  0.34590  0.07777  1.0000
  H   H520      1.0  0.89654  0.27262  0.18763  1.0000
  H   H521      1.0  0.71758  0.24362  0.32758  1.0000
  H   H522      1.0  0.66635  0.12133  0.30983  1.0000
  C   C298      1.0  0.89674  0.33525  0.22655  1.0000
  S   S75       1.0  0.76365  0.14225  0.32599  1.0000
  C   C299      1.0  0.89449  0.36364  0.17098  1.0000
  C   C300      1.0  0.76611  0.03766  0.31984  1.0000
  H   H523      1.0  0.54235  0.28749  0.05857  1.0000
  H   H524      1.0  0.71476  0.13956  0.26692  1.0000
  H   H525      1.0  0.91486  0.36278  0.23401  1.0000
  C   C301      1.0  0.61878  0.21083  0.29098  1.0000
  C   C302      1.0  0.74374  0.47448  0.25115  1.0000
  H   H526      1.0  0.59771  0.21529  0.06387  1.0000
  H   H527      1.0  0.74154  0.44891  0.25069  1.0000
  C   C303      1.0  0.56963  0.29337  0.06207  1.0000
  C   C304      1.0  0.51694  0.28071  0.28386  1.0000
  N   N17       1.0  0.59911  0.41004  0.26605  1.0000
  C   C305      1.0  0.56423  0.38287  0.28236  1.0000
  C   C306      1.0  0.62495  0.39799  0.27165  1.0000
  C   C307      1.0  0.94073  0.31849  0.23821  1.0000
  C   C308      1.0  0.59664  0.41426  0.22845  1.0000
  C   C309      1.0  0.58033  0.37981  0.20873  1.0000
  C   C310      1.0  0.53303  0.38840  0.27559  1.0000
  H   H528      1.0  0.90545  0.29762  0.29944  1.0000
  H   H529      1.0  0.66816  0.46817  0.27735  1.0000
  C   C311      1.0  0.57711  0.38714  0.17147  1.0000
  H   H530      1.0  0.86269  0.33360  0.28557  1.0000
  C   C312      1.0  0.58153  0.35449  0.07535  1.0000
  H   H531      1.0  0.55700  0.35600  0.27478  1.0000
  H   H532      1.0  0.61430  0.37082  0.26276  1.0000
  C   C313      1.0  0.65091  0.24836  0.07691  1.0000
  Fe  Fe38      1.0  0.80847  0.13231  0.32367  1.0000
  C   C314      1.0  0.70271  0.00100  0.31848  1.0000
  H   H533      1.0  0.58193  0.42795  0.22307  1.0000
  H   H534      1.0  0.62318  0.43179  0.21644  1.0000
  H   H535      1.0  0.55371  0.36009  0.21887  1.0000
  H   H536      1.0  0.59702  0.36783  0.20993  1.0000
  H   H537      1.0  0.89554  0.36224  0.14303  1.0000
  H   H538      1.0  0.62219  0.22720  0.26780  1.0000
  H   H539      1.0  0.85842  0.20980  0.17834  1.0000
  C   C315      1.0  0.89895  0.33455  0.18754  1.0000
  H   H540      1.0  0.93368  0.27084  0.26596  1.0000
  H   H541      1.0  0.56663  0.36230  0.15776  1.0000
  H   H542      1.0  0.55887  0.39724  0.16881  1.0000
  H   H543      1.0  0.60312  0.40672  0.15975  1.0000
  H   H544      1.0  0.92348  0.34334  0.28942  1.0000
  H   H545      1.0  0.53247  0.25723  0.11209  1.0000
  H   H546      1.0  0.61587  0.33494  0.08565  1.0000
  H   H547      1.0  0.59121  0.36358  0.04877  1.0000
  H   H548      1.0  0.92446  0.33856  0.17807  1.0000
  H   H549      1.0  0.90319  0.24635  0.21805  1.0000
  C   C316      1.0  0.64911  0.18818  0.32906  1.0000
  S   S76       1.0  0.80537  0.07936  0.31914  1.0000
  C   C317      1.0  0.86706  0.31311  0.29721  1.0000
  H   H550      1.0  0.57689  0.31630  0.11270  1.0000
  H   H551      1.0  0.65134  0.35846  0.30175  1.0000
  C   C318      1.0  0.66093  0.36380  0.01876  1.0000
  H   H552      1.0  0.59274  0.45465  0.27488  1.0000
  H   H553      1.0  0.54667  0.19575  0.11183  1.0000
  C   C319      1.0  0.76805  0.00678  0.32164  1.0000
  H   H554      1.0  0.70740  0.20072  0.28870  1.0000
  H   H555      1.0  0.54572  0.20690  0.05489  1.0000
  H   H556      1.0  0.86973  0.32969  0.23244  1.0000
  H   H557      1.0  0.85073  0.27006  0.23612  1.0000
  C   C320      1.0  0.69058  0.13963  0.26045  1.0000
  H   H558      1.0  0.87737  0.30915  0.17895  1.0000
  H   H559      1.0  0.50693  0.19528  0.10321  1.0000
  H   H560      1.0  0.91576  0.39003  0.17799  1.0000
  H   H561      1.0  0.67743  0.99893  0.31704  1.0000
  H   H562      1.0  0.54408  0.21363  0.17078  1.0000
  H   H563      1.0  0.86875  0.36038  0.17882  1.0000
  H   H564      1.0  0.59052  0.24669  0.00856  1.0000
  H   H565      1.0  0.52594  0.28847  0.30906  1.0000
  H   H566      1.0  0.59690  0.18360  0.28745  1.0000
  H   H567      1.0  0.65417  0.22535  0.08201  1.0000
  C   C321      1.0  0.58725  0.32436  0.08622  1.0000
  C   C322      1.0  0.72564  0.48311  0.22805  1.0000
  H   H568      1.0  0.83264  0.22939  0.18942  1.0000
  H   H569      1.0  0.95940  0.34725  0.24038  1.0000
  C   C323      1.0  0.61064  0.44494  0.28167  1.0000
  H   H570      1.0  0.56593  0.38196  0.31031  1.0000
  H   H571      1.0  0.99677  0.21449  0.30046  1.0000
  C   C324      1.0  0.54848  0.23265  0.04766  1.0000
  H   H572      1.0  0.62102  0.28188  0.04911  1.0000
  H   H573      1.0  0.65889  0.20087  0.27395  1.0000
  H   H574      1.0  0.99623  0.28764  0.26258  1.0000
  H   H575      1.0  0.52954  0.39044  0.24817  1.0000
  C   C325      1.0  0.96188  0.23097  0.32052  1.0000
  C   C326      1.0  0.99507  0.23508  0.31306  1.0000
  H   H576      1.0  0.64949  0.41449  0.25597  1.0000
  C   C327      1.0  0.67294  0.14393  0.29210  1.0000
  C   C328      1.0  0.64818  0.47519  0.27114  1.0000
  H   H577      1.0  0.59613  0.37705  0.09186  1.0000
  H   H578      1.0  0.52121  0.22769  0.04779  1.0000
  H   H579      1.0  0.87174  0.25476  0.26279  1.0000
  H   H580      1.0  0.58404  0.30417  0.03726  1.0000
  H   H581      1.0  0.69746  0.16137  0.24143  1.0000
  H   H582      1.0  0.93833  0.20736  0.31370  1.0000
  H   H583      1.0  0.60843  0.44186  0.30977  1.0000
  N   N18       1.0  0.56928  0.26008  0.07288  1.0000
  H   H584      1.0  0.65055  0.48158  0.24357  1.0000
  C   C329      1.0  0.73322  0.03457  0.31846  1.0000
  H   H585      1.0  0.67254  0.11423  0.24898  1.0000
  H   H586      1.0  0.70655  0.32198  0.00776  1.0000
  C   C330      1.0  0.60668  0.26841  0.07334  1.0000
  C   C331      1.0  0.61222  0.23709  0.08105  1.0000
  H   H587      1.0  0.77886  0.49208  0.29249  1.0000
  N   N19       1.0  0.90377  0.30999  0.24646  1.0000
  C   C332      1.0  0.88458  0.25472  0.21019  1.0000
  C   C333      1.0  0.90177  0.31656  0.28355  1.0000
  H   H588      1.0  0.84454  0.28678  0.29210  1.0000
  H   H589      1.0  0.94416  0.31339  0.21157  1.0000
  H   H590      1.0  0.62092  0.28777  0.09288  1.0000
  H   H591      1.0  0.61202  0.22216  0.31261  1.0000
  C   C334      1.0  0.95407  0.29892  0.26096  1.0000
  H   H592      1.0  0.53704  0.41272  0.28728  1.0000
  H   H593      1.0  0.64659  0.42332  0.31979  1.0000
  C   C335      1.0  0.69746  0.17935  0.30865  1.0000
  C   C336      1.0  0.85155  0.22211  0.19898  1.0000
  H   H594      1.0  0.67372  0.23884  0.29917  1.0000
  H   H595      1.0  0.60391  0.22736  0.10768  1.0000
  C   C337      1.0  0.55189  0.24858  0.10801  1.0000
  H   H596      1.0  0.57163  0.26193  0.12754  1.0000
  H   H597      1.0  0.66660  0.26886  0.09506  1.0000
  H   H598      1.0  0.83879  0.20235  0.22026  1.0000
  H   H599      1.0  0.66119  0.25905  0.05077  1.0000
  C   C338      1.0  0.98660  0.30056  0.24504  1.0000
  H   H600      1.0  0.72084  0.17818  0.31602  1.0000
  H   H601      1.0  0.68619  0.40393  0.29523  1.0000
  H   H602      1.0  0.98031  0.28652  0.22100  1.0000
  H   H603      1.0  0.50530  0.17291  0.16132  1.0000
  C   C339      1.0  0.53129  0.20850  0.11754  1.0000
  C   C340      1.0  0.66218  0.38558  0.31078  1.0000
  C   C341      1.0  0.52056  0.20170  0.15520  1.0000
  C   C342      1.0  0.56326  0.24137  0.01046  1.0000
  H   H604      1.0  0.50406  0.21312  0.16203  1.0000
  C   C343      1.0  0.69164  0.33441  0.00149  1.0000
  H   H605      1.0  0.63400  0.16591  0.39764  1.0000
  C   C344      1.0  0.94458  0.27648  0.46325  1.0000
  Fe  Fe39      1.0  0.78976  0.17347  0.37116  1.0000
  S   S77       1.0  0.75642  0.16467  0.41833  1.0000
  S   S78       1.0  0.83247  0.16062  0.37100  1.0000
  Fe  Fe40      1.0  0.83735  0.22465  0.59018  1.0000
  S   S79       1.0  0.84988  0.25103  0.53800  1.0000
  S   S80       1.0  0.84702  0.18037  0.60216  1.0000
  C   C345      1.0  0.78050  0.19005  0.45190  1.0000
  C   C346      1.0  0.81069  0.22290  0.44544  1.0000
  C   C347      1.0  0.83049  0.24235  0.47234  1.0000
  C   C348      1.0  0.82133  0.22827  0.50566  1.0000
  C   C349      1.0  0.79073  0.19572  0.51222  1.0000
  C   C350      1.0  0.76990  0.17701  0.48539  1.0000
  H   H606      1.0  0.81875  0.23336  0.41972  1.0000
  H   H607      1.0  0.85361  0.26795  0.46719  1.0000
  H   H608      1.0  0.78331  0.18479  0.53788  1.0000
  H   H609      1.0  0.74642  0.15167  0.49048  1.0000
  C   C351      1.0  0.95138  0.18519  0.40697  1.0000
  H   H610      1.0  0.75574  0.22076  0.34771  1.0000
  H   H611      1.0  0.67828  0.19315  0.41029  1.0000
  H   H612      1.0  0.84810  0.18435  0.44448  1.0000
  H   H613      1.0  0.94954  0.28928  0.48798  1.0000
  C   C352      1.0  0.71554  0.47527  0.58581  1.0000
  H   H614      1.0  0.90032  0.17316  0.54901  1.0000
  H   H615      1.0  0.74071  0.06131  0.38675  1.0000
  H   H616      1.0  0.93285  0.22170  0.58688  1.0000
  C   C353      1.0  0.76772  0.02300  0.66058  1.0000
  H   H617      1.0  0.64385  0.14404  0.45161  1.0000
  H   H618      1.0  0.73821  0.00143  0.45572  1.0000
  H   H619      1.0  0.96140  0.21524  0.47069  1.0000
  C   C354      1.0  0.00008  0.25646  0.66513  1.0000
  H   H620      1.0  0.70740  0.48901  0.53491  1.0000
  C   C355      1.0  0.77358  0.05709  0.65308  1.0000
  H   H621      1.0  0.68584  0.49402  0.61207  1.0000
  H   H622      1.0  0.96817  0.32753  0.43657  1.0000
  H   H623      1.0  0.79932  0.12476  0.44559  1.0000
  S   S81       1.0  0.75099  0.10350  0.63469  1.0000
  C   C356      1.0  0.81618  0.13267  0.46777  1.0000
  C   C357      1.0  0.73544  0.04739  0.41188  1.0000
  H   H624      1.0  0.69578  0.23420  0.36755  1.0000
  N   N20       1.0  0.68180  0.18806  0.33845  1.0000
  H   H625      1.0  0.95306  0.28080  0.61691  1.0000
  H   H626      1.0  0.81865  0.10999  0.47668  1.0000
  Fe  Fe41      1.0  0.87614  0.21240  0.64624  1.0000
  H   H627      1.0  0.63600  0.25957  0.63152  1.0000
  H   H628      1.0  0.76044  0.05926  0.42517  1.0000
  H   H629      1.0  0.94658  0.18979  0.58933  1.0000
  H   H630      1.0  0.86479  0.15459  0.44010  1.0000
  H   H631      1.0  0.92524  0.17199  0.46939  1.0000
  C   C358      1.0  0.97052  0.25500  0.65121  1.0000
  H   H632      1.0  0.67892  0.14033  0.43236  1.0000
  S   S82       1.0  0.82196  0.22465  0.34161  1.0000
  C   C359      1.0  0.72113  0.00811  0.40729  1.0000
  H   H633      1.0  0.64728  0.21599  0.60092  1.0000
  C   C360      1.0  0.92621  0.22236  0.51723  1.0000
  C   C361      1.0  0.90957  0.24063  0.46596  1.0000
  C   C362      1.0  0.93374  0.20003  0.46302  1.0000
  H   H634      1.0  0.95364  0.24480  0.51445  1.0000
  H   H635      1.0  0.96708  0.27318  0.45656  1.0000
  H   H636      1.0  0.94029  0.29096  0.41134  1.0000
  C   C363      1.0  0.85222  0.16438  0.45768  1.0000
  H   H637      1.0  0.73451  0.21122  0.38896  1.0000
  H   H638      1.0  0.90979  0.19606  0.41301  1.0000
  H   H639      1.0  0.72080  0.42286  0.65952  1.0000
  C   C364      1.0  0.93559  0.20507  0.42378  1.0000
  H   H640      1.0  0.56889  0.25154  0.64964  1.0000
  H   H641      1.0  0.93746  0.32504  0.61369  1.0000
  C   C365      1.0  0.65379  0.13918  0.42756  1.0000
  H   H642      1.0  0.71621  0.05152  0.42644  1.0000
  H   H643      1.0  0.80315  0.13915  0.48823  1.0000
  H   H644      1.0  0.69530  0.15697  0.37114  1.0000
  C   C366      1.0  0.71385  0.03112  0.63606  1.0000
  H   H645      1.0  0.75590  0.48452  0.63566  1.0000
  H   H646      1.0  0.69136  0.29764  0.64531  1.0000
  C   C367      1.0  0.87440  0.17960  0.48903  1.0000
  C   C368      1.0  0.67260  0.16055  0.36642  1.0000
  C   C369      1.0  0.97548  0.28185  0.62817  1.0000
  H   H647      1.0  0.97391  0.23138  0.56658  1.0000
  H   H648      1.0  0.89893  0.23404  0.44036  1.0000
  H   H649      1.0  0.91122  0.23246  0.53138  1.0000
  H   H650      1.0  0.69629  0.44387  0.54151  1.0000
  S   S83       1.0  0.86970  0.25789  0.63178  1.0000
  H   H651      1.0  0.89081  0.24543  0.48042  1.0000
  H   H652      1.0  0.65082  0.18301  0.62533  1.0000
  S   S84       1.0  0.92801  0.21965  0.66381  1.0000
  Fe  Fe42      1.0  0.79847  0.15918  0.63609  1.0000
  H   H653      1.0  0.91478  0.34654  0.62951  1.0000
  C   C370      1.0  0.94644  0.21037  0.57270  1.0000
  H   H654      1.0  0.69269  0.03408  0.62688  1.0000
  H   H655      1.0  0.63068  0.30423  0.65498  1.0000
  C   C371      1.0  0.74647  0.06133  0.64123  1.0000
  C   C372      1.0  0.65938  0.16713  0.40055  1.0000
  H   H656      1.0  0.85931  0.18681  0.50679  1.0000
  H   H657      1.0  0.92122  0.30587  0.44302  1.0000
  H   H658      1.0  0.63444  0.11239  0.41955  1.0000
  C   C373      1.0  0.92718  0.19413  0.54062  1.0000
  H   H659      1.0  0.98860  0.30852  0.35811  1.0000
  N   N21       1.0  0.91118  0.21055  0.48290  1.0000
  C   C374      1.0  0.69541  0.46603  0.55327  1.0000
  C   C375      1.0  0.94338  0.30169  0.43691  1.0000
  C   C376      1.0  0.70816  0.22439  0.34947  1.0000
  C   C377      1.0  0.56814  0.29869  0.65899  1.0000
  H   H660      1.0  0.87485  0.15697  0.50141  1.0000
  S   S85       1.0  0.78702  0.20216  0.62122  1.0000
  C   C378      1.0  0.64381  0.21948  0.65562  1.0000
  C   C379      1.0  0.76611  0.26601  0.37533  1.0000
  H   H661      1.0  0.66757  0.45789  0.55872  1.0000
  H   H662      1.0  0.94053  0.18192  0.52758  1.0000
  H   H663      1.0  0.95320  0.18991  0.37914  1.0000
  H   H664      1.0  0.70357  0.45108  0.60253  1.0000
  C   C380      1.0  0.62545  0.24151  0.65442  1.0000
  C   C381      1.0  0.74443  0.49622  0.65231  1.0000
  H   H665      1.0  0.95237  0.23333  0.41592  1.0000
  H   H666      1.0  0.75318  0.27408  0.39454  1.0000
  H   H667      1.0  0.78974  0.26787  0.38637  1.0000
  H   H668      1.0  0.60867  0.17931  0.62185  1.0000
  H   H669      1.0  0.67261  0.23675  0.65695  1.0000
  H   H670      1.0  0.93450  0.15638  0.41253  1.0000
  C   C382      1.0  0.74128  0.22812  0.36562  1.0000
  H   H671      1.0  0.77446  0.28437  0.35278  1.0000
  H   H672      1.0  0.95828  0.37222  0.61036  1.0000
  H   H673      1.0  0.68773  0.33167  0.66587  1.0000
  H   H674      1.0  0.68826  0.45497  0.65764  1.0000
  H   H675      1.0  0.66957  0.38577  0.33741  1.0000
  C   C383      1.0  0.63712  0.19819  0.62393  1.0000
  H   H676      1.0  0.65147  0.13436  0.35870  1.0000
  H   H677      1.0  0.58172  0.31135  0.63430  1.0000
  H   H678      1.0  0.74269  0.48214  0.57922  1.0000
  H   H679      1.0  0.63995  0.19814  0.35015  1.0000
  C   C384      1.0  0.94066  0.34846  0.62661  1.0000
  H   H680      1.0  0.59752  0.22283  0.64934  1.0000
  H   H681      1.0  0.69650  0.12474  0.65437  1.0000
  H   H682      1.0  0.74096  0.00574  0.39189  1.0000
  H   H683      1.0  0.53947  0.28653  0.65618  1.0000
  H   H684      1.0  0.97809  0.19436  0.41582  1.0000
  C   C385      1.0  0.99024  0.28788  0.34553  1.0000
  S   S86       1.0  0.91846  0.25376  0.34739  1.0000
  C   C386      1.0  0.70812  0.99704  0.64310  1.0000
  H   H685      1.0  0.98242  0.35366  0.65658  1.0000
  Fe  Fe43      1.0  0.81999  0.23175  0.66451  1.0000
  H   H686      1.0  0.87345  0.29932  0.34901  1.0000
  C   C387      1.0  0.95654  0.35135  0.66104  1.0000
  H   H687      1.0  0.74854  0.34564  0.66344  1.0000
  H   H688      1.0  0.84218  0.31366  0.34490  1.0000
  C   C388      1.0  0.95933  0.25733  0.33699  1.0000
  Fe  Fe44      1.0  0.86319  0.20927  0.33726  1.0000
  H   H689      1.0  0.69705  0.99799  0.39278  1.0000
  H   H690      1.0  0.79887  0.08005  0.65692  1.0000
  C   C389      1.0  0.86790  0.31813  0.33534  1.0000
  H   H691      1.0  0.88840  0.34539  0.34098  1.0000
  H   H692      1.0  0.61704  0.21918  0.72149  1.0000
  N   N22       1.0  0.72291  0.09129  0.74430  1.0000
  H   H693      1.0  0.55952  0.25619  0.69297  1.0000
  C   C390      1.0  0.90795  0.38409  0.75387  1.0000
  C   C391      1.0  0.92818  0.37283  0.73059  1.0000
  H   H694      1.0  0.57476  0.23412  0.79634  1.0000
  H   H695      1.0  0.70006  0.45883  0.94432  1.0000
  S   S87       1.0  0.81641  0.27003  0.70053  1.0000
  S   S88       1.0  0.82811  0.18738  0.68162  1.0000
  Fe  Fe45      1.0  0.62691  0.33874  0.79004  1.0000
  S   S89       1.0  0.67591  0.35156  0.75995  1.0000
  S   S90       1.0  0.58200  0.33229  0.75730  1.0000
  Fe  Fe46      1.0  0.66429  0.35023  0.85857  1.0000
  S   S91       1.0  0.71530  0.36279  0.83182  1.0000
  S   S92       1.0  0.65500  0.35756  0.91528  1.0000
  Fe  Fe47      1.0  0.70491  0.39593  0.79463  1.0000
  S   S93       1.0  0.75038  0.44836  0.77272  1.0000
  Fe  Fe48      1.0  0.68255  0.31744  0.79850  1.0000
  S   S94       1.0  0.68966  0.27234  0.77957  1.0000
  S   S95       1.0  0.65591  0.38583  0.82245  1.0000
  S   S96       1.0  0.63170  0.30233  0.82758  1.0000
  H   H696      1.0  0.95636  0.39276  0.73187  1.0000
  C   C392      1.0  0.66505  0.35302  0.95832  1.0000
  C   C393      1.0  0.68422  0.33696  0.96722  1.0000
  H   H697      1.0  0.63876  0.37895  0.97821  1.0000
  H   H698      1.0  0.69346  0.32656  0.94769  1.0000
  C   C394      1.0  0.53874  0.29786  0.74884  1.0000
  H   H699      1.0  0.72771  0.03513  0.71542  1.0000
  H   H700      1.0  0.53677  0.25911  0.78419  1.0000
  H   H701      1.0  0.53150  0.33025  0.71209  1.0000
  C   C395      1.0  0.78028  0.27051  0.72084  1.0000
  C   C396      1.0  0.78631  0.30107  0.73707  1.0000
  C   C397      1.0  0.75890  0.30239  0.75459  1.0000
  C   C398      1.0  0.72506  0.27289  0.75656  1.0000
  C   C399      1.0  0.71898  0.24233  0.74024  1.0000
  C   C400      1.0  0.74628  0.24123  0.72223  1.0000
  H   H702      1.0  0.81243  0.32392  0.73618  1.0000
  H   H703      1.0  0.76410  0.32606  0.76699  1.0000
  H   H704      1.0  0.69297  0.21930  0.74163  1.0000
  C   C401      1.0  0.70826  0.47775  0.86366  1.0000
  H   H705      1.0  0.73932  0.38573  0.90262  1.0000
  H   H706      1.0  0.71169  0.42851  0.90558  1.0000
  H   H707      1.0  0.70732  0.47588  0.69607  1.0000
  C   C402      1.0  0.78262  0.09634  0.75636  1.0000
  H   H708      1.0  0.55221  0.21777  0.96153  1.0000
  H   H709      1.0  0.58893  0.26772  0.74201  1.0000
  C   C403      1.0  0.57733  0.22222  0.77285  1.0000
  C   C404      1.0  0.71850  0.43582  0.68233  1.0000
  H   H710      1.0  0.91349  0.41075  0.74558  1.0000
  C   C405      1.0  0.75203  0.48825  0.76031  1.0000
  H   H711      1.0  0.92394  0.33439  0.76867  1.0000
  H   H712      1.0  0.74121  0.46403  0.95466  1.0000
  H   H713      1.0  0.77961  0.40750  0.92466  1.0000
  N   N23       1.0  0.73944  0.48083  0.88126  1.0000
  C   C406      1.0  0.72807  0.47860  0.94678  1.0000
  C   C407      1.0  0.60568  0.23558  0.71380  1.0000
  H   H714      1.0  0.67276  0.47112  0.90639  1.0000
  C   C408      1.0  0.92978  0.28568  0.73722  1.0000
  C   C409      1.0  0.72209  0.11214  0.77384  1.0000
  C   C410      1.0  0.65344  0.36629  0.98451  1.0000
  H   H715      1.0  0.81401  0.09008  0.71694  1.0000
  C   C411      1.0  0.75583  0.40840  0.91836  1.0000
  H   H716      1.0  0.62168  0.30569  0.69845  1.0000
  C   C412      1.0  0.92030  0.33537  0.74097  1.0000
  H   H717      1.0  0.67535  0.04386  0.76153  1.0000
  H   H718      1.0  0.66533  0.42990  0.89015  1.0000
  C   C413      1.0  0.76013  0.10400  0.73229  1.0000
  H   H719      1.0  0.55078  0.20545  0.76311  1.0000
  C   C414      1.0  0.93264  0.31874  0.68498  1.0000
  H   H720      1.0  0.70038  0.47323  0.77964  1.0000
  H   H721      1.0  0.87929  0.36546  0.75285  1.0000
  H   H722      1.0  0.90496  0.31177  0.68203  1.0000
  C   C415      1.0  0.67241  0.45732  0.88326  1.0000
  H   H723      1.0  0.61768  0.43975  0.87616  1.0000
  C   C416      1.0  0.60092  0.25140  0.74671  1.0000
  H   H724      1.0  0.69620  0.41587  0.69881  1.0000
  C   C417      1.0  0.51978  0.30444  0.72462  1.0000
  H   H725      1.0  0.93877  0.28776  0.76357  1.0000
  H   H726      1.0  0.78866  0.02000  0.67032  1.0000
  H   H727      1.0  0.78201  0.46492  0.91652  1.0000
  H   H728      1.0  0.89174  0.31818  0.73731  1.0000
  H   H729      1.0  0.62630  0.26813  0.75830  1.0000
  C   C418      1.0  0.57641  0.27040  0.67017  1.0000
  H   H730      1.0  0.71882  0.48564  0.99927  1.0000
  C   C419      1.0  0.71227  0.46583  0.67236  1.0000
  H   H731      1.0  0.67625  0.08596  0.72253  1.0000
  H   H732      1.0  0.68565  0.02834  0.70404  1.0000
  H   H733      1.0  0.58886  0.20571  0.77933  1.0000
  H   H734      1.0  0.67012  0.13002  0.68676  1.0000
  H   H735      1.0  0.74451  0.13981  0.77131  1.0000
  C   C420      1.0  0.70462  0.09761  0.71561  1.0000
  C   C421      1.0  0.76633  0.44323  0.89951  1.0000
  H   H736      1.0  0.76069  0.09334  0.70727  1.0000
  H   H737      1.0  0.51378  0.20464  0.98832  1.0000
  C   C422      1.0  0.97931  0.34537  0.72794  1.0000
  C   C423      1.0  0.81789  0.10630  0.73922  1.0000
  H   H738      1.0  0.76963  0.06807  0.76431  1.0000
  H   H739      1.0  0.78833  0.11249  0.77892  1.0000
  H   H740      1.0  0.69574  0.07330  0.81600  1.0000
  H   H741      1.0  0.87908  0.25611  0.71315  1.0000
  C   C424      1.0  0.88998  0.25824  0.73848  1.0000
  C   C425      1.0  0.88286  0.22188  0.75053  1.0000
  C   C426      1.0  0.61579  0.28716  0.67759  1.0000
  H   H742      1.0  0.91941  0.37308  0.70463  1.0000
  H   H743      1.0  0.87559  0.26557  0.75668  1.0000
  H   H744      1.0  0.74101  0.40585  0.94231  1.0000
  H   H745      1.0  0.89455  0.21168  0.73221  1.0000
  H   H746      1.0  0.89389  0.22315  0.77570  1.0000
  H   H747      1.0  0.85419  0.20315  0.75282  1.0000
  H   H748      1.0  0.93404  0.29637  0.67425  1.0000
  C   C427      1.0  0.73393  0.44441  0.88732  1.0000
  N   N24       1.0  0.94078  0.32186  0.72205  1.0000
  H   H749      1.0  0.91594  0.38508  0.78038  1.0000
  H   H750      1.0  0.67433  0.26402  0.70515  1.0000
  H   H751      1.0  0.57912  0.21674  0.70500  1.0000
  H   H752      1.0  0.74199  0.09030  0.81279  1.0000
  H   H753      1.0  0.99659  0.23573  0.68284  1.0000
  H   H754      1.0  0.72594  0.42955  0.86366  1.0000
  H   H755      1.0  0.74120  0.21759  0.70993  1.0000
  H   H756      1.0  0.66702  0.29719  0.71900  1.0000
  H   H757      1.0  0.73224  0.33707  0.70686  1.0000
  H   H758      1.0  0.70562  0.46512  0.83900  1.0000
  H   H759      1.0  0.94258  0.27358  0.72275  1.0000
  H   H760      1.0  0.74278  0.44593  0.69662  1.0000
  H   H761      1.0  0.83259  0.13463  0.73098  1.0000
  H   H762      1.0  0.78352  0.44618  0.87724  1.0000
  H   H763      1.0  0.75319  0.14836  0.83246  1.0000
  H   H764      1.0  0.99493  0.31893  0.69063  1.0000
  C   C428      1.0  0.72441  0.49406  0.76752  1.0000
  H   H765      1.0  0.83390  0.10144  0.75725  1.0000
  C   C429      1.0  0.54131  0.21064  0.98799  1.0000
  H   H766      1.0  0.64781  0.48238  0.85644  1.0000
  C   C430      1.0  0.64326  0.45553  0.86202  1.0000
  C   C431      1.0  0.66530  0.28214  0.69647  1.0000
  H   H767      1.0  0.71378  0.04587  0.77553  1.0000
  C   C432      1.0  0.72159  0.09739  0.81001  1.0000
  H   H768      1.0  0.98970  0.37215  0.71636  1.0000
  C   C433      1.0  0.72706  0.12413  0.83655  1.0000
  C   C434      1.0  0.71948  0.13676  0.70386  1.0000
  C   C435      1.0  0.52294  0.26443  0.76505  1.0000
  H   H769      1.0  0.57649  0.31921  0.67808  1.0000
  H   H770      1.0  0.72567  0.11258  0.86220  1.0000
  H   H771      1.0  0.69817  0.11439  0.77368  1.0000
  H   H772      1.0  0.77467  0.13302  0.72764  1.0000
  H   H773      1.0  0.70645  0.13131  0.83545  1.0000
  H   H774      1.0  0.76827  0.48533  0.83457  1.0000
  H   H775      1.0  0.72010  0.15301  0.72507  1.0000
  C   C436      1.0  0.70114  0.02761  0.72527  1.0000
  C   C437      1.0  0.70282  0.05223  0.75344  1.0000
  C   C438      1.0  0.72969  0.32497  0.68201  1.0000
  N   N25       1.0  0.62804  0.26165  0.68558  1.0000
  H   H776      1.0  0.98349  0.34963  0.75548  1.0000
  H   H777      1.0  0.74642  0.14836  0.69267  1.0000
  H   H778      1.0  0.64182  0.44280  0.83779  1.0000
  H   H779      1.0  0.00131  0.31087  0.73364  1.0000
  H   H780      1.0  0.63414  0.20069  0.67783  1.0000
  H   H781      1.0  0.73664  0.30412  0.68438  1.0000
  H   H782      1.0  0.70566  0.08403  0.69274  1.0000
  H   H783      1.0  0.96136  0.37633  0.67154  1.0000
  C   C439      1.0  0.69246  0.30947  0.66994  1.0000
  H   H784      1.0  0.70888  0.16798  0.66815  1.0000
  C   C440      1.0  0.69724  0.13991  0.67667  1.0000
  H   H785      1.0  0.56284  0.26458  0.99964  1.0000
  H   H786      1.0  0.54186  0.18678  0.99661  1.0000
  C   C441      1.0  0.96126  0.74318  0.30612  1.0000
  H   H787      1.0  0.51062  0.67643  0.30643  1.0000
  H   H788      1.0  0.52894  0.71277  0.24283  1.0000
  C   C442      1.0  0.82939  0.61144  0.21670  1.0000
  H   H789      1.0  0.99522  0.73884  0.22820  1.0000
  S   S97       1.0  0.79559  0.56238  0.30644  1.0000
  S   S98       1.0  0.81631  0.66456  0.29119  1.0000
  C   C443      1.0  0.70465  0.97015  0.32005  1.0000
  H   H790      1.0  0.55690  0.69142  0.30498  1.0000
  C   C444      1.0  0.74058  0.72087  0.32746  1.0000
  C   C445      1.0  0.72603  0.77310  0.30323  1.0000
  Fe  Fe49      1.0  0.59884  0.79750  0.31613  1.0000
  S   S99       1.0  0.54166  0.75682  0.30520  1.0000
  S   S100      1.0  0.64413  0.83597  0.28143  1.0000
  H   H791      1.0  0.92349  0.65489  0.30659  1.0000
  C   C446      1.0  0.52229  0.78674  0.25323  1.0000
  S   S101      1.0  0.66526  0.92870  0.31990  1.0000
  H   H792      1.0  0.54847  0.80944  0.25358  1.0000
  H   H793      1.0  0.86062  0.59989  0.26537  1.0000
  C   C447      1.0  0.53055  0.66975  0.31406  1.0000
  C   C448      1.0  0.76361  0.74715  0.30387  1.0000
  S   S102      1.0  0.92049  0.73489  0.29076  1.0000
  H   H794      1.0  0.81652  0.61866  0.23671  1.0000
  C   C449      1.0  0.76805  0.53245  0.27612  1.0000
  C   C450      1.0  0.74983  0.54102  0.25311  1.0000
  H   H795      1.0  0.55051  0.70511  0.17082  1.0000
  H   H796      1.0  0.75194  0.56653  0.25365  1.0000
  H   H797      1.0  0.93694  0.67162  0.21431  1.0000
  H   H798      1.0  0.82244  0.61744  0.19167  1.0000
  Fe  Fe50      1.0  0.86792  0.69538  0.31698  1.0000
  H   H799      1.0  0.77379  0.79271  0.27290  1.0000
  H   H800      1.0  0.56722  0.71172  0.22909  1.0000
  C   C451      1.0  0.53000  0.70117  0.18998  1.0000
  H   H801      1.0  0.78672  0.74721  0.29446  1.0000
  H   H802      1.0  0.52650  0.74334  0.16608  1.0000
  H   H803      1.0  0.71510  0.52362  0.21145  1.0000
  H   H804      1.0  0.99185  0.78706  0.27082  1.0000
  N   N26       1.0  0.91690  0.63386  0.25703  1.0000
  C   C452      1.0  0.75619  0.77293  0.29166  1.0000
  C   C453      1.0  0.65724  0.50871  0.28947  1.0000
  H   H805      1.0  0.87845  0.66050  0.21464  1.0000
  C   C454      1.0  0.92273  0.60789  0.23788  1.0000
  Fe  Fe51      1.0  0.80870  0.61746  0.32245  1.0000
  H   H806      1.0  0.95317  0.64048  0.29588  1.0000
  C   C455      1.0  0.87995  0.62678  0.25528  1.0000
  C   C456      1.0  0.94105  0.67058  0.24183  1.0000
  H   H807      1.0  0.93467  0.68963  0.25311  1.0000
  H   H808      1.0  0.63859  0.51764  0.28348  1.0000
  C   C457      1.0  0.90190  0.54484  0.22198  1.0000
  H   H809      1.0  0.91488  0.55435  0.19645  1.0000
  H   H810      1.0  0.87136  0.56970  0.21861  1.0000
  H   H811      1.0  0.51643  0.67735  0.12611  1.0000
  H   H812      1.0  0.87613  0.64453  0.27214  1.0000
  C   C458      1.0  0.72895  0.51658  0.22916  1.0000
  H   H813      1.0  0.94468  0.60599  0.24870  1.0000
  C   C459      1.0  0.98086  0.68570  0.24565  1.0000
  H   H814      1.0  0.92007  0.54255  0.23923  1.0000
  H   H815      1.0  0.51401  0.67267  0.19699  1.0000
  H   H816      1.0  0.93159  0.61751  0.21116  1.0000
  C   C460      1.0  0.99278  0.77050  0.29088  1.0000
  H   H817      1.0  0.88080  0.62375  0.19945  1.0000
  C   C461      1.0  0.89078  0.56987  0.23583  1.0000
  H   H818      1.0  0.87695  0.55868  0.26063  1.0000
  C   C462      1.0  0.86910  0.63207  0.21961  1.0000
  H   H819      1.0  0.90828  0.57840  0.30511  1.0000
  H   H820      1.0  0.81927  0.58267  0.21915  1.0000
  H   H821      1.0  0.98796  0.69345  0.27208  1.0000
  Fe  Fe52      1.0  0.67631  0.81679  0.30857  1.0000
  H   H822      1.0  0.50429  0.75336  0.10306  1.0000
  C   C463      1.0  0.92561  0.63391  0.29366  1.0000
  S   S103      1.0  0.71694  0.80516  0.28595  1.0000
  Fe  Fe53      1.0  0.65815  0.87374  0.32397  1.0000
  C   C464      1.0  0.50755  0.71597  0.17567  1.0000
  C   C465      1.0  0.54842  0.71998  0.22157  1.0000
  C   C466      1.0  0.51235  0.75805  0.27586  1.0000
  H   H823      1.0  0.56306  0.74906  0.21701  1.0000
  C   C467      1.0  0.73749  0.97316  0.32191  1.0000
  H   H824      1.0  0.52518  0.64527  0.30167  1.0000
  H   H825      1.0  0.98846  0.66611  0.23911  1.0000
  C   C468      1.0  0.70344  0.74725  0.32743  1.0000
  H   H826      1.0  0.52823  0.72056  0.11286  1.0000
  H   H827      1.0  0.50636  0.80854  0.21273  1.0000
  H   H828      1.0  0.51797  0.65850  0.06790  1.0000
  H   H829      1.0  0.73938  0.94966  0.32298  1.0000
  H   H830      1.0  0.68401  0.53006  0.28126  1.0000
  H   H831      1.0  0.87524  0.58978  0.31489  1.0000
  H   H832      1.0  0.87842  0.51824  0.21989  1.0000
  C   C469      1.0  0.90359  0.59904  0.31489  1.0000
  C   C470      1.0  0.96291  0.72207  0.33209  1.0000
  H   H833      1.0  0.53265  0.70323  0.05289  1.0000
  H   H834      1.0  0.65673  0.50413  0.31725  1.0000
  C   C471      1.0  0.76489  0.49905  0.27488  1.0000
  C   C472      1.0  0.50930  0.67684  0.05904  1.0000
  H   H835      1.0  0.99880  0.71237  0.19585  1.0000
  C   C473      1.0  0.00266  0.71882  0.22292  1.0000
  C   C474      1.0  0.50509  0.69394  0.11900  1.0000
  H   H836      1.0  0.72619  0.76393  0.45307  1.0000
  H   H837      1.0  0.73430  0.95254  0.39816  1.0000
  Fe  Fe54      1.0  0.83604  0.66159  0.38632  1.0000
  S   S104      1.0  0.85874  0.66718  0.43790  1.0000
  C   C475      1.0  0.79779  0.72573  0.44254  1.0000
  Fe  Fe55      1.0  0.62604  0.85359  0.60645  1.0000
  S   S105      1.0  0.68229  0.86907  0.61045  1.0000
  S   S106      1.0  0.60544  0.85829  0.55616  1.0000
  C   C476      1.0  0.73493  0.99278  0.65578  1.0000
  C   C477      1.0  0.73464  0.76085  0.42743  1.0000
  Fe  Fe56      1.0  0.64608  0.81750  0.37756  1.0000
  S   S107      1.0  0.65358  0.80420  0.43106  1.0000
  H   H838      1.0  0.79923  0.52514  0.60361  1.0000
  Fe  Fe57      1.0  0.80044  0.66084  0.62231  1.0000
  S   S108      1.0  0.77038  0.63534  0.57579  1.0000
  C   C478      1.0  0.72458  0.90709  0.42856  1.0000
  C   C479      1.0  0.61849  0.84291  0.52145  1.0000
  C   C480      1.0  0.63840  0.82683  0.52593  1.0000
  C   C481      1.0  0.64904  0.81520  0.49789  1.0000
  C   C482      1.0  0.63998  0.81965  0.46526  1.0000
  C   C483      1.0  0.62009  0.83574  0.46068  1.0000
  C   C484      1.0  0.60918  0.84716  0.48879  1.0000
  H   H839      1.0  0.64536  0.82315  0.55105  1.0000
  H   H840      1.0  0.66427  0.80262  0.50145  1.0000
  H   H841      1.0  0.61296  0.83921  0.43560  1.0000
  H   H842      1.0  0.59366  0.85947  0.48527  1.0000
  H   H843      1.0  0.76853  0.57360  0.60793  1.0000
  H   H844      1.0  0.65228  0.74024  0.40112  1.0000
  C   C485      1.0  0.83348  0.65765  0.47585  1.0000
  C   C486      1.0  0.85071  0.67000  0.50610  1.0000
  C   C487      1.0  0.83156  0.66348  0.53685  1.0000
  C   C488      1.0  0.79502  0.64396  0.53759  1.0000
  C   C489      1.0  0.77771  0.63113  0.50743  1.0000
  C   C490      1.0  0.79690  0.63818  0.47653  1.0000
  H   H845      1.0  0.87903  0.68496  0.50570  1.0000
  H   H846      1.0  0.84512  0.67333  0.56000  1.0000
  H   H847      1.0  0.74942  0.61579  0.50797  1.0000
  H   H848      1.0  0.78353  0.62818  0.45334  1.0000
  H   H849      1.0  0.82885  0.85897  0.58704  1.0000
  C   C491      1.0  0.76791  0.75762  0.42860  1.0000
  H   H850      1.0  0.77685  0.75801  0.40185  1.0000
  H   H851      1.0  0.87068  0.91663  0.48114  1.0000
  Fe  Fe58      1.0  0.86837  0.69595  0.66074  1.0000
  H   H852      1.0  0.57727  0.77574  0.41874  1.0000
  H   H853      1.0  0.82846  0.76444  0.48062  1.0000
  H   H854      1.0  0.69960  0.89770  0.53158  1.0000
  H   H855      1.0  0.58532  0.66757  0.41018  1.0000
  H   H856      1.0  0.72248  0.89796  0.45532  1.0000
  H   H857      1.0  0.91088  0.62445  0.36323  1.0000
  C   C492      1.0  0.58080  0.71509  0.41448  1.0000
  C   C493      1.0  0.99550  0.72731  0.34171  1.0000
  C   C494      1.0  0.59891  0.69546  0.40086  1.0000
  C   C495      1.0  0.70684  0.92545  0.53524  1.0000
  H   H858      1.0  0.59615  0.74194  0.40259  1.0000
  H   H859      1.0  0.74274  0.94562  0.49222  1.0000
  H   H860      1.0  0.83804  0.78208  0.43748  1.0000
  C   C496      1.0  0.74165  0.79305  0.40561  1.0000
  H   H861      1.0  0.72844  0.97466  0.50711  1.0000
  C   C497      1.0  0.71347  0.98781  0.44195  1.0000
  H   H862      1.0  0.66959  0.93720  0.48722  1.0000
  C   C498      1.0  0.77226  0.55304  0.62053  1.0000
  C   C499      1.0  0.75632  0.72838  0.48477  1.0000
  H   H863      1.0  0.70841  0.68677  0.44652  1.0000
  C   C500      1.0  0.71171  0.77422  0.65203  1.0000
  H   H864      1.0  0.75005  0.87851  0.41298  1.0000
  H   H865      1.0  0.99622  0.70985  0.36084  1.0000
  C   C501      1.0  0.83007  0.57944  0.58705  1.0000
  C   C502      1.0  0.73580  0.65904  0.43406  1.0000
  C   C503      1.0  0.75525  0.90597  0.41156  1.0000
  S   S109      1.0  0.61119  0.83598  0.35734  1.0000
  C   C504      1.0  0.73368  0.69311  0.43370  1.0000
  H   H866      1.0  0.78843  0.78235  0.43943  1.0000
  H   H867      1.0  0.73089  0.72737  0.48799  1.0000
  H   H868      1.0  0.52890  0.64467  0.41488  1.0000
  H   H869      1.0  0.71883  0.52621  0.58400  1.0000
  H   H870      1.0  0.89768  0.57855  0.36656  1.0000
  H   H871      1.0  0.72784  0.93685  0.55376  1.0000
  S   S110      1.0  0.69384  0.85795  0.34765  1.0000
  C   C505      1.0  0.70174  0.62751  0.42304  1.0000
  H   H872      1.0  0.78106  0.53896  0.57013  1.0000
  N   N27       1.0  0.78068  0.84987  0.56532  1.0000
  C   C506      1.0  0.79351  0.86062  0.52888  1.0000
  C   C507      1.0  0.74205  0.82218  0.56721  1.0000
  C   C508      1.0  0.78511  0.88211  0.58238  1.0000
  C   C509      1.0  0.80155  0.83702  0.58412  1.0000
  C   C510      1.0  0.80265  0.80546  0.56945  1.0000
  C   C511      1.0  0.83263  0.88935  0.52276  1.0000
  C   C512      1.0  0.53058  0.72254  0.42395  1.0000
  C   C513      1.0  0.72775  0.79570  0.53839  1.0000
  C   C514      1.0  0.69064  0.76537  0.54734  1.0000
  C   C515      1.0  0.82870  0.79864  0.58781  1.0000
  C   C516      1.0  0.84274  0.89564  0.48495  1.0000
  H   H873      1.0  0.77989  0.92320  0.42440  1.0000
  H   H874      1.0  0.77756  0.87026  0.51626  1.0000
  H   H875      1.0  0.78955  0.83779  0.51440  1.0000
  H   H876      1.0  0.73528  0.80666  0.59148  1.0000
  H   H877      1.0  0.72561  0.83469  0.56746  1.0000
  H   H878      1.0  0.77236  0.89410  0.56762  1.0000
  C   C517      1.0  0.52227  0.66342  0.42612  1.0000
  H   H879      1.0  0.83932  0.87126  0.47378  1.0000
  H   H880      1.0  0.79064  0.82815  0.61047  1.0000
  H   H881      1.0  0.81063  0.80985  0.54222  1.0000
  H   H882      1.0  0.77648  0.78139  0.57334  1.0000
  H   H883      1.0  0.83802  0.91490  0.53259  1.0000
  H   H884      1.0  0.84995  0.88141  0.53496  1.0000
  H   H885      1.0  0.93904  0.70137  0.34452  1.0000
  H   H886      1.0  0.82650  0.90422  0.47146  1.0000
  H   H887      1.0  0.72670  0.80935  0.51484  1.0000
  H   H888      1.0  0.74423  0.78410  0.53288  1.0000
  H   H889      1.0  0.67306  0.77558  0.55404  1.0000
  H   H890      1.0  0.68004  0.74831  0.52542  1.0000
  H   H891      1.0  0.69077  0.74912  0.56914  1.0000
  H   H892      1.0  0.82852  0.77532  0.57762  1.0000
  H   H893      1.0  0.85569  0.82167  0.58432  1.0000
  H   H894      1.0  0.82157  0.79329  0.61528  1.0000
  H   H895      1.0  0.50512  0.76906  0.41656  1.0000
  H   H896      1.0  0.76325  0.90501  0.65946  1.0000
  H   H897      1.0  0.60012  0.69688  0.37280  1.0000
  H   H898      1.0  0.74124  0.65234  0.45935  1.0000
  Fe  Fe59      1.0  0.68047  0.89736  0.65637  1.0000
  H   H899      1.0  0.62653  0.92259  0.45339  1.0000
  C   C518      1.0  0.69017  0.93275  0.47602  1.0000
  H   H900      1.0  0.75544  0.96319  0.43693  1.0000
  C   C519      1.0  0.75355  0.69913  0.50931  1.0000
  S   S111      1.0  0.76810  0.66054  0.66686  1.0000
  S   S112      1.0  0.60515  0.80291  0.63725  1.0000
  H   H901      1.0  0.70042  0.88791  0.41624  1.0000
  H   H902      1.0  0.54717  0.80905  0.41498  1.0000
  C   C520      1.0  0.60899  0.91623  0.40290  1.0000
  S   S113      1.0  0.84251  0.71734  0.62690  1.0000
  H   H903      1.0  0.68743  0.59219  0.65657  1.0000
  H   H904      1.0  0.82679  0.60141  0.57733  1.0000
  H   H905      1.0  0.95560  0.70530  0.45933  1.0000
  H   H906      1.0  0.70464  0.60396  0.42245  1.0000
  H   H907      1.0  0.81326  0.90269  0.58313  1.0000
  H   H908      1.0  0.72774  0.71211  0.54957  1.0000
  H   H909      1.0  0.69246  0.70084  0.35723  1.0000
  H   H910      1.0  0.67766  0.93928  0.39161  1.0000
  H   H911      1.0  0.68365  0.92580  0.54601  1.0000
  C   C521      1.0  0.83146  0.75870  0.45407  1.0000
  C   C522      1.0  0.96689  0.74265  0.66359  1.0000
  H   H912      1.0  0.61853  0.92815  0.37697  1.0000
  C   C523      1.0  0.71380  0.50538  0.60362  1.0000
  H   H913      1.0  0.71259  0.73743  0.41649  1.0000
  C   C524      1.0  0.71431  0.74526  0.64193  1.0000
  H   H914      1.0  0.80205  0.72309  0.41513  1.0000
  H   H915      1.0  0.73004  0.67353  0.50415  1.0000
  C   C525      1.0  0.73008  0.94480  0.42564  1.0000
  H   H916      1.0  0.73079  0.69808  0.40665  1.0000
  H   H917      1.0  0.51343  0.70125  0.36532  1.0000
  H   H918      1.0  0.69450  0.99211  0.45692  1.0000
  H   H919      1.0  0.96494  0.75035  0.45617  1.0000
  N   N28       1.0  0.73757  0.52176  0.63272  1.0000
  H   H920      1.0  0.74366  0.71832  0.64425  1.0000
  H   H921      1.0  0.75003  0.79136  0.37938  1.0000
  C   C526      1.0  0.96687  0.72957  0.44270  1.0000
  H   H922      1.0  0.64531  0.96277  0.42762  1.0000
  H   H923      1.0  0.88698  0.77805  0.45849  1.0000
  H   H924      1.0  0.58631  0.91910  0.41027  1.0000
  H   H925      1.0  0.79659  0.70248  0.45537  1.0000
  S   S114      1.0  0.67616  0.77829  0.63799  1.0000
  C   C527      1.0  0.71973  0.94687  0.50170  1.0000
  H   H926      1.0  0.55013  0.76351  0.38264  1.0000
  H   H927      1.0  0.77715  0.69668  0.50731  1.0000
  H   H928      1.0  0.69459  0.72591  0.62631  1.0000
  H   H929      1.0  0.70295  0.55862  0.61777  1.0000
  C   C528      1.0  0.79440  0.54617  0.59446  1.0000
  S   S115      1.0  0.63024  0.77570  0.33958  1.0000
  S   S116      1.0  0.72832  0.95053  0.66735  1.0000
  H   H930      1.0  0.67773  0.90363  0.47564  1.0000
  Fe  Fe60      1.0  0.66190  0.82085  0.64501  1.0000
  C   C529      1.0  0.86291  0.75345  0.45202  1.0000
  H   H931      1.0  0.53271  0.78090  0.45277  1.0000
  H   H932      1.0  0.71733  0.79433  0.40441  1.0000
  N   N29       1.0  0.54234  0.69918  0.40810  1.0000
  H   H933      1.0  0.77599  0.75441  0.49412  1.0000
  C   C530      1.0  0.77059  0.87622  0.61957  1.0000
  C   C531      1.0  0.53249  0.78117  0.42469  1.0000
  C   C532      1.0  0.74950  0.70678  0.54605  1.0000
  H   H934      1.0  0.69565  0.63274  0.39723  1.0000
  H   H935      1.0  0.77428  0.72954  0.55402  1.0000
  C   C533      1.0  0.54992  0.76159  0.41064  1.0000
  C   C534      1.0  0.63672  0.71274  0.41179  1.0000
  H   H936      1.0  0.75703  0.66250  0.41608  1.0000
  C   C535      1.0  0.66977  0.93056  0.41862  1.0000
  H   H937      1.0  0.53317  0.72251  0.45191  1.0000
  H   H938      1.0  0.74370  0.68365  0.56271  1.0000
  H   H939      1.0  0.75856  0.91469  0.38446  1.0000
  H   H940      1.0  0.63777  0.71302  0.43979  1.0000
  H   H941      1.0  0.67972  0.62177  0.44102  1.0000
  H   H942      1.0  0.76228  0.81770  0.41641  1.0000
  S   S117      1.0  0.78242  0.62725  0.36689  1.0000
  N   N30       1.0  0.76392  0.72568  0.44795  1.0000
  S   S118      1.0  0.84486  0.71099  0.35953  1.0000
  H   H943      1.0  0.74242  0.85576  0.62191  1.0000
  H   H944      1.0  0.84514  0.57430  0.56754  1.0000
  S   S119      1.0  0.86170  0.64792  0.34494  1.0000
  H   H945      1.0  0.65974  0.90178  0.41926  1.0000
  H   H946      1.0  0.58518  0.71845  0.44211  1.0000
  S   S120      1.0  0.92531  0.71067  0.64882  1.0000
  S   S121      1.0  0.82784  0.63901  0.65230  1.0000
  H   H947      1.0  0.85904  0.73212  0.47023  1.0000
  H   H948      1.0  0.95097  0.72336  0.41988  1.0000
  N   N31       1.0  0.70086  0.94900  0.44062  1.0000
  H   H949      1.0  0.68277  0.97409  0.63931  1.0000
  H   H950      1.0  0.64884  0.69778  0.40222  1.0000
  H   H951      1.0  0.60001  0.88769  0.40273  1.0000
  H   H952      1.0  0.94214  0.61091  0.35333  1.0000
  H   H953      1.0  0.86689  0.74661  0.42614  1.0000
  C   C536      1.0  0.63792  0.93469  0.42795  1.0000
  S   S122      1.0  0.62516  0.88485  0.65031  1.0000
  H   H954      1.0  0.54817  0.65602  0.35862  1.0000
  H   H955      1.0  0.78862  0.56543  0.64261  1.0000
  C   C537      1.0  0.91433  0.60366  0.35170  1.0000
  H   H956      1.0  0.84539  0.58762  0.61027  1.0000
  C   C538      1.0  0.53620  0.69797  0.37060  1.0000
  C   C539      1.0  0.74208  0.74082  0.65210  1.0000
  H   H957      1.0  0.55881  0.72093  0.35702  1.0000
  H   H958      1.0  0.73969  0.58994  0.64076  1.0000
  C   C540      1.0  0.71058  0.72120  0.33924  1.0000
  H   H959      1.0  0.53027  0.66521  0.45283  1.0000
  H   H960      1.0  0.99493  0.73474  0.62285  1.0000
  C   C541      1.0  0.99738  0.74878  0.64560  1.0000
  C   C542      1.0  0.71448  0.56459  0.64300  1.0000
  C   C543      1.0  0.72052  0.53502  0.65706  1.0000
  C   C544      1.0  0.52914  0.66422  0.35248  1.0000
  S   S123      1.0  0.74719  0.68644  0.34259  1.0000
  H   H961      1.0  0.78515  0.86812  0.63632  1.0000
  H   H962      1.0  0.76070  0.91998  0.61752  1.0000
  C   C545      1.0  0.77464  0.91016  0.63319  1.0000
  H   H963      1.0  0.80271  0.93094  0.63359  1.0000
  C   C546      1.0  0.69011  0.57002  0.66672  1.0000
  H   H964      1.0  0.69448  0.51308  0.66655  1.0000
  H   H965      1.0  0.68009  0.74687  0.33645  1.0000
  Fe  Fe61      1.0  0.79280  0.67633  0.33690  1.0000
  H   H966      1.0  0.99895  0.74591  0.76799  1.0000
  S   S124      1.0  0.66409  0.84987  0.69147  1.0000
  H   H967      1.0  0.75979  0.53539  0.82551  1.0000
  C   C547      1.0  0.77906  0.53793  0.84422  1.0000
  C   C548      1.0  0.78613  0.54834  0.73507  1.0000
  H   H968      1.0  0.75858  0.52168  0.97995  1.0000
  H   H969      1.0  0.52078  0.79053  0.78490  1.0000
  C   C549      1.0  0.59373  0.71904  0.83281  1.0000
  H   H970      1.0  0.71206  0.50423  0.85760  1.0000
  H   H971      1.0  0.61850  0.69071  0.71852  1.0000
  Fe  Fe62      1.0  0.79811  0.64184  0.69756  1.0000
  S   S125      1.0  0.84031  0.69748  0.70857  1.0000
  S   S126      1.0  0.76280  0.59632  0.73551  1.0000
  C   C550      1.0  0.97053  0.76113  0.69292  1.0000
  H   H972      1.0  0.64535  0.65336  0.72047  1.0000
  C   C551      1.0  0.76756  0.76530  0.67267  1.0000
  C   C552      1.0  0.74572  0.50077  0.91339  1.0000
  H   H973      1.0  0.68215  0.97231  0.71764  1.0000
  Fe  Fe63      1.0  0.81187  0.71544  0.67395  1.0000
  C   C553      1.0  0.75909  0.55464  0.74355  1.0000
  H   H974      1.0  0.65300  0.81086  0.75773  1.0000
  H   H975      1.0  0.99986  0.67949  0.74701  1.0000
  H   H976      1.0  0.80420  0.51124  0.73788  1.0000
  H   H977      1.0  0.69848  0.73269  0.72216  1.0000
  H   H978      1.0  0.52398  0.70063  0.70105  1.0000
  H   H979      1.0  0.94741  0.75670  0.70711  1.0000
  H   H980      1.0  0.60557  0.76604  0.73877  1.0000
  C   C554      1.0  0.52378  0.78771  0.73073  1.0000
  H   H981      1.0  0.58198  0.68996  0.83389  1.0000
  H   H982      1.0  0.57552  0.72535  0.84638  1.0000
  H   H983      1.0  0.81912  0.58376  0.81507  1.0000
  H   H984      1.0  0.73646  0.54524  0.67974  1.0000
  S   S127      1.0  0.57032  0.81521  0.72824  1.0000
  C   C555      1.0  0.76512  0.79445  0.68255  1.0000
  H   H985      1.0  0.71596  0.84792  0.73588  1.0000
  H   H986      1.0  0.96126  0.70249  0.76508  1.0000
  C   C556      1.0  0.72813  0.52720  0.75955  1.0000
  H   H987      1.0  0.70690  0.53167  0.76592  1.0000
  C   C557      1.0  0.70874  0.83741  0.76246  1.0000
  H   H988      1.0  0.72906  0.83213  0.77192  1.0000
  C   C558      1.0  0.81522  0.55862  0.82631  1.0000
  C   C559      1.0  0.98967  0.71728  0.76995  1.0000
  H   H989      1.0  0.69227  0.77040  0.75259  1.0000
  N   N32       1.0  0.63725  0.74125  0.74105  1.0000
  H   H990      1.0  0.66780  0.79448  0.79199  1.0000
  C   C560      1.0  0.73740  0.79897  0.67226  1.0000
  H   H991      1.0  0.70839  0.85788  0.77797  1.0000
  H   H992      1.0  0.81009  0.56915  0.72276  1.0000
  C   C561      1.0  0.64299  0.71683  0.71914  1.0000
  C   C562      1.0  0.62411  0.72382  0.77592  1.0000
  C   C563      1.0  0.59962  0.73316  0.79614  1.0000
  H   H993      1.0  0.68133  0.78713  0.71653  1.0000
  C   C564      1.0  0.67237  0.70961  0.72960  1.0000
  H   H994      1.0  0.83608  0.56478  0.84445  1.0000
  Fe  Fe64      1.0  0.60832  0.83491  0.68174  1.0000
  H   H995      1.0  0.57358  0.72117  0.78485  1.0000
  H   H996      1.0  0.70105  0.57668  0.69223  1.0000
  H   H997      1.0  0.51747  0.77902  0.67751  1.0000
  C   C565      1.0  0.61174  0.74886  0.72367  1.0000
  H   H998      1.0  0.56751  0.69437  0.73424  1.0000
  H   H999      1.0  0.60913  0.69456  0.77460  1.0000
  H   H1000     1.0  0.64668  0.72954  0.79176  1.0000
  H   H1001     1.0  0.77818  0.55366  0.86525  1.0000
  H   H1002     1.0  0.61004  0.76186  0.79642  1.0000
  C   C566      1.0  0.67267  0.80380  0.76505  1.0000
  C   C567      1.0  0.57687  0.71580  0.71444  1.0000
  H   H1003     1.0  0.67123  0.70437  0.75728  1.0000
  H   H1004     1.0  0.66981  0.68168  0.68400  1.0000
  C   C568      1.0  0.67189  0.77525  0.74255  1.0000
  H   H1005     1.0  0.78481  0.81360  0.69837  1.0000
  H   H1006     1.0  0.81758  0.54330  0.80561  1.0000
  H   H1007     1.0  0.61886  0.73143  0.84591  1.0000
  H   H1008     1.0  0.79509  0.50491  0.86928  1.0000
  H   H1009     1.0  0.77423  0.51642  0.91807  1.0000
  S   S128      1.0  0.80288  0.76075  0.68640  1.0000
  C   C569      1.0  0.78269  0.51545  0.74369  1.0000
  C   C570      1.0  0.66968  0.67798  0.71186  1.0000
  H   H1010     1.0  0.73592  0.82151  0.68010  1.0000
  H   H1011     1.0  0.62390  0.76457  0.69955  1.0000
  C   C571      1.0  0.68352  0.98930  0.73855  1.0000
  H   H1012     1.0  0.64907  0.72718  0.69242  1.0000
  H   H1013     1.0  0.69250  0.67520  0.71792  1.0000
  H   H1014     1.0  0.73758  0.52075  0.91046  1.0000
  H   H1015     1.0  0.55628  0.74582  0.68975  1.0000
  H   H1016     1.0  0.58102  0.70559  0.69043  1.0000
  H   H1017     1.0  0.71647  0.51613  0.96986  1.0000
  H   H1018     1.0  0.54133  0.73245  0.73341  1.0000
  H   H1019     1.0  0.00268  0.71356  0.71859  1.0000
  H   H1020     1.0  0.99336  0.71013  0.79598  1.0000
  H   H1021     1.0  0.66374  0.54592  0.66895  1.0000
  C   C572      1.0  0.54792  0.72429  0.70934  1.0000
  C   C573      1.0  0.77104  0.50094  0.85722  1.0000
  H   H1022     1.0  0.65644  0.97996  0.74844  1.0000
  H   H1023     1.0  0.76478  0.51046  0.67113  1.0000
  C   C574      1.0  0.50600  0.77953  0.76261  1.0000
  C   C575      1.0  0.73074  0.50211  0.97564  1.0000
  H   H1024     1.0  0.69886  0.98640  0.75882  1.0000
  C   C576      1.0  0.50426  0.77310  0.70218  1.0000
