data_image0
_chemical_formula_structural       FeS2FeS2FeSFeS3CHFeSHC6H4CH2CHC3H2C2H3CH3CHCH3CHC3HC2HFeH2CHCH2CNCHCHSCH7CH5CHCH3CNHCH3CHCH2SHCHCH2CH3CH3CHCH2FeS2FeS2FeSFeS3FeSC6H11C3H3C2H2CHC3H4C3HCHC2HNH6CH4CHCHCH5CH3C2NCH4CH5CHCH3CH2C2HCHC2HCH2CH3CHFeS2FeS2FeSFeS3FeSC2H5C7H4CHCH2C2H11CH2CH2C3HCHC2H3NCH2CH3CH6C2H3CHC3H5CNCH2CHCH2C2HC2H5NH2CHCHCH2CH4CH2CH6C2H2C2H2CHCH2CHFeS2FeS2FeSFeS3H3SCHCHCH2C6H5C2H2C2H3CHC2HCH2NHCH5C2HCH2CH2CH3CH7CSCHCHCH4C2H2FeH3C2HCH4C2HC2HCNFeC2H3CHCHCHCHSH2CH4C2HNH4C2H3CH2CH6CHCSHSC2NC3H5CHC2HCHCHNCH6C4HFeH2CHSH5CH5CH9C2HSH2SHCHCHSH2FeC3H2CH5CSH3SH3C3H2C3H2C2HCHSH4SHSH4CH5FeH4C2H2C3SC2H4C3HCH4C3H2NH2CH8C2H6CFeHSC5H4CH7CH11FeS2FeS2FeSFeS3HC3FeSHCHCH2C6H4CH5C2H7CHCHCHC2H3SH3CHCHFeH4NC2H2C2HCSCH3CH5CH15NC8H2CHCHCH2CH4CFeS2FeS2FeSFeS3FeSC3H3C6H6C2HCHC6HC2H3CH6NHCHC3H6C2H9CHC2H6CH7CH2NCH2C4NCH3CHCNCH2CHCH6CHCH2CH2C2H4CHCH2C2H9CHCHCH3SFeS2FeS2FeSFeS3CFeSH2C2H5CH3C6H4C3H7CH3NC2HC3HC2HCH5CHCH3C2H8NHC2NC4HCHCH8CH3CH7CH3C2H2C3HC2H6CFeS2FeS2FeSFeS3CHFeHSNCH3CHFeH6C7H4C2H6C2H4CH3C3HCSH10C2HC2HC3H2CHC2H2C3H2CH5CH6C2SC2HSH3CH4NHC2H2SH3
_chemical_formula_sum              "Fe48 S96 C432 H768 N24"
_cell_length_a       38.5466
_cell_length_b       38.4317
_cell_length_c       35.6933
_cell_angle_alpha    94.6071
_cell_angle_beta     89.8738
_cell_angle_gamma    90.0985

_space_group_name_H-M_alt    "P 1"
_space_group_IT_number       1

loop_
  _space_group_symop_operation_xyz
  'x, y, z'

loop_
  _atom_site_type_symbol
  _atom_site_label
  _atom_site_symmetry_multiplicity
  _atom_site_fract_x
  _atom_site_fract_y
  _atom_site_fract_z
  _atom_site_occupancy
  Fe  Fe1       1.0  0.11880  0.14620  0.27035  1.0000
  S   S1        1.0  0.13999  0.19931  0.28781  1.0000
  S   S2        1.0  0.06341  0.12575  0.26944  1.0000
  Fe  Fe2       1.0  0.19076  0.11443  0.26566  1.0000
  S   S3        1.0  0.21763  0.16520  0.28406  1.0000
  S   S4        1.0  0.21603  0.06290  0.24670  1.0000
  Fe  Fe3       1.0  0.17435  0.17209  0.32716  1.0000
  S   S5        1.0  0.17494  0.19909  0.38692  1.0000
  Fe  Fe4       1.0  0.18158  0.18880  0.24322  1.0000
  S   S6        1.0  0.19580  0.23415  0.20694  1.0000
  S   S7        1.0  0.15112  0.11948  0.31168  1.0000
  S   S8        1.0  0.15700  0.13749  0.22274  1.0000
  C   C1        1.0  0.08643  0.25907  0.35039  1.0000
  H   H1        1.0  0.26284  0.22627  0.26946  1.0000
  Fe  Fe5       1.0  0.30759  0.30075  0.02367  1.0000
  S   S9        1.0  0.30006  0.26296  0.07077  1.0000
  H   H2        1.0  0.24367  0.25705  0.37113  1.0000
  C   C2        1.0  0.22378  0.24062  0.16766  1.0000
  C   C3        1.0  0.22239  0.27260  0.15084  1.0000
  C   C4        1.0  0.24472  0.27961  0.12073  1.0000
  C   C5        1.0  0.26938  0.25493  0.10719  1.0000
  C   C6        1.0  0.27087  0.22302  0.12415  1.0000
  C   C7        1.0  0.24808  0.21573  0.15377  1.0000
  H   H3        1.0  0.20382  0.29216  0.16113  1.0000
  H   H4        1.0  0.24314  0.30432  0.10831  1.0000
  H   H5        1.0  0.28974  0.20364  0.11415  1.0000
  H   H6        1.0  0.24969  0.19103  0.16619  1.0000
  C   C8        1.0  0.17928  0.18009  0.43069  1.0000
  H   H7        1.0  0.28211  0.19689  0.32566  1.0000
  H   H8        1.0  0.18808  0.12749  0.40731  1.0000
  C   C9        1.0  0.27631  0.25044  0.28116  1.0000
  H   H9        1.0  0.22252  0.29564  0.27690  1.0000
  C   C10       1.0  0.00621  0.18349  0.37833  1.0000
  C   C11       1.0  0.20901  0.02818  0.27517  1.0000
  C   C12       1.0  0.20729  0.03408  0.31427  1.0000
  H   H10       1.0  0.08724  0.22889  0.43754  1.0000
  H   H11       1.0  0.20930  0.06040  0.32733  1.0000
  C   C13       1.0  0.02752  0.18822  0.27142  1.0000
  C   C14       1.0  0.02584  0.15192  0.27192  1.0000
  H   H12       1.0  0.14009  0.31034  0.32898  1.0000
  H   H13       1.0  0.05233  0.20089  0.26826  1.0000
  H   H14       1.0  0.03863  0.16663  0.44886  1.0000
  C   C15       1.0  0.18972  0.13087  0.46824  1.0000
  H   H15       1.0  0.16459  0.32116  0.28847  1.0000
  H   H16       1.0  0.29459  0.17847  0.38929  1.0000
  H   H17       1.0  0.31053  0.26953  0.19416  1.0000
  C   C16       1.0  0.20476  0.00572  0.33663  1.0000
  H   H18       1.0  0.25730  0.31180  0.35500  1.0000
  C   C17       1.0  0.27247  0.19606  0.38459  1.0000
  H   H19       1.0  0.08997  0.08483  0.34819  1.0000
  H   H20       1.0  0.11073  0.25608  0.36655  1.0000
  H   H21       1.0  0.07929  0.28713  0.35230  1.0000
  C   C18       1.0  0.28803  0.00332  0.19184  1.0000
  H   H22       1.0  0.04660  0.13170  0.35209  1.0000
  C   C19       1.0  0.05128  0.13958  0.38246  1.0000
  C   C20       1.0  0.19285  0.29057  0.32733  1.0000
  C   C21       1.0  0.08227  0.20240  0.44665  1.0000
  H   H23       1.0  0.24882  0.17974  0.37998  1.0000
  C   C22       1.0  0.09046  0.02199  0.24553  1.0000
  C   C23       1.0  0.25006  0.24250  0.34372  1.0000
  H   H24       1.0  0.20707  0.03136  0.44125  1.0000
  Fe  Fe6       1.0  0.31064  0.37351  0.99092  1.0000
  H   H25       1.0  0.30932  0.34967  0.37528  1.0000
  H   H26       1.0  0.26887  0.21409  0.41022  1.0000
  C   C24       1.0  0.31007  0.29928  0.34228  1.0000
  H   H27       1.0  0.25906  0.27774  0.23246  1.0000
  C   C25       1.0  0.27975  0.21637  0.35029  1.0000
  H   H28       1.0  0.09408  0.19708  0.37516  1.0000
  H   H29       1.0  0.20472  0.01037  0.36689  1.0000
  C   C26       1.0  0.21733  0.00579  0.44863  1.0000
  N   N1        1.0  0.25547  0.26756  0.31349  1.0000
  C   C27       1.0  0.04630  0.18871  0.43219  1.0000
  H   H30       1.0  0.18614  0.27081  0.34724  1.0000
  C   C28       1.0  0.15946  0.30039  0.30771  1.0000
  H   H31       1.0  0.19536  0.10344  0.46948  1.0000
  S   S10       1.0  0.30349  0.43156  0.01181  1.0000
  C   C29       1.0  0.08821  0.12757  0.39238  1.0000
  H   H32       1.0  0.03407  0.24077  0.34757  1.0000
  H   H33       1.0  0.31181  0.28493  0.36793  1.0000
  H   H34       1.0  0.12154  0.04557  0.20287  1.0000
  H   H35       1.0  0.14375  0.04042  0.24669  1.0000
  H   H36       1.0  0.30192  0.24153  0.29065  1.0000
  H   H37       1.0  0.11203  0.07403  0.24404  1.0000
  H   H38       1.0  0.00390  0.17798  0.34736  1.0000
  C   C30       1.0  0.06652  0.19876  0.36669  1.0000
  H   H39       1.0  0.17144  0.22925  0.46310  1.0000
  H   H40       1.0  0.06637  0.18729  0.33702  1.0000
  H   H41       1.0  0.12064  0.08135  0.38575  1.0000
  H   H42       1.0  0.02762  0.21002  0.44066  1.0000
  H   H43       1.0  0.09093  0.25046  0.32036  1.0000
  C   C31       1.0  0.18567  0.14447  0.43286  1.0000
  H   H44       1.0  0.20868  0.25232  0.28317  1.0000
  C   C32       1.0  0.22025  0.27610  0.29815  1.0000
  H   H45       1.0  0.20223  0.31444  0.34367  1.0000
  H   H46       1.0  0.22698  0.22569  0.33709  1.0000
  H   H47       1.0  0.23856  0.99780  0.42865  1.0000
  C   C33       1.0  0.17632  0.20166  0.46435  1.0000
  N   N2        1.0  0.04322  0.17789  0.39062  1.0000
  H   H48       1.0  0.09191  0.12995  0.42330  1.0000
  C   C34       1.0  0.27179  0.30119  0.32967  1.0000
  H   H49       1.0  0.07536  0.07227  0.39343  1.0000
  H   H50       1.0  0.29516  0.29849  0.25725  1.0000
  H   H51       1.0  0.10854  0.14289  0.37911  1.0000
  C   C35       1.0  0.30838  0.25448  0.21940  1.0000
  H   H52       1.0  0.05029  0.24969  0.39450  1.0000
  C   C36       1.0  0.09374  0.08913  0.37910  1.0000
  H   H53       1.0  0.27872  0.01543  0.16648  1.0000
  H   H54       1.0  0.26958  0.32169  0.30945  1.0000
  S   S11       1.0  0.26872  0.33212  0.99347  1.0000
  H   H55       1.0  0.14836  0.27733  0.29116  1.0000
  C   C37       1.0  0.05694  0.23795  0.36601  1.0000
  H   H56       1.0  0.03361  0.12332  0.39841  1.0000
  C   C38       1.0  0.11869  0.04688  0.23392  1.0000
  H   H57       1.0  0.06558  0.03055  0.23354  1.0000
  H   H58       1.0  0.30512  0.22947  0.35445  1.0000
  C   C39       1.0  0.28340  0.27298  0.24773  1.0000
  H   H59       1.0  0.31589  0.00993  0.19600  1.0000
  H   H60       1.0  0.10391  0.18563  0.43587  1.0000
  H   H61       1.0  0.29873  0.22791  0.21026  1.0000
  C   C40       1.0  0.31049  0.47284  0.99317  1.0000
  H   H62       1.0  0.27302  0.01472  0.21644  1.0000
  H   H63       1.0  0.08824  0.02505  0.27651  1.0000
  H   H64       1.0  0.99863  0.21130  0.38430  1.0000
  C   C41       1.0  0.99696  0.20818  0.27518  1.0000
  H   H65       1.0  0.99838  0.23629  0.27502  1.0000
  C   C42       1.0  0.32477  0.33580  0.35239  1.0000
  H   H66       1.0  0.32473  0.35133  0.32743  1.0000
  H   H67       1.0  0.32692  0.28662  0.32002  1.0000
  Fe  Fe7       1.0  0.20177  0.18666  0.68774  1.0000
  S   S12       1.0  0.15207  0.16833  0.71247  1.0000
  S   S13       1.0  0.24196  0.22003  0.72253  1.0000
  Fe  Fe8       1.0  0.18212  0.15486  0.60678  1.0000
  S   S14       1.0  0.13111  0.13578  0.62757  1.0000
  S   S15       1.0  0.19376  0.13404  0.54569  1.0000
  Fe  Fe9       1.0  0.12699  0.18717  0.66127  1.0000
  S   S16       1.0  0.07821  0.21997  0.66605  1.0000
  Fe  Fe10      1.0  0.16080  0.11829  0.67657  1.0000
  S   S17       1.0  0.14320  0.06608  0.69493  1.0000
  S   S18       1.0  0.17609  0.20827  0.63734  1.0000
  S   S19       1.0  0.21249  0.13470  0.65489  1.0000
  Fe  Fe11      1.0  0.29171  0.30761  0.93891  1.0000
  S   S20       1.0  0.25354  0.28002  0.89602  1.0000
  C   C43       1.0  0.25242  0.26200  0.84806  1.0000
  C   C44       1.0  0.27639  0.27114  0.82097  1.0000
  C   C45       1.0  0.27290  0.25783  0.78298  1.0000
  C   C46       1.0  0.24563  0.23496  0.77135  1.0000
  C   C47       1.0  0.22200  0.22533  0.79857  1.0000
  C   C48       1.0  0.22530  0.23890  0.83647  1.0000
  H   H68       1.0  0.29734  0.28888  0.82915  1.0000
  H   H69       1.0  0.29147  0.26544  0.76238  1.0000
  H   H70       1.0  0.20127  0.20734  0.79046  1.0000
  H   H71       1.0  0.20675  0.23133  0.85710  1.0000
  H   H72       1.0  0.14795  0.25502  0.69926  1.0000
  H   H73       1.0  0.08433  0.17835  0.49976  1.0000
  H   H74       1.0  0.07167  0.17488  0.58183  1.0000
  H   H75       1.0  0.28866  0.08858  0.63949  1.0000
  H   H76       1.0  0.25389  0.00161  0.68444  1.0000
  H   H77       1.0  0.17779  0.20500  0.52529  1.0000
  H   H78       1.0  0.26409  0.03113  0.61787  1.0000
  C   C49       1.0  0.20589  0.03068  0.68874  1.0000
  C   C50       1.0  0.16973  0.02861  0.69131  1.0000
  C   C51       1.0  0.18166  0.03372  0.58301  1.0000
  H   H79       1.0  0.21838  0.05596  0.68971  1.0000
  H   H80       1.0  0.01596  0.20730  0.58441  1.0000
  H   H81       1.0  0.17754  0.29415  0.88402  1.0000
  C   C52       1.0  0.04002  0.19753  0.67677  1.0000
  C   C53       1.0  0.04023  0.16142  0.67935  1.0000
  H   H82       1.0  0.07482  0.38818  0.76247  1.0000
  H   H83       1.0  0.06433  0.14708  0.67621  1.0000
  C   C54       1.0  0.05738  0.14990  0.57578  1.0000
  H   H84       1.0  0.14703  0.32995  0.88438  1.0000
  C   C55       1.0  0.15221  0.28285  0.70870  1.0000
  C   C56       1.0  0.18295  0.29558  0.68633  1.0000
  C   C57       1.0  0.10335  0.34113  0.77231  1.0000
  H   H85       1.0  0.27152  0.10748  0.59883  1.0000
  H   H86       1.0  0.18773  0.32382  0.69357  1.0000
  H   H87       1.0  0.20676  0.28071  0.69220  1.0000
  H   H88       1.0  0.17736  0.29153  0.65578  1.0000
  C   C58       1.0  0.14468  0.02339  0.56880  1.0000
  C   C59       1.0  0.28124  0.08294  0.60955  1.0000
  C   C60       1.0  0.00908  0.14364  0.68539  1.0000
  H   H89       1.0  0.03055  0.02048  0.69617  1.0000
  C   C61       1.0  0.17981  0.18797  0.49974  1.0000
  H   H90       1.0  0.10828  0.21839  0.49912  1.0000
  C   C62       1.0  0.07067  0.35948  0.75984  1.0000
  C   C63       1.0  0.02289  0.15606  0.55648  1.0000
  H   H91       1.0  0.23119  0.06417  0.62452  1.0000
  N   N3        1.0  0.21204  0.02105  0.55855  1.0000
  H   H92       1.0  0.12179  0.01382  0.62288  1.0000
  H   H93       1.0  0.23427  0.07232  0.55406  1.0000
  H   H94       1.0  0.02884  0.16567  0.52877  1.0000
  H   H95       1.0  0.18189  0.26995  0.75696  1.0000
  H   H96       1.0  0.12915  0.29798  0.70120  1.0000
  H   H97       1.0  0.10926  0.17323  0.78894  1.0000
  C   C64       1.0  0.15953  0.28716  0.75154  1.0000
  H   H98       1.0  0.14334  0.22484  0.77085  1.0000
  H   H99       1.0  0.13776  0.03902  0.54500  1.0000
  H   H100      1.0  0.16946  0.31406  0.75775  1.0000
  H   H101      1.0  0.11067  0.23663  0.73909  1.0000
  C   C65       1.0  0.11995  0.24151  0.76848  1.0000
  H   H102      1.0  0.00938  0.11563  0.68672  1.0000
  C   C66       1.0  0.22592  0.99993  0.68593  1.0000
  H   H103      1.0  0.07786  0.18301  0.75359  1.0000
  C   C67       1.0  0.14049  0.28430  0.81790  1.0000
  H   H104      1.0  0.10854  0.35107  0.80179  1.0000
  H   H105      1.0  0.09112  0.02509  0.58791  1.0000
  H   H106      1.0  0.19364  0.30490  0.81745  1.0000
  H   H107      1.0  0.08637  0.29265  0.74218  1.0000
  H   H108      1.0  0.19287  0.33768  0.87869  1.0000
  C   C68       1.0  0.08531  0.18809  0.78360  1.0000
  H   H109      1.0  0.04816  0.35337  0.77770  1.0000
  H   H110      1.0  0.06408  0.17853  0.80121  1.0000
  H   H111      1.0  0.12489  0.34874  0.75404  1.0000
  C   C69       1.0  0.23129  0.00860  0.48883  1.0000
  C   C70       1.0  0.09098  0.22714  0.79340  1.0000
  N   N4        1.0  0.12958  0.27944  0.77701  1.0000
  C   C71       1.0  0.09803  0.30113  0.76999  1.0000
  H   H112      1.0  0.32344  0.45269  0.93695  1.0000
  H   H113      1.0  0.15238  0.25986  0.82688  1.0000
  H   H114      1.0  0.09758  0.23086  0.82370  1.0000
  H   H115      1.0  0.00969  0.13044  0.55179  1.0000
  C   C72       1.0  0.17136  0.31902  0.87161  1.0000
  H   H116      1.0  0.06591  0.24026  0.78881  1.0000
  H   H117      1.0  0.00848  0.24393  0.68027  1.0000
  H   H118      1.0  0.11740  0.28907  0.83641  1.0000
  H   H119      1.0  0.11840  0.05846  0.61080  1.0000
  H   H120      1.0  0.07731  0.29651  0.79075  1.0000
  C   C73       1.0  0.25313  0.05476  0.60646  1.0000
  H   H121      1.0  0.16130  0.33836  0.81804  1.0000
  C   C74       1.0  0.16780  0.31307  0.82894  1.0000
  H   H122      1.0  0.30467  0.07410  0.59333  1.0000
  H   H123      1.0  0.26505  0.03780  0.54939  1.0000
  H   H124      1.0  0.06466  0.35124  0.73000  1.0000
  C   C75       1.0  0.32019  0.47597  0.95576  1.0000
  H   H125      1.0  0.18455  0.02506  0.61185  1.0000
  H   H126      1.0  0.99802  0.17386  0.60928  1.0000
  C   C76       1.0  0.24140  0.04695  0.56508  1.0000
  C   C77       1.0  0.18689  0.15249  0.50194  1.0000
  H   H127      1.0  0.18130  0.06287  0.58674  1.0000
  C   C78       1.0  0.00871  0.21592  0.68165  1.0000
  H   H128      1.0  0.05288  0.13770  0.60253  1.0000
  C   C79       1.0  0.11740  0.03070  0.59953  1.0000
  C   C80       1.0  0.20243  0.02038  0.51746  1.0000
  H   H129      1.0  0.07384  0.13204  0.55734  1.0000
  C   C81       1.0  0.00039  0.18286  0.58054  1.0000
  H   H130      1.0  0.06170  0.21996  0.50216  1.0000
  H   H131      1.0  0.27592  0.99695  0.80412  1.0000
  C   C82       1.0  0.08399  0.20489  0.48956  1.0000
  H   H132      1.0  0.19372  0.04693  0.51090  1.0000
  H   H133      1.0  0.25289  0.02776  0.48981  1.0000
  H   H134      1.0  0.17993  0.00307  0.51073  1.0000
  C   C83       1.0  0.15384  0.99577  0.69122  1.0000
  H   H135      1.0  0.14272  0.99547  0.55891  1.0000
  Fe  Fe12      1.0  0.13453  0.83640  0.28703  1.0000
  S   S21       1.0  0.16400  0.78681  0.29308  1.0000
  S   S22       1.0  0.08417  0.84177  0.25609  1.0000
  Fe  Fe13      1.0  0.19045  0.88177  0.32462  1.0000
  S   S23       1.0  0.22467  0.83576  0.33335  1.0000
  S   S24       1.0  0.20308  0.93644  0.34899  1.0000
  Fe  Fe14      1.0  0.21046  0.81636  0.27367  1.0000
  S   S25       1.0  0.25392  0.79424  0.23399  1.0000
  Fe  Fe15      1.0  0.17568  0.81044  0.35195  1.0000
  S   S26       1.0  0.16964  0.77571  0.40047  1.0000
  S   S27       1.0  0.18006  0.86473  0.26417  1.0000
  S   S28       1.0  0.14230  0.85748  0.34667  1.0000
  Fe  Fe16      1.0  0.30482  0.70586  0.02065  1.0000
  S   S29       1.0  0.26339  0.72884  0.06274  1.0000
  C   C84       1.0  0.01353  0.83901  0.26187  1.0000
  C   C85       1.0  0.30618  0.50360  0.01701  1.0000
  H   H136      1.0  0.20224  0.87161  0.13588  1.0000
  H   H137      1.0  0.25229  0.72762  0.27874  1.0000
  H   H138      1.0  0.24869  0.64724  0.09567  1.0000
  H   H139      1.0  0.28392  0.93849  0.29810  1.0000
  H   H140      1.0  0.20044  0.93945  0.26800  1.0000
  C   C86       1.0  0.20298  0.97144  0.32003  1.0000
  C   C87       1.0  0.26299  0.74977  0.10944  1.0000
  C   C88       1.0  0.29077  0.74781  0.13441  1.0000
  C   C89       1.0  0.28783  0.76237  0.17200  1.0000
  C   C90       1.0  0.25723  0.77926  0.18527  1.0000
  C   C91       1.0  0.22990  0.78218  0.16000  1.0000
  C   C92       1.0  0.23272  0.76740  0.12253  1.0000
  H   H141      1.0  0.29859  0.50161  0.04596  1.0000
  H   H142      1.0  0.19645  0.98581  0.44520  1.0000
  H   H143      1.0  0.20628  0.79513  0.16948  1.0000
  H   H144      1.0  0.01381  0.78688  0.35033  1.0000
  C   C93       1.0  0.17977  0.77956  0.44935  1.0000
  H   H145      1.0  0.20084  0.64073  0.18486  1.0000
  C   C94       1.0  0.15017  0.67930  0.22404  1.0000
  H   H146      1.0  0.18077  0.72369  0.45019  1.0000
  H   H147      1.0  0.24070  0.68385  0.15459  1.0000
  C   C95       1.0  0.04525  0.81214  0.31035  1.0000
  C   C96       1.0  0.04522  0.83037  0.27797  1.0000
  H   H148      1.0  0.14599  0.62279  0.21005  1.0000
  H   H149      1.0  0.06960  0.80529  0.32287  1.0000
  H   H150      1.0  0.13157  0.87236  0.15712  1.0000
  H   H151      1.0  0.05814  0.79944  0.42077  1.0000
  H   H152      1.0  0.11486  0.79748  0.18930  1.0000
  H   H153      1.0  0.21106  0.76923  0.10356  1.0000
  H   H154      1.0  0.14034  0.70667  0.15650  1.0000
  H   H155      1.0  0.18011  0.72989  0.15599  1.0000
  H   H156      1.0  0.12859  0.93453  0.34406  1.0000
  H   H157      1.0  0.25510  0.90182  0.28873  1.0000
  H   H158      1.0  0.23888  0.66164  0.22609  1.0000
  C   C97       1.0  0.29568  0.89483  0.32871  1.0000
  H   H159      1.0  0.27842  0.90358  0.35261  1.0000
  H   H160      1.0  0.29856  0.95400  0.16201  1.0000
  C   C98       1.0  0.09172  0.94107  0.27866  1.0000
  H   H161      1.0  0.19971  0.85712  0.18253  1.0000
  H   H162      1.0  0.22508  0.72155  0.20057  1.0000
  C   C99       1.0  0.22908  0.68488  0.24324  1.0000
  C   C100      1.0  0.15284  0.64101  0.23472  1.0000
  C   C101      1.0  0.03945  0.96766  0.25067  1.0000
  H   H163      1.0  0.24197  0.62060  0.13436  1.0000
  C   C102      1.0  0.30501  0.89632  0.25843  1.0000
  H   H164      1.0  0.30925  0.75988  0.19113  1.0000
  C   C103      1.0  0.25746  0.89268  0.21232  1.0000
  C   C104      1.0  0.24748  0.88449  0.17035  1.0000
  H   H165      1.0  0.13429  0.65088  0.29239  1.0000
  H   H166      1.0  0.10563  0.96684  0.37366  1.0000
  H   H167      1.0  0.21334  0.67656  0.26700  1.0000
  N   N5        1.0  0.17753  0.69186  0.19766  1.0000
  C   C105      1.0  0.20844  0.87871  0.16590  1.0000
  H   H168      1.0  0.30740  0.56022  0.02244  1.0000
  H   H169      1.0  0.10912  0.83909  0.47514  1.0000
  C   C106      1.0  0.22941  0.63946  0.11668  1.0000
  H   H170      1.0  0.12375  0.68117  0.21164  1.0000
  H   H171      1.0  0.08973  0.86142  0.17526  1.0000
  H   H172      1.0  0.12498  0.89907  0.22120  1.0000
  C   C107      1.0  0.21734  0.67187  0.14078  1.0000
  H   H173      1.0  0.20720  0.62662  0.10132  1.0000
  H   H174      1.0  0.25345  0.86783  0.22577  1.0000
  H   H175      1.0  0.23773  0.91078  0.22558  1.0000
  H   H176      1.0  0.26060  0.86028  0.15871  1.0000
  H   H177      1.0  0.25494  0.90558  0.15262  1.0000
  H   H178      1.0  0.10055  0.63961  0.25825  1.0000
  C   C108      1.0  0.10325  0.94777  0.34873  1.0000
  C   C109      1.0  0.29342  0.94648  0.22272  1.0000
  H   H179      1.0  0.12943  0.60643  0.27287  1.0000
  H   H180      1.0  0.00442  0.73008  0.39358  1.0000
  H   H181      1.0  0.02209  0.92960  0.29016  1.0000
  C   C110      1.0  0.14490  0.75115  0.19794  1.0000
  H   H182      1.0  0.09724  0.82153  0.40867  1.0000
  C   C111      1.0  0.12505  0.77418  0.17238  1.0000
  C   C112      1.0  0.09095  0.81708  0.46847  1.0000
  C   C113      1.0  0.12768  0.63419  0.26650  1.0000
  H   H183      1.0  0.19406  0.90287  0.17540  1.0000
  H   H184      1.0  0.06091  0.90280  0.22296  1.0000
  H   H185      1.0  0.16565  0.76756  0.21170  1.0000
  H   H186      1.0  0.10275  0.75969  0.15902  1.0000
  H   H187      1.0  0.12662  0.74345  0.21987  1.0000
  C   C114      1.0  0.26060  0.70441  0.26032  1.0000
  N   N6        1.0  0.07628  0.95507  0.24408  1.0000
  C   C115      1.0  0.20267  0.96568  0.28087  1.0000
  H   H188      1.0  0.19789  0.73026  0.23974  1.0000
  H   H189      1.0  0.14939  0.69675  0.25057  1.0000
  C   C116      1.0  0.01320  0.94045  0.26396  1.0000
  H   H190      1.0  0.14238  0.78321  0.15019  1.0000
  C   C117      1.0  0.16095  0.71899  0.17505  1.0000
  H   H191      1.0  0.01335  0.85276  0.23661  1.0000
  H   H192      1.0  0.31270  0.89953  0.16316  1.0000
  C   C118      1.0  0.09328  0.96671  0.31433  1.0000
  C   C119      1.0  0.18966  0.66239  0.17012  1.0000
  H   H193      1.0  0.16700  0.65081  0.15422  1.0000
  C   C120      1.0  0.10597  0.88319  0.16625  1.0000
  C   C121      1.0  0.20731  0.70877  0.21960  1.0000
  H   H194      1.0  0.18007  0.83573  0.45853  1.0000
  H   H195      1.0  0.29567  0.86584  0.32562  1.0000
  H   H196      1.0  0.17923  0.63433  0.24387  1.0000
  H   H197      1.0  0.25499  0.95904  0.18084  1.0000
  H   H198      1.0  0.20673  0.69010  0.12115  1.0000
  N   N7        1.0  0.29343  0.90704  0.22054  1.0000
  H   H199      1.0  0.30345  0.83862  0.19496  1.0000
  H   H200      1.0  0.03835  0.99042  0.27176  1.0000
  C   C122      1.0  0.28263  0.90969  0.29286  1.0000
  H   H201      1.0  0.12742  0.93205  0.18836  1.0000
  C   C123      1.0  0.01365  0.80175  0.32587  1.0000
  H   H202      1.0  0.06048  0.93391  0.18869  1.0000
  C   C124      1.0  0.07516  0.92562  0.21334  1.0000
  H   H203      1.0  0.27476  0.95729  0.24437  1.0000
  H   H204      1.0  0.30499  0.86733  0.25854  1.0000
  C   C125      1.0  0.11080  0.91125  0.19870  1.0000
  H   H205      1.0  0.06151  0.84648  0.42937  1.0000
  H   H206      1.0  0.02900  0.97744  0.22438  1.0000
  H   H207      1.0  0.10600  0.79242  0.46635  1.0000
  H   H208      1.0  0.11897  0.93258  0.27327  1.0000
  C   C126      1.0  0.07582  0.82143  0.42956  1.0000
  H   H209      1.0  0.08326  0.92805  0.35462  1.0000
  H   H210      1.0  0.00933  0.91867  0.24207  1.0000
  C   C127      1.0  0.18305  0.74841  0.46679  1.0000
  H   H211      1.0  0.09345  0.89439  0.14194  1.0000
  H   H212      1.0  0.11350  0.98681  0.31077  1.0000
  H   H213      1.0  0.27565  0.68697  0.27755  1.0000
  H   H214      1.0  0.07798  0.91690  0.28558  1.0000
  H   H215      1.0  0.01343  0.75334  0.43830  1.0000
  H   H216      1.0  0.27783  0.71310  0.23786  1.0000
  C   C128      1.0  0.32004  0.89346  0.19189  1.0000
  C   C129      1.0  0.28294  0.96375  0.18672  1.0000
  H   H217      1.0  0.31423  0.73432  0.12501  1.0000
  H   H218      1.0  0.32589  0.84232  0.13007  1.0000
  C   C130      1.0  0.32748  0.85367  0.19091  1.0000
  C   C131      1.0  0.31119  0.53695  0.00375  1.0000
  H   H219      1.0  0.12665  0.97882  0.23630  1.0000
  H   H220      1.0  0.31946  0.95667  0.23175  1.0000
  C   C132      1.0  0.18271  0.81144  0.47157  1.0000
  H   H221      1.0  0.06807  0.97961  0.32072  1.0000
  C   C133      1.0  0.09876  0.98388  0.23043  1.0000
  H   H222      1.0  0.09692  0.98423  0.19927  1.0000
  H   H223      1.0  0.20717  0.98935  0.22819  1.0000
  C   C134      1.0  0.20634  0.99393  0.25847  1.0000
  H   H224      1.0  0.32239  0.90423  0.33538  1.0000
  Fe  Fe17      1.0  0.18957  0.81125  0.62959  1.0000
  S   S30       1.0  0.16892  0.86518  0.62796  1.0000
  S   S31       1.0  0.20213  0.77687  0.57634  1.0000
  Fe  Fe18      1.0  0.18618  0.81345  0.71671  1.0000
  S   S32       1.0  0.16293  0.86781  0.71990  1.0000
  S   S33       1.0  0.19388  0.78801  0.77304  1.0000
  Fe  Fe19      1.0  0.12998  0.84940  0.67037  1.0000
  S   S34       1.0  0.07708  0.87049  0.65586  1.0000
  Fe  Fe20      1.0  0.20326  0.87909  0.67733  1.0000
  S   S35       1.0  0.23506  0.92873  0.68281  1.0000
  S   S36       1.0  0.14904  0.79407  0.67012  1.0000
  S   S37       1.0  0.22805  0.82601  0.67587  1.0000
  H   H225      1.0  0.19056  0.70185  0.91701  1.0000
  H   H226      1.0  0.20972  0.63143  0.84177  1.0000
  H   H227      1.0  0.28419  0.58063  0.73376  1.0000
  S   S38       1.0  0.32675  0.58141  0.94745  1.0000
  C   C135      1.0  0.23579  0.57644  0.87929  1.0000
  H   H228      1.0  0.06127  0.88625  0.56122  1.0000
  C   C136      1.0  0.20983  0.96708  0.68554  1.0000
  H   H229      1.0  0.26865  0.61771  0.71086  1.0000
  C   C137      1.0  0.17371  0.96511  0.68788  1.0000
  H   H230      1.0  0.04466  0.83890  0.49639  1.0000
  H   H231      1.0  0.16101  0.93998  0.68762  1.0000
  C   C138      1.0  0.22826  0.77353  0.80201  1.0000
  C   C139      1.0  0.22099  0.76750  0.83970  1.0000
  C   C140      1.0  0.24700  0.75601  0.86382  1.0000
  C   C141      1.0  0.28085  0.74992  0.85059  1.0000
  C   C142      1.0  0.28816  0.75597  0.81290  1.0000
  C   C143      1.0  0.26218  0.76758  0.78881  1.0000
  H   H232      1.0  0.19498  0.77191  0.85045  1.0000
  H   H233      1.0  0.24086  0.75214  0.89278  1.0000
  H   H234      1.0  0.00244  0.78731  0.71676  1.0000
  H   H235      1.0  0.26834  0.77161  0.75991  1.0000
  H   H236      1.0  0.11641  0.90737  0.58945  1.0000
  C   C144      1.0  0.19261  0.78000  0.52788  1.0000
  C   C145      1.0  0.18876  0.81164  0.51094  1.0000
  H   H237      1.0  0.25033  0.97973  0.55611  1.0000
  H   H238      1.0  0.19128  0.83609  0.52792  1.0000
  C   C146      1.0  0.03587  0.82341  0.69049  1.0000
  C   C147      1.0  0.03735  0.85235  0.66918  1.0000
  H   H239      1.0  0.29292  0.81667  0.72003  1.0000
  H   H240      1.0  0.05963  0.81172  0.69954  1.0000
  H   H241      1.0  0.29441  0.66984  0.82788  1.0000
  C   C148      1.0  0.27784  0.98179  0.77635  1.0000
  H   H242      1.0  0.06995  0.97128  0.67864  1.0000
  C   C149      1.0  0.32533  0.50932  0.94253  1.0000
  C   C150      1.0  0.19002  0.74864  0.50529  1.0000
  H   H243      1.0  0.10294  0.93423  0.55316  1.0000
  C   C151      1.0  0.08545  0.88041  0.54503  1.0000
  H   H244      1.0  0.29526  0.63702  0.77134  1.0000
  H   H245      1.0  0.14400  0.86407  0.82161  1.0000
  N   N8        1.0  0.07384  0.81368  0.53847  1.0000
  H   H246      1.0  0.25281  0.98356  0.76120  1.0000
  C   C152      1.0  0.16897  0.86301  0.83695  1.0000
  H   H247      1.0  0.05048  0.82046  0.59396  1.0000
  H   H248      1.0  0.17480  0.83522  0.84069  1.0000
  H   H249      1.0  0.03473  0.94544  0.65893  1.0000
  H   H250      1.0  0.28311  0.58254  0.80495  1.0000
  H   H251      1.0  0.23370  0.66761  0.82814  1.0000
  C   C153      1.0  0.32071  0.54008  0.96632  1.0000
  C   C154      1.0  0.21866  0.92039  0.56735  1.0000
  H   H252      1.0  0.27372  0.61427  0.90239  1.0000
  C   C155      1.0  0.11231  0.90782  0.55869  1.0000
  H   H253      1.0  0.18992  0.90675  0.81150  1.0000
  H   H254      1.0  0.23473  0.92711  0.78446  1.0000
  C   C156      1.0  0.04249  0.81639  0.56398  1.0000
  H   H255      1.0  0.17774  0.95676  0.58074  1.0000
  H   H256      1.0  0.17128  0.66682  0.88740  1.0000
  C   C157      1.0  0.26387  0.60418  0.80665  1.0000
  H   H257      1.0  0.29234  0.90836  0.86205  1.0000
  H   H258      1.0  0.19336  0.72409  0.51773  1.0000
  H   H259      1.0  0.23072  0.55975  0.85307  1.0000
  C   C158      1.0  0.09847  0.84298  0.55060  1.0000
  H   H260      1.0  0.11685  0.77896  0.52408  1.0000
  H   H261      1.0  0.23830  0.59082  0.80318  1.0000
  H   H262      1.0  0.08045  0.88375  0.51495  1.0000
  H   H263      1.0  0.26370  0.53472  0.90419  1.0000
  H   H264      1.0  0.13735  0.90298  0.54376  1.0000
  H   H265      1.0  0.23135  0.89257  0.86167  1.0000
  H   H266      1.0  0.19880  0.86508  0.78627  1.0000
  C   C159      1.0  0.09250  0.77946  0.54093  1.0000
  S   S39       1.0  0.28423  0.67861  0.96617  1.0000
  C   C160      1.0  0.23328  0.87716  0.83390  1.0000
  H   H267      1.0  0.24146  0.91655  0.54838  1.0000
  C   C161      1.0  0.10364  0.77106  0.58095  1.0000
  H   H268      1.0  0.00514  0.78258  0.53158  1.0000
  C   C162      1.0  0.11719  0.73372  0.58094  1.0000
  H   H269      1.0  0.31213  0.94337  0.79584  1.0000
  H   H270      1.0  0.07683  0.75735  0.52795  1.0000
  H   H271      1.0  0.12396  0.83921  0.53619  1.0000
  H   H272      1.0  0.10455  0.84250  0.58103  1.0000
  C   C163      1.0  0.30140  0.85271  0.85540  1.0000
  C   C164      1.0  0.24129  0.55231  0.91076  1.0000
  H   H273      1.0  0.12480  0.78899  0.59111  1.0000
  H   H274      1.0  0.08202  0.77371  0.60146  1.0000
  Fe  Fe21      1.0  0.32263  0.71138  0.93688  1.0000
  H   H275      1.0  0.13900  0.72934  0.56078  1.0000
  H   H276      1.0  0.12688  0.72911  0.60941  1.0000
  H   H277      1.0  0.09619  0.71465  0.57332  1.0000
  C   C165      1.0  0.26868  0.86503  0.77650  1.0000
  C   C166      1.0  0.20017  0.95461  0.56113  1.0000
  H   H278      1.0  0.29617  0.83020  0.83478  1.0000
  C   C167      1.0  0.30676  0.84211  0.72136  1.0000
  H   H279      1.0  0.29445  0.85949  0.70182  1.0000
  H   H280      1.0  0.24963  0.64669  0.77143  1.0000
  H   H281      1.0  0.23617  0.84934  0.84006  1.0000
  H   H282      1.0  0.25825  0.83856  0.78026  1.0000
  C   C168      1.0  0.30634  0.85936  0.76136  1.0000
  C   C169      1.0  0.22474  0.98611  0.56942  1.0000
  H   H283      1.0  0.28355  0.85045  0.87961  1.0000
  C   C170      1.0  0.01679  0.78518  0.56003  1.0000
  C   C171      1.0  0.26892  0.62534  0.77175  1.0000
  H   H284      1.0  0.29055  0.58218  0.86942  1.0000
  C   C172      1.0  0.29528  0.88809  0.83810  1.0000
  N   N9        1.0  0.26557  0.62499  0.84433  1.0000
  Fe  Fe22      1.0  0.32708  0.63911  0.97123  1.0000
  C   C173      1.0  0.19289  0.68601  0.88969  1.0000
  C   C174      1.0  0.19764  0.87930  0.81437  1.0000
  H   H285      1.0  0.22811  0.64950  0.91072  1.0000
  H   H286      1.0  0.02712  0.84005  0.55906  1.0000
  H   H287      1.0  0.24842  0.68716  0.89320  1.0000
  C   C175      1.0  0.23338  0.64730  0.84869  1.0000
  H   H288      1.0  0.16604  0.87748  0.86498  1.0000
  C   C176      1.0  0.25790  0.92588  0.80285  1.0000
  H   H289      1.0  0.04784  0.98479  0.63780  1.0000
  C   C177      1.0  0.26799  0.60000  0.87470  1.0000
  H   H290      1.0  0.22740  0.92025  0.59700  1.0000
  C   C178      1.0  0.22785  0.66723  0.88774  1.0000
  H   H291      1.0  0.19059  0.70373  0.86673  1.0000
  S   S40       1.0  0.31509  0.73540  0.87963  1.0000
  H   H292      1.0  0.25247  0.87452  0.75355  1.0000
  H   H293      1.0  0.02974  0.76027  0.56516  1.0000
  C   C179      1.0  0.26471  0.60198  0.73533  1.0000
  H   H294      1.0  0.21230  0.59222  0.88645  1.0000
  H   H295      1.0  0.24616  0.56774  0.93794  1.0000
  H   H296      1.0  0.25207  0.94270  0.82902  1.0000
  H   H297      1.0  0.20068  0.89810  0.56122  1.0000
  C   C180      1.0  0.06186  0.81591  0.49850  1.0000
  C   C181      1.0  0.28688  0.94367  0.78113  1.0000
  H   H298      1.0  0.29859  0.66227  0.87568  1.0000
  N   N10       1.0  0.26442  0.88879  0.81217  1.0000
  H   H299      1.0  0.23822  0.59053  0.73348  1.0000
  H   H300      1.0  0.31419  0.75154  0.80217  1.0000
  H   H301      1.0  0.21784  0.53597  0.91391  1.0000
  H   H302      1.0  0.19078  0.95256  0.53174  1.0000
  C   C182      1.0  0.29694  0.64853  0.84711  1.0000
  C   C183      1.0  0.00640  0.86717  0.65732  1.0000
  H   H303      1.0  0.04554  0.79289  0.48945  1.0000
  H   H304      1.0  0.00736  0.88923  0.64037  1.0000
  H   H305      1.0  0.12597  0.99405  0.69368  1.0000
  C   C184      1.0  0.04433  0.97258  0.66472  1.0000
  H   H306      1.0  0.28949  0.93053  0.75241  1.0000
  H   H307      1.0  0.24171  0.98264  0.49441  1.0000
  C   C185      1.0  0.00349  0.80967  0.70021  1.0000
  H   H308      1.0  0.99762  0.79058  0.61754  1.0000
  H   H309      1.0  0.31951  0.89546  0.82397  1.0000
  H   H310      1.0  0.32107  0.88403  0.76109  1.0000
  H   H311      1.0  0.01763  0.98183  0.71764  1.0000
  H   H312      1.0  0.32085  0.84204  0.77916  1.0000
  H   H313      1.0  0.22980  0.98715  0.60019  1.0000
  C   C186      1.0  0.01920  0.99395  0.69051  1.0000
  H   H314      1.0  0.29834  0.99369  0.75956  1.0000
  C   C187      1.0  0.43150  0.19533  0.04276  1.0000
  S   S41       1.0  0.57190  0.35528  0.01968  1.0000
  H   H315      1.0  0.44993  0.13806  0.08120  1.0000
  S   S42       1.0  0.65565  0.29139  0.99209  1.0000
  C   C188      1.0  0.38886  0.43181  0.05112  1.0000
  C   C189      1.0  0.39365  0.29596  0.09600  1.0000
  N   N11       1.0  0.43343  0.22734  0.02098  1.0000
  C   C190      1.0  0.50028  0.35365  0.01909  1.0000
  C   C191      1.0  0.38867  0.40867  0.08399  1.0000
  C   C192      1.0  0.49002  0.49159  0.03102  1.0000
  H   H316      1.0  0.44123  0.41735  0.03433  1.0000
  H   H317      1.0  0.36749  0.29934  0.10893  1.0000
  H   H318      1.0  0.50233  0.36827  0.04619  1.0000
  H   H319      1.0  0.44403  0.35163  0.02041  1.0000
  H   H320      1.0  0.37288  0.45505  0.05968  1.0000
  C   C193      1.0  0.53085  0.34356  0.99931  1.0000
  H   H321      1.0  0.40451  0.19133  0.05281  1.0000
  C   C194      1.0  0.42832  0.26070  0.04571  1.0000
  C   C195      1.0  0.42646  0.44199  0.04089  1.0000
  H   H322      1.0  0.41273  0.29209  0.11856  1.0000
  C   C196      1.0  0.45630  0.19405  0.07662  1.0000
  H   H323      1.0  0.37881  0.22155  0.00663  1.0000
  C   C197      1.0  0.39332  0.26439  0.06709  1.0000
  H   H324      1.0  0.43727  0.17152  0.02402  1.0000
  N   N12       1.0  0.43027  0.46579  0.00950  1.0000
  C   C198      1.0  0.49841  0.24781  0.02039  1.0000
  H   H325      1.0  0.46647  0.16209  0.12283  1.0000
  H   H326      1.0  0.53800  0.46175  0.02300  1.0000
  H   H327      1.0  0.50219  0.23992  0.04917  1.0000
  H   H328      1.0  0.44922  0.26470  0.06688  1.0000
  H   H329      1.0  0.48094  0.44321  0.99776  1.0000
  H   H330      1.0  0.43038  0.28347  0.02835  1.0000
  C   C199      1.0  0.40430  0.22488  0.99258  1.0000
  C   C200      1.0  0.44785  0.16293  0.09921  1.0000
  C   C201      1.0  0.46848  0.46942  0.00107  1.0000
  C   C202      1.0  0.46717  0.34436  0.00451  1.0000
  H   H331      1.0  0.45443  0.21783  0.09622  1.0000
  Fe  Fe23      1.0  0.62864  0.34343  0.00214  1.0000
  H   H332      1.0  0.40035  0.32005  0.08236  1.0000
  H   H333      1.0  0.38730  0.24106  0.08226  1.0000
  C   C203      1.0  0.53236  0.24115  0.99881  1.0000
  H   H334      1.0  0.37605  0.41714  0.02702  1.0000
  S   S43       1.0  0.34821  0.34346  0.02479  1.0000
  H   H335      1.0  0.40379  0.38447  0.07682  1.0000
  H   H336      1.0  0.37204  0.26842  0.04703  1.0000
  H   H337      1.0  0.49381  0.27640  0.02272  1.0000
  H   H338      1.0  0.33456  0.25236  0.23192  1.0000
  H   H339      1.0  0.42121  0.16536  0.11112  1.0000
  C   C204      1.0  0.52885  0.48913  0.02229  1.0000
  H   H340      1.0  0.48338  0.19055  0.06652  1.0000
  H   H341      1.0  0.39983  0.42283  0.10954  1.0000
  H   H342      1.0  0.48615  0.48261  0.05946  1.0000
  H   H343      1.0  0.55339  0.25731  0.01259  1.0000
  H   H344      1.0  0.43811  0.45424  0.06718  1.0000
  C   C205      1.0  0.46745  0.22875  0.99976  1.0000
  H   H345      1.0  0.53983  0.21323  0.99852  1.0000
  H   H346      1.0  0.36153  0.40126  0.09033  1.0000
  H   H347      1.0  0.35196  0.33373  0.36224  1.0000
  H   H348      1.0  0.47604  0.20193  0.98979  1.0000
  H   H349      1.0  0.43146  0.19602  0.94489  1.0000
  H   H350      1.0  0.37831  0.22172  0.91914  1.0000
  H   H351      1.0  0.41224  0.37589  0.91212  1.0000
  H   H352      1.0  0.47249  0.48052  0.97354  1.0000
  H   H353      1.0  0.37929  0.17489  0.91060  1.0000
  C   C206      1.0  0.40725  0.40383  0.92083  1.0000
  C   C207      1.0  0.49468  0.31535  0.94978  1.0000
  H   H354      1.0  0.41970  0.41985  0.90000  1.0000
  S   S44       1.0  0.65484  0.36583  0.95285  1.0000
  H   H355      1.0  0.46389  0.24282  0.97383  1.0000
  H   H356      1.0  0.41729  0.46760  0.95089  1.0000
  S   S45       1.0  0.33060  0.35139  0.93449  1.0000
  H   H357      1.0  0.55092  0.31661  0.94878  1.0000
  C   C208      1.0  0.52778  0.32453  0.96440  1.0000
  H   H358      1.0  0.49275  0.30035  0.92288  1.0000
  C   C209      1.0  0.37718  0.19674  0.93281  1.0000
  H   H359      1.0  0.37882  0.40836  0.92068  1.0000
  S   S46       1.0  0.42337  0.31103  0.95043  1.0000
  H   H360      1.0  0.35167  0.19477  0.94708  1.0000
  H   H361      1.0  0.45060  0.40944  0.95806  1.0000
  Fe  Fe24      1.0  0.36658  0.32001  0.96874  1.0000
  C   C210      1.0  0.40686  0.19478  0.96091  1.0000
  C   C211      1.0  0.42214  0.41308  0.96003  1.0000
  C   C212      1.0  0.46418  0.32501  0.96973  1.0000
  H   H362      1.0  0.62447  0.42407  0.89120  1.0000
  H   H363      1.0  0.38354  0.45160  0.97834  1.0000
  C   C213      1.0  0.41217  0.45093  0.97439  1.0000
  H   H364      1.0  0.63738  0.45717  0.86042  1.0000
  H   H365      1.0  0.41165  0.39411  0.97902  1.0000
  H   H366      1.0  0.65474  0.46472  0.98110  1.0000
  H   H367      1.0  0.63486  0.46762  0.91043  1.0000
  H   H368      1.0  0.52979  0.24835  0.96942  1.0000
  C   C214      1.0  0.64174  0.44689  0.88822  1.0000
  S   S47       1.0  0.32902  0.27492  0.96936  1.0000
  H   H369      1.0  0.53776  0.49389  0.88223  1.0000
  H   H370      1.0  0.40516  0.16900  0.97271  1.0000
  H   H371      1.0  0.40229  0.24969  0.97877  1.0000
  S   S48       1.0  0.34466  0.66362  0.02746  1.0000
  H   H372      1.0  0.65700  0.69597  0.14127  1.0000
  H   H373      1.0  0.42465  0.51109  0.04936  1.0000
  H   H374      1.0  0.64154  0.50518  0.10187  1.0000
  C   C215      1.0  0.54111  0.71068  0.00505  1.0000
  C   C216      1.0  0.40548  0.56465  0.01118  1.0000
  C   C217      1.0  0.41411  0.50064  0.02169  1.0000
  H   H375      1.0  0.65812  0.63570  0.16095  1.0000
  H   H376      1.0  0.34563  0.84839  0.21394  1.0000
  C   C218      1.0  0.58382  0.62308  0.05031  1.0000
  C   C219      1.0  0.34408  0.83972  0.15379  1.0000
  C   C220      1.0  0.63686  0.67677  0.13103  1.0000
  H   H377      1.0  0.54954  0.58543  0.02205  1.0000
  H   H378      1.0  0.62894  0.62155  0.12322  1.0000
  C   C221      1.0  0.50769  0.70431  0.01930  1.0000
  C   C222      1.0  0.65061  0.63951  0.13159  1.0000
  H   H379      1.0  0.50496  0.69647  0.04761  1.0000
  C   C223      1.0  0.55602  0.61345  0.02082  1.0000
  H   H380      1.0  0.57436  0.61693  0.07844  1.0000
  S   S49       1.0  0.65410  0.67965  0.01439  1.0000
  H   H381      1.0  0.37923  0.56291  0.02377  1.0000
  H   H382      1.0  0.42401  0.57463  0.03331  1.0000
  H   H383      1.0  0.56373  0.70793  0.02243  1.0000
  H   H384      1.0  0.58953  0.65148  0.05134  1.0000
  S   S50       1.0  0.43655  0.69840  0.01676  1.0000
  H   H385      1.0  0.60805  0.60818  0.04376  1.0000
  S   S51       1.0  0.34171  0.74028  0.99084  1.0000
  H   H386      1.0  0.53279  0.62939  0.02901  1.0000
  H   H387      1.0  0.48257  0.51952  0.03186  1.0000
  H   H388      1.0  0.61381  0.68030  0.14966  1.0000
  H   H389      1.0  0.38576  0.49766  0.02640  1.0000
  C   C224      1.0  0.47778  0.70812  0.99740  1.0000
  H   H390      1.0  0.35022  0.81158  0.15484  1.0000
  H   H391      1.0  0.65318  0.56952  0.11495  1.0000
  H   H392      1.0  0.54357  0.50570  0.04371  1.0000
  H   H393      1.0  0.62920  0.68231  0.10212  1.0000
  H   H394      1.0  0.36850  0.85399  0.14866  1.0000
  Fe  Fe25      1.0  0.38058  0.69650  0.99438  1.0000
  H   H395      1.0  0.64308  0.51446  0.05299  1.0000
  H   H396      1.0  0.34531  0.90711  0.19720  1.0000
  H   H397      1.0  0.33228  0.90488  0.26418  1.0000
  H   H398      1.0  0.53451  0.49825  0.99422  1.0000
  C   C225      1.0  0.41714  0.52909  0.99330  1.0000
  C   C226      1.0  0.65873  0.50678  0.07706  1.0000
  H   H399      1.0  0.66040  0.57693  0.06684  1.0000
  H   H400      1.0  0.40413  0.58363  0.98938  1.0000
  C   C227      1.0  0.60921  0.83836  0.90472  1.0000
  C   C228      1.0  0.60940  0.62242  0.86576  1.0000
  C   C229      1.0  0.48214  0.60757  0.92574  1.0000
  S   S52       1.0  0.36454  0.67032  0.93878  1.0000
  C   C230      1.0  0.33844  0.84948  0.86981  1.0000
  C   C231      1.0  0.33254  0.63015  0.84043  1.0000
  H   H401      1.0  0.49045  0.61175  0.89674  1.0000
  H   H402      1.0  0.47632  0.57948  0.92780  1.0000
  H   H403      1.0  0.54592  0.61066  0.88797  1.0000
  H   H404      1.0  0.33969  0.61636  0.86553  1.0000
  C   C232      1.0  0.54512  0.72082  0.96850  1.0000
  C   C233      1.0  0.58253  0.86715  0.91411  1.0000
  C   C234      1.0  0.63793  0.85081  0.87848  1.0000
  H   H405      1.0  0.62459  0.85571  0.85187  1.0000
  C   C235      1.0  0.64600  0.76217  0.87355  1.0000
  H   H406      1.0  0.40007  0.52238  0.96872  1.0000
  H   H407      1.0  0.45904  0.72203  0.94391  1.0000
  H   H408      1.0  0.64710  0.87696  0.89000  1.0000
  H   H409      1.0  0.42752  0.61585  0.91415  1.0000
  C   C236      1.0  0.56854  0.62106  0.98091  1.0000
  C   C237      1.0  0.53964  0.50768  0.91073  1.0000
  C   C238      1.0  0.56017  0.62118  0.91333  1.0000
  H   H410      1.0  0.59494  0.89013  0.92957  1.0000
  H   H411      1.0  0.60181  0.64929  0.85983  1.0000
  N   N13       1.0  0.54635  0.60650  0.94841  1.0000
  H   H412      1.0  0.56555  0.55103  0.88916  1.0000
  H   H413      1.0  0.59651  0.60330  0.84532  1.0000
  C   C239      1.0  0.59950  0.61551  0.90595  1.0000
  H   H414      1.0  0.61981  0.83079  0.93172  1.0000
  H   H415      1.0  0.60774  0.58870  0.91117  1.0000
  H   H416      1.0  0.55571  0.64998  0.91470  1.0000
  H   H417      1.0  0.34127  0.82427  0.88277  1.0000
  H   H418      1.0  0.35731  0.84983  0.84628  1.0000
  H   H419      1.0  0.62809  0.77049  0.89675  1.0000
  H   H420      1.0  0.51789  0.73313  0.91854  1.0000
  H   H421      1.0  0.59501  0.81592  0.89046  1.0000
  C   C240      1.0  0.51520  0.72499  0.94671  1.0000
  C   C241      1.0  0.54283  0.54696  0.90744  1.0000
  H   H422      1.0  0.63794  0.61981  0.86215  1.0000
  H   H423      1.0  0.57309  0.55807  0.95722  1.0000
  H   H424      1.0  0.57027  0.87533  0.88808  1.0000
  H   H425      1.0  0.35598  0.66958  0.80765  1.0000
  H   H426      1.0  0.61447  0.63396  0.92519  1.0000
  H   H427      1.0  0.45148  0.65526  0.92682  1.0000
  C   C242      1.0  0.62852  0.73262  0.84933  1.0000
  Fe  Fe26      1.0  0.64084  0.71368  0.96859  1.0000
  H   H428      1.0  0.51956  0.55553  0.89269  1.0000
  S   S53       1.0  0.58669  0.72854  0.94871  1.0000
  C   C243      1.0  0.48175  0.71869  0.96101  1.0000
  C   C244      1.0  0.54766  0.56705  0.94667  1.0000
  C   C245      1.0  0.36120  0.65649  0.83370  1.0000
  C   C246      1.0  0.66160  0.52006  0.97520  1.0000
  C   C247      1.0  0.50983  0.61975  0.95530  1.0000
  H   H429      1.0  0.52794  0.55721  0.96609  1.0000
  H   H430      1.0  0.43955  0.62676  0.96247  1.0000
  H   H431      1.0  0.36300  0.67668  0.85762  1.0000
  H   H432      1.0  0.50996  0.64880  0.95819  1.0000
  C   C248      1.0  0.44818  0.62755  0.93283  1.0000
  H   H433      1.0  0.63471  0.79764  0.83038  1.0000
  H   H434      1.0  0.62151  0.71130  0.86717  1.0000
  H   H435      1.0  0.64636  0.72201  0.82675  1.0000
  H   H436      1.0  0.65745  0.86111  0.80314  1.0000
  H   H437      1.0  0.56187  0.85723  0.93225  1.0000
  H   H438      1.0  0.38656  0.64289  0.83064  1.0000
  H   H439      1.0  0.34441  0.87110  0.89139  1.0000
  C   C249      1.0  0.65648  0.79264  0.84973  1.0000
  H   H440      1.0  0.60433  0.74201  0.83665  1.0000
  H   H441      1.0  0.63426  0.52461  0.97107  1.0000
  H   H442      1.0  0.59539  0.61057  0.97801  1.0000
  H   H443      1.0  0.51589  0.50173  0.92669  1.0000
  H   H444      1.0  0.57142  0.64984  0.98044  1.0000
  H   H445      1.0  0.49937  0.61151  0.98223  1.0000
  H   H446      1.0  0.56278  0.49764  0.92494  1.0000
  H   H447      1.0  0.44400  0.53196  0.98290  1.0000
  H   H448      1.0  0.33396  0.83729  0.71207  1.0000
  H   H449      1.0  0.33233  0.61078  0.81578  1.0000
  H   H450      1.0  0.33258  0.51129  0.91349  1.0000
  Fe  Fe27      1.0  0.82212  0.13461  0.27691  1.0000
  S   S54       1.0  0.77859  0.16701  0.30281  1.0000
  S   S55       1.0  0.80646  0.07993  0.25499  1.0000
  Fe  Fe28      1.0  0.87419  0.19328  0.29189  1.0000
  S   S56       1.0  0.83396  0.22898  0.31990  1.0000
  S   S57       1.0  0.92711  0.21798  0.28538  1.0000
  Fe  Fe29      1.0  0.81692  0.18197  0.34922  1.0000
  S   S58       1.0  0.80054  0.17138  0.40922  1.0000
  Fe  Fe30      1.0  0.79980  0.21060  0.27049  1.0000
  S   S59       1.0  0.76941  0.25188  0.23984  1.0000
  S   S60       1.0  0.85951  0.14746  0.32416  1.0000
  S   S61       1.0  0.84106  0.17696  0.24172  1.0000
  H   H451      1.0  0.81997  0.29451  0.20410  1.0000
  C   C250      1.0  0.83774  0.32696  0.12694  1.0000
  C   C251      1.0  0.86427  0.04315  0.16864  1.0000
  C   C252      1.0  0.88061  0.01669  0.29229  1.0000
  Fe  Fe31      1.0  0.69775  0.31362  0.03138  1.0000
  S   S62       1.0  0.72497  0.27558  0.06939  1.0000
  H   H452      1.0  0.88277  0.05947  0.15379  1.0000
  C   C253      1.0  0.96461  0.19197  0.27921  1.0000
  H   H453      1.0  0.92140  0.15973  0.40164  1.0000
  C   C254      1.0  0.96291  0.15564  0.27922  1.0000
  H   H454      1.0  0.83125  0.23338  0.18658  1.0000
  H   H455      1.0  0.93809  0.14295  0.28221  1.0000
  C   C255      1.0  0.75560  0.25718  0.19254  1.0000
  C   C256      1.0  0.75884  0.23075  0.16336  1.0000
  C   C257      1.0  0.74889  0.23680  0.12624  1.0000
  C   C258      1.0  0.73524  0.26922  0.11748  1.0000
  C   C259      1.0  0.73156  0.29551  0.14677  1.0000
  C   C260      1.0  0.74169  0.28951  0.18387  1.0000
  H   H456      1.0  0.76900  0.20560  0.16938  1.0000
  H   H457      1.0  0.75177  0.21611  0.10405  1.0000
  H   H458      1.0  0.72114  0.32058  0.14080  1.0000
  H   H459      1.0  0.73883  0.31020  0.20605  1.0000
  C   C261      1.0  0.81462  0.18646  0.45526  1.0000
  H   H460      1.0  0.84770  0.22764  0.43864  1.0000
  H   H461      1.0  0.84224  0.27319  0.10613  1.0000
  H   H462      1.0  0.78702  0.32773  0.09982  1.0000
  H   H463      1.0  0.90808  0.01813  0.29845  1.0000
  H   H464      1.0  0.73617  0.11403  0.35552  1.0000
  C   C262      1.0  0.82800  0.04441  0.27250  1.0000
  C   C263      1.0  0.86331  0.04628  0.28115  1.0000
  H   H465      1.0  0.85635  0.01936  0.39548  1.0000
  H   H466      1.0  0.87743  0.07031  0.27837  1.0000
  H   H467      1.0  0.96130  0.27210  0.08839  1.0000
  H   H468      1.0  0.86776  0.07412  0.43138  1.0000
  H   H469      1.0  0.78261  0.01153  0.26884  1.0000
  H   H470      1.0  0.73701  0.06158  0.41668  1.0000
  H   H471      1.0  0.89545  0.07733  0.35101  1.0000
  C   C264      1.0  0.84750  0.17478  0.13980  1.0000
  H   H472      1.0  0.82496  0.02668  0.45270  1.0000
  C   C265      1.0  0.94140  0.17422  0.38672  1.0000
  H   H473      1.0  0.94810  0.31284  0.11273  1.0000
  C   C266      1.0  0.80223  0.04074  0.44201  1.0000
  H   H474      1.0  0.80909  0.28108  0.13975  1.0000
  C   C267      1.0  0.83779  0.21432  0.46201  1.0000
  C   C268      1.0  0.89849  0.07424  0.38149  1.0000
  H   H475      1.0  0.82607  0.16931  0.15936  1.0000
  H   H476      1.0  0.93801  0.20250  0.39491  1.0000
  H   H477      1.0  0.87673  0.22655  0.18346  1.0000
  S   S63       1.0  0.72455  0.43708  0.99333  1.0000
  H   H478      1.0  0.76140  0.00432  0.39241  1.0000
  H   H479      1.0  0.91366  0.27408  0.18034  1.0000
  H   H480      1.0  0.85505  0.32399  0.20032  1.0000
  C   C269      1.0  0.81439  0.33478  0.09404  1.0000
  H   H481      1.0  0.82161  0.21900  0.12039  1.0000
  C   C270      1.0  0.78853  0.00717  0.38232  1.0000
  H   H482      1.0  0.82394  0.30403  0.27503  1.0000
  Fe  Fe32      1.0  0.69628  0.38425  0.99409  1.0000
  H   H483      1.0  0.84341  0.15836  0.11312  1.0000
  H   H484      1.0  0.85788  0.25644  0.24162  1.0000
  H   H485      1.0  0.83797  0.04644  0.15675  1.0000
  H   H486      1.0  0.92009  0.24772  0.46263  1.0000
  N   N14       1.0  0.80427  0.04077  0.39966  1.0000
  C   C271      1.0  0.78485  0.07070  0.38445  1.0000
  C   C272      1.0  0.84148  0.04202  0.38659  1.0000
  H   H487      1.0  0.87263  0.16743  0.15211  1.0000
  H   H488      1.0  0.86447  0.33522  0.12023  1.0000
  C   C273      1.0  0.80996  0.01302  0.27561  1.0000
  C   C274      1.0  0.74481  0.06953  0.38867  1.0000
  H   H489      1.0  0.78245  0.14950  0.48150  1.0000
  C   C275      1.0  0.86301  0.07447  0.40076  1.0000
  S   S64       1.0  0.66910  0.36447  0.04429  1.0000
  C   C276      1.0  0.72851  0.10498  0.38317  1.0000
  H   H490      1.0  0.89780  0.27427  0.09584  1.0000
  H   H491      1.0  0.79042  0.07185  0.35385  1.0000
  H   H492      1.0  0.79401  0.09619  0.39745  1.0000
  C   C277      1.0  0.97772  0.16178  0.39667  1.0000
  H   H493      1.0  0.93680  0.16960  0.35601  1.0000
  H   H494      1.0  0.73377  0.05033  0.36694  1.0000
  H   H495      1.0  0.77920  0.02564  0.45057  1.0000
  H   H496      1.0  0.90167  0.31282  0.16039  1.0000
  H   H497      1.0  0.85923  0.33439  0.26923  1.0000
  C   C278      1.0  0.85249  0.30657  0.27173  1.0000
  H   H498      1.0  0.91438  0.09631  0.39391  1.0000
  H   H499      1.0  0.96711  0.27888  0.13853  1.0000
  H   H500      1.0  0.84223  0.03988  0.35537  1.0000
  H   H501      1.0  0.82820  0.34316  0.15196  1.0000
  H   H502      1.0  0.85005  0.09923  0.39512  1.0000
  H   H503      1.0  0.86398  0.05274  0.19883  1.0000
  H   H504      1.0  0.89374  0.28566  0.23676  1.0000
  H   H505      1.0  0.91713  0.24022  0.12128  1.0000
  H   H506      1.0  0.82299  0.31991  0.06767  1.0000
  H   H507      1.0  0.66981  0.48046  0.06944  1.0000
  H   H508      1.0  0.73691  0.12471  0.40583  1.0000
  H   H509      1.0  0.86681  0.21690  0.10984  1.0000
  H   H510      1.0  0.86515  0.29800  0.29736  1.0000
  H   H511      1.0  0.81542  0.36307  0.08980  1.0000
  H   H512      1.0  0.69980  0.10286  0.38416  1.0000
  N   N15       1.0  0.85964  0.27589  0.16432  1.0000
  C   C279      1.0  0.83656  0.28761  0.13359  1.0000
  C   C280      1.0  0.85431  0.23733  0.16847  1.0000
  C   C281      1.0  0.84867  0.29580  0.20071  1.0000
  C   C282      1.0  0.89738  0.28408  0.15788  1.0000
  C   C283      1.0  0.91367  0.26880  0.12051  1.0000
  C   C284      1.0  0.94973  0.28420  0.11483  1.0000
  C   C285      1.0  0.86506  0.28379  0.23731  1.0000
  C   C286      1.0  0.84747  0.21330  0.13204  1.0000
  H   H513      1.0  0.98019  0.16389  0.42772  1.0000
  H   H514      1.0  0.78662  0.00783  0.35124  1.0000
  C   C287      1.0  0.99346  0.13572  0.27564  1.0000
  H   H515      1.0  0.96083  0.22512  0.45603  1.0000
  C   C288      1.0  0.87555  0.00491  0.16393  1.0000
  H   H516      1.0  0.91248  0.04950  0.38518  1.0000
  C   C289      1.0  0.94458  0.24088  0.47667  1.0000
  H   H517      1.0  0.77359  0.08827  0.46117  1.0000
  H   H518      1.0  0.90202  0.00383  0.17598  1.0000
  C   C290      1.0  0.79960  0.07674  0.46491  1.0000
  H   H519      1.0  0.99200  0.10763  0.27593  1.0000
  H   H520      1.0  0.87685  0.99692  0.13340  1.0000
  H   H521      1.0  0.97940  0.13386  0.38612  1.0000
  H   H522      1.0  0.81901  0.09568  0.45611  1.0000
  C   C291      1.0  0.70841  0.47953  0.98620  1.0000
  Fe  Fe33      1.0  0.81231  0.13965  0.67670  1.0000
  S   S65       1.0  0.79186  0.19372  0.66863  1.0000
  S   S66       1.0  0.78032  0.09012  0.67376  1.0000
  Fe  Fe34      1.0  0.88666  0.16405  0.68673  1.0000
  S   S67       1.0  0.87240  0.21982  0.68063  1.0000
  S   S68       1.0  0.93883  0.13837  0.69423  1.0000
  Fe  Fe35      1.0  0.82612  0.21083  0.71811  1.0000
  S   S69       1.0  0.81559  0.24925  0.77015  1.0000
  Fe  Fe36      1.0  0.83924  0.19853  0.63174  1.0000
  S   S70       1.0  0.84703  0.22446  0.57652  1.0000
  S   S71       1.0  0.84364  0.15634  0.72764  1.0000
  S   S72       1.0  0.85631  0.14334  0.63627  1.0000
  Fe  Fe37      1.0  0.68518  0.31529  0.94556  1.0000
  S   S73       1.0  0.69100  0.28629  0.88661  1.0000
  C   C292      1.0  0.98288  0.99666  0.67213  1.0000
  C   C293      1.0  0.94171  0.13289  0.58920  1.0000
  C   C294      1.0  0.93678  0.27254  0.62966  1.0000
  H   H523      1.0  0.79928  0.11679  0.84176  1.0000
  H   H524      1.0  0.95354  0.21239  0.69198  1.0000
  H   H525      1.0  0.78003  0.06824  0.78098  1.0000
  C   C295      1.0  0.78076  0.25725  0.80299  1.0000
  C   C296      1.0  0.74643  0.24761  0.79460  1.0000
  C   C297      1.0  0.71962  0.25587  0.82093  1.0000
  C   C298      1.0  0.72650  0.27422  0.85591  1.0000
  C   C299      1.0  0.76085  0.28356  0.86450  1.0000
  C   C300      1.0  0.78767  0.27532  0.83815  1.0000
  H   H526      1.0  0.74035  0.23472  0.76741  1.0000
  H   H527      1.0  0.69315  0.24873  0.81373  1.0000
  H   H528      1.0  0.76670  0.29741  0.89133  1.0000
  H   H529      1.0  0.81403  0.28312  0.84502  1.0000
  H   H530      1.0  0.75528  0.45115  0.86496  1.0000
  H   H531      1.0  0.80145  0.09910  0.52276  1.0000
  C   C301      1.0  0.83438  0.20890  0.53012  1.0000
  C   C302      1.0  0.81162  0.18076  0.52329  1.0000
  H   H532      1.0  0.89444  0.10696  0.56785  1.0000
  C   C303      1.0  0.80450  0.07318  0.50694  1.0000
  H   H533      1.0  0.80106  0.16791  0.54668  1.0000
  C   C304      1.0  0.87742  0.99653  0.62619  1.0000
  C   C305      1.0  0.73338  0.03842  0.78371  1.0000
  C   C306      1.0  0.78716  0.01941  0.67850  1.0000
  C   C307      1.0  0.79940  0.05278  0.69095  1.0000
  C   C308      1.0  0.82569  0.05591  0.71798  1.0000
  C   C309      1.0  0.92077  0.10002  0.57745  1.0000
  H   H534      1.0  0.83517  0.08139  0.72802  1.0000
  C   C310      1.0  0.74667  0.43202  0.84165  1.0000
  C   C311      1.0  0.72554  0.45358  0.81455  1.0000
  H   H535      1.0  0.93421  0.08411  0.55448  1.0000
  H   H536      1.0  0.77100  0.42321  0.82690  1.0000
  H   H537      1.0  0.73091  0.14661  0.69566  1.0000
  C   C312      1.0  0.84702  0.22585  0.49927  1.0000
  H   H538      1.0  0.94672  0.29970  0.63379  1.0000
  H   H539      1.0  0.98721  0.03679  0.73841  1.0000
  H   H540      1.0  0.85743  0.01182  0.64278  1.0000
  H   H541      1.0  0.74497  0.20901  0.90152  1.0000
  H   H542      1.0  0.71195  0.16383  0.83142  1.0000
  H   H543      1.0  0.92094  0.23783  0.53053  1.0000
  N   N16       1.0  0.95363  0.00737  0.69880  1.0000
  H   H544      1.0  0.70671  0.31426  0.78170  1.0000
  C   C313      1.0  0.69017  0.40666  0.86258  1.0000
  H   H545      1.0  0.70481  0.46872  0.83001  1.0000
  C   C314      1.0  0.80134  0.17014  0.48619  1.0000
  C   C315      1.0  0.97759  0.19814  0.68806  1.0000
  C   C316      1.0  0.79850  0.39181  0.93498  1.0000
  H   H546      1.0  0.72970  0.37438  0.90845  1.0000
  H   H547      1.0  0.90059  0.02526  0.69462  1.0000
  H   H548      1.0  0.75015  0.18920  0.83405  1.0000
  H   H549      1.0  0.71147  0.10415  0.80879  1.0000
  H   H550      1.0  0.98547  0.01569  0.65029  1.0000
  H   H551      1.0  0.67776  0.38227  0.87122  1.0000
  C   C317      1.0  0.81639  0.16714  0.82527  1.0000
  C   C318      1.0  0.85467  0.15977  0.83239  1.0000
  H   H552      1.0  0.80645  0.18295  0.85035  1.0000
  H   H553      1.0  0.81492  0.18324  0.80106  1.0000
  H   H554      1.0  0.86899  0.18488  0.83684  1.0000
  H   H555      1.0  0.85765  0.14521  0.85784  1.0000
  H   H556      1.0  0.86640  0.14440  0.80788  1.0000
  H   H557      1.0  0.73093  0.17868  0.93442  1.0000
  H   H558      1.0  0.73935  0.38642  0.77574  1.0000
  H   H559      1.0  0.83086  0.06324  0.51257  1.0000
  H   H560      1.0  0.78478  0.05519  0.51745  1.0000
  C   C319      1.0  0.94454  0.15706  0.55652  1.0000
  H   H561      1.0  0.74569  0.08076  0.75075  1.0000
  C   C320      1.0  0.78324  0.38610  0.89547  1.0000
  C   C321      1.0  0.74402  0.39547  0.89512  1.0000
  H   H562      1.0  0.91653  0.07192  0.73065  1.0000
  H   H563      1.0  0.75204  0.32217  0.77154  1.0000
  H   H564      1.0  0.93711  0.26109  0.65721  1.0000
  H   H565      1.0  0.79854  0.40212  0.87691  1.0000
  H   H566      1.0  0.76220  0.36114  0.83019  1.0000
  H   H567      1.0  0.91774  0.21501  0.58591  1.0000
  C   C322      1.0  0.83900  0.02600  0.73301  1.0000
  H   H568      1.0  0.72771  0.19141  0.71545  1.0000
  H   H569      1.0  0.80889  0.11779  0.79345  1.0000
  H   H570      1.0  0.95517  0.14148  0.53148  1.0000
  H   H571      1.0  0.72112  0.34583  0.84436  1.0000
  H   H572      1.0  0.74088  0.41937  0.91455  1.0000
  H   H573      1.0  0.74239  0.01874  0.76126  1.0000
  H   H574      1.0  0.69499  0.37701  0.78857  1.0000
  C   C323      1.0  0.79560  0.13271  0.81736  1.0000
  H   H575      1.0  0.70342  0.12669  0.75343  1.0000
  H   H576      1.0  0.78698  0.35816  0.88584  1.0000
  N   N17       1.0  0.72868  0.40120  0.85714  1.0000
  C   C324      1.0  0.67314  0.48599  0.98078  1.0000
  H   H577      1.0  0.94513  0.20185  0.62109  1.0000
  H   H578      1.0  0.76975  0.13382  0.74912  1.0000
  C   C325      1.0  0.96989  0.20753  0.52870  1.0000
  C   C326      1.0  0.75418  0.15003  0.77024  1.0000
  C   C327      1.0  0.93623  0.22040  0.51055  1.0000
  C   C328      1.0  0.74019  0.10158  0.81011  1.0000
  N   N18       1.0  0.96511  0.19022  0.56481  1.0000
  C   C329      1.0  0.71624  0.16490  0.71544  1.0000
  H   H579      1.0  0.76561  0.17658  0.77009  1.0000
  H   H580      1.0  0.85868  0.02872  0.75459  1.0000
  H   H581      1.0  0.96988  0.07421  0.79474  1.0000
  C   C330      1.0  0.71659  0.15243  0.75498  1.0000
  H   H582      1.0  0.77057  0.15003  0.88705  1.0000
  C   C331      1.0  0.72940  0.18503  0.90465  1.0000
  N   N19       1.0  0.75753  0.13668  0.80874  1.0000
  C   C332      1.0  0.74025  0.16237  0.83700  1.0000
  H   H583      1.0  0.73951  0.02864  0.81138  1.0000
  H   H584      1.0  0.96698  0.10592  0.76006  1.0000
  C   C333      1.0  0.74335  0.15452  0.87881  1.0000
  H   H585      1.0  0.76675  0.01677  0.65769  1.0000
  C   C334      1.0  0.75177  0.07309  0.77930  1.0000
  H   H586      1.0  0.74532  0.09087  0.83762  1.0000
  H   H587      1.0  0.86369  0.24838  0.50422  1.0000
  H   H588      1.0  0.88875  0.01304  0.60513  1.0000
  H   H589      1.0  0.98840  0.22979  0.53276  1.0000
  H   H590      1.0  0.72794  0.13097  0.88410  1.0000
  H   H591      1.0  0.98627  0.25123  0.61264  1.0000
  C   C335      1.0  0.95955  0.25128  0.60120  1.0000
  H   H592      1.0  0.93130  0.10034  0.79169  1.0000
  C   C336      1.0  0.97761  0.16187  0.68915  1.0000
  H   H593      1.0  0.95981  0.26528  0.57524  1.0000
  H   H594      1.0  0.71876  0.33410  0.73962  1.0000
  C   C337      1.0  0.72235  0.36869  0.79067  1.0000
  H   H595      1.0  0.82624  0.38403  0.93445  1.0000
  H   H596      1.0  0.92280  0.03936  0.76360  1.0000
  C   C338      1.0  0.67968  0.43643  0.89247  1.0000
  C   C339      1.0  0.73426  0.36812  0.83201  1.0000
  H   H597      1.0  0.96750  0.12432  0.59857  1.0000
  H   H598      1.0  0.91738  0.16339  0.54878  1.0000
  H   H599      1.0  0.70095  0.17134  0.77298  1.0000
  H   H600      1.0  0.98208  0.18914  0.50694  1.0000
  C   C340      1.0  0.94553  0.21347  0.59362  1.0000
  H   H601      1.0  0.92790  0.03634  0.65741  1.0000
  C   C341      1.0  0.92198  0.01511  0.67603  1.0000
  H   H602      1.0  0.92854  0.14665  0.61365  1.0000
  H   H603      1.0  0.90957  0.27336  0.61945  1.0000
  C   C342      1.0  0.95220  0.08644  0.77510  1.0000
  C   C343      1.0  0.72524  0.33255  0.76974  1.0000
  H   H604      1.0  0.67731  0.41150  0.83577  1.0000
  H   H605      1.0  0.76918  0.46593  0.77887  1.0000
  H   H606      1.0  0.91785  0.08407  0.60190  1.0000
  H   H607      1.0  0.91961  0.19789  0.50066  1.0000
  H   H608      1.0  0.69619  0.45994  0.89104  1.0000
  H   H609      1.0  0.68277  0.42746  0.92103  1.0000
  H   H610      1.0  0.71287  0.43702  0.79181  1.0000
  H   H611      1.0  0.70187  0.19047  0.89801  1.0000
  H   H612      1.0  0.79669  0.41975  0.94557  1.0000
  C   C344      1.0  0.93622  0.05868  0.74720  1.0000
  H   H613      1.0  0.97240  0.06084  0.70100  1.0000
  C   C345      1.0  0.96421  0.04112  0.72059  1.0000
  H   H614      1.0  0.70486  0.04144  0.78101  1.0000
  C   C346      1.0  0.74877  0.47975  0.79631  1.0000
  H   H615      1.0  0.68911  0.16606  0.70525  1.0000
  H   H616      1.0  0.95847  0.26545  0.48580  1.0000
  H   H617      1.0  0.78450  0.37583  0.95468  1.0000
  S   S74       1.0  0.72822  0.33491  0.98391  1.0000
  Fe  Fe38      1.0  0.89326  0.82233  0.31315  1.0000
  S   S75       1.0  0.84123  0.79582  0.30734  1.0000
  S   S76       1.0  0.94278  0.79529  0.32842  1.0000
  Fe  Fe39      1.0  0.86235  0.89472  0.30793  1.0000
  S   S77       1.0  0.80771  0.87428  0.30292  1.0000
  S   S78       1.0  0.88560  0.94891  0.30879  1.0000
  Fe  Fe40      1.0  0.82343  0.83988  0.34886  1.0000
  S   S79       1.0  0.79335  0.82726  0.40147  1.0000
  Fe  Fe41      1.0  0.82963  0.83178  0.26166  1.0000
  S   S80       1.0  0.81206  0.82283  0.19946  1.0000
  S   S81       1.0  0.87590  0.86389  0.35647  1.0000
  S   S82       1.0  0.88369  0.85474  0.26505  1.0000
  C   C347      1.0  0.90169  0.89438  0.17819  1.0000
  Fe  Fe42      1.0  0.70171  0.71336  0.02597  1.0000
  S   S83       1.0  0.71580  0.72265  0.08898  1.0000
  H   H618      1.0  0.90348  0.88796  0.14737  1.0000
  H   H619      1.0  0.88286  0.74173  0.45346  1.0000
  C   C348      1.0  0.89075  0.93292  0.18659  1.0000
  C   C349      1.0  0.98198  0.82928  0.27783  1.0000
  H   H620      1.0  0.78687  0.96147  0.21520  1.0000
  H   H621      1.0  0.76230  0.63337  0.21654  1.0000
  H   H622      1.0  0.93772  0.89431  0.22543  1.0000
  H   H623      1.0  0.95774  0.83555  0.26486  1.0000
  H   H624      1.0  0.83001  0.89576  0.19511  1.0000
  C   C350      1.0  0.78171  0.62280  0.04569  1.0000
  H   H625      1.0  0.73850  0.91995  0.21137  1.0000
  H   H626      1.0  0.81302  0.95952  0.29003  1.0000
  H   H627      1.0  0.87195  0.93677  0.11816  1.0000
  C   C351      1.0  0.78526  0.79429  0.16942  1.0000
  C   C352      1.0  0.76530  0.76735  0.18272  1.0000
  C   C353      1.0  0.74440  0.74586  0.15772  1.0000
  C   C354      1.0  0.74306  0.75075  0.11898  1.0000
  C   C355      1.0  0.76313  0.77758  0.10564  1.0000
  C   C356      1.0  0.78393  0.79913  0.13066  1.0000
  H   H628      1.0  0.76582  0.76317  0.21232  1.0000
  H   H629      1.0  0.72904  0.72535  0.16859  1.0000
  H   H630      1.0  0.76254  0.78183  0.07607  1.0000
  H   H631      1.0  0.79918  0.81973  0.11987  1.0000
  C   C357      1.0  0.80613  0.83978  0.44864  1.0000
  C   C358      1.0  0.76544  0.90991  0.21255  1.0000
  C   C359      1.0  0.82848  0.86797  0.45741  1.0000
  H   H632      1.0  0.82197  0.86245  0.07250  1.0000
  H   H633      1.0  0.83864  0.88255  0.43514  1.0000
  H   H634      1.0  0.79520  0.64772  0.04126  1.0000
  H   H635      1.0  0.96671  0.96719  0.24632  1.0000
  H   H636      1.0  0.83175  0.97009  0.37296  1.0000
  H   H637      1.0  0.94446  0.85984  0.18900  1.0000
  H   H638      1.0  0.97929  0.97837  0.29469  1.0000
  C   C360      1.0  0.86260  0.98529  0.29535  1.0000
  H   H639      1.0  0.95950  0.93680  0.28144  1.0000
  H   H640      1.0  0.84781  0.87524  0.13497  1.0000
  H   H641      1.0  0.81485  0.97273  0.42025  1.0000
  N   N20       1.0  0.91212  0.79030  0.45932  1.0000
  C   C361      1.0  0.91631  0.82172  0.43691  1.0000
  C   C362      1.0  0.88058  0.76917  0.44591  1.0000
  H   H642      1.0  0.76173  0.94102  0.39771  1.0000
  C   C363      1.0  0.94428  0.76783  0.45811  1.0000
  C   C364      1.0  0.96004  0.75751  0.41887  1.0000
  C   C365      1.0  0.94681  0.84670  0.44849  1.0000
  H   H643      1.0  0.98913  0.71279  0.43610  1.0000
  C   C366      1.0  0.87122  0.76806  0.40353  1.0000
  C   C367      1.0  0.84169  0.74226  0.39403  1.0000
  H   H644      1.0  0.92852  0.88984  0.41765  1.0000
  C   C368      1.0  0.95219  0.87365  0.41975  1.0000
  H   H645      1.0  0.89206  0.83749  0.43862  1.0000
  H   H646      1.0  0.91963  0.81372  0.40656  1.0000
  H   H647      1.0  0.80028  0.91677  0.38425  1.0000
  H   H648      1.0  0.93899  0.74295  0.47104  1.0000
  H   H649      1.0  0.91008  0.94787  0.17130  1.0000
  C   C369      1.0  0.83336  0.88866  0.08003  1.0000
  H   H650      1.0  0.82876  0.95186  0.12349  1.0000
  C   C370      1.0  0.80773  0.97297  0.39018  1.0000
  H   H651      1.0  0.67256  0.63713  0.07553  1.0000
  H   H652      1.0  0.94205  0.74031  0.40182  1.0000
  H   H653      1.0  0.97416  0.89114  0.42854  1.0000
  C   C371      1.0  0.84768  0.93327  0.13445  1.0000
  C   C372      1.0  0.83305  0.89619  0.12273  1.0000
  H   H654      1.0  0.89502  0.94037  0.21716  1.0000
  H   H655      1.0  0.86230  0.79416  0.39639  1.0000
  H   H656      1.0  0.89341  0.76053  0.38505  1.0000
  H   H657      1.0  0.83508  0.74225  0.36379  1.0000
  H   H658      1.0  0.84945  0.71539  0.39976  1.0000
  H   H659      1.0  0.81813  0.74995  0.41069  1.0000
  H   H660      1.0  0.95758  0.90383  0.18144  1.0000
  H   H661      1.0  0.70192  0.52443  0.11088  1.0000
  N   N21       1.0  0.85424  0.94228  0.17588  1.0000
  H   H662      1.0  0.86036  0.88883  0.06910  1.0000
  C   C373      1.0  0.82904  0.92452  0.20065  1.0000
  C   C374      1.0  0.68188  0.63346  0.10446  1.0000
  N   N22       1.0  0.70006  0.59873  0.10474  1.0000
  C   C375      1.0  0.72911  0.59636  0.07602  1.0000
  C   C376      1.0  0.85026  0.98128  0.18449  1.0000
  C   C377      1.0  0.71333  0.59219  0.14332  1.0000
  C   C378      1.0  0.73773  0.62021  0.16261  1.0000
  H   H663      1.0  0.77753  0.93989  0.34978  1.0000
  C   C379      1.0  0.74964  0.63033  0.07022  1.0000
  H   H664      1.0  0.83682  0.92896  0.23070  1.0000
  C   C380      1.0  0.74400  0.61349  0.20369  1.0000
  H   H665      1.0  0.78331  0.94062  0.16865  1.0000
  H   H666      1.0  0.70001  0.65541  0.11124  1.0000
  H   H667      1.0  0.74794  0.57569  0.08239  1.0000
  H   H668      1.0  0.71858  0.58816  0.04758  1.0000
  H   H669      1.0  0.79999  0.60561  0.05957  1.0000
  H   H670      1.0  0.72822  0.56740  0.14222  1.0000
  H   H671      1.0  0.72705  0.64693  0.16246  1.0000
  H   H672      1.0  0.76341  0.61904  0.14850  1.0000
  C   C381      1.0  0.79282  0.82152  0.47821  1.0000
  H   H673      1.0  0.70631  0.53091  0.06181  1.0000
  H   H674      1.0  0.73290  0.64846  0.05572  1.0000
  H   H675      1.0  0.75815  0.64431  0.09685  1.0000
  C   C382      1.0  0.93757  0.88784  0.19453  1.0000
  H   H676      1.0  0.76681  0.88474  0.19500  1.0000
  H   H677      1.0  0.77146  0.90540  0.24212  1.0000
  H   H678      1.0  0.71932  0.61545  0.21985  1.0000
  H   H679      1.0  0.69126  0.58815  0.16267  1.0000
  H   H680      1.0  0.75551  0.58723  0.20579  1.0000
  H   H681      1.0  0.80576  0.89391  0.13220  1.0000
  H   H682      1.0  0.85670  0.77957  0.46061  1.0000
  C   C383      1.0  0.79064  0.93639  0.19796  1.0000
  H   H683      1.0  0.81771  0.90835  0.06644  1.0000
  H   H684      1.0  0.88313  0.87622  0.19009  1.0000
  H   H685      1.0  0.77419  0.61014  0.01781  1.0000
  C   C384      1.0  0.97760  0.95689  0.27200  1.0000
  C   C385      1.0  0.99381  0.73719  0.42215  1.0000
  H   H686      1.0  0.96632  0.78076  0.40371  1.0000
  H   H687      1.0  0.95831  0.86054  0.39159  1.0000
  C   C386      1.0  0.82713  0.98357  0.28743  1.0000
  C   C387      1.0  0.78533  0.94080  0.37978  1.0000
  C   C388      1.0  0.98193  0.81017  0.30957  1.0000
  H   H688      1.0  0.97152  0.83229  0.45057  1.0000
  C   C389      1.0  0.68811  0.53290  0.08600  1.0000
  C   C390      1.0  0.67376  0.57065  0.09318  1.0000
  H   H689      1.0  0.94133  0.86133  0.47595  1.0000
  H   H690      1.0  0.96506  0.78085  0.47572  1.0000
  H   H691      1.0  0.77531  0.79982  0.47183  1.0000
  H   H692      1.0  0.82364  0.98976  0.17745  1.0000
  H   H693      1.0  0.85345  0.98824  0.21512  1.0000
  H   H694      1.0  0.75924  0.50302  0.99000  1.0000
  C   C391      1.0  0.73188  0.50767  0.98595  1.0000
  Fe  Fe43      1.0  0.83088  0.85910  0.63289  1.0000
  S   S84       1.0  0.87677  0.88493  0.66282  1.0000
  S   S85       1.0  0.83593  0.87383  0.57177  1.0000
  Fe  Fe44      1.0  0.80517  0.83020  0.70787  1.0000
  S   S86       1.0  0.84946  0.85485  0.74071  1.0000
  S   S87       1.0  0.76572  0.79557  0.73689  1.0000
  Fe  Fe45      1.0  0.83946  0.90198  0.70873  1.0000
  S   S88       1.0  0.84564  0.95583  0.73897  1.0000
  Fe  Fe46      1.0  0.88255  0.83580  0.69143  1.0000
  S   S89       1.0  0.93241  0.80674  0.70104  1.0000
  S   S90       1.0  0.79278  0.87908  0.67828  1.0000
  S   S91       1.0  0.83912  0.80824  0.65947  1.0000
  C   C392      1.0  0.93431  0.72831  0.76208  1.0000
  H   H695      1.0  0.87413  0.72236  0.91599  1.0000
  Fe  Fe47      1.0  0.71668  0.71617  0.94131  1.0000
  H   H696      1.0  0.85391  0.90013  0.50158  1.0000
  S   S92       1.0  0.75529  0.74457  0.90428  1.0000
  N   N23       1.0  0.88309  0.75102  0.80484  1.0000
  C   C393      1.0  0.83698  0.87798  0.49520  1.0000
  H   H697      1.0  0.83621  0.69519  0.90817  1.0000
  H   H698      1.0  0.97718  0.97139  0.65612  1.0000
  H   H699      1.0  0.94455  0.88973  0.73209  1.0000
  C   C394      1.0  0.97253  0.82481  0.68873  1.0000
  H   H700      1.0  0.93058  0.84471  0.77847  1.0000
  Fe  Fe48      1.0  0.68615  0.64817  0.97134  1.0000
  H   H701      1.0  0.90703  0.81151  0.57709  1.0000
  H   H702      1.0  0.95048  0.86501  0.65762  1.0000
  H   H703      1.0  0.86480  0.80361  0.80075  1.0000
  H   H704      1.0  0.94324  0.85902  0.82570  1.0000
  H   H705      1.0  0.82314  0.73394  0.68785  1.0000
  H   H706      1.0  0.79227  0.96374  0.68226  1.0000
  C   C395      1.0  0.70950  0.86870  0.78435  1.0000
  C   C396      1.0  0.76327  0.78189  0.78371  1.0000
  C   C397      1.0  0.78331  0.79718  0.81333  1.0000
  C   C398      1.0  0.78022  0.78558  0.84987  1.0000
  C   C399      1.0  0.75711  0.75856  0.85756  1.0000
  C   C400      1.0  0.73695  0.74340  0.82802  1.0000
  C   C401      1.0  0.73993  0.75509  0.79150  1.0000
  H   H707      1.0  0.80096  0.81818  0.80815  1.0000
  H   H708      1.0  0.79565  0.79789  0.87250  1.0000
  H   H709      1.0  0.71917  0.72250  0.83320  1.0000
  H   H710      1.0  0.72416  0.74307  0.76897  1.0000
  C   C402      1.0  0.80175  0.83121  0.51604  1.0000
  C   C403      1.0  0.82365  0.85979  0.52481  1.0000
  H   H711      1.0  0.89817  0.86042  0.81248  1.0000
  H   H712      1.0  0.79122  0.81696  0.53841  1.0000
  H   H713      1.0  0.93479  0.73786  0.82271  1.0000
  H   H714      1.0  0.89317  0.96592  0.67056  1.0000
  H   H715      1.0  0.83648  0.69662  0.71176  1.0000
  H   H716      1.0  0.97985  0.93605  0.70804  1.0000
  C   C404      1.0  0.91565  0.72925  0.80055  1.0000
  C   C405      1.0  0.69381  0.84408  0.84616  1.0000
  H   H717      1.0  0.83225  0.74184  0.90855  1.0000
  H   H718      1.0  0.80042  0.72336  0.72952  1.0000
  H   H719      1.0  0.91120  0.92026  0.74714  1.0000
  H   H720      1.0  0.66954  0.75125  0.88618  1.0000
  C   C406      1.0  0.85608  0.71664  0.85787  1.0000
  H   H721      1.0  0.71084  0.89599  0.79711  1.0000
  H   H722      1.0  0.84120  0.77409  0.74078  1.0000
  H   H723      1.0  0.85577  0.70618  0.77833  1.0000
  C   C407      1.0  0.93950  0.91731  0.74217  1.0000
  C   C408      1.0  0.91799  0.80829  0.82033  1.0000
  C   C409      1.0  0.88936  0.78848  0.79670  1.0000
  H   H724      1.0  0.73560  0.85663  0.78550  1.0000
  C   C410      1.0  0.84936  0.71928  0.90024  1.0000
  S   S93       1.0  0.67131  0.68150  0.92447  1.0000
  H   H725      1.0  0.68062  0.82168  0.78888  1.0000
  H   H726      1.0  0.93949  0.75486  0.75359  1.0000
  H   H727      1.0  0.72355  0.86321  0.91352  1.0000
  H   H728      1.0  0.88755  0.77044  0.58652  1.0000
  H   H729      1.0  0.95350  0.92312  0.76911  1.0000
  H   H730      1.0  0.70842  0.80046  0.89942  1.0000
  H   H731      1.0  0.87849  0.75647  0.51748  1.0000
  H   H732      1.0  0.83085  0.71057  0.84383  1.0000
  H   H733      1.0  0.88302  0.82149  0.50161  1.0000
  H   H734      1.0  0.89639  0.79054  0.76690  1.0000
  C   C411      1.0  0.82633  0.72368  0.71585  1.0000
  C   C412      1.0  0.95186  0.94140  0.71276  1.0000
  H   H735      1.0  0.85142  0.77180  0.85160  1.0000
  C   C413      1.0  0.97411  0.85351  0.66709  1.0000
  C   C414      1.0  0.89930  0.77487  0.52750  1.0000
  H   H736      1.0  0.91122  0.81054  0.85063  1.0000
  C   C415      1.0  0.87148  0.75132  0.84539  1.0000
  C   C416      1.0  0.68272  0.84765  0.80476  1.0000
  C   C417      1.0  0.90567  0.80346  0.49981  1.0000
  H   H737      1.0  0.94335  0.79487  0.81643  1.0000
  H   H738      1.0  0.82852  0.74186  0.79285  1.0000
  C   C418      1.0  0.68689  0.81907  0.90637  1.0000
  H   H739      1.0  0.98686  0.72422  0.78392  1.0000
  C   C419      1.0  0.85431  0.73522  0.78010  1.0000
  C   C420      1.0  0.88849  0.79095  0.56632  1.0000
  H   H740      1.0  0.96597  0.68264  0.77105  1.0000
  H   H741      1.0  0.87657  0.74690  0.72467  1.0000
  C   C421      1.0  0.96935  0.70988  0.76334  1.0000
  C   C422      1.0  0.80153  0.98935  0.69243  1.0000
  C   C423      1.0  0.92266  0.84536  0.80845  1.0000
  H   H742      1.0  0.92800  0.81908  0.51148  1.0000
  H   H743      1.0  0.86221  0.80253  0.56498  1.0000
  C   C424      1.0  0.70278  0.85100  0.92961  1.0000
  H   H744      1.0  0.89341  0.75848  0.86473  1.0000
  H   H745      1.0  0.92341  0.75974  0.53104  1.0000
  H   H746      1.0  0.91855  0.71349  0.74028  1.0000
  H   H747      1.0  0.70215  0.86924  0.75431  1.0000
  H   H748      1.0  0.90994  0.70161  0.80530  1.0000
  C   C425      1.0  0.85142  0.74701  0.73959  1.0000
  H   H749      1.0  0.87382  0.69435  0.85126  1.0000
  H   H750      1.0  0.73930  0.81964  0.95926  1.0000
  H   H751      1.0  0.91822  0.98293  0.73597  1.0000
  H   H752      1.0  0.71893  0.82968  0.84495  1.0000
  H   H753      1.0  0.93825  0.93374  0.68615  1.0000
  H   H754      1.0  0.96850  0.76831  0.58448  1.0000
  C   C426      1.0  0.68502  0.54826  0.97532  1.0000
  C   C427      1.0  0.71929  0.84006  0.96575  1.0000
  S   S94       1.0  0.73471  0.68001  0.98489  1.0000
  C   C428      1.0  0.90568  0.98404  0.65193  1.0000
  C   C429      1.0  0.98724  0.79024  0.58852  1.0000
  H   H755      1.0  0.86452  0.97362  0.61112  1.0000
  S   S95       1.0  0.66844  0.59066  0.96873  1.0000
  H   H756      1.0  0.92500  0.96954  0.63380  1.0000
  H   H757      1.0  0.69981  0.87095  0.85844  1.0000
  H   H758      1.0  0.97327  0.81509  0.58529  1.0000
  C   C430      1.0  0.94569  0.98039  0.72631  1.0000
  H   H759      1.0  0.67764  0.78150  0.83129  1.0000
  H   H760      1.0  0.96148  0.98527  0.75232  1.0000
  H   H761      1.0  0.68268  0.87082  0.93772  1.0000
  H   H762      1.0  0.98182  0.70915  0.73518  1.0000
  N   N24       1.0  0.66820  0.82644  0.87071  1.0000
  H   H763      1.0  0.66987  0.80564  0.92571  1.0000
  C   C431      1.0  0.82740  0.99261  0.71991  1.0000
  C   C432      1.0  0.72032  0.54181  0.98059  1.0000
  H   H764      1.0  0.73875  0.56302  0.98030  1.0000
  H   H765      1.0  0.73190  0.86296  0.98110  1.0000
  S   S96       1.0  0.68544  0.75057  0.98328  1.0000
  H   H766      1.0  0.69924  0.82979  0.98439  1.0000
  H   H767      1.0  0.73294  0.49539  0.77785  1.0000
  H   H768      1.0  0.76123  0.49786  0.81813  1.0000
