data_image0
_chemical_formula_structural       CH2SHCSC6H2C2H4CFeC2HCH2FeHNCH2C2H8C2HSH4FeH4CH5CHCH3CNHCS2H3C2HC2H3C3HFeSFeHSC2SCH2SC6H6CH2SH2CH2CHC2HSH2SHNFeH4CHCH3C4H3C2H2SC2H8FeC3H2CHSCH8NFeHFeS2FeSCSHS2HSCHC7H2CHCFeCH2CNCHSHC2HCH7C3H3C3H3CH5CH4SHCHCH6CH6CH2CHCH4CSH2SHC2HC6HCH5CH3C2H5C2FeH16NCH2CH2CHC3HCH3C3H4SCH2C3H2NHCH3FeH2C3HCH2C2SFeSC2HCHC6H6CH3SC6H5NH2CH4CH6FeH3SH2SH5C2H2CHCSH8NC10HC2SH4CH4SH2CSFeH7SFeHSFeSH2C6H4FeS2HCSFeS2C6H8CHCH3CHFeH3CFeH5CHCH2CH3NH2CHC2H4CH5C2HCHCHC3H2CH3CHC3NC5NH14C2SCHC3H6SH3CH3SHCH2SHC2S2HFeS2C6H4C2FeSHFeSHSFeSH2CHC4H4CH2C5H3CH3FeH4CH6SCHC3HNHCH2CH2CH4CH5CH4CHCH7CHCH2C2SCSHCSH2CH2CHSFeHC2H3FeCNHS2FeSFeCH2SC5H3CHCH4SHSFeC6H5CH11CH2CH4SCH2CNC11H10C2HSH5NCHCH6C2H2SH4CFeC2HFeH3FeHCHCHSHC2SCFeSHC2SH2FeC6H10NCH2C2H5CHCHCH3SH3C2H3C2H3CH2CH2SH4SCH3CHFeHCH3CH2CHCH4FeSCHSFeSCSCHC2H3C6H2CH5NH2C3H4CHCHFeHCH2CH2SH3CHC2H6C3H2SC2H4C2HCH2CNH3SHCH2FeH3CHCH5FeCH2CH7C2H2CFeSHSNHSC6H8CH5C2HC3H2CH3NH5FeCH4CH2CH2CH2FeH2NHC4HCS2HC2H3CH5CH3SH2C2HCH2CH2CHCH4CH3CHSHCFeSCSCH2C6H2NCHCH3CHCH4SCHCHC2H2C2FeC2H3CH2CH2SH3CH3CH3CH2C2HCSH4NH2CH3SH2CH8C
_chemical_formula_sum              "C432 H768 S96 Fe48 N24"
_cell_length_a       38.255
_cell_length_b       24.0704
_cell_length_c       36.211
_cell_angle_alpha    89.6433
_cell_angle_beta     73.7132
_cell_angle_gamma    90.3747

_space_group_name_H-M_alt    "P 1"
_space_group_IT_number       1

loop_
  _space_group_symop_operation_xyz
  'x, y, z'

loop_
  _atom_site_type_symbol
  _atom_site_label
  _atom_site_symmetry_multiplicity
  _atom_site_fract_x
  _atom_site_fract_y
  _atom_site_fract_z
  _atom_site_occupancy
  C   C1        1.0  0.07425  0.15635  0.30404  1.0000
  H   H1        1.0  0.03421  0.21067  0.51694  1.0000
  H   H2        1.0  0.09991  0.09873  0.10498  1.0000
  S   S1        1.0  0.05904  0.34459  0.10958  1.0000
  H   H3        1.0  0.06990  0.28616  0.21761  1.0000
  C   C2        1.0  0.03832  0.23018  0.28004  1.0000
  S   S2        1.0  0.08090  0.12200  0.19488  1.0000
  C   C3        1.0  0.06541  0.28074  0.13077  1.0000
  C   C4        1.0  0.10027  0.25973  0.12673  1.0000
  C   C5        1.0  0.10469  0.21075  0.14629  1.0000
  C   C6        1.0  0.07430  0.18204  0.16952  1.0000
  C   C7        1.0  0.03946  0.20267  0.17299  1.0000
  C   C8        1.0  0.03509  0.25217  0.15405  1.0000
  H   H4        1.0  0.12388  0.28202  0.10933  1.0000
  H   H5        1.0  0.13177  0.19531  0.14370  1.0000
  C   C9        1.0  0.09670  0.38871  0.19731  1.0000
  C   C10       1.0  0.05895  0.14612  0.06420  1.0000
  H   H6        1.0  0.01159  0.37380  0.44331  1.0000
  H   H7        1.0  0.12666  0.05628  0.06837  1.0000
  H   H8        1.0  0.09867  0.36159  0.17214  1.0000
  H   H9        1.0  0.09976  0.14826  0.31201  1.0000
  C   C11       1.0  0.21741  0.49584  0.50037  1.0000
  Fe  Fe1       1.0  0.09529  0.36328  0.04980  1.0000
  C   C12       1.0  0.25413  0.48087  0.48536  1.0000
  C   C13       1.0  0.19031  0.19353  0.03567  1.0000
  H   H10       1.0  0.03599  0.15144  0.48634  1.0000
  C   C14       1.0  0.09986  0.07697  0.07786  1.0000
  H   H11       1.0  0.03458  0.48361  0.03084  1.0000
  H   H12       1.0  0.19785  0.46512  0.51573  1.0000
  Fe  Fe2       1.0  0.03242  0.06713  0.22414  1.0000
  H   H13       1.0  0.11558  0.19861  0.06181  1.0000
  N   N1        1.0  0.09549  0.11877  0.04824  1.0000
  C   C15       1.0  0.07395  0.21666  0.29073  1.0000
  H   H14       1.0  0.00471  0.27781  0.22979  1.0000
  H   H15       1.0  0.20012  0.48696  0.04687  1.0000
  C   C16       1.0  0.00129  0.52524  0.46363  1.0000
  C   C17       1.0  0.27898  0.52076  0.46503  1.0000
  H   H16       1.0  0.00807  0.26847  0.15754  1.0000
  H   H17       1.0  0.08925  0.31096  0.25376  1.0000
  H   H18       1.0  0.05390  0.33309  0.31528  1.0000
  H   H19       1.0  0.03865  0.20595  0.25380  1.0000
  H   H20       1.0  0.07730  0.24375  0.31419  1.0000
  H   H21       1.0  0.07326  0.12772  0.28044  1.0000
  H   H22       1.0  0.09793  0.22230  0.26522  1.0000
  H   H23       1.0  0.21682  0.17959  0.03915  1.0000
  C   C18       1.0  0.22678  0.50272  0.03140  1.0000
  C   C19       1.0  0.06443  0.31302  0.24359  1.0000
  H   H24       1.0  0.12180  0.38417  0.20673  1.0000
  S   S3        1.0  0.12277  0.44534  0.02907  1.0000
  H   H25       1.0  0.03887  0.38115  0.21937  1.0000
  H   H26       1.0  0.30711  0.50942  0.45259  1.0000
  H   H27       1.0  0.18148  0.23034  0.05420  1.0000
  H   H28       1.0  0.05075  0.14756  0.32954  1.0000
  Fe  Fe3       1.0  0.32602  0.38935  0.49234  1.0000
  H   H29       1.0  0.07066  0.22666  0.03307  1.0000
  H   H30       1.0  0.01566  0.21226  0.30340  1.0000
  H   H31       1.0  0.01589  0.18151  0.19118  1.0000
  H   H32       1.0  0.03645  0.11506  0.06875  1.0000
  C   C20       1.0  0.06289  0.37386  0.23012  1.0000
  H   H33       1.0  0.09500  0.43244  0.18805  1.0000
  H   H34       1.0  0.31368  0.16877  0.49721  1.0000
  H   H35       1.0  0.05702  0.16375  0.09311  1.0000
  H   H36       1.0  0.03636  0.05415  0.51472  1.0000
  H   H37       1.0  0.03325  0.41849  0.35187  1.0000
  C   C21       1.0  0.04591  0.16862  0.51003  1.0000
  H   H38       1.0  0.00927  0.40286  0.29492  1.0000
  C   C22       1.0  0.02684  0.32087  0.31189  1.0000
  H   H39       1.0  0.04491  0.04715  0.10861  1.0000
  H   H40       1.0  0.06261  0.40265  0.25394  1.0000
  H   H41       1.0  0.15909  0.13741  0.07841  1.0000
  C   C23       1.0  0.04974  0.19312  0.03894  1.0000
  N   N2        1.0  0.03159  0.29104  0.27411  1.0000
  H   H42       1.0  0.02818  0.41873  0.49676  1.0000
  C   C24       1.0  0.16219  0.14667  0.04753  1.0000
  S   S4        1.0  0.01059  0.04958  0.28784  1.0000
  S   S5        1.0  0.26798  0.41241  0.49308  1.0000
  H   H43       1.0  0.17354  0.10951  0.03073  1.0000
  H   H44       1.0  0.00641  0.25025  0.03871  1.0000
  H   H45       1.0  0.07606  0.17261  0.50023  1.0000
  C   C25       1.0  0.01549  0.34781  0.46726  1.0000
  C   C26       1.0  0.00887  0.38298  0.50350  1.0000
  H   H46       1.0  0.04371  0.33157  0.45877  1.0000
  C   C27       1.0  0.01303  0.21931  0.05852  1.0000
  C   C28       1.0  0.12484  0.16344  0.04179  1.0000
  H   H47       1.0  0.01477  0.29244  0.33671  1.0000
  H   H48       1.0  0.01414  0.24100  0.08511  1.0000
  H   H49       1.0  0.01260  0.50763  0.43541  1.0000
  C   C29       1.0  0.00493  0.40373  0.35526  1.0000
  C   C30       1.0  0.32949  0.15320  0.51654  1.0000
  C   C31       1.0  0.00225  0.37310  0.31927  1.0000
  H   H50       1.0  0.21776  0.44799  0.89152  1.0000
  Fe  Fe4       1.0  0.16824  0.39433  0.99276  1.0000
  S   S6        1.0  0.22794  0.42078  0.97716  1.0000
  Fe  Fe5       1.0  0.11516  0.31146  0.97058  1.0000
  H   H51       1.0  0.23789  0.48097  0.63589  1.0000
  S   S7        1.0  0.10695  0.22772  0.94520  1.0000
  C   C32       1.0  0.02057  0.51428  0.01839  1.0000
  C   C33       1.0  0.28074  0.49858  0.97735  1.0000
  S   S8        1.0  0.14490  0.38794  0.94233  1.0000
  C   C34       1.0  0.11132  0.09281  0.62117  1.0000
  H   H52       1.0  0.01462  0.45400  0.60252  1.0000
  H   H53       1.0  0.04672  0.40543  0.93115  1.0000
  S   S9        1.0  0.04238  0.11839  0.71389  1.0000
  C   C35       1.0  0.08746  0.22292  0.90637  1.0000
  C   C36       1.0  0.08086  0.27043  0.88713  1.0000
  C   C37       1.0  0.06558  0.26558  0.85617  1.0000
  C   C38       1.0  0.05677  0.21326  0.84408  1.0000
  C   C39       1.0  0.06338  0.16558  0.86331  1.0000
  C   C40       1.0  0.07864  0.17046  0.89440  1.0000
  H   H54       1.0  0.08824  0.31079  0.89569  1.0000
  H   H55       1.0  0.04374  0.09057  0.61528  1.0000
  H   H56       1.0  0.05704  0.12508  0.85399  1.0000
  H   H57       1.0  0.08397  0.13348  0.90894  1.0000
  H   H58       1.0  0.06100  0.30252  0.84107  1.0000
  H   H59       1.0  0.24041  0.43212  0.59765  1.0000
  C   C41       1.0  0.24595  0.47792  0.99687  1.0000
  H   H60       1.0  0.19433  0.20543  0.00504  1.0000
  H   H61       1.0  0.00998  0.46204  0.55571  1.0000
  S   S10       1.0  0.07928  0.51121  0.95444  1.0000
  H   H62       1.0  0.09770  0.13363  0.62790  1.0000
  H   H63       1.0  0.07431  0.41291  0.53188  1.0000
  C   C42       1.0  0.03404  0.13129  0.54575  1.0000
  H   H64       1.0  0.16323  0.50339  0.92438  1.0000
  H   H65       1.0  0.00383  0.13119  0.55509  1.0000
  C   C43       1.0  0.01517  0.34133  0.60635  1.0000
  H   H66       1.0  0.28309  0.49136  0.55134  1.0000
  C   C44       1.0  0.06378  0.43694  0.55863  1.0000
  C   C45       1.0  0.25578  0.46442  0.60859  1.0000
  H   H67       1.0  0.12997  0.18231  0.01254  1.0000
  S   S11       1.0  0.03729  0.21039  0.80514  1.0000
  H   H68       1.0  0.03577  0.25195  0.64447  1.0000
  H   H69       1.0  0.06464  0.48024  0.88025  1.0000
  S   S12       1.0  0.06642  0.35886  0.00385  1.0000
  H   H70       1.0  0.12239  0.06035  0.93399  1.0000
  N   N3        1.0  0.00481  0.37696  0.57639  1.0000
  Fe  Fe6       1.0  0.09847  0.43571  0.97998  1.0000
  H   H71       1.0  0.06655  0.30917  0.64512  1.0000
  H   H72       1.0  0.07044  0.06708  0.01368  1.0000
  H   H73       1.0  0.04351  0.26974  0.57466  1.0000
  H   H74       1.0  0.09538  0.12404  0.98861  1.0000
  C   C46       1.0  0.01438  0.34844  0.53777  1.0000
  H   H75       1.0  0.18545  0.45300  0.86378  1.0000
  C   C47       1.0  0.07710  0.49692  0.54971  1.0000
  H   H76       1.0  0.10785  0.09080  0.56347  1.0000
  H   H77       1.0  0.08261  0.24897  0.61612  1.0000
  H   H78       1.0  0.01895  0.36773  0.63013  1.0000
  C   C48       1.0  0.09576  0.09181  0.01062  1.0000
  C   C49       1.0  0.09930  0.06374  0.58930  1.0000
  C   C50       1.0  0.02174  0.43412  0.57376  1.0000
  C   C51       1.0  0.05903  0.27702  0.62676  1.0000
  H   H79       1.0  0.29578  0.47964  0.95065  1.0000
  H   H80       1.0  0.27990  0.44453  0.61428  1.0000
  H   H81       1.0  0.07333  0.32762  0.57560  1.0000
  C   C52       1.0  0.06151  0.43599  0.87315  1.0000
  C   C53       1.0  0.05776  0.05245  0.60167  1.0000
  H   H82       1.0  0.14124  0.09992  0.61175  1.0000
  H   H83       1.0  0.07596  0.42055  0.58091  1.0000
  S   S13       1.0  0.14292  0.31243  0.01784  1.0000
  C   C54       1.0  0.04923  0.30397  0.59267  1.0000
  C   C55       1.0  0.20505  0.47698  0.87512  1.0000
  H   H84       1.0  0.10473  0.06669  0.64764  1.0000
  H   H85       1.0  0.15400  0.08047  0.98337  1.0000
  H   H86       1.0  0.08857  0.41588  0.86718  1.0000
  H   H87       1.0  0.04422  0.15054  0.56854  1.0000
  H   H88       1.0  0.04776  0.17651  0.01109  1.0000
  H   H89       1.0  0.05217  0.43367  0.84680  1.0000
  H   H90       1.0  0.10736  0.49815  0.54013  1.0000
  H   H91       1.0  0.22457  0.52725  0.93389  1.0000
  Fe  Fe7       1.0  0.01999  0.13435  0.77719  1.0000
  C   C56       1.0  0.04859  0.07133  0.53686  1.0000
  C   C57       1.0  0.26746  0.51081  0.57856  1.0000
  C   C58       1.0  0.03457  0.40601  0.90670  1.0000
  H   H92       1.0  0.03185  0.36282  0.89767  1.0000
  H   H93       1.0  0.04335  0.33609  0.52847  1.0000
  C   C59       1.0  0.12880  0.05486  0.99192  1.0000
  H   H94       1.0  0.22650  0.49461  0.85040  1.0000
  S   S14       1.0  0.01859  0.04334  0.79224  1.0000
  C   C60       1.0  0.18501  0.52322  0.90123  1.0000
  H   H95       1.0  0.06701  0.51449  0.52618  1.0000
  H   H96       1.0  0.32634  0.18312  0.54047  1.0000
  H   H97       1.0  0.06763  0.52332  0.57561  1.0000
  H   H98       1.0  0.31806  0.11224  0.52849  1.0000
  H   H99       1.0  0.07808  0.07517  0.52208  1.0000
  H   H100      1.0  0.00128  0.47625  0.93073  1.0000
  H   H101      1.0  0.00172  0.36748  0.97693  1.0000
  H   H102      1.0  0.24231  0.52870  0.57414  1.0000
  N   N4        1.0  0.04135  0.03182  0.57083  1.0000
  Fe  Fe8       1.0  0.16114  0.69177  0.48362  1.0000
  H   H103      1.0  0.03126  0.81863  0.44569  1.0000
  Fe  Fe9       1.0  0.11612  0.77766  0.45255  1.0000
  S   S15       1.0  0.06365  0.74037  0.48800  1.0000
  S   S16       1.0  0.11297  0.85853  0.42053  1.0000
  Fe  Fe10      1.0  0.08973  0.65818  0.47101  1.0000
  S   S17       1.0  0.06316  0.58838  0.44766  1.0000
  C   C61       1.0  0.08319  0.98336  0.11072  1.0000
  S   S18       1.0  0.14052  0.69511  0.43122  1.0000
  H   H104      1.0  0.02430  0.73856  0.09246  1.0000
  S   S19       1.0  0.03473  0.97681  0.20926  1.0000
  S   S20       1.0  0.29651  0.62301  0.04728  1.0000
  H   H105      1.0  0.02831  0.89631  0.48919  1.0000
  S   S21       1.0  0.14183  0.77894  0.50156  1.0000
  C   C62       1.0  0.26139  0.72249  0.21127  1.0000
  H   H106      1.0  0.02685  0.74946  0.40816  1.0000
  C   C63       1.0  0.24199  0.68368  0.24435  1.0000
  C   C64       1.0  0.08889  0.86428  0.38540  1.0000
  C   C65       1.0  0.07760  0.91687  0.37632  1.0000
  C   C66       1.0  0.05760  0.92264  0.34920  1.0000
  C   C67       1.0  0.04894  0.87579  0.33075  1.0000
  C   C68       1.0  0.06080  0.82336  0.33937  1.0000
  C   C69       1.0  0.08067  0.81760  0.36654  1.0000
  H   H107      1.0  0.08408  0.95325  0.39058  1.0000
  H   H108      1.0  0.04864  0.96321  0.34283  1.0000
  C   C70       1.0  0.02908  0.56754  0.12124  1.0000
  H   H109      1.0  0.08982  0.77709  0.37278  1.0000
  C   C71       1.0  0.26760  0.57563  0.46134  1.0000
  Fe  Fe11      1.0  0.00755  0.95980  0.27166  1.0000
  C   C72       1.0  0.31647  0.82897  0.21629  1.0000
  H   H110      1.0  0.05696  0.55949  0.12352  1.0000
  H   H111      1.0  0.28723  0.60644  0.44628  1.0000
  C   C73       1.0  0.00184  0.72351  0.41698  1.0000
  N   N5        1.0  0.32641  0.74777  0.16716  1.0000
  C   C74       1.0  0.00214  0.69972  0.04985  1.0000
  H   H112      1.0  0.25751  0.76554  0.22196  1.0000
  S   S22       1.0  0.21932  0.66238  0.47686  1.0000
  H   H113      1.0  0.06425  0.01197  0.06379  1.0000
  C   C75       1.0  0.29433  0.74091  0.11315  1.0000
  C   C76       1.0  0.00610  0.86468  0.49647  1.0000
  H   H114      1.0  0.01707  0.66027  0.04958  1.0000
  C   C77       1.0  0.20593  0.55066  0.49648  1.0000
  H   H115      1.0  0.28258  0.80003  0.15982  1.0000
  H   H116      1.0  0.04131  0.65162  0.10222  1.0000
  H   H117      1.0  0.00387  0.71814  0.35587  1.0000
  H   H118      1.0  0.00691  0.69475  0.43913  1.0000
  H   H119      1.0  0.05859  0.66905  0.36823  1.0000
  H   H120      1.0  0.24727  0.71849  0.18849  1.0000
  H   H121      1.0  0.05452  0.78698  0.32499  1.0000
  C   C78       1.0  0.30225  0.70719  0.19519  1.0000
  C   C79       1.0  0.07047  0.03039  0.08919  1.0000
  C   C80       1.0  0.23112  0.59112  0.47740  1.0000
  H   H122      1.0  0.00511  0.72980  0.15966  1.0000
  H   H123      1.0  0.01214  0.83438  0.51709  1.0000
  H   H124      1.0  0.31815  0.73079  0.08856  1.0000
  C   C81       1.0  0.30674  0.77780  0.14225  1.0000
  C   C82       1.0  0.00088  0.68975  0.38087  1.0000
  C   C83       1.0  0.26684  0.77079  0.09671  1.0000
  H   H125      1.0  0.21272  0.69472  0.25469  1.0000
  H   H126      1.0  0.02529  0.64257  0.15352  1.0000
  H   H127      1.0  0.17780  0.56192  0.50907  1.0000
  C   C84       1.0  0.02061  0.56656  0.47691  1.0000
  H   H128      1.0  0.30237  0.66561  0.18174  1.0000
  H   H129      1.0  0.25402  0.68776  0.26881  1.0000
  H   H130      1.0  0.02730  0.61412  0.39135  1.0000
  H   H131      1.0  0.22783  0.56545  0.07350  1.0000
  H   H132      1.0  0.31344  0.69983  0.22007  1.0000
  C   C85       1.0  0.03210  0.64841  0.36988  1.0000
  H   H133      1.0  0.24160  0.77981  0.11985  1.0000
  H   H134      1.0  0.31288  0.55765  0.51318  1.0000
  H   H135      1.0  0.28200  0.70119  0.12649  1.0000
  H   H136      1.0  0.02771  0.55318  0.09262  1.0000
  S   S23       1.0  0.02173  0.87995  0.29845  1.0000
  H   H137      1.0  0.25966  0.74387  0.07506  1.0000
  C   C86       1.0  0.27742  0.56769  0.02695  1.0000
  H   H138      1.0  0.24398  0.63980  0.23466  1.0000
  C   C87       1.0  0.24258  0.54713  0.04647  1.0000
  H   H139      1.0  0.32256  0.65342  0.48780  1.0000
  H   H140      1.0  0.06089  0.95234  0.12096  1.0000
  H   H141      1.0  0.31796  0.89983  0.25273  1.0000
  H   H142      1.0  0.13826  0.55915  0.05805  1.0000
  H   H143      1.0  0.00937  0.54313  0.14405  1.0000
  H   H144      1.0  0.10704  0.96208  0.09152  1.0000
  C   C88       1.0  0.00408  0.83587  0.45962  1.0000
  H   H145      1.0  0.09085  0.99991  0.13599  1.0000
  H   H146      1.0  0.11230  0.62205  0.06881  1.0000
  H   H147      1.0  0.27876  0.81022  0.08232  1.0000
  H   H148      1.0  0.10161  0.57235  0.03645  1.0000
  H   H149      1.0  0.30110  0.80487  0.24203  1.0000
  H   H150      1.0  0.03358  0.63017  0.34141  1.0000
  C   C89       1.0  0.12415  0.59168  0.04584  1.0000
  H   H151      1.0  0.29715  0.84956  0.20299  1.0000
  H   H152      1.0  0.32458  0.81117  0.12510  1.0000
  C   C90       1.0  0.00599  0.58941  0.51331  1.0000
  H   H153      1.0  0.08316  0.98168  0.49620  1.0000
  C   C91       1.0  0.02099  0.62963  0.12573  1.0000
  H   H154      1.0  0.08354  0.88115  0.51561  1.0000
  H   H155      1.0  0.17246  0.64048  0.02331  1.0000
  H   H156      1.0  0.12816  0.90912  0.49246  1.0000
  H   H157      1.0  0.27715  0.72180  0.94359  1.0000
  C   C92       1.0  0.26323  0.63809  0.92926  1.0000
  S   S24       1.0  0.05164  0.76860  0.59241  1.0000
  H   H158      1.0  0.14870  0.00215  0.94212  1.0000
  H   H159      1.0  0.09986  0.00088  0.96188  1.0000
  S   S25       1.0  0.07861  0.96723  0.69643  1.0000
  H   H160      1.0  0.27637  0.59669  0.92665  1.0000
  C   C93       1.0  0.21157  0.55685  0.91808  1.0000
  C   C94       1.0  0.19813  0.67087  0.88630  1.0000
  H   H161      1.0  0.04707  0.75194  0.75214  1.0000
  C   C95       1.0  0.05995  0.82742  0.61788  1.0000
  C   C96       1.0  0.03018  0.85502  0.64230  1.0000
  C   C97       1.0  0.03556  0.89929  0.66539  1.0000
  C   C98       1.0  0.07080  0.91579  0.66481  1.0000
  C   C99       1.0  0.10061  0.88875  0.63995  1.0000
  C   C100      1.0  0.09524  0.84494  0.61640  1.0000
  H   H162      1.0  0.21472  0.70960  0.56259  1.0000
  C   C101      1.0  0.01881  0.57576  0.96577  1.0000
  H   H163      1.0  0.12800  0.90111  0.63938  1.0000
  H   H164      1.0  0.11841  0.82370  0.59795  1.0000
  H   H165      1.0  0.15356  0.67474  0.85972  1.0000
  H   H166      1.0  0.02652  0.65802  0.66047  1.0000
  H   H167      1.0  0.27771  0.67122  0.54032  1.0000
  C   C102      1.0  0.17560  0.64466  0.92479  1.0000
  H   H168      1.0  0.17990  0.54528  0.99116  1.0000
  H   H169      1.0  0.06646  0.87179  0.76887  1.0000
  H   H170      1.0  0.19058  0.72264  0.83989  1.0000
  C   C103      1.0  0.00571  0.81853  0.75862  1.0000
  C   C104      1.0  0.28729  0.67866  0.94353  1.0000
  H   H171      1.0  0.18436  0.68491  0.60733  1.0000
  H   H172      1.0  0.17225  0.55017  0.88380  1.0000
  H   H173      1.0  0.13195  0.02090  0.01152  1.0000
  H   H174      1.0  0.03225  0.74004  0.69700  1.0000
  H   H175      1.0  0.14413  0.56183  0.97078  1.0000
  C   C105      1.0  0.03698  0.53583  0.98166  1.0000
  C   C106      1.0  0.16764  0.58022  0.97888  1.0000
  Fe  Fe12      1.0  0.08997  0.73821  0.53615  1.0000
  H   H176      1.0  0.03156  0.59262  0.93737  1.0000
  H   H177      1.0  0.00984  0.77479  0.01450  1.0000
  H   H178      1.0  0.13593  0.65481  0.00234  1.0000
  H   H179      1.0  0.22790  0.61173  0.61198  1.0000
  H   H180      1.0  0.09586  0.81228  0.76327  1.0000
  H   H181      1.0  0.21255  0.63915  0.86566  1.0000
  H   H182      1.0  0.31541  0.67732  0.92408  1.0000
  H   H183      1.0  0.21818  0.70100  0.89172  1.0000
  H   H184      1.0  0.16512  0.68027  0.94397  1.0000
  H   H185      1.0  0.30338  0.65544  0.61419  1.0000
  H   H186      1.0  0.01059  0.68460  0.72969  1.0000
  H   H187      1.0  0.23391  0.57096  0.89303  1.0000
  H   H188      1.0  0.01245  0.91924  0.68473  1.0000
  H   H189      1.0  0.05312  0.02186  0.62571  1.0000
  H   H190      1.0  0.28822  0.66727  0.97298  1.0000
  H   H191      1.0  0.08096  0.83670  0.72314  1.0000
  N   N6        1.0  0.19527  0.60456  0.94399  1.0000
  C   C107      1.0  0.29628  0.54353  0.99209  1.0000
  H   H192      1.0  0.11190  0.99826  0.52616  1.0000
  H   H193      1.0  0.21551  0.67689  0.96735  1.0000
  C   C108      1.0  0.22441  0.63411  0.95766  1.0000
  H   H194      1.0  0.05969  0.95004  0.58242  1.0000
  H   H195      1.0  0.02656  0.71217  0.98867  1.0000
  C   C109      1.0  0.17368  0.70309  0.86695  1.0000
  H   H196      1.0  0.15900  0.73644  0.88610  1.0000
  C   C110      1.0  0.07264  0.83063  0.75487  1.0000
  C   C111      1.0  0.03953  0.79183  0.76709  1.0000
  C   C112      1.0  0.26954  0.63231  0.55741  1.0000
  H   H197      1.0  0.05167  0.74378  0.01858  1.0000
  C   C113      1.0  0.15107  0.62128  0.01209  1.0000
  H   H198      1.0  0.15085  0.62449  0.92020  1.0000
  H   H199      1.0  0.32306  0.55897  0.97676  1.0000
  H   H200      1.0  0.03388  0.78389  0.79851  1.0000
  C   C114      1.0  0.32736  0.58633  0.52765  1.0000
  C   C115      1.0  0.29119  0.55516  0.59145  1.0000
  C   C116      1.0  0.05506  0.97422  0.55785  1.0000
  H   H201      1.0  0.26314  0.65170  0.90010  1.0000
  H   H202      1.0  0.02987  0.86890  0.95181  1.0000
  H   H203      1.0  0.11409  0.02377  0.58372  1.0000
  H   H204      1.0  0.00282  0.84180  0.64350  1.0000
  S   S26       1.0  0.11107  0.65089  0.52257  1.0000
  C   C117      1.0  0.23827  0.64829  0.59326  1.0000
  H   H205      1.0  0.24772  0.68015  0.61039  1.0000
  H   H206      1.0  0.22851  0.61253  0.98345  1.0000
  C   C118      1.0  0.20611  0.67243  0.58140  1.0000
  C   C119      1.0  0.00692  0.71492  0.70801  1.0000
  C   C120      1.0  0.00145  0.68167  0.67418  1.0000
  H   H207      1.0  0.01449  0.83798  0.72956  1.0000
  H   H208      1.0  0.31579  0.53286  0.59408  1.0000
  N   N7        1.0  0.30218  0.60522  0.56530  1.0000
  H   H209      1.0  0.19458  0.64099  0.56561  1.0000
  C   C121      1.0  0.02396  0.73499  0.01589  1.0000
  H   H210      1.0  0.03405  0.95022  0.54853  1.0000
  H   H211      1.0  0.25796  0.60538  0.53893  1.0000
  H   H212      1.0  0.02085  0.62137  0.52363  1.0000
  Fe  Fe13      1.0  0.03507  0.02743  0.72818  1.0000
  H   H213      1.0  0.11421  0.89930  0.54381  1.0000
  H   H214      1.0  0.27672  0.56805  0.62125  1.0000
  C   C122      1.0  0.00433  0.85499  0.94572  1.0000
  C   C123      1.0  0.08980  0.97031  0.52326  1.0000
  C   C124      1.0  0.32080  0.64678  0.58462  1.0000
  H   H215      1.0  0.00582  0.96466  0.94467  1.0000
  C   C125      1.0  0.12450  0.02797  0.95528  1.0000
  H   H216      1.0  0.32399  0.68762  0.56936  1.0000
  H   H217      1.0  0.00822  0.85610  0.91417  1.0000
  C   C126      1.0  0.10466  0.91131  0.51866  1.0000
  C   C127      1.0  0.42554  0.08127  0.13782  1.0000
  S   S27       1.0  0.37753  0.42597  0.45323  1.0000
  Fe  Fe14      1.0  0.40010  0.33899  0.45133  1.0000
  S   S28       1.0  0.44027  0.30096  0.39932  1.0000
  C   C128      1.0  0.51461  0.51462  0.44899  1.0000
  C   C129      1.0  0.36957  0.14795  0.49393  1.0000
  H   H218      1.0  0.36646  0.35776  0.33630  1.0000
  C   C130      1.0  0.44685  0.17841  0.48418  1.0000
  H   H219      1.0  0.38918  0.29385  0.28099  1.0000
  C   C131      1.0  0.43573  0.23176  0.38509  1.0000
  C   C132      1.0  0.46599  0.20586  0.36029  1.0000
  C   C133      1.0  0.46322  0.15162  0.34709  1.0000
  C   C134      1.0  0.43007  0.12273  0.35851  1.0000
  C   C135      1.0  0.39994  0.14818  0.38397  1.0000
  C   C136      1.0  0.40268  0.20260  0.39709  1.0000
  H   H220      1.0  0.49175  0.22788  0.35126  1.0000
  H   H221      1.0  0.48679  0.13210  0.32820  1.0000
  H   H222      1.0  0.37418  0.12609  0.39303  1.0000
  H   H223      1.0  0.37903  0.22234  0.41582  1.0000
  H   H224      1.0  0.46526  0.34011  0.28059  1.0000
  H   H225      1.0  0.43048  0.21242  0.50147  1.0000
  C   C137      1.0  0.48707  0.19408  0.48117  1.0000
  H   H226      1.0  0.46601  0.49409  0.04844  1.0000
  H   H227      1.0  0.45704  0.15915  0.25359  1.0000
  H   H228      1.0  0.45295  0.21492  0.20042  1.0000
  S   S29       1.0  0.51087  0.13082  0.17100  1.0000
  C   C138      1.0  0.59834  0.18192  0.06124  1.0000
  C   C139      1.0  0.56749  0.21443  0.07570  1.0000
  C   C140      1.0  0.54086  0.19766  0.10922  1.0000
  C   C141      1.0  0.54512  0.14893  0.12889  1.0000
  C   C142      1.0  0.57590  0.11618  0.11447  1.0000
  C   C143      1.0  0.60239  0.13256  0.08053  1.0000
  H   H229      1.0  0.56400  0.25225  0.06085  1.0000
  H   H230      1.0  0.51683  0.22255  0.11987  1.0000
  H   H231      1.0  0.57932  0.07846  0.12945  1.0000
  H   H232      1.0  0.62620  0.10721  0.06930  1.0000
  H   H233      1.0  0.42678  0.09119  0.44780  1.0000
  N   N8        1.0  0.43317  0.12217  0.50155  1.0000
  H   H234      1.0  0.46779  0.45981  0.46346  1.0000
  H   H235      1.0  0.39789  0.11175  0.27359  1.0000
  C   C144      1.0  0.47532  0.36618  0.13977  1.0000
  H   H236      1.0  0.55234  0.18120  0.22720  1.0000
  H   H237      1.0  0.57184  0.24735  0.23504  1.0000
  H   H238      1.0  0.47349  0.36689  0.21557  1.0000
  H   H239      1.0  0.49348  0.08905  0.09216  1.0000
  C   C145      1.0  0.47888  0.49927  0.46915  1.0000
  H   H240      1.0  0.41304  0.24878  0.22619  1.0000
  H   H241      1.0  0.48256  0.27961  0.46283  1.0000
  H   H242      1.0  0.50797  0.30755  0.15941  1.0000
  H   H243      1.0  0.41636  0.11911  0.12564  1.0000
  H   H244      1.0  0.41249  0.36890  0.33854  1.0000
  H   H245      1.0  0.50605  0.15947  0.47089  1.0000
  Fe  Fe15      1.0  0.51066  0.05467  0.20809  1.0000
  H   H246      1.0  0.48922  0.40326  0.14741  1.0000
  H   H247      1.0  0.44490  0.09339  0.15420  1.0000
  H   H248      1.0  0.40939  0.13001  0.22317  1.0000
  S   S30       1.0  0.53455  0.43704  0.03139  1.0000
  H   H249      1.0  0.44629  0.37601  0.14299  1.0000
  H   H250      1.0  0.51985  0.30342  0.22043  1.0000
  S   S31       1.0  0.34716  0.30123  0.48608  1.0000
  H   H251      1.0  0.39169  0.30048  0.34749  1.0000
  H   H252      1.0  0.40590  0.36422  0.27103  1.0000
  H   H253      1.0  0.49201  0.10093  0.43102  1.0000
  H   H254      1.0  0.55930  0.19625  0.27329  1.0000
  H   H255      1.0  0.55692  0.36338  0.48286  1.0000
  C   C146      1.0  0.52829  0.36658  0.50091  1.0000
  C   C147      1.0  0.47932  0.06499  0.44937  1.0000
  H   H256      1.0  0.46452  0.10160  0.06240  1.0000
  H   H257      1.0  0.50038  0.23179  0.42400  1.0000
  C   C148      1.0  0.39395  0.33904  0.32997  1.0000
  H   H258      1.0  0.51373  0.27074  0.28440  1.0000
  C   C149      1.0  0.47645  0.06766  0.07600  1.0000
  S   S32       1.0  0.52287  0.05802  0.26544  1.0000
  H   H259      1.0  0.37597  0.16989  0.25826  1.0000
  H   H260      1.0  0.43172  0.33929  0.21072  1.0000
  H   H261      1.0  0.48857  0.35650  0.10906  1.0000
  H   H262      1.0  0.49471  0.20531  0.27630  1.0000
  H   H263      1.0  0.42363  0.19897  0.28842  1.0000
  H   H264      1.0  0.51000  0.23785  0.20358  1.0000
  H   H265      1.0  0.46516  0.28042  0.15540  1.0000
  H   H266      1.0  0.44961  0.27388  0.29858  1.0000
  N   N9        1.0  0.46227  0.28210  0.23620  1.0000
  C   C150      1.0  0.44777  0.30480  0.27639  1.0000
  C   C151      1.0  0.50184  0.26609  0.22870  1.0000
  C   C152      1.0  0.46049  0.32840  0.20832  1.0000
  C   C153      1.0  0.43972  0.23386  0.22880  1.0000
  C   C154      1.0  0.43231  0.18501  0.25819  1.0000
  C   C155      1.0  0.40785  0.32558  0.28720  1.0000
  C   C156      1.0  0.47851  0.31638  0.16503  1.0000
  C   C157      1.0  0.51341  0.23900  0.26232  1.0000
  C   C158      1.0  0.55161  0.21459  0.24848  1.0000
  C   C159      1.0  0.40201  0.14699  0.25278  1.0000
  H   H267      1.0  0.37915  0.18947  0.48184  1.0000
  C   C160      1.0  0.50033  0.24309  0.45370  1.0000
  C   C161      1.0  0.43931  0.07836  0.47076  1.0000
  S   S33       1.0  0.42238  0.35176  0.50196  1.0000
  H   H268      1.0  0.53095  0.48715  0.42754  1.0000
  H   H269      1.0  0.51136  0.38090  0.48232  1.0000
  H   H270      1.0  0.56370  0.10295  0.02312  1.0000
  H   H271      1.0  0.65271  0.05349  0.47368  1.0000
  C   C162      1.0  0.44344  0.04073  0.10592  1.0000
  H   H272      1.0  0.40153  0.06099  0.15814  1.0000
  H   H273      1.0  0.52305  0.14394  0.03867  1.0000
  H   H274      1.0  0.52853  0.25476  0.45340  1.0000
  H   H275      1.0  0.44271  0.18258  0.45504  1.0000
  S   S34       1.0  0.42558  0.05466  0.34211  1.0000
  H   H276      1.0  0.42502  0.03900  0.48264  1.0000
  H   H277      1.0  0.37079  0.11918  0.46982  1.0000
  C   C163      1.0  0.48502  0.51597  0.02499  1.0000
  S   S35       1.0  0.63132  0.36742  0.02076  1.0000
  Fe  Fe16      1.0  0.39473  0.43415  0.50730  1.0000
  H   H278      1.0  0.51875  0.32473  0.51279  1.0000
  H   H279      1.0  0.49538  0.05450  0.46956  1.0000
  H   H280      1.0  0.54525  0.03938  0.06960  1.0000
  H   H281      1.0  0.49850  0.32774  0.02638  1.0000
  H   H282      1.0  0.45828  0.28459  0.03872  1.0000
  H   H283      1.0  0.48934  0.20613  0.51001  1.0000
  H   H284      1.0  0.66205  0.31594  0.74516  1.0000
  S   S36       1.0  0.36295  0.25673  0.58565  1.0000
  Fe  Fe17      1.0  0.58598  0.39524  0.99649  1.0000
  H   H285      1.0  0.48055  0.10442  0.52167  1.0000
  S   S37       1.0  0.45625  0.11404  0.75897  1.0000
  Fe  Fe18      1.0  0.49029  0.11605  0.69695  1.0000
  S   S38       1.0  0.49407  0.18114  0.64992  1.0000
  H   H286      1.0  0.37546  0.41525  0.66691  1.0000
  H   H287      1.0  0.40449  0.42579  0.93053  1.0000
  C   C164      1.0  0.39991  0.23500  0.60246  1.0000
  C   C165      1.0  0.39321  0.19901  0.63442  1.0000
  C   C166      1.0  0.42183  0.18130  0.64897  1.0000
  C   C167      1.0  0.45746  0.19933  0.63147  1.0000
  C   C168      1.0  0.46434  0.23388  0.59873  1.0000
  C   C169      1.0  0.43570  0.25200  0.58441  1.0000
  H   H288      1.0  0.36562  0.18535  0.64840  1.0000
  H   H289      1.0  0.41619  0.15447  0.67408  1.0000
  H   H290      1.0  0.49199  0.24674  0.58447  1.0000
  H   H291      1.0  0.44131  0.27891  0.55945  1.0000
  Fe  Fe19      1.0  0.61764  0.33976  0.91965  1.0000
  S   S39       1.0  0.57730  0.31105  0.97392  1.0000
  S   S40       1.0  0.60976  0.32812  0.86042  1.0000
  H   H292      1.0  0.53962  0.08818  0.62002  1.0000
  C   C170      1.0  0.43724  0.05293  0.55575  1.0000
  S   S41       1.0  0.62341  0.42629  0.94042  1.0000
  Fe  Fe20      1.0  0.50838  0.09377  0.77331  1.0000
  S   S42       1.0  0.52176  0.11800  0.82841  1.0000
  S   S43       1.0  0.54291  0.10307  0.71232  1.0000
  C   C171      1.0  0.58381  0.27107  0.85221  1.0000
  C   C172      1.0  0.57171  0.22960  0.88012  1.0000
  C   C173      1.0  0.55236  0.18341  0.87235  1.0000
  C   C174      1.0  0.54473  0.17837  0.83680  1.0000
  C   C175      1.0  0.55617  0.22038  0.80908  1.0000
  C   C176      1.0  0.57589  0.26646  0.81671  1.0000
  H   H293      1.0  0.57783  0.23257  0.90743  1.0000
  H   H294      1.0  0.54348  0.15109  0.89390  1.0000
  H   H295      1.0  0.54996  0.21720  0.78181  1.0000
  H   H296      1.0  0.58506  0.29857  0.79504  1.0000
  H   H297      1.0  0.53718  0.44799  0.51981  1.0000
  H   H298      1.0  0.53908  0.09936  0.57096  1.0000
  H   H299      1.0  0.50606  0.42418  0.86608  1.0000
  H   H300      1.0  0.43018  0.24660  0.89516  1.0000
  C   C177      1.0  0.44020  0.45438  0.61421  1.0000
  H   H301      1.0  0.54465  0.34515  0.64312  1.0000
  C   C178      1.0  0.62316  0.12567  0.74421  1.0000
  H   H302      1.0  0.42915  0.49086  0.60212  1.0000
  H   H303      1.0  0.49746  0.33573  0.60891  1.0000
  H   H304      1.0  0.49608  0.26645  0.99836  1.0000
  C   C179      1.0  0.45429  0.25975  0.87151  1.0000
  H   H305      1.0  0.43385  0.33711  0.92564  1.0000
  Fe  Fe21      1.0  0.36851  0.31869  0.53687  1.0000
  H   H306      1.0  0.55094  0.43877  0.92437  1.0000
  H   H307      1.0  0.44507  0.28161  0.84885  1.0000
  H   H308      1.0  0.65603  0.52425  0.88040  1.0000
  C   C180      1.0  0.52614  0.40771  0.53346  1.0000
  Fe  Fe22      1.0  0.62564  0.28566  0.99327  1.0000
  H   H309      1.0  0.45100  0.37322  0.88167  1.0000
  H   H310      1.0  0.40843  0.05658  0.57318  1.0000
  H   H311      1.0  0.46915  0.22184  0.85870  1.0000
  H   H312      1.0  0.36443  0.45282  0.62803  1.0000
  H   H313      1.0  0.40916  0.39793  0.97491  1.0000
  C   C181      1.0  0.41668  0.43333  0.95456  1.0000
  H   H314      1.0  0.50335  0.30721  0.86209  1.0000
  C   C182      1.0  0.48033  0.30167  0.01435  1.0000
  H   H315      1.0  0.44512  0.30864  0.97810  1.0000
  H   H316      1.0  0.38711  0.15342  0.54576  1.0000
  C   C183      1.0  0.53781  0.45493  0.90287  1.0000
  H   H317      1.0  0.56817  0.12590  0.95480  1.0000
  H   H318      1.0  0.40873  0.49302  0.00123  1.0000
  H   H319      1.0  0.53300  0.37358  0.88131  1.0000
  N   N10       1.0  0.48091  0.39002  0.92288  1.0000
  H   H320      1.0  0.50817  0.29961  0.66847  1.0000
  H   H321      1.0  0.46299  0.35815  0.65147  1.0000
  C   C184      1.0  0.64047  0.17930  0.72221  1.0000
  H   H322      1.0  0.42422  0.36488  0.61835  1.0000
  C   C185      1.0  0.52100  0.49723  0.01130  1.0000
  C   C186      1.0  0.61854  0.20004  0.69558  1.0000
  H   H323      1.0  0.46885  0.46078  0.96111  1.0000
  H   H324      1.0  0.49344  0.44863  0.64906  1.0000
  H   H325      1.0  0.41307  0.40262  0.58051  1.0000
  H   H326      1.0  0.63150  0.23825  0.68023  1.0000
  C   C187      1.0  0.56800  0.47552  0.86808  1.0000
  H   H327      1.0  0.56787  0.18673  0.98341  1.0000
  H   H328      1.0  0.62110  0.09536  0.72179  1.0000
  H   H329      1.0  0.46196  0.47328  0.91539  1.0000
  H   H330      1.0  0.51067  0.36914  0.68564  1.0000
  H   H331      1.0  0.64117  0.21343  0.74237  1.0000
  C   C188      1.0  0.45059  0.10748  0.53296  1.0000
  C   C189      1.0  0.45959  0.35087  0.90471  1.0000
  H   H332      1.0  0.35841  0.37847  0.63228  1.0000
  C   C190      1.0  0.47945  0.29721  0.88677  1.0000
  H   H333      1.0  0.66347  0.27851  0.78797  1.0000
  C   C191      1.0  0.51421  0.40885  0.89157  1.0000
  H   H334      1.0  0.48863  0.27270  0.90830  1.0000
  C   C192      1.0  0.37590  0.41380  0.63613  1.0000
  C   C193      1.0  0.49373  0.36186  0.95402  1.0000
  C   C194      1.0  0.41467  0.40536  0.61059  1.0000
  H   H335      1.0  0.50878  0.39188  0.96725  1.0000
  H   H336      1.0  0.57901  0.11774  0.58600  1.0000
  C   C195      1.0  0.45858  0.44097  0.93838  1.0000
  H   H337      1.0  0.47482  0.37166  0.56531  1.0000
  H   H338      1.0  0.51400  0.32925  0.94153  1.0000
  H   H339      1.0  0.53014  0.42912  0.60970  1.0000
  C   C196      1.0  0.54549  0.52607  0.98131  1.0000
  H   H340      1.0  0.49426  0.07991  0.99756  1.0000
  C   C197      1.0  0.61805  0.05608  0.79472  1.0000
  C   C198      1.0  0.45956  0.04026  0.58381  1.0000
  C   C199      1.0  0.66705  0.17597  0.85684  1.0000
  N   N11       1.0  0.48061  0.44832  0.59458  1.0000
  C   C200      1.0  0.51534  0.34337  0.65939  1.0000
  C   C201      1.0  0.50011  0.42453  0.62192  1.0000
  C   C202      1.0  0.49173  0.36318  0.63420  1.0000
  C   C203      1.0  0.49640  0.50551  0.58249  1.0000
  C   C204      1.0  0.55117  0.15103  0.97870  1.0000
  N   N12       1.0  0.64278  0.10031  0.77107  1.0000
  H   H341      1.0  0.44808  0.37005  0.00582  1.0000
  H   H342      1.0  0.38079  0.08475  0.53076  1.0000
  H   H343      1.0  0.52135  0.49157  0.91503  1.0000
  H   H344      1.0  0.61762  0.16814  0.67381  1.0000
  H   H345      1.0  0.44591  0.14163  0.55440  1.0000
  H   H346      1.0  0.58481  0.50728  0.87750  1.0000
  H   H347      1.0  0.62761  0.17682  0.80268  1.0000
  H   H348      1.0  0.43547  0.46342  0.64534  1.0000
  H   H349      1.0  0.48520  0.52220  0.55960  1.0000
  H   H350      1.0  0.52734  0.16746  0.97043  1.0000
  H   H351      1.0  0.55616  0.49479  0.84641  1.0000
  H   H352      1.0  0.47079  0.43277  0.53974  1.0000
  H   H353      1.0  0.59459  0.13570  0.76044  1.0000
  H   H354      1.0  0.52642  0.50371  0.56961  1.0000
  C   C205      1.0  0.39903  0.48543  0.97551  1.0000
  C   C206      1.0  0.51613  0.06503  0.01003  1.0000
  S   S44       1.0  0.34231  0.40247  0.54658  1.0000
  C   C207      1.0  0.64989  0.14573  0.79693  1.0000
  H   H355      1.0  0.59029  0.21025  0.71237  1.0000
  C   C208      1.0  0.48627  0.41416  0.55855  1.0000
  C   C209      1.0  0.55642  0.08715  0.58960  1.0000
  C   C210      1.0  0.46382  0.33631  0.98803  1.0000
  H   H356      1.0  0.45817  0.07530  0.60404  1.0000
  H   H357      1.0  0.40549  0.52242  0.95618  1.0000
  H   H358      1.0  0.54387  0.39219  0.55073  1.0000
  H   H359      1.0  0.58595  0.44085  0.85464  1.0000
  H   H360      1.0  0.59297  0.07577  0.81306  1.0000
  H   H361      1.0  0.36897  0.47983  0.98523  1.0000
  S   S45       1.0  0.41556  0.51288  0.52676  1.0000
  H   H362      1.0  0.66602  0.16396  0.88681  1.0000
  H   H363      1.0  0.57344  0.51298  0.97127  1.0000
  H   H364      1.0  0.66267  0.38150  0.79608  1.0000
  C   C211      1.0  0.53883  0.11637  0.01564  1.0000
  H   H365      1.0  0.62403  0.11853  0.85631  1.0000
  H   H366      1.0  0.61607  0.05792  0.53385  1.0000
  H   H367      1.0  0.53487  0.04003  0.98725  1.0000
  S   S46       1.0  0.66573  0.30814  0.93685  1.0000
  H   H368      1.0  0.63060  0.03572  0.81531  1.0000
  C   C212      1.0  0.65186  0.12861  0.83775  1.0000
  H   H369      1.0  0.65073  0.21421  0.85792  1.0000
  H   H370      1.0  0.48844  0.03272  0.56795  1.0000
  S   S47       1.0  0.63116  0.20076  0.01817  1.0000
  H   H371      1.0  0.57800  0.03674  0.51892  1.0000
  C   C213      1.0  0.39259  0.12612  0.52004  1.0000
  C   C214      1.0  0.61797  0.66573  0.34230  1.0000
  S   S48       1.0  0.61117  0.86074  0.42554  1.0000
  S   S49       1.0  0.38554  0.85430  0.06068  1.0000
  H   H372      1.0  0.38236  0.64240  0.44116  1.0000
  Fe  Fe23      1.0  0.47774  0.93764  0.22203  1.0000
  S   S50       1.0  0.46161  0.85978  0.19536  1.0000
  S   S51       1.0  0.48478  0.93318  0.28165  1.0000
  C   C215      1.0  0.40952  0.85718  0.09579  1.0000
  C   C216      1.0  0.40458  0.90305  0.12045  1.0000
  C   C217      1.0  0.42158  0.90532  0.15020  1.0000
  C   C218      1.0  0.44338  0.86149  0.15569  1.0000
  C   C219      1.0  0.44875  0.81598  0.13069  1.0000
  C   C220      1.0  0.43229  0.81414  0.10050  1.0000
  H   H373      1.0  0.38678  0.93629  0.11712  1.0000
  H   H374      1.0  0.41676  0.94000  0.16982  1.0000
  H   H375      1.0  0.46551  0.78180  0.13487  1.0000
  H   H376      1.0  0.43661  0.77889  0.08140  1.0000
  C   C221      1.0  0.56277  0.71446  0.33221  1.0000
  C   C222      1.0  0.55415  0.93322  0.09662  1.0000
  Fe  Fe24      1.0  0.61953  0.77578  0.44970  1.0000
  S   S52       1.0  0.56750  0.73203  0.47986  1.0000
  H   H377      1.0  0.63288  0.70541  0.34251  1.0000
  Fe  Fe25      1.0  0.59732  0.65350  0.45927  1.0000
  S   S53       1.0  0.57459  0.58250  0.43272  1.0000
  H   H378      1.0  0.50222  0.92863  0.08598  1.0000
  S   S54       1.0  0.53422  0.96964  0.19446  1.0000
  Fe  Fe26      1.0  0.54038  0.96870  0.25458  1.0000
  S   S55       1.0  0.58904  0.92116  0.26238  1.0000
  H   H379      1.0  0.63842  0.92668  0.47340  1.0000
  H   H380      1.0  0.36290  0.81664  0.16663  1.0000
  C   C223      1.0  0.60330  0.87425  0.38048  1.0000
  H   H381      1.0  0.45165  0.00393  0.11954  1.0000
  C   C224      1.0  0.47659  0.98546  0.03442  1.0000
  C   C225      1.0  0.59281  0.90253  0.30843  1.0000
  C   C226      1.0  0.57587  0.93330  0.34110  1.0000
  C   C227      1.0  0.58182  0.91996  0.37676  1.0000
  H   H382      1.0  0.56083  0.92170  0.48898  1.0000
  H   H383      1.0  0.39532  0.61635  0.12153  1.0000
  H   H384      1.0  0.55929  0.96858  0.33856  1.0000
  H   H385      1.0  0.56966  0.94513  0.40162  1.0000
  C   C228      1.0  0.52948  0.56490  0.45711  1.0000
  H   H386      1.0  0.57141  0.68954  0.38799  1.0000
  H   H387      1.0  0.63666  0.80808  0.35046  1.0000
  C   C229      1.0  0.48155  0.01550  0.42253  1.0000
  C   C230      1.0  0.51057  0.74419  0.31036  1.0000
  C   C231      1.0  0.49547  0.63202  0.34343  1.0000
  C   C232      1.0  0.53029  0.79410  0.28551  1.0000
  C   C233      1.0  0.52049  0.79780  0.24747  1.0000
  H   H388      1.0  0.48077  0.75294  0.31886  1.0000
  H   H389      1.0  0.51449  0.70805  0.29064  1.0000
  H   H390      1.0  0.56927  0.69435  0.30346  1.0000
  C   C234      1.0  0.48016  0.58220  0.36947  1.0000
  H   H391      1.0  0.52226  0.62036  0.32381  1.0000
  H   H392      1.0  0.56033  0.79069  0.27867  1.0000
  H   H393      1.0  0.52202  0.83377  0.30078  1.0000
  Fe  Fe27      1.0  0.38742  0.77958  0.02208  1.0000
  H   H394      1.0  0.49053  0.80108  0.25286  1.0000
  H   H395      1.0  0.53342  0.83541  0.23121  1.0000
  H   H396      1.0  0.53034  0.76080  0.22951  1.0000
  H   H397      1.0  0.51043  0.00773  0.40667  1.0000
  C   C235      1.0  0.51745  0.78154  0.37020  1.0000
  H   H398      1.0  0.56864  0.91107  0.06996  1.0000
  H   H399      1.0  0.53476  0.81656  0.35490  1.0000
  H   H400      1.0  0.56388  0.63264  0.35943  1.0000
  H   H401      1.0  0.55147  0.98787  0.03415  1.0000
  H   H402      1.0  0.46251  0.95905  0.05944  1.0000
  H   H403      1.0  0.42699  0.67382  0.10604  1.0000
  S   S56       1.0  0.64825  0.69734  0.42486  1.0000
  C   C236      1.0  0.61942  0.84255  0.34804  1.0000
  H   H404      1.0  0.46636  0.02416  0.40109  1.0000
  C   C237      1.0  0.52648  0.77685  0.40917  1.0000
  C   C238      1.0  0.35733  0.71607  0.14062  1.0000
  C   C239      1.0  0.41061  0.64985  0.13140  1.0000
  H   H405      1.0  0.57287  0.96410  0.10388  1.0000
  N   N13       1.0  0.52301  0.73026  0.34544  1.0000
  H   H406      1.0  0.35877  0.76964  0.20564  1.0000
  C   C240      1.0  0.33725  0.87493  0.23041  1.0000
  H   H407      1.0  0.51504  0.73895  0.42568  1.0000
  H   H408      1.0  0.39483  0.58991  0.47069  1.0000
  C   C241      1.0  0.49878  0.68413  0.36729  1.0000
  H   H409      1.0  0.47062  0.69973  0.38008  1.0000
  H   H410      1.0  0.40177  0.72012  0.16832  1.0000
  C   C242      1.0  0.51124  0.82623  0.43493  1.0000
  H   H411      1.0  0.55648  0.77709  0.40397  1.0000
  H   H412      1.0  0.58022  0.75238  0.32784  1.0000
  H   H413      1.0  0.60808  0.97917  0.46854  1.0000
  H   H414      1.0  0.48872  0.79577  0.37596  1.0000
  C   C243      1.0  0.65582  0.80894  0.15906  1.0000
  H   H415      1.0  0.50786  0.66986  0.39227  1.0000
  H   H416      1.0  0.49937  0.56979  0.38596  1.0000
  H   H417      1.0  0.62823  0.83370  0.28680  1.0000
  H   H418      1.0  0.34647  0.68221  0.12601  1.0000
  H   H419      1.0  0.47014  0.97741  0.43916  1.0000
  C   C244      1.0  0.57692  0.67416  0.35822  1.0000
  H   H420      1.0  0.60778  0.84705  0.14843  1.0000
  H   H421      1.0  0.51953  0.63909  0.49122  1.0000
  H   H422      1.0  0.37329  0.74385  0.11714  1.0000
  H   H423      1.0  0.62480  0.64954  0.31250  1.0000
  C   C245      1.0  0.38461  0.68826  0.15955  1.0000
  H   H424      1.0  0.62719  0.63498  0.36049  1.0000
  C   C246      1.0  0.52020  0.96183  0.09157  1.0000
  H   H425      1.0  0.45341  0.59230  0.38995  1.0000
  H   H426      1.0  0.47660  0.64057  0.32570  1.0000
  H   H427      1.0  0.35852  0.57666  0.44882  1.0000
  H   H428      1.0  0.51979  0.86614  0.41948  1.0000
  H   H429      1.0  0.35095  0.90315  0.20625  1.0000
  H   H430      1.0  0.42963  0.63035  0.14576  1.0000
  H   H431      1.0  0.50666  0.98215  0.11925  1.0000
  C   C247      1.0  0.62913  0.96906  0.48335  1.0000
  H   H432      1.0  0.52157  0.82539  0.46067  1.0000
  C   C248      1.0  0.50826  0.60042  0.48470  1.0000
  H   H433      1.0  0.54599  0.90218  0.12040  1.0000
  H   H434      1.0  0.60433  0.83363  0.19834  1.0000
  C   C249      1.0  0.61468  0.85725  0.31204  1.0000
  C   C250      1.0  0.62303  0.84757  0.17041  1.0000
  S   S57       1.0  0.61537  0.64112  0.51256  1.0000
  C   C251      1.0  0.37160  0.60877  0.46253  1.0000
  S   S58       1.0  0.39390  0.69054  0.03785  1.0000
  H   H435      1.0  0.48102  0.82412  0.44460  1.0000
  C   C252      1.0  0.34410  0.63273  0.49786  1.0000
  S   S59       1.0  0.45338  0.02253  0.23164  1.0000
  H   H436      1.0  0.63188  0.89082  0.17391  1.0000
  H   H437      1.0  0.35852  0.66472  0.51005  1.0000
  C   C253      1.0  0.45807  0.53435  0.49736  1.0000
  H   H438      1.0  0.45413  0.00503  0.02502  1.0000
  H   H439      1.0  0.37006  0.66338  0.18522  1.0000
  C   C254      1.0  0.53053  0.00591  0.05886  1.0000
  H   H440      1.0  0.64511  0.76604  0.15831  1.0000
  S   S60       1.0  0.64125  0.77266  0.50145  1.0000
  Fe  Fe28      1.0  0.46655  0.02227  0.28840  1.0000
  H   H441      1.0  0.65351  0.01489  0.40956  1.0000
  C   C255      1.0  0.47243  0.58547  0.50446  1.0000
  C   C256      1.0  0.66132  0.00992  0.46700  1.0000
  H   H442      1.0  0.35803  0.85711  0.24315  1.0000
  H   H443      1.0  0.46623  0.87013  0.02357  1.0000
  H   H444      1.0  0.47638  0.54637  0.35176  1.0000
  Fe  Fe29      1.0  0.66491  0.68929  0.47963  1.0000
  C   C257      1.0  0.34301  0.79020  0.18796  1.0000
  N   N14       1.0  0.49972  0.03001  0.04556  1.0000
  H   H445      1.0  0.42240  0.02784  0.09181  1.0000
  S   S61       1.0  0.38180  0.65783  0.95396  1.0000
  S   S62       1.0  0.42556  0.77422  0.96231  1.0000
  Fe  Fe30      1.0  0.37653  0.74945  0.94396  1.0000
  S   S63       1.0  0.36300  0.77075  0.88863  1.0000
  Fe  Fe31      1.0  0.42839  0.68349  0.97652  1.0000
  C   C258      1.0  0.50526  0.60644  0.59805  1.0000
  H   H446      1.0  0.51400  0.79723  0.86372  1.0000
  H   H447      1.0  0.60411  0.75075  0.72402  1.0000
  S   S64       1.0  0.40038  0.97258  0.76974  1.0000
  C   C259      1.0  0.37364  0.83021  0.85855  1.0000
  C   C260      1.0  0.39698  0.87314  0.86336  1.0000
  C   C261      1.0  0.40629  0.91716  0.83606  1.0000
  C   C262      1.0  0.39097  0.91916  0.80502  1.0000
  C   C263      1.0  0.36664  0.87730  0.80153  1.0000
  H   H448      1.0  0.53492  0.60402  0.58340  1.0000
  H   H449      1.0  0.40829  0.87184  0.88757  1.0000
  H   H450      1.0  0.42466  0.94990  0.83934  1.0000
  C   C264      1.0  0.35858  0.83280  0.82760  1.0000
  H   H451      1.0  0.52143  0.92797  0.00775  1.0000
  C   C265      1.0  0.49776  0.59025  0.97721  1.0000
  H   H452      1.0  0.54557  0.84519  0.83288  1.0000
  H   H453      1.0  0.48232  0.66056  0.86909  1.0000
  H   H454      1.0  0.52301  0.88171  0.89837  1.0000
  H   H455      1.0  0.49106  0.62160  0.57712  1.0000
  S   S65       1.0  0.55113  0.74566  0.58764  1.0000
  H   H456      1.0  0.44871  0.89293  0.70364  1.0000
  S   S66       1.0  0.58082  0.95883  0.67679  1.0000
  Fe  Fe32      1.0  0.34650  0.67252  0.01383  1.0000
  C   C266      1.0  0.56000  0.80634  0.61054  1.0000
  C   C267      1.0  0.53081  0.83891  0.63101  1.0000
  C   C268      1.0  0.53705  0.88687  0.65026  1.0000
  C   C269      1.0  0.57239  0.90105  0.65072  1.0000
  C   C270      1.0  0.60159  0.86828  0.63045  1.0000
  C   C271      1.0  0.59550  0.82149  0.60992  1.0000
  H   H457      1.0  0.50332  0.82743  0.63143  1.0000
  H   H458      1.0  0.51445  0.91238  0.66520  1.0000
  H   H459      1.0  0.62895  0.87863  0.63105  1.0000
  H   H460      1.0  0.61812  0.79603  0.59472  1.0000
  H   H461      1.0  0.43366  0.65827  0.87784  1.0000
  C   C272      1.0  0.50500  0.88273  0.87909  1.0000
  H   H462      1.0  0.50704  0.92460  0.86550  1.0000
  H   H463      1.0  0.59729  0.81513  0.70104  1.0000
  H   H464      1.0  0.65966  0.99845  0.54356  1.0000
  H   H465      1.0  0.35437  0.87879  0.77800  1.0000
  H   H466      1.0  0.50122  0.63730  0.62153  1.0000
  H   H467      1.0  0.58874  0.02566  0.75416  1.0000
  H   H468      1.0  0.59405  0.74960  0.67828  1.0000
  H   H469      1.0  0.47648  0.87536  0.89681  1.0000
  H   H470      1.0  0.50102  0.86621  0.72746  1.0000
  H   H471      1.0  0.62944  0.98736  0.75287  1.0000
  H   H472      1.0  0.64959  0.87092  0.54491  1.0000
  C   C273      1.0  0.59500  0.02458  0.53801  1.0000
  H   H473      1.0  0.43593  0.73014  0.82944  1.0000
  H   H474      1.0  0.45693  0.75408  0.86513  1.0000
  C   C274      1.0  0.35870  0.62954  0.58854  1.0000
  H   H475      1.0  0.37776  0.71404  0.59350  1.0000
  H   H476      1.0  0.54028  0.72328  0.73253  1.0000
  H   H477      1.0  0.46239  0.63587  0.83221  1.0000
  H   H478      1.0  0.51228  0.88604  0.56841  1.0000
  S   S67       1.0  0.48410  0.64616  0.95315  1.0000
  C   C275      1.0  0.47252  0.89706  0.99751  1.0000
  H   H479      1.0  0.57545  0.91739  0.56888  1.0000
  H   H480      1.0  0.46335  0.89028  0.76510  1.0000
  C   C276      1.0  0.55218  0.92630  0.52069  1.0000
  N   N15       1.0  0.49959  0.79514  0.79011  1.0000
  C   C277      1.0  0.47186  0.80046  0.76778  1.0000
  C   C278      1.0  0.49591  0.73791  0.80818  1.0000
  C   C279      1.0  0.49265  0.83972  0.82024  1.0000
  C   C280      1.0  0.53791  0.80219  0.76431  1.0000
  C   C281      1.0  0.54751  0.76774  0.72674  1.0000
  C   C282      1.0  0.47317  0.85555  0.74502  1.0000
  C   C283      1.0  0.51650  0.83781  0.84848  1.0000
  C   C284      1.0  0.46012  0.72577  0.84036  1.0000
  C   C285      1.0  0.45980  0.66642  0.85566  1.0000
  C   C286      1.0  0.58827  0.77114  0.70638  1.0000
  C   C287      1.0  0.44877  0.85214  0.71814  1.0000
  H   H481      1.0  0.55807  0.98536  0.81862  1.0000
  H   H482      1.0  0.44372  0.79771  0.78746  1.0000
  H   H483      1.0  0.47402  0.76509  0.74761  1.0000
  H   H484      1.0  0.49756  0.70567  0.78592  1.0000
  H   H485      1.0  0.51913  0.72911  0.82016  1.0000
  H   H486      1.0  0.46373  0.83875  0.83737  1.0000
  H   H487      1.0  0.49695  0.88162  0.80647  1.0000
  H   H488      1.0  0.54403  0.84664  0.75602  1.0000
  H   H489      1.0  0.55788  0.79078  0.78023  1.0000
  H   H490      1.0  0.53282  0.78365  0.70647  1.0000
  C   C288      1.0  0.60572  0.00901  0.77191  1.0000
  C   C289      1.0  0.49685  0.94572  0.00187  1.0000
  H   H491      1.0  0.55295  0.59404  0.94078  1.0000
  S   S68       1.0  0.50245  0.00116  0.76855  1.0000
  H   H492      1.0  0.35630  0.67995  0.63909  1.0000
  H   H493      1.0  0.50420  0.53812  0.63644  1.0000
  H   H494      1.0  0.45883  0.82006  0.69588  1.0000
  H   H495      1.0  0.40155  0.66070  0.61159  1.0000
  H   H496      1.0  0.42032  0.84181  0.73456  1.0000
  N   N16       1.0  0.61282  0.96920  0.52638  1.0000
  C   C290      1.0  0.37438  0.67392  0.60952  1.0000
  H   H497      1.0  0.48679  0.87141  0.97252  1.0000
  C   C291      1.0  0.53389  0.57231  0.96427  1.0000
  H   H498      1.0  0.50502  0.96801  0.97379  1.0000
  H   H499      1.0  0.59870  0.88189  0.52684  1.0000
  H   H500      1.0  0.53799  0.96647  0.52759  1.0000
  H   H501      1.0  0.59847  0.94518  0.81664  1.0000
  H   H502      1.0  0.62894  0.95726  0.57857  1.0000
  H   H503      1.0  0.58709  0.01861  0.60079  1.0000
  C   C292      1.0  0.58249  0.96562  0.79916  1.0000
  C   C293      1.0  0.52430  0.88040  0.53704  1.0000
  H   H504      1.0  0.37861  0.62396  0.55995  1.0000
  H   H505      1.0  0.44855  0.00242  0.60097  1.0000
  S   S69       1.0  0.33763  0.76239  0.00232  1.0000
  H   H506      1.0  0.57321  0.93338  0.78211  1.0000
  H   H507      1.0  0.46070  0.55505  0.62939  1.0000
  H   H508      1.0  0.50198  0.88211  0.52301  1.0000
  H   H509      1.0  0.45631  0.61264  0.52628  1.0000
  C   C294      1.0  0.64166  0.96111  0.54705  1.0000
  Fe  Fe33      1.0  0.59048  0.72477  0.53012  1.0000
  C   C295      1.0  0.58550  0.92216  0.53712  1.0000
  C   C296      1.0  0.49009  0.54980  0.61467  1.0000
  H   H510      1.0  0.53719  0.83886  0.53174  1.0000
  Fe  Fe34      1.0  0.45286  0.02175  0.75038  1.0000
  H   H511      1.0  0.34962  0.56084  0.53264  1.0000
  H   H512      1.0  0.43975  0.01702  0.53617  1.0000
  H   H513      1.0  0.35689  0.59010  0.60497  1.0000
  Fe  Fe35      1.0  0.53269  0.01220  0.70628  1.0000
  H   H514      1.0  0.54745  0.99978  0.58625  1.0000
  C   C297      1.0  0.47336  0.56244  0.00794  1.0000
  H   H515      1.0  0.44666  0.91209  0.99285  1.0000
  C   C298      1.0  0.66600  0.90916  0.53560  1.0000
  H   H516      1.0  0.34032  0.80020  0.82381  1.0000
  S   S70       1.0  0.48259  0.02532  0.68700  1.0000
  H   H517      1.0  0.44551  0.57636  0.01824  1.0000
  C   C299      1.0  0.57117  0.02859  0.58038  1.0000
  C   C300      1.0  0.96022  0.36672  0.05311  1.0000
  S   S71       1.0  0.87525  0.42343  0.47439  1.0000
  C   C301      1.0  0.77960  0.52773  0.49328  1.0000
  Fe  Fe36      1.0  0.89419  0.33479  0.47460  1.0000
  S   S72       1.0  0.93687  0.29564  0.42500  1.0000
  H   H518      1.0  0.97378  0.13878  0.33753  1.0000
  C   C302      1.0  0.75534  0.48383  0.49369  1.0000
  C   C303      1.0  0.75937  0.24497  0.46253  1.0000
  S   S73       1.0  0.90914  0.10560  0.31518  1.0000
  H   H519      1.0  0.95267  0.47432  0.47656  1.0000
  H   H520      1.0  0.78236  0.31399  0.27894  1.0000
  Fe  Fe37      1.0  0.82104  0.38988  0.50940  1.0000
  C   C304      1.0  0.92766  0.23819  0.39882  1.0000
  C   C305      1.0  0.95676  0.20552  0.37807  1.0000
  C   C306      1.0  0.95116  0.16337  0.35350  1.0000
  C   C307      1.0  0.91650  0.15416  0.34889  1.0000
  C   C308      1.0  0.88714  0.18558  0.37069  1.0000
  C   C309      1.0  0.89262  0.22701  0.39590  1.0000
  H   H521      1.0  0.95961  0.27105  0.31469  1.0000
  H   H522      1.0  0.92209  0.39223  0.37637  1.0000
  H   H523      1.0  0.86013  0.17809  0.36780  1.0000
  H   H524      1.0  0.86996  0.25093  0.41251  1.0000
  H   H525      1.0  0.90623  0.25636  0.28998  1.0000
  H   H526      1.0  0.77603  0.21124  0.44561  1.0000
  H   H527      1.0  0.74181  0.27940  0.41605  1.0000
  H   H528      1.0  0.77213  0.25740  0.35759  1.0000
  H   H529      1.0  0.80436  0.33649  0.43961  1.0000
  H   H530      1.0  0.76466  0.42824  0.33637  1.0000
  N   N17       1.0  0.79718  0.36157  0.38453  1.0000
  C   C310      1.0  0.76338  0.39698  0.39412  1.0000
  H   H531      1.0  0.73172  0.22823  0.47679  1.0000
  H   H532      1.0  0.89120  0.44920  0.39076  1.0000
  C   C311      1.0  0.79481  0.31847  0.41584  1.0000
  C   C312      1.0  0.72060  0.49574  0.48982  1.0000
  H   H533      1.0  0.80642  0.51920  0.49625  1.0000
  H   H534      1.0  0.77181  0.25873  0.48524  1.0000
  H   H535      1.0  0.82284  0.42737  0.40860  1.0000
  H   H536      1.0  0.78486  0.47512  0.36355  1.0000
  H   H537      1.0  0.92422  0.32595  0.27949  1.0000
  C   C313      1.0  0.89752  0.41223  0.37193  1.0000
  H   H538      1.0  0.93313  0.27402  0.24188  1.0000
  C   C314      1.0  0.80388  0.33457  0.34568  1.0000
  H   H539      1.0  0.72667  0.51070  0.35753  1.0000
  C   C315      1.0  0.96406  0.26358  0.28360  1.0000
  H   H540      1.0  0.96274  0.41006  0.06245  1.0000
  H   H541      1.0  0.96608  0.03968  0.07952  1.0000
  H   H542      1.0  0.90356  0.42585  0.34141  1.0000
  S   S74       1.0  0.97810  0.07978  0.21374  1.0000
  H   H543      1.0  0.99632  0.37596  0.38088  1.0000
  H   H544      1.0  0.70165  0.46211  0.49003  1.0000
  H   H545      1.0  0.98385  0.21323  0.38068  1.0000
  C   C316      1.0  0.92987  0.28134  0.27293  1.0000
  C   C317      1.0  0.72683  0.47688  0.37849  1.0000
  H   H546      1.0  0.81355  0.28346  0.40451  1.0000
  H   H547      1.0  0.75952  0.41610  0.42288  1.0000
  H   H548      1.0  0.98673  0.44033  0.36029  1.0000
  C   C318      1.0  0.82926  0.39952  0.38301  1.0000
  C   C319      1.0  0.75657  0.29388  0.43643  1.0000
  H   H549      1.0  0.80797  0.25546  0.28899  1.0000
  H   H550      1.0  0.95564  0.09068  0.02250  1.0000
  H   H551      1.0  0.87268  0.33704  0.36030  1.0000
  C   C320      1.0  0.77347  0.29573  0.34006  1.0000
  H   H552      1.0  0.72398  0.49604  0.40703  1.0000
  H   H553      1.0  0.73955  0.32596  0.45490  1.0000
  C   C321      1.0  0.78153  0.27752  0.29814  1.0000
  H   H554      1.0  0.93972  0.34452  0.07648  1.0000
  H   H555      1.0  0.82870  0.30857  0.33942  1.0000
  S   S75       1.0  0.76757  0.41352  0.49792  1.0000
  H   H556      1.0  0.73847  0.37164  0.39694  1.0000
  H   H557      1.0  0.99101  0.33866  0.25613  1.0000
  H   H558      1.0  0.80990  0.36660  0.32242  1.0000
  H   H559      1.0  0.70308  0.44907  0.38042  1.0000
  S   S76       1.0  0.83909  0.30015  0.50584  1.0000
  C   C322      1.0  0.96747  0.50634  0.48687  1.0000
  H   H560      1.0  0.74657  0.31621  0.34784  1.0000
  H   H561      1.0  0.83482  0.42741  0.35737  1.0000
  H   H562      1.0  0.75976  0.24868  0.29502  1.0000
  C   C323      1.0  0.86583  0.37063  0.38180  1.0000
  H   H563      1.0  0.86446  0.35209  0.41031  1.0000
  Fe  Fe38      1.0  0.95593  0.05668  0.27647  1.0000
  H   H564      1.0  0.96721  0.21815  0.27842  1.0000
  C   C324      1.0  0.76249  0.44474  0.36545  1.0000
  H   H565      1.0  0.92726  0.08502  0.09183  1.0000
  H   H566      1.0  0.92163  0.38770  0.02264  1.0000
  H   H567      1.0  0.99579  0.31252  0.47199  1.0000
  C   C325      1.0  0.93839  0.04658  0.07625  1.0000
  H   H568      1.0  0.97249  0.51379  0.06681  1.0000
  H   H569      1.0  0.98103  0.39945  0.50956  1.0000
  C   C326      1.0  0.93975  0.05235  0.03380  1.0000
  H   H570      1.0  0.97333  0.36087  0.32401  1.0000
  C   C327      1.0  0.99850  0.29487  0.25931  1.0000
  H   H571      1.0  0.98683  0.34584  0.04870  1.0000
  H   H572      1.0  0.69847  0.03429  0.41194  1.0000
  H   H573      1.0  0.99107  0.18728  0.06577  1.0000
  H   H574      1.0  0.91155  0.05798  0.03183  1.0000
  Fe  Fe39      1.0  0.85524  0.31715  0.56006  1.0000
  S   S77       1.0  0.84502  0.26197  0.61333  1.0000
  C   C328      1.0  0.95969  0.34762  0.93075  1.0000
  H   H575      1.0  0.75567  0.30678  0.90848  1.0000
  S   S78       1.0  0.83185  0.40309  0.56644  1.0000
  Fe  Fe40      1.0  0.88731  0.43052  0.53133  1.0000
  S   S79       1.0  0.72590  0.42791  0.95172  1.0000
  C   C329      1.0  0.78080  0.38259  0.75867  1.0000
  S   S80       1.0  0.96225  0.13755  0.77367  1.0000
  C   C330      1.0  0.96196  0.04932  0.94959  1.0000
  H   H576      1.0  0.69582  0.18514  0.84080  1.0000
  C   C331      1.0  0.78058  0.32253  0.88691  1.0000
  C   C332      1.0  0.74352  0.38448  0.85569  1.0000
  H   H577      1.0  0.79812  0.35241  0.82901  1.0000
  H   H578      1.0  0.94337  0.08291  0.96408  1.0000
  H   H579      1.0  0.92915  0.36658  0.88933  1.0000
  C   C333      1.0  0.88289  0.23317  0.62544  1.0000
  C   C334      1.0  0.87823  0.20838  0.66179  1.0000
  C   C335      1.0  0.90807  0.18503  0.67187  1.0000
  C   C336      1.0  0.94272  0.18646  0.64555  1.0000
  C   C337      1.0  0.94732  0.21143  0.60936  1.0000
  C   C338      1.0  0.91756  0.23422  0.59925  1.0000
  H   H580      1.0  0.85147  0.20715  0.68217  1.0000
  H   H581      1.0  0.90425  0.16582  0.69983  1.0000
  C   C339      1.0  0.71071  0.34943  0.81098  1.0000
  H   H582      1.0  0.92138  0.25162  0.57088  1.0000
  H   H583      1.0  0.71519  0.48540  0.88347  1.0000
  H   H584      1.0  0.83325  0.42558  0.74692  1.0000
  H   H585      1.0  0.88340  0.52547  0.96482  1.0000
  H   H586      1.0  0.94560  0.51299  0.91952  1.0000
  N   N18       1.0  0.72901  0.39972  0.82227  1.0000
  H   H587      1.0  0.74756  0.45505  0.77283  1.0000
  H   H588      1.0  0.70423  0.28545  0.74785  1.0000
  C   C340      1.0  0.69993  0.44309  0.83643  1.0000
  C   C341      1.0  0.75886  0.42394  0.78923  1.0000
  C   C342      1.0  0.88758  0.50305  0.93718  1.0000
  H   H589      1.0  0.95046  0.34236  0.58848  1.0000
  H   H590      1.0  0.69147  0.33015  0.83700  1.0000
  H   H591      1.0  0.69576  0.10994  0.72990  1.0000
  H   H592      1.0  0.79112  0.35932  0.89896  1.0000
  C   C343      1.0  0.67913  0.30663  0.76465  1.0000
  H   H593      1.0  0.97399  0.21283  0.58888  1.0000
  C   C344      1.0  0.71152  0.49564  0.85487  1.0000
  H   H594      1.0  0.98971  0.06847  0.60117  1.0000
  Fe  Fe41      1.0  0.66834  0.39250  0.96281  1.0000
  H   H595      1.0  0.75690  0.42094  0.86492  1.0000
  C   C345      1.0  0.68868  0.36066  0.78163  1.0000
  H   H596      1.0  0.66900  0.09174  0.83746  1.0000
  H   H597      1.0  0.99040  0.44566  0.89116  1.0000
  C   C346      1.0  0.94731  0.40842  0.62965  1.0000
  H   H598      1.0  0.71298  0.07524  0.78521  1.0000
  H   H599      1.0  0.98528  0.43448  0.99279  1.0000
  S   S81       1.0  0.91136  0.34576  0.52854  1.0000
  H   H600      1.0  0.82833  0.38069  0.70900  1.0000
  H   H601      1.0  0.99262  0.31176  0.62027  1.0000
  H   H602      1.0  0.89407  0.42371  0.62057  1.0000
  C   C347      1.0  0.96320  0.10904  0.89089  1.0000
  H   H603      1.0  0.75145  0.04971  0.72025  1.0000
  C   C348      1.0  0.96389  0.38342  0.58911  1.0000
  C   C349      1.0  0.70179  0.04541  0.76815  1.0000
  H   H604      1.0  0.80152  0.28954  0.88165  1.0000
  H   H605      1.0  0.97847  0.26382  0.87567  1.0000
  H   H606      1.0  0.73063  0.31640  0.79906  1.0000
  H   H607      1.0  0.95731  0.38749  0.65203  1.0000
  H   H608      1.0  0.79053  0.34638  0.77175  1.0000
  H   H609      1.0  0.98206  0.31853  0.93147  1.0000
  C   C350      1.0  0.77497  0.50643  0.96139  1.0000
  C   C351      1.0  0.96098  0.04980  0.90695  1.0000
  C   C352      1.0  0.97732  0.39433  0.98240  1.0000
  H   H610      1.0  0.95410  0.45339  0.62936  1.0000
  H   H611      1.0  0.67592  0.42445  0.85811  1.0000
  S   S82       1.0  0.91171  0.50386  0.55372  1.0000
  C   C353      1.0  0.95492  0.34616  0.88971  1.0000
  C   C354      1.0  0.92567  0.47794  0.92459  1.0000
  H   H612      1.0  0.67279  0.04817  0.72451  1.0000
  H   H613      1.0  0.72047  0.37255  0.88100  1.0000
  H   H614      1.0  0.94963  0.28603  0.84699  1.0000
  H   H615      1.0  0.95465  0.41096  0.56912  1.0000
  C   C355      1.0  0.77218  0.33781  0.84924  1.0000
  C   C356      1.0  0.73807  0.49458  0.96510  1.0000
  H   H616      1.0  0.93475  0.32797  0.95004  1.0000
  C   C357      1.0  0.90578  0.40278  0.64177  1.0000
  H   H617      1.0  0.80547  0.44659  0.71616  1.0000
  H   H618      1.0  0.73736  0.51352  0.83635  1.0000
  C   C358      1.0  0.93203  0.43840  0.95607  1.0000
  N   N19       1.0  0.96640  0.40384  0.94590  1.0000
  H   H619      1.0  0.76368  0.36627  0.74096  1.0000
  H   H620      1.0  0.92871  0.45651  0.89697  1.0000
  H   H621      1.0  0.76278  0.29934  0.83824  1.0000
  S   S83       1.0  0.98118  0.15693  0.65567  1.0000
  H   H622      1.0  0.98826  0.13047  0.89325  1.0000
  C   C359      1.0  0.99716  0.43537  0.91822  1.0000
  H   H623      1.0  0.77862  0.44788  0.80054  1.0000
  H   H624      1.0  0.96390  0.10782  0.86003  1.0000
  Fe  Fe42      1.0  0.98450  0.11559  0.71126  1.0000
  H   H625      1.0  0.89743  0.35827  0.64407  1.0000
  H   H626      1.0  0.90749  0.41117  0.96625  1.0000
  H   H627      1.0  0.92946  0.26369  0.89603  1.0000
  C   C360      1.0  0.81395  0.41085  0.73112  1.0000
  H   H628      1.0  0.89438  0.42243  0.67021  1.0000
  C   C361      1.0  0.95294  0.28624  0.87651  1.0000
  H   H629      1.0  0.70382  0.38817  0.75774  1.0000
  H   H630      1.0  0.68956  0.45813  0.81239  1.0000
  H   H631      1.0  0.97806  0.36645  0.86829  1.0000
  H   H632      1.0  0.79508  0.47454  0.95124  1.0000
  H   H633      1.0  0.93899  0.13322  0.90647  1.0000
  Fe  Fe43      1.0  0.96206  0.04546  0.78534  1.0000
  C   C362      1.0  0.95314  0.52843  0.52355  1.0000
  H   H634      1.0  0.66862  0.17189  0.70415  1.0000
  H   H635      1.0  0.93554  0.03052  0.90393  1.0000
  C   C363      1.0  0.67801  0.07644  0.74664  1.0000
  H   H636      1.0  0.98988  0.06273  0.94983  1.0000
  H   H637      1.0  0.93156  0.46636  0.98075  1.0000
  H   H638      1.0  0.99851  0.30888  0.54005  1.0000
  H   H639      1.0  0.67521  0.16918  0.78215  1.0000
  H   H640      1.0  0.86639  0.47010  0.94079  1.0000
  H   H641      1.0  0.68384  0.52772  0.98105  1.0000
  H   H642      1.0  0.94399  0.32223  0.00935  1.0000
  C   C364      1.0  0.94819  0.36622  0.01625  1.0000
  C   C365      1.0  0.93452  0.84351  0.41643  1.0000
  H   H643      1.0  0.94579  0.68455  0.49739  1.0000
  H   H644      1.0  0.96238  0.90930  0.37714  1.0000
  C   C366      1.0  0.74189  0.82152  0.13508  1.0000
  Fe  Fe44      1.0  0.86560  0.77093  0.04354  1.0000
  S   S84       1.0  0.85154  0.83190  0.09280  1.0000
  H   H645      1.0  0.73717  0.79594  0.16182  1.0000
  S   S85       1.0  0.84262  0.68470  0.05499  1.0000
  N   N20       1.0  0.71944  0.79978  0.10981  1.0000
  H   H646      1.0  0.92039  0.01124  0.08973  1.0000
  S   S86       1.0  0.95128  0.96540  0.26362  1.0000
  C   C367      1.0  0.88711  0.86378  0.10756  1.0000
  C   C368      1.0  0.87935  0.89012  0.14345  1.0000
  C   C369      1.0  0.90707  0.91732  0.15528  1.0000
  C   C370      1.0  0.94260  0.91911  0.13093  1.0000
  C   C371      1.0  0.95034  0.89258  0.09512  1.0000
  C   C372      1.0  0.92283  0.86456  0.08364  1.0000
  H   H647      1.0  0.85181  0.88959  0.16221  1.0000
  H   H648      1.0  0.90084  0.93769  0.18290  1.0000
  H   H649      1.0  0.90215  0.71871  0.18151  1.0000
  H   H650      1.0  0.92911  0.84452  0.05601  1.0000
  H   H651      1.0  0.88645  0.96859  0.03577  1.0000
  H   H652      1.0  0.78802  0.61666  0.48893  1.0000
  H   H653      1.0  0.93735  0.79971  0.16127  1.0000
  H   H654      1.0  0.76215  0.70333  0.07295  1.0000
  C   C373      1.0  0.68185  0.82475  0.11905  1.0000
  H   H655      1.0  0.73526  0.91175  0.12522  1.0000
  H   H656      1.0  0.92962  0.67995  0.09723  1.0000
  H   H657      1.0  0.98006  0.88582  0.51036  1.0000
  H   H658      1.0  0.96067  0.70829  0.18544  1.0000
  H   H659      1.0  0.76636  0.79131  0.05989  1.0000
  C   C374      1.0  0.93673  0.67279  0.47195  1.0000
  C   C375      1.0  0.73874  0.80995  0.06775  1.0000
  H   H660      1.0  0.96353  0.62219  0.15186  1.0000
  C   C376      1.0  0.74249  0.64204  0.11652  1.0000
  C   C377      1.0  0.93334  0.70662  0.12082  1.0000
  C   C378      1.0  0.73424  0.59498  0.48555  1.0000
  H   H661      1.0  0.73130  0.63809  0.14824  1.0000
  H   H662      1.0  0.70127  0.72753  0.14643  1.0000
  C   C379      1.0  0.73549  0.88261  0.14884  1.0000
  H   H663      1.0  0.72365  0.78875  0.04946  1.0000
  H   H664      1.0  0.85990  0.73348  0.14066  1.0000
  H   H665      1.0  0.76825  0.61826  0.10748  1.0000
  N   N21       1.0  0.97197  0.70262  0.12348  1.0000
  H   H666      1.0  0.77146  0.81678  0.12024  1.0000
  H   H667      1.0  0.95877  0.77737  0.37903  1.0000
  H   H668      1.0  0.83750  0.90566  0.02969  1.0000
  H   H669      1.0  0.98233  0.75911  0.48805  1.0000
  H   H670      1.0  0.76638  0.87454  0.19097  1.0000
  Fe  Fe45      1.0  0.97895  0.98817  0.20176  1.0000
  C   C380      1.0  0.93613  0.88594  0.38436  1.0000
  H   H671      1.0  0.67889  0.90702  0.50417  1.0000
  H   H672      1.0  0.93344  0.86503  0.35800  1.0000
  H   H673      1.0  0.91361  0.91612  0.39385  1.0000
  H   H674      1.0  0.68320  0.55955  0.48299  1.0000
  C   C381      1.0  0.86546  0.69135  0.15024  1.0000
  H   H675      1.0  0.72038  0.89645  0.06332  1.0000
  H   H676      1.0  0.67002  0.81038  0.18188  1.0000
  C   C382      1.0  0.97622  0.73103  0.15900  1.0000
  H   H677      1.0  0.84402  0.68074  0.17715  1.0000
  H   H678      1.0  0.68446  0.00106  0.47889  1.0000
  C   C383      1.0  0.75011  0.70292  0.10453  1.0000
  H   H679      1.0  0.90679  0.64708  0.16715  1.0000
  H   H680      1.0  0.94858  0.80755  0.48571  1.0000
  Fe  Fe46      1.0  0.89791  0.65702  0.02090  1.0000
  H   H681      1.0  0.68508  0.96205  0.41511  1.0000
  H   H682      1.0  0.99123  0.82167  0.38993  1.0000
  N   N22       1.0  0.96904  0.75927  0.43374  1.0000
  H   H683      1.0  0.92735  0.74942  0.11256  1.0000
  C   C384      1.0  0.71003  0.55099  0.48588  1.0000
  C   C385      1.0  0.96774  0.81633  0.20152  1.0000
  C   C386      1.0  0.76910  0.58298  0.48913  1.0000
  C   C387      1.0  0.71470  0.73759  0.11566  1.0000
  H   H684      1.0  0.90178  0.60726  0.50419  1.0000
  C   C388      1.0  0.93477  0.72437  0.44660  1.0000
  S   S87       1.0  0.97816  0.95518  0.14297  1.0000
  S   S88       1.0  0.92243  0.58832  0.04765  1.0000
  H   H685      1.0  0.97511  0.66594  0.38549  1.0000
  C   C389      1.0  0.89955  0.64416  0.48644  1.0000
  C   C390      1.0  0.98127  0.64200  0.12535  1.0000
  H   H686      1.0  0.97780  0.89380  0.07617  1.0000
  H   H687      1.0  0.97521  0.61872  0.10131  1.0000
  H   H688      1.0  0.86401  0.66060  0.12795  1.0000
  C   C391      1.0  0.90287  0.68980  0.15757  1.0000
  H   H689      1.0  0.69641  0.72091  0.09908  1.0000
  H   H690      1.0  0.75881  0.94505  0.17817  1.0000
  H   H691      1.0  0.92604  0.70968  0.42144  1.0000
  H   H692      1.0  0.97562  0.68955  0.04485  1.0000
  H   H693      1.0  0.88976  0.62994  0.46193  1.0000
  C   C392      1.0  0.67537  0.00493  0.42324  1.0000
  H   H694      1.0  0.91173  0.75015  0.46328  1.0000
  H   H695      1.0  0.72298  0.62356  0.10227  1.0000
  H   H696      1.0  0.79196  0.90331  0.14491  1.0000
  S   S89       1.0  0.72221  0.66519  0.48031  1.0000
  H   H697      1.0  0.94911  0.96388  0.02847  1.0000
  H   H698      1.0  0.87926  0.67273  0.50460  1.0000
  C   C393      1.0  0.96682  0.56983  0.02230  1.0000
  C   C394      1.0  0.96549  0.79321  0.16301  1.0000
  H   H699      1.0  0.94873  0.79366  0.22587  1.0000
  C   C395      1.0  0.96499  0.79975  0.40325  1.0000
  H   H700      1.0  0.70890  0.88625  0.17104  1.0000
  H   H701      1.0  0.90734  0.82297  0.42379  1.0000
  C   C396      1.0  0.76501  0.90237  0.16683  1.0000
  H   H702      1.0  0.93690  0.86680  0.44191  1.0000
  H   H703      1.0  0.77053  0.71930  0.11831  1.0000
  C   C397      1.0  0.97455  0.78916  0.46829  1.0000
  H   H704      1.0  0.95596  0.64158  0.45528  1.0000
  C   C398      1.0  0.74541  0.87130  0.05433  1.0000
  H   H705      1.0  0.76675  0.88988  0.06595  1.0000
  H   H706      1.0  0.96004  0.86086  0.20353  1.0000
  H   H707      1.0  0.68319  0.87070  0.11709  1.0000
  H   H708      1.0  0.66798  0.81196  0.09712  1.0000
  C   C399      1.0  0.98544  0.53118  0.03863  1.0000
  H   H709      1.0  0.98437  0.81820  0.13992  1.0000
  H   H710      1.0  0.98641  0.77288  0.08457  1.0000
  H   H711      1.0  0.99593  0.81328  0.20413  1.0000
  C   C400      1.0  0.99688  0.73078  0.08847  1.0000
  H   H712      1.0  0.99856  0.86855  0.44036  1.0000
  S   S90       1.0  0.88412  0.65626  0.96448  1.0000
  H   H713      1.0  0.71531  0.94512  0.54486  1.0000
  C   C401      1.0  0.75912  0.87555  0.01048  1.0000
  Fe  Fe47      1.0  0.90346  0.74548  0.95983  1.0000
  S   S91       1.0  0.94411  0.77943  0.90631  1.0000
  C   C402      1.0  0.93469  0.65977  0.83518  1.0000
  S   S92       1.0  0.92193  0.74284  0.01354  1.0000
  C   C403      1.0  0.90388  0.89976  0.75657  1.0000
  H   H714      1.0  0.96943  0.62283  0.97343  1.0000
  H   H715      1.0  0.98693  0.02062  0.56479  1.0000
  C   C404      1.0  0.93560  0.84334  0.88668  1.0000
  C   C405      1.0  0.90084  0.86651  0.89641  1.0000
  C   C406      1.0  0.89471  0.91640  0.87887  1.0000
  C   C407      1.0  0.92331  0.94343  0.85168  1.0000
  C   C408      1.0  0.95816  0.92064  0.84244  1.0000
  C   C409      1.0  0.96425  0.87070  0.85981  1.0000
  H   H716      1.0  0.87849  0.84541  0.91673  1.0000
  H   H717      1.0  0.86764  0.93378  0.88605  1.0000
  N   N23       1.0  0.95163  0.99493  0.97126  1.0000
  C   C410      1.0  0.91238  0.98127  0.97357  1.0000
  H   H718      1.0  0.99122  0.85298  0.85214  1.0000
  C   C411      1.0  0.73433  0.01808  0.73978  1.0000
  H   H719      1.0  0.81446  0.56766  0.96803  1.0000
  H   H720      1.0  0.98454  0.02678  0.88864  1.0000
  H   H721      1.0  0.88467  0.87305  0.74650  1.0000
  C   C412      1.0  0.96876  0.74005  0.79444  1.0000
  H   H722      1.0  0.97340  0.94615  0.91989  1.0000
  C   C413      1.0  0.72342  0.58916  0.98726  1.0000
  H   H723      1.0  0.90924  0.72768  0.81478  1.0000
  H   H724      1.0  0.90657  0.94040  0.74127  1.0000
  H   H725      1.0  0.89249  0.90733  0.78787  1.0000
  H   H726      1.0  0.91090  0.95969  0.94692  1.0000
  S   S93       1.0  0.91463  0.00503  0.82938  1.0000
  C   C414      1.0  0.97696  0.95113  0.94914  1.0000
  H   H727      1.0  0.93108  0.97980  0.61334  1.0000
  C   C415      1.0  0.97442  0.75397  0.72443  1.0000
  H   H728      1.0  0.68560  0.91082  0.58675  1.0000
  C   C416      1.0  0.94118  0.87239  0.74835  1.0000
  C   C417      1.0  0.71229  0.53619  0.97819  1.0000
  H   H729      1.0  0.97608  0.78552  0.70152  1.0000
  H   H730      1.0  0.98033  0.94097  0.82142  1.0000
  C   C418      1.0  0.98366  0.59269  0.98604  1.0000
  C   C419      1.0  0.76031  0.60091  0.98374  1.0000
  Fe  Fe48      1.0  0.83010  0.69074  0.99822  1.0000
  C   C420      1.0  0.78604  0.55915  0.97092  1.0000
  C   C421      1.0  0.98622  0.98332  0.61943  1.0000
  H   H731      1.0  0.91497  0.79402  0.76938  1.0000
  H   H732      1.0  0.75140  0.99704  0.75583  1.0000
  H   H733      1.0  0.97154  0.89098  0.99735  1.0000
  C   C422      1.0  0.93908  0.81789  0.77229  1.0000
  H   H734      1.0  0.93223  0.67920  0.77825  1.0000
  H   H735      1.0  0.85464  0.90772  0.97799  1.0000
  C   C423      1.0  0.85254  0.93150  0.00470  1.0000
  H   H736      1.0  0.93222  0.83036  0.80307  1.0000
  H   H737      1.0  0.98784  0.00497  0.00729  1.0000
  S   S94       1.0  0.84854  0.78034  0.98933  1.0000
  H   H738      1.0  0.94724  0.87234  0.96302  1.0000
  H   H739      1.0  0.69083  0.57661  0.87592  1.0000
  H   H740      1.0  0.89642  0.02003  0.97427  1.0000
  C   C424      1.0  0.97225  0.57025  0.53665  1.0000
  H   H741      1.0  0.95094  0.86500  0.71700  1.0000
  H   H742      1.0  0.93549  0.95415  0.65876  1.0000
  H   H743      1.0  0.99274  0.94089  0.60786  1.0000
  C   C425      1.0  0.94490  0.98661  0.63614  1.0000
  H   H744      1.0  0.95993  0.90290  0.75586  1.0000
  H   H745      1.0  0.99854  0.81128  0.95565  1.0000
  H   H746      1.0  0.90409  0.90625  0.01119  1.0000
  C   C426      1.0  0.95809  0.00140  0.01030  1.0000
  H   H747      1.0  0.93582  0.68080  0.86204  1.0000
  H   H748      1.0  0.96107  0.58757  0.56498  1.0000
  C   C427      1.0  0.97252  0.89169  0.96654  1.0000
  C   C428      1.0  0.69672  0.90909  0.55498  1.0000
  H   H749      1.0  0.72496  0.98648  0.72234  1.0000
  C   C429      1.0  0.89039  0.94569  0.00843  1.0000
  S   S95       1.0  0.77312  0.66850  0.99482  1.0000
  H   H750      1.0  0.68632  0.01214  0.78725  1.0000
  H   H751      1.0  0.78467  0.85188  0.99950  1.0000
  H   H752      1.0  0.96871  0.76221  0.82138  1.0000
  H   H753      1.0  0.73834  0.85907  0.99716  1.0000
  N   N24       1.0  0.97264  0.78178  0.76216  1.0000
  H   H754      1.0  0.83677  0.96994  0.00416  1.0000
  H   H755      1.0  0.76473  0.91973  0.00163  1.0000
  C   C430      1.0  0.93419  0.70251  0.80390  1.0000
  H   H756      1.0  0.95853  0.63198  0.82549  1.0000
  H   H757      1.0  0.94875  0.73085  0.72622  1.0000
  H   H758      1.0  0.90947  0.63400  0.84178  1.0000
  S   S96       1.0  0.97836  0.02347  0.72253  1.0000
  H   H759      1.0  0.71271  0.87033  0.54753  1.0000
  H   H760      1.0  0.99247  0.71199  0.78883  1.0000
  C   C431      1.0  0.68229  0.54042  0.86151  1.0000
  H   H761      1.0  0.99830  0.98923  0.64344  1.0000
  H   H762      1.0  0.97838  0.65186  0.68414  1.0000
  H   H763      1.0  0.93710  0.02789  0.64945  1.0000
  H   H764      1.0  0.70332  0.62119  0.99706  1.0000
  H   H765      1.0  0.67834  0.55469  0.83374  1.0000
  H   H766      1.0  0.88423  0.53313  0.91505  1.0000
  H   H767      1.0  0.99881  0.85368  0.77910  1.0000
  H   H768      1.0  0.99586  0.70979  0.65210  1.0000
  C   C432      1.0  0.00048  0.02831  0.58786  1.0000
