data_image0
_chemical_formula_structural       FeS2FeS2FeSFeS3H2SH3C3H2C3H3C6H4C6H6CH2CHC2H4NH2CH3CHCHCHCH2CH3C2NC8HCHCH23CSH3NCHCHC4H10CH2C2HCH5FeCHCH3CH2CH2C2H3SCH3NH2FeHCHC2HC2H2SCFeHSHCH6CH5C3H2C2SCH3CHC2H2CNCHCH4CH5CH2CHCH2SCHC2HCH2C2SH2CNH2SH2CFeHC2SH2SH2SCH3CHC2H2FeH4C4HC2H2SHNC4H2C5H8SHCH4CH3CHFeCS3C2SH7CHCFeS2FeS2FeSFeS3HS2FeS2C2H2C3H3C6H4C6H5C4H5CH2CH2CHC2H3C2HCNH2C2HCH5C2HCH2CHCH3FeH11C2H3NHCHCH3CHCH3CHCHCHCH7C2H6N2CHCH2C2H7CH4C3H3CH4CH3C3H6FeH4CH2NHCHCH8CH3C2H2CH5CHC2H3CFeS2H3CS2FeHSH2SH3CHC6H4NC8HCHCHCH7CHCH5FeH4CH10CFeHFeHCHCHCH3CHCSHFeS2H2CHS2FeCSH6CHC6H4C2NC8HC3H16NHCH3CHCH7CSH3FeH2C3H3SH2CH2CHCHC2HCH2CH2FeHCHCH2CH5FeS2FeS2FeSFeS3HCSHCSC3H2C6H4C6H6CH5CH6FeCH2SH2CH4CNH3CH2SH2CH2CH3CH2FeCNC5HC4H2CH13CHCH9CHCH4CHCH2CH2FeS4FeS2CSHC5H2C4H10CH2NC2HCSCFeCHNH2CHCH5CH6CSCFeHFeHC2SCHCH3CH5CHCHCH4CH2CSCH3CHCH2CH2CH3CHC2FeS4HSH2S2C4H5C5H3C3H2SFeHCH4FeCFeH6CH8CH4C2H2C2NC8HC3H5FeH2CH2SH2FeS2FeS2FeSFeS3FeS2FeS2HCH2C6H4C6H5CH3C2H3C3H4CHNH9C4NH3CH2C2H6CH3CHCHCNHCH8C2H3C4HC2H2C2HCHNHCHCH3C2H3CH4CH8CHCH3CHCH2C2H7CH3CH3C
_chemical_formula_sum              "Fe48 S96 H768 C432 N24"
_cell_length_a       42.9262
_cell_length_b       39.3441
_cell_length_c       25.6937
_cell_angle_alpha    90.0791
_cell_angle_beta     90.0996
_cell_angle_gamma    90.0169

_space_group_name_H-M_alt    "P 1"
_space_group_IT_number       1

loop_
  _space_group_symop_operation_xyz
  'x, y, z'

loop_
  _atom_site_type_symbol
  _atom_site_label
  _atom_site_symmetry_multiplicity
  _atom_site_fract_x
  _atom_site_fract_y
  _atom_site_fract_z
  _atom_site_occupancy
  Fe  Fe1       1.0  0.22443  0.24063  0.22023  1.0000
  S   S1        1.0  0.19934  0.21316  0.28373  1.0000
  S   S2        1.0  0.25011  0.21565  0.15306  1.0000
  Fe  Fe2       1.0  0.20519  0.31011  0.26188  1.0000
  S   S3        1.0  0.17846  0.28756  0.32918  1.0000
  S   S4        1.0  0.20692  0.36755  0.25424  1.0000
  Fe  Fe3       1.0  0.22005  0.25276  0.33721  1.0000
  S   S5        1.0  0.23903  0.23495  0.41562  1.0000
  Fe  Fe4       1.0  0.16006  0.25020  0.27024  1.0000
  S   S6        1.0  0.11116  0.22912  0.25536  1.0000
  S   S7        1.0  0.24791  0.27798  0.27424  1.0000
  S   S8        1.0  0.18401  0.27522  0.20256  1.0000
  H   H1        1.0  0.27444  0.35579  0.21911  1.0000
  H   H2        1.0  0.24384  0.35559  0.34936  1.0000
  S   S9        1.0  0.24640  0.05620  0.11133  1.0000
  H   H3        1.0  0.30139  0.38000  0.10998  1.0000
  H   H4        1.0  0.33009  0.49518  0.14925  1.0000
  H   H5        1.0  0.20245  0.34825  0.41569  1.0000
  C   C1        1.0  0.07453  0.24688  0.27288  1.0000
  C   C2        1.0  0.04720  0.23396  0.24985  1.0000
  C   C3        1.0  0.07209  0.27382  0.30817  1.0000
  H   H6        1.0  0.04877  0.21301  0.22269  1.0000
  H   H7        1.0  0.09285  0.28375  0.32662  1.0000
  C   C4        1.0  0.27048  0.25268  0.45166  1.0000
  C   C5        1.0  0.28854  0.27944  0.43241  1.0000
  C   C6        1.0  0.31154  0.29462  0.46411  1.0000
  H   H8        1.0  0.26754  0.17528  0.06455  1.0000
  H   H9        1.0  0.28445  0.28874  0.39340  1.0000
  H   H10       1.0  0.28254  0.37753  0.27977  1.0000
  C   C7        1.0  0.21341  0.38591  0.19250  1.0000
  C   C8        1.0  0.21318  0.42145  0.18728  1.0000
  C   C9        1.0  0.21844  0.43673  0.13852  1.0000
  C   C10       1.0  0.22400  0.41652  0.09473  1.0000
  C   C11       1.0  0.22394  0.38100  0.09996  1.0000
  C   C12       1.0  0.21884  0.36572  0.14865  1.0000
  H   H11       1.0  0.20871  0.43722  0.22096  1.0000
  H   H12       1.0  0.21739  0.46407  0.13446  1.0000
  H   H13       1.0  0.22782  0.36520  0.06608  1.0000
  H   H14       1.0  0.21908  0.33833  0.15218  1.0000
  C   C13       1.0  0.24972  0.17116  0.14271  1.0000
  C   C14       1.0  0.23967  0.14862  0.18120  1.0000
  C   C15       1.0  0.23901  0.11341  0.17124  1.0000
  C   C16       1.0  0.24837  0.10046  0.12275  1.0000
  C   C17       1.0  0.25872  0.12296  0.08440  1.0000
  C   C18       1.0  0.25952  0.15813  0.09448  1.0000
  H   H15       1.0  0.23256  0.15829  0.21875  1.0000
  H   H16       1.0  0.23123  0.09614  0.20125  1.0000
  H   H17       1.0  0.26615  0.11327  0.04699  1.0000
  H   H18       1.0  0.34626  0.22778  0.41518  1.0000
  H   H19       1.0  0.06410  0.21260  0.11565  1.0000
  H   H20       1.0  0.14408  0.04675  0.07858  1.0000
  C   C19       1.0  0.01776  0.24810  0.26135  1.0000
  H   H21       1.0  0.28967  0.43950  0.10139  1.0000
  H   H22       1.0  0.24572  0.38820  0.39858  1.0000
  C   C20       1.0  0.31454  0.43379  0.10951  1.0000
  H   H23       1.0  0.10748  0.18609  0.06547  1.0000
  C   C21       1.0  0.28104  0.48968  0.16712  1.0000
  C   C22       1.0  0.24878  0.36060  0.39108  1.0000
  H   H24       1.0  0.04460  0.17185  0.11840  1.0000
  H   H25       1.0  0.29879  0.43409  0.23914  1.0000
  H   H26       1.0  0.31680  0.36654  0.02013  1.0000
  H   H27       1.0  0.03583  0.40196  0.20976  1.0000
  N   N1        1.0  0.32267  0.44156  0.16548  1.0000
  H   H28       1.0  0.15403  0.34644  0.47700  1.0000
  H   H29       1.0  0.26511  0.47248  0.18833  1.0000
  C   C23       1.0  0.15385  0.04852  0.11856  1.0000
  H   H30       1.0  0.15594  0.41688  0.09919  1.0000
  H   H31       1.0  0.31408  0.11505  0.14437  1.0000
  H   H32       1.0  0.32626  0.37036  0.18566  1.0000
  C   C24       1.0  0.04270  0.28805  0.31949  1.0000
  H   H33       1.0  0.12262  0.34502  0.35288  1.0000
  C   C25       1.0  0.29399  0.24556  0.04524  1.0000
  H   H34       1.0  0.29692  0.27349  0.04919  1.0000
  C   C26       1.0  0.13121  0.36833  0.33316  1.0000
  H   H35       1.0  0.19118  0.24131  0.07569  1.0000
  C   C27       1.0  0.30350  0.42007  0.20227  1.0000
  H   H36       1.0  0.10232  0.26678  0.08019  1.0000
  H   H37       1.0  0.17030  0.21361  0.03172  1.0000
  C   C28       1.0  0.29310  0.36343  0.24674  1.0000
  H   H38       1.0  0.04214  0.34478  0.15923  1.0000
  H   H39       1.0  0.27480  0.48967  0.12522  1.0000
  H   H40       1.0  0.32631  0.08441  0.22646  1.0000
  C   C29       1.0  0.31739  0.38524  0.21900  1.0000
  C   C30       1.0  0.06112  0.18772  0.09568  1.0000
  N   N2        1.0  0.13855  0.14534  0.14423  1.0000
  C   C31       1.0  0.13334  0.10875  0.12886  1.0000
  C   C32       1.0  0.10748  0.16335  0.14409  1.0000
  C   C33       1.0  0.16094  0.16114  0.10607  1.0000
  C   C34       1.0  0.15230  0.14812  0.19812  1.0000
  C   C35       1.0  0.13457  0.12898  0.24174  1.0000
  C   C36       1.0  0.16237  0.08525  0.13168  1.0000
  C   C37       1.0  0.16727  0.19962  0.11366  1.0000
  C   C38       1.0  0.09249  0.16969  0.09001  1.0000
  H   H41       1.0  0.08112  0.38620  0.27231  1.0000
  C   C39       1.0  0.14968  0.13520  0.29480  1.0000
  H   H42       1.0  0.23896  0.37049  0.49212  1.0000
  C   C40       1.0  0.18495  0.21444  0.06737  1.0000
  H   H43       1.0  0.12476  0.10722  0.08805  1.0000
  H   H44       1.0  0.11449  0.09719  0.15273  1.0000
  H   H45       1.0  0.09012  0.14873  0.16713  1.0000
  H   H46       1.0  0.10915  0.18826  0.16437  1.0000
  H   H47       1.0  0.15312  0.15650  0.06533  1.0000
  H   H48       1.0  0.18418  0.14875  0.10875  1.0000
  H   H49       1.0  0.17686  0.13931  0.19845  1.0000
  H   H50       1.0  0.15348  0.17526  0.21031  1.0000
  H   H51       1.0  0.13468  0.10117  0.23468  1.0000
  H   H52       1.0  0.11007  0.13773  0.24443  1.0000
  H   H53       1.0  0.18028  0.09335  0.10321  1.0000
  H   H54       1.0  0.17297  0.08528  0.17103  1.0000
  H   H55       1.0  0.18152  0.20370  0.14920  1.0000
  H   H56       1.0  0.14554  0.21432  0.11785  1.0000
  H   H57       1.0  0.29043  0.40206  0.02107  1.0000
  H   H58       1.0  0.08840  0.14539  0.06917  1.0000
  H   H59       1.0  0.04107  0.30905  0.34657  1.0000
  H   H60       1.0  0.17515  0.03248  0.12031  1.0000
  H   H61       1.0  0.14434  0.37950  0.17433  1.0000
  H   H62       1.0  0.14767  0.16244  0.30574  1.0000
  H   H63       1.0  0.13758  0.11991  0.32491  1.0000
  H   H64       1.0  0.17466  0.12779  0.29425  1.0000
  H   H65       1.0  0.32499  0.31571  0.44921  1.0000
  C   C41       1.0  0.31897  0.39662  0.09107  1.0000
  S   S10       1.0  0.22867  0.43423  0.03213  1.0000
  H   H66       1.0  0.26874  0.23934  0.04553  1.0000
  H   H67       1.0  0.20680  0.20008  0.06030  1.0000
  H   H68       1.0  0.33707  0.38908  0.24640  1.0000
  N   N3        1.0  0.08433  0.35422  0.20365  1.0000
  C   C42       1.0  0.10032  0.32167  0.18765  1.0000
  H   H69       1.0  0.13406  0.43894  0.14847  1.0000
  C   C43       1.0  0.04955  0.34817  0.20046  1.0000
  H   H70       1.0  0.05087  0.19234  0.05661  1.0000
  C   C44       1.0  0.13301  0.41827  0.11901  1.0000
  C   C45       1.0  0.08927  0.30617  0.13521  1.0000
  C   C46       1.0  0.12689  0.36537  0.27421  1.0000
  C   C47       1.0  0.11134  0.27828  0.11671  1.0000
  H   H71       1.0  0.09679  0.30186  0.21784  1.0000
  H   H72       1.0  0.12595  0.32481  0.18577  1.0000
  H   H73       1.0  0.08186  0.34191  0.28529  1.0000
  H   H74       1.0  0.04322  0.32400  0.22057  1.0000
  H   H75       1.0  0.14576  0.25617  0.47152  1.0000
  H   H76       1.0  0.07642  0.38560  0.13528  1.0000
  H   H77       1.0  0.12806  0.36425  0.11479  1.0000
  H   H78       1.0  0.06594  0.29430  0.14011  1.0000
  H   H79       1.0  0.08753  0.32585  0.10446  1.0000
  H   H80       1.0  0.14062  0.34308  0.26134  1.0000
  C   C48       1.0  0.09269  0.38396  0.16904  1.0000
  H   H81       1.0  0.13492  0.28882  0.10910  1.0000
  H   H82       1.0  0.11300  0.25812  0.14676  1.0000
  C   C49       1.0  0.09203  0.36188  0.25985  1.0000
  C   C50       1.0  0.31546  0.47875  0.17488  1.0000
  H   H83       1.0  0.30417  0.33996  0.26203  1.0000
  C   C51       1.0  0.12595  0.38425  0.14508  1.0000
  H   H84       1.0  0.13662  0.38884  0.25678  1.0000
  H   H85       1.0  0.11504  0.42444  0.08933  1.0000
  H   H86       1.0  0.22856  0.31288  0.41224  1.0000
  H   H87       1.0  0.11855  0.39082  0.34850  1.0000
  H   H88       1.0  0.15637  0.37133  0.34228  1.0000
  Fe  Fe5       1.0  0.26695  0.03404  0.03721  1.0000
  C   C52       1.0  0.22644  0.33984  0.42464  1.0000
  H   H89       1.0  0.08940  0.40834  0.19046  1.0000
  C   C53       1.0  0.27650  0.24051  0.50215  1.0000
  H   H90       1.0  0.28006  0.41523  0.18508  1.0000
  H   H91       1.0  0.13668  0.03843  0.14691  1.0000
  H   H92       1.0  0.31698  0.05235  0.13956  1.0000
  C   C54       1.0  0.02851  0.37647  0.22355  1.0000
  H   H93       1.0  0.32142  0.48599  0.21553  1.0000
  H   H94       1.0  0.27334  0.35334  0.39901  1.0000
  C   C55       1.0  0.28665  0.02725  0.23390  1.0000
  H   H95       1.0  0.28309  0.05221  0.21480  1.0000
  H   H96       1.0  0.32841  0.45051  0.08339  1.0000
  C   C56       1.0  0.23465  0.34315  0.48338  1.0000
  C   C57       1.0  0.31416  0.39348  0.03225  1.0000
  H   H97       1.0  0.34265  0.38700  0.09967  1.0000
  H   H98       1.0  0.18411  0.30257  0.46309  1.0000
  H   H99       1.0  0.30504  0.23312  0.07940  1.0000
  S   S11       1.0  0.31856  0.02606  0.03344  1.0000
  C   C58       1.0  0.01537  0.27540  0.29610  1.0000
  H   H100      1.0  0.25781  0.33067  0.48698  1.0000
  H   H101      1.0  0.02964  0.37596  0.26677  1.0000
  H   H102      1.0  0.21445  0.27797  0.48959  1.0000
  N   N4        1.0  0.34054  0.01666  0.19131  1.0000
  H   H103      1.0  0.29683  0.03134  0.27306  1.0000
  H   H104      1.0  0.34157  0.13803  0.18382  1.0000
  Fe  Fe6       1.0  0.25013  0.48529  0.01119  1.0000
  H   H105      1.0  0.17873  0.38335  0.46910  1.0000
  C   C59       1.0  0.33816  0.11471  0.16010  1.0000
  H   H106      1.0  0.23963  0.02860  0.26465  1.0000
  C   C60       1.0  0.33925  0.05010  0.16171  1.0000
  C   C61       1.0  0.34318  0.08323  0.19390  1.0000
  H   H107      1.0  0.33164  0.40895  0.01094  1.0000
  C   C62       1.0  0.19642  0.29695  0.50004  1.0000
  C   C63       1.0  0.16594  0.36751  0.49766  1.0000
  H   H108      1.0  0.12506  0.39959  0.49041  1.0000
  H   H109      1.0  0.17686  0.22961  0.49614  1.0000
  S   S12       1.0  0.33483  0.27432  0.70585  1.0000
  C   C64       1.0  0.33680  0.43398  0.79173  1.0000
  Fe  Fe7       1.0  0.31452  0.04443  0.95087  1.0000
  H   H110      1.0  0.28379  0.31045  0.77819  1.0000
  S   S13       1.0  0.26325  0.05542  0.95642  1.0000
  H   H111      1.0  0.24652  0.32213  0.80526  1.0000
  C   C65       1.0  0.28328  0.46945  0.66808  1.0000
  H   H112      1.0  0.26824  0.24777  0.95101  1.0000
  H   H113      1.0  0.34012  0.20230  0.92121  1.0000
  H   H114      1.0  0.30387  0.16364  0.91252  1.0000
  H   H115      1.0  0.23010  0.50452  0.79210  1.0000
  H   H116      1.0  0.15308  0.29592  0.54607  1.0000
  H   H117      1.0  0.18468  0.50134  0.85418  1.0000
  C   C66       1.0  0.29970  0.25546  0.53368  1.0000
  H   H118      1.0  0.28841  0.20067  0.83476  1.0000
  H   H119      1.0  0.25765  0.21767  0.87350  1.0000
  H   H120      1.0  0.31130  0.43089  0.91686  1.0000
  H   H121      1.0  0.29782  0.44789  0.68195  1.0000
  H   H122      1.0  0.21475  0.30820  0.60116  1.0000
  C   C67       1.0  0.32474  0.10655  0.83695  1.0000
  C   C68       1.0  0.27095  0.32847  0.63969  1.0000
  C   C69       1.0  0.14067  0.38994  0.52161  1.0000
  H   H123      1.0  0.23399  0.51182  0.67437  1.0000
  H   H124      1.0  0.30693  0.08746  0.84268  1.0000
  C   C70       1.0  0.32087  0.42241  0.88018  1.0000
  C   C71       1.0  0.30919  0.23274  0.99521  1.0000
  S   S14       1.0  0.34506  0.30419  0.55428  1.0000
  C   C72       1.0  0.27037  0.31323  0.81490  1.0000
  H   H125      1.0  0.31599  0.28675  0.86833  1.0000
  H   H126      1.0  0.30382  0.24602  0.57264  1.0000
  H   H127      1.0  0.12637  0.37514  0.54960  1.0000
  C   C73       1.0  0.31702  0.28296  0.51508  1.0000
  H   H128      1.0  0.34150  0.21143  0.85417  1.0000
  C   C74       1.0  0.32341  0.12833  0.79355  1.0000
  C   C75       1.0  0.26867  0.27931  0.84379  1.0000
  H   H129      1.0  0.20089  0.37725  0.55515  1.0000
  H   H130      1.0  0.30444  0.12587  0.76602  1.0000
  C   C76       1.0  0.18872  0.35437  0.53983  1.0000
  N   N5        1.0  0.30366  0.23625  0.89374  1.0000
  C   C77       1.0  0.15834  0.24801  0.50723  1.0000
  H   H131      1.0  0.23883  0.36549  0.61036  1.0000
  C   C78       1.0  0.30168  0.26493  0.85478  1.0000
  H   H132      1.0  0.26171  0.47553  0.74257  1.0000
  H   H133      1.0  0.24522  0.29444  0.55936  1.0000
  H   H134      1.0  0.26556  0.14341  0.84436  1.0000
  H   H135      1.0  0.15122  0.41208  0.54198  1.0000
  C   C79       1.0  0.28067  0.17579  0.90885  1.0000
  H   H136      1.0  0.28180  0.33282  0.83961  1.0000
  H   H137      1.0  0.14156  0.23490  0.53322  1.0000
  H   H138      1.0  0.25538  0.26140  0.81869  1.0000
  H   H139      1.0  0.25512  0.31907  0.67066  1.0000
  H   H140      1.0  0.29622  0.50050  0.73287  1.0000
  C   C80       1.0  0.32453  0.44549  0.83934  1.0000
  H   H141      1.0  0.25556  0.28343  0.88043  1.0000
  H   H142      1.0  0.29930  0.27720  0.95024  1.0000
  C   C81       1.0  0.17247  0.27865  0.53537  1.0000
  H   H143      1.0  0.31183  0.25701  0.81667  1.0000
  C   C82       1.0  0.28207  0.20839  0.87527  1.0000
  H   H144      1.0  0.23426  0.15945  0.88446  1.0000
  H   H145      1.0  0.28661  0.34802  0.65681  1.0000
  S   S15       1.0  0.24000  0.50331  0.92982  1.0000
  C   C83       1.0  0.25853  0.14966  0.88480  1.0000
  H   H146      1.0  0.28564  0.30708  0.62566  1.0000
  C   C84       1.0  0.34624  0.15342  0.78577  1.0000
  C   C85       1.0  0.33011  0.38834  0.87389  1.0000
  H   H147      1.0  0.29705  0.48425  0.63939  1.0000
  C   C86       1.0  0.25240  0.34383  0.59461  1.0000
  H   H148      1.0  0.26219  0.45891  0.64884  1.0000
  H   H149      1.0  0.33430  0.23915  0.99774  1.0000
  C   C87       1.0  0.27425  0.49181  0.71433  1.0000
  C   C88       1.0  0.34571  0.39973  0.78521  1.0000
  S   S16       1.0  0.30199  0.48716  0.00055  1.0000
  H   H150      1.0  0.27131  0.18167  0.94799  1.0000
  H   H151      1.0  0.32766  0.37082  0.90603  1.0000
  C   C89       1.0  0.34270  0.37687  0.82656  1.0000
  N   N6        1.0  0.21206  0.32813  0.52239  1.0000
  H   H152      1.0  0.33984  0.45171  0.76003  1.0000
  H   H153      1.0  0.25913  0.12594  0.90811  1.0000
  S   S17       1.0  0.31449  0.48889  0.84669  1.0000
  H   H154      1.0  0.26959  0.35380  0.56626  1.0000
  H   H155      1.0  0.18362  0.26894  0.57135  1.0000
  C   C90       1.0  0.29401  0.24954  0.94663  1.0000
  Fe  Fe8       1.0  0.29176  0.50764  0.92131  1.0000
  H   H156      1.0  0.17491  0.34465  0.57330  1.0000
  C   C91       1.0  0.23051  0.31684  0.56955  1.0000
  C   C92       1.0  0.33665  0.22314  0.89273  1.0000
  S   S18       1.0  0.34260  0.18095  0.73164  1.0000
  H   H157      1.0  0.26282  0.21964  0.51729  1.0000
  H   H158      1.0  0.30748  0.20472  0.99464  1.0000
  S   S19       1.0  0.31902  0.77359  0.28923  1.0000
  H   H159      1.0  0.27395  0.66361  0.12825  1.0000
  H   H160      1.0  0.24583  0.74768  0.07963  1.0000
  S   S20       1.0  0.24709  0.53793  0.04548  1.0000
  C   C93       1.0  0.33815  0.87895  0.18739  1.0000
  H   H161      1.0  0.27932  0.52689  0.23025  1.0000
  H   H162      1.0  0.28328  0.85318  0.05675  1.0000
  H   H163      1.0  0.24432  0.80428  0.05385  1.0000
  C   C94       1.0  0.27525  0.52564  0.18760  1.0000
  H   H164      1.0  0.25075  0.53308  0.17964  1.0000
  C   C95       1.0  0.30011  0.61848  0.10986  1.0000
  C   C96       1.0  0.33762  0.77970  0.07945  1.0000
  H   H165      1.0  0.28123  0.60664  0.08865  1.0000
  H   H166      1.0  0.29542  0.75304  0.09494  1.0000
  Fe  Fe9       1.0  0.34603  0.73596  0.24129  1.0000
  H   H167      1.0  0.25463  0.87817  0.09072  1.0000
  H   H168      1.0  0.26230  0.84678  0.31122  1.0000
  H   H169      1.0  0.20829  0.70297  0.10109  1.0000
  H   H170      1.0  0.30764  0.97829  0.21724  1.0000
  C   C97       1.0  0.31412  0.91885  0.12642  1.0000
  C   C98       1.0  0.29605  0.65082  0.13231  1.0000
  C   C99       1.0  0.25798  0.85642  0.06383  1.0000
  C   C100      1.0  0.26382  0.80898  0.48847  1.0000
  H   H171      1.0  0.29778  0.93917  0.11869  1.0000
  C   C101      1.0  0.30177  0.76376  0.47520  1.0000
  C   C102      1.0  0.28723  0.79354  0.45799  1.0000
  H   H172      1.0  0.30261  0.91515  0.20803  1.0000
  H   H173      1.0  0.29400  0.80464  0.42121  1.0000
  S   S21       1.0  0.31440  0.70854  0.18355  1.0000
  H   H174      1.0  0.26510  0.87877  0.26150  1.0000
  N   N7        1.0  0.25735  0.80970  0.13531  1.0000
  C   C103      1.0  0.24321  0.82329  0.08563  1.0000
  C   C104      1.0  0.24091  0.77752  0.15257  1.0000
  C   C105      1.0  0.25236  0.83645  0.17681  1.0000
  C   C106      1.0  0.29191  0.80360  0.13011  1.0000
  H   H175      1.0  0.29076  0.54418  0.16798  1.0000
  H   H176      1.0  0.23664  0.70670  0.15263  1.0000
  C   C107      1.0  0.26260  0.82667  0.23266  1.0000
  C   C108      1.0  0.22816  0.75350  0.10950  1.0000
  C   C109      1.0  0.21709  0.71982  0.13257  1.0000
  C   C110      1.0  0.32032  0.66669  0.15985  1.0000
  C   C111      1.0  0.25389  0.85426  0.27193  1.0000
  H   H177      1.0  0.21787  0.82817  0.09151  1.0000
  H   H178      1.0  0.25649  0.98661  0.26215  1.0000
  H   H179      1.0  0.25648  0.76226  0.17842  1.0000
  H   H180      1.0  0.22018  0.78377  0.17689  1.0000
  H   H181      1.0  0.22731  0.84389  0.17836  1.0000
  H   H182      1.0  0.26557  0.85996  0.16764  1.0000
  H   H183      1.0  0.30442  0.82811  0.12574  1.0000
  H   H184      1.0  0.30154  0.79235  0.16650  1.0000
  S   S22       1.0  0.33188  0.74360  0.43904  1.0000
  H   H185      1.0  0.29559  0.00095  0.16179  1.0000
  C   C112      1.0  0.31687  0.90521  0.17689  1.0000
  H   H186      1.0  0.22823  0.85763  0.27353  1.0000
  H   H187      1.0  0.28818  0.82402  0.23385  1.0000
  H   H188      1.0  0.25193  0.80252  0.24589  1.0000
  H   H189      1.0  0.20788  0.76549  0.08978  1.0000
  C   C113      1.0  0.32855  0.60153  0.11495  1.0000
  H   H190      1.0  0.19800  0.72418  0.16095  1.0000
  H   H191      1.0  0.25632  0.68118  0.04197  1.0000
  H   H192      1.0  0.25260  0.83182  0.47454  1.0000
  C   C114      1.0  0.30224  0.77952  0.08567  1.0000
  H   H193      1.0  0.29216  0.78690  0.04770  1.0000
  Fe  Fe10      1.0  0.29842  0.54131  0.02860  1.0000
  C   C115      1.0  0.30769  0.00420  0.20003  1.0000
  S   S23       1.0  0.33440  0.56107  0.08616  1.0000
  S   S24       1.0  0.33240  0.92475  0.02345  1.0000
  S   S25       1.0  0.25578  0.98027  0.01274  1.0000
  C   C116      1.0  0.33324  0.90684  0.08643  1.0000
  C   C117      1.0  0.24296  0.86642  0.01221  1.0000
  S   S26       1.0  0.34240  0.86417  0.25190  1.0000
  H   H194      1.0  0.34599  0.80542  0.06845  1.0000
  H   H195      1.0  0.24300  0.00702  0.20309  1.0000
  H   H196      1.0  0.29462  0.66794  0.02006  1.0000
  H   H197      1.0  0.21790  0.87247  0.01764  1.0000
  H   H198      1.0  0.34403  0.99012  0.11789  1.0000
  H   H199      1.0  0.33724  0.97834  0.28832  1.0000
  H   H200      1.0  0.26132  0.64072  0.01017  1.0000
  C   C118      1.0  0.26930  0.66760  0.01094  1.0000
  H   H201      1.0  0.34450  0.76146  0.04854  1.0000
  C   C119      1.0  0.25451  0.01125  0.24134  1.0000
  Fe  Fe11      1.0  0.18919  0.80168  0.76084  1.0000
  S   S27       1.0  0.16482  0.82062  0.68869  1.0000
  S   S28       1.0  0.20749  0.82561  0.83510  1.0000
  Fe  Fe12      1.0  0.19711  0.73064  0.71836  1.0000
  S   S29       1.0  0.17360  0.74309  0.64251  1.0000
  S   S30       1.0  0.22195  0.68131  0.73637  1.0000
  Fe  Fe13      1.0  0.20145  0.79139  0.64398  1.0000
  S   S31       1.0  0.22565  0.81576  0.57426  1.0000
  Fe  Fe14      1.0  0.13819  0.77114  0.69165  1.0000
  S   S32       1.0  0.08776  0.76443  0.66365  1.0000
  S   S33       1.0  0.22756  0.77685  0.71577  1.0000
  S   S34       1.0  0.15991  0.75428  0.76745  1.0000
  H   H202      1.0  0.31248  0.59889  0.82016  1.0000
  S   S35       1.0  0.30830  0.99133  0.91974  1.0000
  S   S36       1.0  0.22261  0.98457  0.86915  1.0000
  Fe  Fe15      1.0  0.24174  0.55626  0.96268  1.0000
  S   S37       1.0  0.20532  0.59643  0.94314  1.0000
  S   S38       1.0  0.29297  0.56242  0.94774  1.0000
  C   C120      1.0  0.04998  0.76866  0.69161  1.0000
  C   C121      1.0  0.04537  0.77855  0.74339  1.0000
  H   H203      1.0  0.03097  0.70657  0.74191  1.0000
  H   H204      1.0  0.06519  0.78545  0.76721  1.0000
  C   C122      1.0  0.31625  0.82306  0.93672  1.0000
  C   C123      1.0  0.22816  0.57675  0.71540  1.0000
  C   C124      1.0  0.26902  0.76496  0.55337  1.0000
  H   H205      1.0  0.17482  0.88362  0.78931  1.0000
  H   H206      1.0  0.26218  0.75374  0.59003  1.0000
  H   H207      1.0  0.24490  0.58877  0.68797  1.0000
  C   C125      1.0  0.21810  0.66231  0.79802  1.0000
  C   C126      1.0  0.18999  0.66323  0.82546  1.0000
  C   C127      1.0  0.18651  0.64374  0.87104  1.0000
  C   C128      1.0  0.21115  0.62352  0.88941  1.0000
  C   C129      1.0  0.23972  0.62440  0.86368  1.0000
  C   C130      1.0  0.24309  0.64342  0.81786  1.0000
  H   H208      1.0  0.17068  0.67794  0.81058  1.0000
  H   H209      1.0  0.16446  0.64358  0.89136  1.0000
  H   H210      1.0  0.25906  0.60974  0.87854  1.0000
  H   H211      1.0  0.26498  0.64291  0.79706  1.0000
  C   C131      1.0  0.21147  0.86994  0.84261  1.0000
  C   C132      1.0  0.23401  0.88230  0.87736  1.0000
  C   C133      1.0  0.23768  0.91738  0.88552  1.0000
  C   C134      1.0  0.21847  0.94041  0.85939  1.0000
  C   C135      1.0  0.19588  0.92810  0.82450  1.0000
  C   C136      1.0  0.19250  0.89293  0.81580  1.0000
  H   H212      1.0  0.24908  0.86469  0.89740  1.0000
  H   H213      1.0  0.25535  0.92664  0.91209  1.0000
  H   H214      1.0  0.18085  0.94586  0.80443  1.0000
  H   H215      1.0  0.10943  0.64684  0.84011  1.0000
  H   H216      1.0  0.26440  0.78750  0.95305  1.0000
  C   C137      1.0  0.28179  0.74327  0.81077  1.0000
  C   C138      1.0  0.19753  0.57135  0.68441  1.0000
  C   C139      1.0  0.30314  0.72727  0.77005  1.0000
  C   C140      1.0  0.17638  0.74512  0.92188  1.0000
  H   H217      1.0  0.22741  0.75600  0.86157  1.0000
  H   H218      1.0  0.26580  0.79417  0.88525  1.0000
  H   H219      1.0  0.25759  0.74008  0.79660  1.0000
  H   H220      1.0  0.28723  0.77074  0.81296  1.0000
  H   H221      1.0  0.28880  0.59886  0.73119  1.0000
  C   C141      1.0  0.26847  0.55617  0.77495  1.0000
  H   H222      1.0  0.30171  0.99958  0.80105  1.0000
  H   H223      1.0  0.31220  0.88992  0.74755  1.0000
  C   C142      1.0  0.20171  0.90459  0.66984  1.0000
  H   H224      1.0  0.32833  0.97976  0.75614  1.0000
  H   H225      1.0  0.23776  0.68171  0.95069  1.0000
  C   C143      1.0  0.29372  0.87076  0.74065  1.0000
  H   H226      1.0  0.08877  0.73759  0.90417  1.0000
  C   C144      1.0  0.23288  0.73912  0.89509  1.0000
  C   C145      1.0  0.31083  0.78592  0.92150  1.0000
  H   H227      1.0  0.11199  0.57793  0.78371  1.0000
  H   H228      1.0  0.25524  0.87424  0.63180  1.0000
  H   H229      1.0  0.24536  0.86625  0.72178  1.0000
  C   C146      1.0  0.07890  0.67134  0.69622  1.0000
  C   C147      1.0  0.27553  0.77791  0.91686  1.0000
  H   H230      1.0  0.32218  0.76992  0.95148  1.0000
  C   C148      1.0  0.21016  0.74966  0.93916  1.0000
  N   N8        1.0  0.26709  0.74105  0.90833  1.0000
  H   H231      1.0  0.22656  0.71321  0.88131  1.0000
  H   H232      1.0  0.34121  0.59619  0.76918  1.0000
  C   C149      1.0  0.01505  0.77898  0.76463  1.0000
  C   C150      1.0  0.28551  0.72569  0.86427  1.0000
  H   H233      1.0  0.12854  0.68619  0.70433  1.0000
  C   C151      1.0  0.27439  0.72143  0.95731  1.0000
  H   H234      1.0  0.08550  0.72389  0.75677  1.0000
  H   H235      1.0  0.16353  0.60079  0.64083  1.0000
  H   H236      1.0  0.14536  0.66782  0.61779  1.0000
  H   H237      1.0  0.17976  0.62272  0.69629  1.0000
  H   H238      1.0  0.17133  0.76131  0.88747  1.0000
  C   C152      1.0  0.18518  0.60516  0.66360  1.0000
  C   C153      1.0  0.07480  0.70919  0.83554  1.0000
  H   H239      1.0  0.13470  0.59139  0.83911  1.0000
  C   C154      1.0  0.12011  0.67118  0.62572  1.0000
  H   H240      1.0  0.31073  0.72443  0.87428  1.0000
  H   H241      1.0  0.30041  0.85492  0.70666  1.0000
  C   C155      1.0  0.09817  0.73122  0.86512  1.0000
  H   H242      1.0  0.27835  0.69889  0.85778  1.0000
  C   C156      1.0  0.07507  0.63753  0.77796  1.0000
  H   H243      1.0  0.05271  0.72383  0.83268  1.0000
  H   H244      1.0  0.20261  0.61746  0.63782  1.0000
  H   H245      1.0  0.20092  0.51393  0.74582  1.0000
  Fe  Fe16      1.0  0.25720  0.00072  0.93117  1.0000
  H   H246      1.0  0.07023  0.68592  0.85864  1.0000
  H   H247      1.0  0.17080  0.94395  0.63968  1.0000
  H   H248      1.0  0.22384  0.59653  0.74543  1.0000
  H   H249      1.0  0.27942  0.96399  0.67262  1.0000
  H   H250      1.0  0.11206  0.69496  0.78297  1.0000
  H   H251      1.0  0.11326  0.69704  0.61259  1.0000
  H   H252      1.0  0.10691  0.65196  0.60293  1.0000
  H   H253      1.0  0.25288  0.89804  0.76864  1.0000
  H   H254      1.0  0.10255  0.75528  0.84373  1.0000
  H   H255      1.0  0.29848  0.00859  0.73270  1.0000
  H   H256      1.0  0.25763  0.96842  0.76426  1.0000
  C   C157      1.0  0.29258  0.74967  0.52310  1.0000
  C   C158      1.0  0.22799  0.92911  0.68755  1.0000
  H   H257      1.0  0.05760  0.63274  0.80915  1.0000
  H   H258      1.0  0.29756  0.69986  0.76506  1.0000
  H   H259      1.0  0.28743  0.93973  0.78633  1.0000
  N   N9        1.0  0.06962  0.67183  0.75293  1.0000
  H   H260      1.0  0.26485  0.73464  0.99208  1.0000
  C   C159      1.0  0.08678  0.70024  0.78023  1.0000
  H   H261      1.0  0.07112  0.61686  0.74902  1.0000
  C   C160      1.0  0.10739  0.63156  0.80391  1.0000
  H   H262      1.0  0.07075  0.69508  0.67687  1.0000
  H   H263      1.0  0.31532  0.83389  0.79215  1.0000
  H   H264      1.0  0.12695  0.63886  0.77838  1.0000
  C   C161      1.0  0.26552  0.92082  0.58927  1.0000
  H   H265      1.0  0.30365  0.72665  0.53675  1.0000
  C   C162      1.0  0.29633  0.57442  0.74866  1.0000
  H   H266      1.0  0.19946  0.88325  0.69755  1.0000
  H   H267      1.0  0.09323  0.58588  0.84578  1.0000
  H   H268      1.0  0.12170  0.64113  0.69465  1.0000
  C   C163      1.0  0.11398  0.66706  0.68398  1.0000
  H   H269      1.0  0.16047  0.75274  0.95386  1.0000
  C   C164      1.0  0.11195  0.59434  0.81892  1.0000
  H   H270      1.0  0.02700  0.75243  0.62112  1.0000
  C   C165      1.0  0.25454  0.79480  0.53630  1.0000
  H   H271      1.0  0.06711  0.65016  0.67534  1.0000
  C   C166      1.0  0.26150  0.88753  0.73118  1.0000
  H   H272      1.0  0.25673  0.87984  0.53434  1.0000
  H   H273      1.0  0.27380  0.82847  0.78414  1.0000
  H   H274      1.0  0.21341  0.77683  0.94953  1.0000
  H   H275      1.0  0.19117  0.57043  0.79926  1.0000
  H   H276      1.0  0.12044  0.71730  0.87020  1.0000
  H   H277      1.0  0.28153  0.94291  0.59163  1.0000
  H   H278      1.0  0.17900  0.56028  0.70917  1.0000
  C   C167      1.0  0.28130  0.95859  0.75591  1.0000
  C   C168      1.0  0.17026  0.92273  0.66812  1.0000
  H   H279      1.0  0.25973  0.57376  0.80502  1.0000
  H   H280      1.0  0.01801  0.62956  0.73060  1.0000
  H   H281      1.0  0.02657  0.67888  0.79591  1.0000
  H   H282      1.0  0.21351  0.73405  0.97462  1.0000
  H   H283      1.0  0.27734  0.53421  0.79743  1.0000
  H   H284      1.0  0.30643  0.82847  0.97579  1.0000
  N   N10       1.0  0.24228  0.54538  0.73956  1.0000
  N   N11       1.0  0.26040  0.91430  0.68929  1.0000
  C   C169      1.0  0.26310  0.68391  0.95819  1.0000
  H   H285      1.0  0.34165  0.82845  0.93810  1.0000
  C   C170      1.0  0.26894  0.89797  0.63812  1.0000
  H   H286      1.0  0.29366  0.88951  0.63879  1.0000
  H   H287      1.0  0.22724  0.95207  0.66231  1.0000
  C   C171      1.0  0.21868  0.52603  0.77142  1.0000
  C   C172      1.0  0.28309  0.94274  0.70052  1.0000
  H   H288      1.0  0.20150  0.55422  0.65073  1.0000
  H   H289      1.0  0.24525  0.84554  0.98342  1.0000
  H   H290      1.0  0.29954  0.74008  0.73199  1.0000
  H   H291      1.0  0.03148  0.82331  0.93600  1.0000
  H   H292      1.0  0.16411  0.93280  0.70720  1.0000
  H   H293      1.0  0.27572  0.66857  0.92878  1.0000
  H   H294      1.0  0.22113  0.93844  0.72669  1.0000
  C   C173      1.0  0.30391  0.98840  0.76150  1.0000
  H   H295      1.0  0.30750  0.93433  0.69380  1.0000
  H   H296      1.0  0.20612  0.89402  0.63050  1.0000
  H   H297      1.0  0.32796  0.73013  0.78152  1.0000
  H   H298      1.0  0.27181  0.91808  0.50550  1.0000
  C   C174      1.0  0.29279  0.84750  0.78812  1.0000
  C   C175      1.0  0.17561  0.52589  0.83916  1.0000
  C   C176      1.0  0.02379  0.76006  0.66123  1.0000
  H   H299      1.0  0.24137  0.93036  0.58476  1.0000
  H   H300      1.0  0.15187  0.90447  0.65594  1.0000
  H   H301      1.0  0.26769  0.53722  0.66772  1.0000
  C   C177      1.0  0.03519  0.68001  0.75511  1.0000
  H   H302      1.0  0.29997  0.72050  0.96408  1.0000
  H   H303      1.0  0.21832  0.55355  0.84579  1.0000
  H   H304      1.0  0.17181  0.71807  0.91197  1.0000
  H   H305      1.0  0.28889  0.86279  0.82382  1.0000
  C   C178      1.0  0.32177  0.58253  0.78850  1.0000
  H   H306      1.0  0.30539  0.84046  0.90798  1.0000
  H   H307      1.0  0.32272  0.78150  0.88377  1.0000
  H   H308      1.0  0.33115  0.55874  0.80575  1.0000
  C   C179      1.0  0.27347  0.90105  0.53983  1.0000
  C   C180      1.0  0.25397  0.52247  0.69668  1.0000
  C   C181      1.0  0.20171  0.54671  0.81439  1.0000
  H   H309      1.0  0.29748  0.89059  0.54185  1.0000
  H   H310      1.0  0.01655  0.66166  0.68036  1.0000
  H   H311      1.0  0.16561  0.54026  0.87245  1.0000
  H   H312      1.0  0.25480  0.88937  0.99659  1.0000
  H   H313      1.0  0.30693  0.55853  0.71777  1.0000
  H   H314      1.0  0.15682  0.52085  0.81042  1.0000
  Fe  Fe17      1.0  0.30732  0.97395  0.00324  1.0000
  H   H315      1.0  0.34693  0.83459  0.50770  1.0000
  H   H316      1.0  0.44816  0.27966  0.42270  1.0000
  H   H317      1.0  0.36422  0.41003  0.16740  1.0000
  H   H318      1.0  0.40007  0.25082  0.41281  1.0000
  C   C182      1.0  0.38887  0.24631  0.45106  1.0000
  H   H319      1.0  0.38212  0.02924  0.23475  1.0000
  H   H320      1.0  0.50370  0.25226  0.37136  1.0000
  N   N12       1.0  0.44113  0.25859  0.49941  1.0000
  H   H321      1.0  0.36715  0.08471  0.21014  1.0000
  C   C183      1.0  0.50798  0.27411  0.39789  1.0000
  H   H322      1.0  0.37435  0.19496  0.42934  1.0000
  C   C184      1.0  0.45877  0.26012  0.44859  1.0000
  H   H323      1.0  0.37354  0.47777  0.22416  1.0000
  H   H324      1.0  0.50678  0.24460  0.46772  1.0000
  H   H325      1.0  0.35702  0.05141  0.13042  1.0000
  H   H326      1.0  0.47795  0.20031  0.49942  1.0000
  H   H327      1.0  0.45640  0.23568  0.42692  1.0000
  H   H328      1.0  0.41929  0.44073  0.20427  1.0000
  H   H329      1.0  0.50018  0.28888  0.47710  1.0000
  H   H330      1.0  0.49746  0.29742  0.38096  1.0000
  C   C185      1.0  0.36389  0.21898  0.44387  1.0000
  H   H331      1.0  0.41225  0.44503  0.27314  1.0000
  H   H332      1.0  0.53354  0.27805  0.40114  1.0000
  H   H333      1.0  0.40122  0.40636  0.24020  1.0000
  C   C186      1.0  0.40286  0.43442  0.23622  1.0000
  C   C187      1.0  0.49441  0.26705  0.45175  1.0000
  H   H334      1.0  0.42076  0.20947  0.48163  1.0000
  H   H335      1.0  0.41327  0.30366  0.48460  1.0000
  C   C188      1.0  0.37077  0.44967  0.22529  1.0000
  H   H336      1.0  0.35491  0.11512  0.12717  1.0000
  H   H337      1.0  0.37021  0.45084  0.14143  1.0000
  H   H338      1.0  0.39816  0.02042  0.13764  1.0000
  H   H339      1.0  0.46441  0.32863  0.48636  1.0000
  H   H340      1.0  0.37653  0.26975  0.46300  1.0000
  C   C189      1.0  0.41319  0.23551  0.49274  1.0000
  H   H341      1.0  0.35512  0.44341  0.25821  1.0000
  C   C190      1.0  0.35817  0.01954  0.24201  1.0000
  C   C191      1.0  0.35734  0.43696  0.17258  1.0000
  H   H342      1.0  0.35176  0.21402  0.48129  1.0000
  H   H343      1.0  0.37121  0.01197  0.34792  1.0000
  H   H344      1.0  0.34746  0.03877  0.26796  1.0000
  C   C192      1.0  0.46051  0.24476  0.54362  1.0000
  Fe  Fe18      1.0  0.42551  0.27464  0.68883  1.0000
  S   S39       1.0  0.40266  0.26034  0.76503  1.0000
  S   S40       1.0  0.47588  0.28387  0.66149  1.0000
  H   H345      1.0  0.39126  0.13664  0.89205  1.0000
  H   H346      1.0  0.50214  0.17099  0.57520  1.0000
  H   H347      1.0  0.44756  0.24720  0.58078  1.0000
  C   C193      1.0  0.39350  0.23405  0.91603  1.0000
  S   S41       1.0  0.39339  0.24096  0.64166  1.0000
  S   S42       1.0  0.39528  0.32099  0.67773  1.0000
  Fe  Fe19      1.0  0.66310  0.25154  0.71033  1.0000
  H   H348      1.0  0.63073  0.33731  0.62218  1.0000
  S   S43       1.0  0.61285  0.24169  0.73721  1.0000
  H   H349      1.0  0.62305  0.45003  0.82339  1.0000
  H   H350      1.0  0.58240  0.35692  0.66269  1.0000
  S   S44       1.0  0.35497  0.33401  0.82200  1.0000
  H   H351      1.0  0.66394  0.43932  0.82433  1.0000
  H   H352      1.0  0.45608  0.37393  0.55014  1.0000
  H   H353      1.0  0.45003  0.19036  0.54920  1.0000
  C   C194      1.0  0.45352  0.32151  0.52393  1.0000
  H   H354      1.0  0.63799  0.40856  0.75350  1.0000
  C   C195      1.0  0.51358  0.27072  0.68253  1.0000
  C   C196      1.0  0.51842  0.25329  0.72922  1.0000
  C   C197      1.0  0.54890  0.24434  0.74479  1.0000
  C   C198      1.0  0.57495  0.25253  0.71396  1.0000
  C   C199      1.0  0.57007  0.26977  0.66701  1.0000
  C   C200      1.0  0.53959  0.27889  0.65158  1.0000
  H   H355      1.0  0.49873  0.24684  0.75351  1.0000
  H   H356      1.0  0.55234  0.23097  0.78113  1.0000
  H   H357      1.0  0.58978  0.27616  0.64273  1.0000
  H   H358      1.0  0.53616  0.29239  0.61538  1.0000
  N   N13       1.0  0.59415  0.35043  0.77642  1.0000
  C   C201      1.0  0.61310  0.34355  0.72800  1.0000
  C   C202      1.0  0.60031  0.32279  0.81584  1.0000
  C   C203      1.0  0.56012  0.34811  0.76124  1.0000
  C   C204      1.0  0.60049  0.38514  0.79963  1.0000
  C   C205      1.0  0.63416  0.39941  0.79383  1.0000
  C   C206      1.0  0.60467  0.36583  0.68014  1.0000
  C   C207      1.0  0.53616  0.34915  0.80634  1.0000
  C   C208      1.0  0.63412  0.31927  0.83572  1.0000
  H   H359      1.0  0.47182  0.31373  0.55190  1.0000
  C   C209      1.0  0.64003  0.42927  0.83064  1.0000
  H   H360      1.0  0.51766  0.21335  0.56851  1.0000
  C   C210      1.0  0.50291  0.35260  0.78548  1.0000
  H   H361      1.0  0.61041  0.31655  0.71586  1.0000
  C   C211      1.0  0.47017  0.20689  0.53932  1.0000
  H   H362      1.0  0.58624  0.32689  0.85155  1.0000
  H   H363      1.0  0.59282  0.29775  0.79984  1.0000
  H   H364      1.0  0.55568  0.32418  0.73913  1.0000
  H   H365      1.0  0.55377  0.36923  0.73450  1.0000
  H   H366      1.0  0.58492  0.40467  0.78205  1.0000
  H   H367      1.0  0.59442  0.38519  0.84178  1.0000
  H   H368      1.0  0.60182  0.39288  0.69136  1.0000
  C   C212      1.0  0.37219  0.13436  0.86468  1.0000
  H   H369      1.0  0.65264  0.37130  0.65303  1.0000
  C   C213      1.0  0.63777  0.28795  0.87030  1.0000
  H   H370      1.0  0.54087  0.37079  0.83296  1.0000
  H   H371      1.0  0.53693  0.32508  0.82888  1.0000
  H   H372      1.0  0.65079  0.31665  0.80321  1.0000
  H   H373      1.0  0.64042  0.34164  0.85989  1.0000
  H   H374      1.0  0.48905  0.20433  0.61817  1.0000
  Fe  Fe20      1.0  0.36236  0.28647  0.63406  1.0000
  H   H375      1.0  0.63835  0.42091  0.87184  1.0000
  H   H376      1.0  0.40117  0.21617  0.88512  1.0000
  H   H377      1.0  0.41466  0.29105  0.55094  1.0000
  H   H378      1.0  0.41151  0.25414  0.92038  1.0000
  C   C214      1.0  0.37090  0.15605  0.82114  1.0000
  H   H379      1.0  0.42823  0.34841  0.58476  1.0000
  H   H380      1.0  0.40053  0.23280  0.53034  1.0000
  H   H381      1.0  0.49720  0.33106  0.75905  1.0000
  H   H382      1.0  0.48614  0.35229  0.81834  1.0000
  H   H383      1.0  0.50002  0.37688  0.76400  1.0000
  H   H384      1.0  0.38892  0.17482  0.81495  1.0000
  H   H385      1.0  0.63843  0.34623  0.73533  1.0000
  H   H386      1.0  0.36604  0.26476  0.86480  1.0000
  H   H387      1.0  0.65227  0.38019  0.80171  1.0000
  H   H388      1.0  0.62321  0.38087  0.60512  1.0000
  C   C215      1.0  0.36240  0.25031  0.90136  1.0000
  Fe  Fe21      1.0  0.36811  0.23072  0.71683  1.0000
  H   H389      1.0  0.63289  0.26440  0.84774  1.0000
  Fe  Fe22      1.0  0.37040  0.30469  0.75019  1.0000
  H   H390      1.0  0.66206  0.28669  0.88501  1.0000
  C   C216      1.0  0.49637  0.19846  0.57763  1.0000
  H   H391      1.0  0.62173  0.28928  0.90412  1.0000
  C   C217      1.0  0.62944  0.36363  0.63769  1.0000
  H   H392      1.0  0.48190  0.26004  0.54982  1.0000
  C   C218      1.0  0.43831  0.35360  0.54582  1.0000
  H   H393      1.0  0.35592  0.26890  0.93195  1.0000
  H   H394      1.0  0.41958  0.36283  0.51948  1.0000
  H   H395      1.0  0.35550  0.39119  0.74870  1.0000
  C   C219      1.0  0.42902  0.29323  0.51490  1.0000
  H   H396      1.0  0.39148  0.22012  0.95345  1.0000
  C   C220      1.0  0.34907  0.10960  0.87286  1.0000
  S   S45       1.0  0.35138  0.08328  0.92852  1.0000
  H   H397      1.0  0.50222  0.68384  0.26185  1.0000
  Fe  Fe23      1.0  0.40829  0.75694  0.29198  1.0000
  S   S46       1.0  0.38359  0.77311  0.21792  1.0000
  S   S47       1.0  0.45786  0.73870  0.31114  1.0000
  H   H398      1.0  0.60626  0.63598  0.33803  1.0000
  H   H399      1.0  0.36747  0.66135  0.18726  1.0000
  C   C221      1.0  0.35638  0.86606  0.14690  1.0000
  H   H400      1.0  0.46626  0.71888  0.42480  1.0000
  S   S48       1.0  0.38514  0.79702  0.34135  1.0000
  S   S49       1.0  0.37220  0.71702  0.31111  1.0000
  Fe  Fe24      1.0  0.64457  0.77760  0.28040  1.0000
  C   C222      1.0  0.50864  0.82908  0.38446  1.0000
  S   S50       1.0  0.59471  0.79326  0.25875  1.0000
  H   H401      1.0  0.64065  0.74933  0.10696  1.0000
  H   H402      1.0  0.39693  0.94354  0.11420  1.0000
  H   H403      1.0  0.37293  0.84593  0.15458  1.0000
  H   H404      1.0  0.48547  0.76902  0.42188  1.0000
  H   H405      1.0  0.37091  0.96522  0.25190  1.0000
  H   H406      1.0  0.49116  0.67729  0.19466  1.0000
  C   C223      1.0  0.35392  0.88000  0.09665  1.0000
  H   H407      1.0  0.45644  0.79172  0.38700  1.0000
  C   C224      1.0  0.49555  0.75509  0.29702  1.0000
  C   C225      1.0  0.52156  0.74120  0.32289  1.0000
  C   C226      1.0  0.55202  0.75280  0.31231  1.0000
  C   C227      1.0  0.55689  0.77814  0.27506  1.0000
  C   C228      1.0  0.53086  0.79216  0.24949  1.0000
  C   C229      1.0  0.50037  0.78082  0.26044  1.0000
  H   H408      1.0  0.51811  0.72135  0.35140  1.0000
  H   H409      1.0  0.57169  0.74236  0.33316  1.0000
  H   H410      1.0  0.53433  0.81192  0.22083  1.0000
  H   H411      1.0  0.48067  0.79174  0.24016  1.0000
  C   C230      1.0  0.42711  0.75126  0.45175  1.0000
  C   C231      1.0  0.39134  0.99412  0.14797  1.0000
  N   N14       1.0  0.58941  0.67535  0.18796  1.0000
  C   C232      1.0  0.60477  0.66008  0.23542  1.0000
  C   C233      1.0  0.59132  0.64999  0.14398  1.0000
  C   C234      1.0  0.60618  0.70788  0.17465  1.0000
  C   C235      1.0  0.55558  0.68350  0.19781  1.0000
  C   C236      1.0  0.53519  0.65348  0.21715  1.0000
  C   C237      1.0  0.60025  0.67986  0.28712  1.0000
  C   C238      1.0  0.59572  0.72578  0.12374  1.0000
  C   C239      1.0  0.62452  0.64225  0.12332  1.0000
  H   H412      1.0  0.42104  0.82603  0.43221  1.0000
  C   C240      1.0  0.50207  0.66528  0.22930  1.0000
  C   C241      1.0  0.61627  0.66174  0.33241  1.0000
  C   C242      1.0  0.61595  0.75690  0.11259  1.0000
  H   H413      1.0  0.63043  0.65809  0.22950  1.0000
  H   H414      1.0  0.59680  0.63347  0.24157  1.0000
  H   H415      1.0  0.58144  0.62514  0.15637  1.0000
  H   H416      1.0  0.57658  0.65814  0.11056  1.0000
  H   H417      1.0  0.63175  0.70349  0.17268  1.0000
  H   H418      1.0  0.60304  0.72693  0.20622  1.0000
  H   H419      1.0  0.55331  0.70507  0.22568  1.0000
  H   H420      1.0  0.54427  0.69273  0.16152  1.0000
  H   H421      1.0  0.54480  0.64186  0.25302  1.0000
  H   H422      1.0  0.53348  0.63348  0.18679  1.0000
  H   H423      1.0  0.61034  0.70571  0.28426  1.0000
  H   H424      1.0  0.57528  0.68219  0.29735  1.0000
  H   H425      1.0  0.57131  0.73479  0.12710  1.0000
  H   H426      1.0  0.59749  0.70864  0.08962  1.0000
  H   H427      1.0  0.63577  0.66542  0.10759  1.0000
  H   H428      1.0  0.63949  0.63175  0.15465  1.0000
  N   N15       1.0  0.44475  0.78295  0.46767  1.0000
  H   H429      1.0  0.40420  0.98703  0.18389  1.0000
  C   C243      1.0  0.62352  0.61603  0.07942  1.0000
  H   H430      1.0  0.40462  0.68526  0.45720  1.0000
  H   H431      1.0  0.64168  0.65947  0.32522  1.0000
  H   H432      1.0  0.41689  0.75470  0.41231  1.0000
  C   C244      1.0  0.34861  0.64946  0.16600  1.0000
  H   H433      1.0  0.40686  0.74641  0.47742  1.0000
  C   C245      1.0  0.40236  0.97043  0.10453  1.0000
  H   H434      1.0  0.60769  0.76964  0.07658  1.0000
  H   H435      1.0  0.45431  0.71114  0.49085  1.0000
  H   H436      1.0  0.37655  0.79349  0.45643  1.0000
  H   H437      1.0  0.60937  0.62553  0.04626  1.0000
  H   H438      1.0  0.39084  0.97701  0.06707  1.0000
  H   H439      1.0  0.43920  0.66397  0.43408  1.0000
  H   H440      1.0  0.48758  0.64322  0.24110  1.0000
  C   C246      1.0  0.46840  0.79010  0.42548  1.0000
  S   S51       1.0  0.67336  0.75446  0.21630  1.0000
  H   H441      1.0  0.43321  0.83320  0.49715  1.0000
  H   H442      1.0  0.36868  0.87048  0.06579  1.0000
  H   H443      1.0  0.37467  0.60391  0.14811  1.0000
  Fe  Fe25      1.0  0.35759  0.80988  0.26927  1.0000
  H   H444      1.0  0.61366  0.59162  0.09353  1.0000
  H   H445      1.0  0.61289  0.67662  0.36873  1.0000
  C   C247      1.0  0.38103  0.99172  0.32263  1.0000
  C   C248      1.0  0.44594  0.71755  0.45119  1.0000
  C   C249      1.0  0.42317  0.81345  0.47094  1.0000
  H   H446      1.0  0.61448  0.77545  0.14518  1.0000
  H   H447      1.0  0.52526  0.80773  0.37914  1.0000
  H   H448      1.0  0.49421  0.83169  0.34874  1.0000
  S   S52       1.0  0.66240  0.74145  0.34143  1.0000
  H   H449      1.0  0.41832  0.69220  0.39149  1.0000
  H   H450      1.0  0.38212  0.96775  0.34538  1.0000
  C   C250      1.0  0.42568  0.68800  0.43244  1.0000
  H   H451      1.0  0.40511  0.99876  0.31104  1.0000
  H   H452      1.0  0.52231  0.85281  0.38972  1.0000
  C   C251      1.0  0.48808  0.82300  0.43207  1.0000
  H   H453      1.0  0.47313  0.84576  0.43702  1.0000
  C   C252      1.0  0.35265  0.61694  0.14369  1.0000
  H   H454      1.0  0.35206  0.96441  0.17196  1.0000
  C   C253      1.0  0.35571  0.99045  0.15661  1.0000
  C   C254      1.0  0.37152  0.84031  0.49739  1.0000
  H   H455      1.0  0.50378  0.82096  0.46627  1.0000
  C   C255      1.0  0.36059  0.98639  0.27455  1.0000
  H   H456      1.0  0.64754  0.61110  0.06524  1.0000
  H   H457      1.0  0.37153  0.85614  0.46160  1.0000
  C   C256      1.0  0.38900  0.80704  0.48800  1.0000
  H   H458      1.0  0.34904  0.77179  0.11630  1.0000
  H   H459      1.0  0.42795  0.97290  0.09946  1.0000
  Fe  Fe26      1.0  0.34812  0.75795  0.35723  1.0000
  H   H460      1.0  0.42639  0.74622  0.55714  1.0000
  C   C257      1.0  0.46226  0.75833  0.61212  1.0000
  H   H461      1.0  0.42742  0.79011  0.57789  1.0000
  C   C258      1.0  0.46199  0.77806  0.51823  1.0000
  H   H462      1.0  0.38231  0.85475  0.52992  1.0000
  H   H463      1.0  0.44727  0.75211  0.64600  1.0000
  C   C259      1.0  0.44184  0.76810  0.56570  1.0000
  H   H464      1.0  0.38733  0.79151  0.52373  1.0000
  H   H465      1.0  0.47784  0.77972  0.62318  1.0000
  H   H466      1.0  0.47659  0.73563  0.60270  1.0000
  H   H467      1.0  0.47417  0.80185  0.52972  1.0000
  H   H468      1.0  0.48090  0.75893  0.51334  1.0000
  Fe  Fe27      1.0  0.92897  0.27959  0.29291  1.0000
  S   S53       1.0  0.90826  0.25501  0.22129  1.0000
  S   S54       1.0  0.97937  0.29598  0.30955  1.0000
  Fe  Fe28      1.0  0.86459  0.28744  0.34597  1.0000
  S   S55       1.0  0.83948  0.26335  0.27905  1.0000
  S   S56       1.0  0.84165  0.31024  0.41825  1.0000
  Fe  Fe29      1.0  0.87859  0.22567  0.27772  1.0000
  S   S57       1.0  0.86394  0.17049  0.27353  1.0000
  Fe  Fe30      1.0  0.87050  0.29465  0.22754  1.0000
  S   S58       1.0  0.84743  0.31728  0.15593  1.0000
  S   S59       1.0  0.90180  0.24723  0.34932  1.0000
  S   S60       1.0  0.89313  0.32172  0.29445  1.0000
  H   H469      1.0  0.76738  0.31798  0.03790  1.0000
  C   C260      1.0  0.75890  0.16176  0.03159  1.0000
  S   S61       1.0  0.85917  0.09829  0.05279  1.0000
  H   H470      1.0  0.79469  0.49754  0.31704  1.0000
  C   C261      1.0  0.89385  0.08754  0.41020  1.0000
  S   S62       1.0  0.82144  0.47564  0.13475  1.0000
  C   C262      1.0  0.80919  0.29268  0.45166  1.0000
  C   C263      1.0  0.78681  0.48638  0.27954  1.0000
  C   C264      1.0  0.78797  0.27106  0.42684  1.0000
  H   H471      1.0  0.74649  0.24041  0.43537  1.0000
  H   H472      1.0  0.79100  0.26511  0.38607  1.0000
  C   C265      1.0  0.82865  0.43159  0.14008  1.0000
  C   C266      1.0  0.81242  0.40803  0.10957  1.0000
  C   C267      1.0  0.81823  0.37305  0.11547  1.0000
  C   C268      1.0  0.84034  0.36137  0.15147  1.0000
  C   C269      1.0  0.85640  0.38486  0.18230  1.0000
  C   C270      1.0  0.85048  0.41986  0.17670  1.0000
  H   H473      1.0  0.79518  0.41687  0.08197  1.0000
  H   H474      1.0  0.80528  0.35480  0.09274  1.0000
  H   H475      1.0  0.87369  0.37612  0.20985  1.0000
  H   H476      1.0  0.86312  0.43799  0.20036  1.0000
  C   C271      1.0  0.86126  0.15141  0.21150  1.0000
  C   C272      1.0  0.87605  0.16578  0.16841  1.0000
  C   C273      1.0  0.87508  0.14919  0.11999  1.0000
  C   C274      1.0  0.85883  0.11849  0.11403  1.0000
  C   C275      1.0  0.84333  0.10448  0.15675  1.0000
  C   C276      1.0  0.84480  0.12078  0.20553  1.0000
  H   H477      1.0  0.88896  0.18919  0.17265  1.0000
  H   H478      1.0  0.88725  0.16003  0.08713  1.0000
  H   H479      1.0  0.83079  0.08077  0.15246  1.0000
  H   H480      1.0  0.83332  0.10951  0.23873  1.0000
  H   H481      1.0  0.71613  0.37034  0.01506  1.0000
  H   H482      1.0  0.88070  0.30317  0.01841  1.0000
  C   C277      1.0  0.79619  0.16583  0.36434  1.0000
  H   H483      1.0  0.80708  0.14590  0.33982  1.0000
  H   H484      1.0  0.85476  0.23709  0.43572  1.0000
  H   H485      1.0  0.76105  0.48838  0.27650  1.0000
  H   H486      1.0  0.78911  0.37386  0.01160  1.0000
  H   H487      1.0  0.79743  0.24171  0.13399  1.0000
  C   C278      1.0  0.99439  0.37116  0.20834  1.0000
  H   H488      1.0  0.70789  0.09311  0.01508  1.0000
  H   H489      1.0  0.73060  0.39216  0.36113  1.0000
  H   H490      1.0  0.83820  0.19625  0.37015  1.0000
  H   H491      1.0  0.77060  0.22573  0.05187  1.0000
  H   H492      1.0  0.83139  0.22794  0.49157  1.0000
  H   H493      1.0  0.78417  0.38986  0.40350  1.0000
  Fe  Fe31      1.0  0.82905  0.05253  0.03516  1.0000
  C   C279      1.0  0.77955  0.19018  0.32726  1.0000
  H   H494      1.0  0.99697  0.23813  0.24299  1.0000
  H   H495      1.0  0.77207  0.14911  0.06350  1.0000
  S   S63       1.0  0.77773  0.04977  0.04995  1.0000
  H   H496      1.0  0.72964  0.10499  0.07232  1.0000
  H   H497      1.0  0.74094  0.17742  0.05159  1.0000
  C   C280      1.0  0.82098  0.18483  0.39745  1.0000
  H   H498      1.0  0.98615  0.34575  0.22126  1.0000
  H   H499      1.0  0.83713  0.19692  0.06154  1.0000
  H   H500      1.0  0.80558  0.18277  0.10190  1.0000
  H   H501      1.0  0.86914  0.14656  0.37810  1.0000
  C   C281      1.0  0.76274  0.25718  0.45484  1.0000
  N   N16       1.0  0.83779  0.16409  0.43818  1.0000
  H   H502      1.0  0.80892  0.20671  0.41522  1.0000
  H   H503      1.0  0.84034  0.43585  0.36231  1.0000
  H   H504      1.0  0.80115  0.12841  0.45721  1.0000
  C   C282      1.0  0.79102  0.21320  0.03337  1.0000
  H   H505      1.0  0.83791  0.11810  0.39119  1.0000
  H   H506      1.0  0.86249  0.09847  0.47276  1.0000
  S   S64       1.0  0.74211  0.49570  0.06108  1.0000
  H   H507      1.0  0.88430  0.18573  0.44338  1.0000
  H   H508      1.0  0.70685  0.34871  0.41791  1.0000
  C   C283      1.0  0.81559  0.14823  0.47664  1.0000
  H   H509      1.0  0.76219  0.17592  0.30372  1.0000
  H   H510      1.0  0.97969  0.39078  0.22737  1.0000
  C   C284      1.0  0.85467  0.13579  0.41012  1.0000
  H   H511      1.0  0.80208  0.23338  0.00936  1.0000
  H   H512      1.0  0.73748  0.37086  0.45202  1.0000
  H   H513      1.0  0.83685  0.22773  0.14437  1.0000
  C   C285      1.0  0.81941  0.23448  0.11408  1.0000
  H   H514      1.0  0.77823  0.15400  0.38945  1.0000
  H   H515      1.0  0.99134  0.37328  0.16553  1.0000
  Fe  Fe32      1.0  0.79437  0.49598  0.06530  1.0000
  C   C286      1.0  0.85449  0.22387  0.47384  1.0000
  N   N17       1.0  0.79287  0.39060  0.32051  1.0000
  C   C287      1.0  0.77914  0.37419  0.36841  1.0000
  C   C288      1.0  0.82785  0.38758  0.32359  1.0000
  C   C289      1.0  0.78269  0.42730  0.31896  1.0000
  C   C290      1.0  0.78182  0.37333  0.27141  1.0000
  C   C291      1.0  0.78895  0.33481  0.26743  1.0000
  H   H516      1.0  0.88371  0.37467  0.37871  1.0000
  C   C292      1.0  0.79716  0.44934  0.27505  1.0000
  C   C293      1.0  0.84384  0.40815  0.36774  1.0000
  C   C294      1.0  0.87893  0.40165  0.36872  1.0000
  C   C295      1.0  0.77176  0.31866  0.22148  1.0000
  H   H517      1.0  0.90876  0.10096  0.38146  1.0000
  H   H518      1.0  0.76718  0.21035  0.34932  1.0000
  C   C296      1.0  0.73238  0.35317  0.41935  1.0000
  H   H519      1.0  0.79052  0.34935  0.37653  1.0000
  H   H520      1.0  0.83465  0.36055  0.32946  1.0000
  H   H521      1.0  0.83876  0.39491  0.28607  1.0000
  H   H522      1.0  0.78740  0.43999  0.35693  1.0000
  H   H523      1.0  0.75703  0.42895  0.31368  1.0000
  H   H524      1.0  0.75641  0.37754  0.26552  1.0000
  H   H525      1.0  0.79308  0.38487  0.23670  1.0000
  H   H526      1.0  0.78219  0.32074  0.30299  1.0000
  H   H527      1.0  0.81429  0.33117  0.26109  1.0000
  H   H528      1.0  0.88953  0.40762  0.33037  1.0000
  H   H529      1.0  0.73688  0.34980  0.33659  1.0000
  H   H530      1.0  0.78960  0.44020  0.23618  1.0000
  H   H531      1.0  0.82296  0.44906  0.27642  1.0000
  C   C297      1.0  0.74344  0.36809  0.36764  1.0000
  H   H532      1.0  0.89003  0.41793  0.39883  1.0000
  C   C298      1.0  0.81415  0.20418  0.07784  1.0000
  H   H533      1.0  0.83457  0.40082  0.40639  1.0000
  H   H534      1.0  0.77886  0.29163  0.21758  1.0000
  H   H535      1.0  0.74619  0.31972  0.22769  1.0000
  H   H536      1.0  0.77763  0.33195  0.18468  1.0000
  H   H537      1.0  0.79653  0.20205  0.30024  1.0000
  H   H538      1.0  0.74405  0.32849  0.42709  1.0000
  H   H539      1.0  0.83153  0.33494  0.01250  1.0000
  H   H540      1.0  0.69934  0.13266  0.04755  1.0000
  H   H541      1.0  0.82835  0.25667  0.09207  1.0000
  C   C299      1.0  0.71831  0.11490  0.03652  1.0000
  H   H542      1.0  0.74271  0.37171  0.06972  1.0000
  C   C300      1.0  0.86202  0.18566  0.46577  1.0000
  H   H543      1.0  0.71545  0.33706  0.06309  1.0000
  H   H544      1.0  0.89390  0.12842  0.46527  1.0000
  H   H545      1.0  0.87727  0.07077  0.38903  1.0000
  H   H546      1.0  0.78017  0.18913  0.47902  1.0000
  C   C301      1.0  0.87627  0.11313  0.44402  1.0000
  H   H547      1.0  0.90903  0.07146  0.43509  1.0000
  C   C302      1.0  0.73084  0.35470  0.04134  1.0000
  H   H548      1.0  0.79723  0.50133  0.24726  1.0000
  H   H549      1.0  0.81902  0.15018  0.01581  1.0000
  C   C303      1.0  0.75469  0.33441  0.00996  1.0000
  H   H550      1.0  0.85817  0.26455  0.01160  1.0000
  H   H551      1.0  0.90233  0.23892  0.49107  1.0000
  Fe  Fe33      1.0  0.71548  0.25336  0.62823  1.0000
  S   S65       1.0  0.75180  0.26584  0.68771  1.0000
  S   S66       1.0  0.72676  0.24559  0.54180  1.0000
  S   S67       1.0  0.73428  0.35541  0.73894  1.0000
  S   S68       1.0  0.76305  0.19468  0.78593  1.0000
  Fe  Fe34      1.0  0.77320  0.03663  0.96521  1.0000
  S   S69       1.0  0.73582  0.05896  0.91250  1.0000
  S   S70       1.0  0.82391  0.04331  0.94952  1.0000
  C   C304      1.0  0.75572  0.03350  0.72542  1.0000
  S   S71       1.0  0.71941  0.43447  0.95306  1.0000
  H   H552      1.0  0.74661  0.03278  0.80831  1.0000
  C   C305      1.0  0.73099  0.37607  0.79969  1.0000
  C   C306      1.0  0.81890  0.36977  0.91882  1.0000
  C   C307      1.0  0.72451  0.41239  0.89384  1.0000
  C   C308      1.0  0.74376  0.42494  0.85455  1.0000
  C   C309      1.0  0.74672  0.40698  0.80744  1.0000
  H   H553      1.0  0.75589  0.44881  0.86005  1.0000
  H   H554      1.0  0.76109  0.41723  0.77666  1.0000
  C   C310      1.0  0.75477  0.15589  0.81779  1.0000
  C   C311      1.0  0.77951  0.13778  0.84039  1.0000
  C   C312      1.0  0.77398  0.10800  0.86912  1.0000
  C   C313      1.0  0.74360  0.09593  0.87548  1.0000
  H   H555      1.0  0.73686  0.23941  0.98803  1.0000
  H   H556      1.0  0.75173  0.01771  0.69025  1.0000
  H   H557      1.0  0.80310  0.14705  0.83612  1.0000
  H   H558      1.0  0.79326  0.09450  0.88644  1.0000
  H   H559      1.0  0.71570  0.20005  0.98185  1.0000
  H   H560      1.0  0.77855  0.29457  0.92304  1.0000
  H   H561      1.0  0.87874  0.22979  0.54799  1.0000
  H   H562      1.0  0.77933  0.21636  0.93174  1.0000
  H   H563      1.0  0.85352  0.13441  0.92090  1.0000
  H   H564      1.0  0.77632  0.29291  0.57322  1.0000
  C   C314      1.0  0.87098  0.28458  0.99005  1.0000
  H   H565      1.0  0.70512  0.15733  0.80614  1.0000
  H   H566      1.0  0.89065  0.27242  0.96907  1.0000
  N   N18       1.0  0.78036  0.18390  0.99974  1.0000
  C   C315      1.0  0.78345  0.32023  0.90671  1.0000
  C   C316      1.0  0.76970  0.15316  0.53844  1.0000
  H   H567      1.0  0.72927  0.14209  0.96713  1.0000
  C   C317      1.0  0.86078  0.15865  0.93961  1.0000
  S   S72       1.0  0.80161  0.47715  0.98379  1.0000
  C   C318      1.0  0.71259  0.36292  0.83968  1.0000
  Fe  Fe35      1.0  0.72892  0.22658  0.73862  1.0000
  C   C319      1.0  0.71886  0.11364  0.85202  1.0000
  H   H568      1.0  0.80231  0.38622  0.89673  1.0000
  N   N19       1.0  0.80114  0.34172  0.94591  1.0000
  H   H569      1.0  0.76013  0.33153  0.89860  1.0000
  H   H570      1.0  0.84053  0.28252  0.92424  1.0000
  C   C320      1.0  0.80754  0.16261  0.98200  1.0000
  H   H571      1.0  0.79130  0.28664  0.78109  1.0000
  C   C321      1.0  0.70902  0.38126  0.88636  1.0000
  H   H572      1.0  0.69428  0.37130  0.91683  1.0000
  H   H573      1.0  0.69528  0.10441  0.85656  1.0000
  H   H574      1.0  0.71362  0.20752  0.88545  1.0000
  H   H575      1.0  0.78086  0.03983  0.72787  1.0000
  H   H576      1.0  0.71276  0.06257  0.71498  1.0000
  C   C322      1.0  0.79816  0.31557  0.85198  1.0000
  H   H577      1.0  0.78257  0.26333  0.83948  1.0000
  H   H578      1.0  0.75956  0.17753  0.92351  1.0000
  H   H579      1.0  0.75596  0.29569  0.81595  1.0000
  H   H580      1.0  0.82294  0.18864  0.91087  1.0000
  H   H581      1.0  0.75462  0.17147  0.55971  1.0000
  H   H582      1.0  0.79938  0.14119  0.95733  1.0000
  C   C323      1.0  0.72438  0.14358  0.82335  1.0000
  S   S73       1.0  0.69655  0.26420  0.77582  1.0000
  C   C324      1.0  0.73825  0.06704  0.71818  1.0000
  Fe  Fe36      1.0  0.74938  0.47948  0.97772  1.0000
  H   H583      1.0  0.70085  0.33889  0.83430  1.0000
  Fe  Fe37      1.0  0.71678  0.30230  0.72069  1.0000
  H   H584      1.0  0.85701  0.37831  0.97533  1.0000
  C   C325      1.0  0.77751  0.35853  0.98105  1.0000
  C   C326      1.0  0.76402  0.19799  0.95243  1.0000
  S   S74       1.0  0.68136  0.29265  0.65757  1.0000
  C   C327      1.0  0.77940  0.28672  0.53251  1.0000
  H   H585      1.0  0.83509  0.35950  0.88920  1.0000
  C   C328      1.0  0.80447  0.30084  0.50437  1.0000
  H   H586      1.0  0.87303  0.26863  0.51214  1.0000
  H   H587      1.0  0.82294  0.30800  0.85392  1.0000
  H   H588      1.0  0.74163  0.31797  0.98241  1.0000
  C   C329      1.0  0.78084  0.28860  0.82047  1.0000
  H   H589      1.0  0.74285  0.08437  0.75152  1.0000
  H   H590      1.0  0.79661  0.33984  0.82992  1.0000
  H   H591      1.0  0.76332  0.37700  0.95845  1.0000
  H   H592      1.0  0.78156  0.13673  0.56747  1.0000
  H   H593      1.0  0.82469  0.40691  0.98298  1.0000
  C   C330      1.0  0.84950  0.30235  0.95109  1.0000
  H   H594      1.0  0.86956  0.43698  0.94796  1.0000
  C   C331      1.0  0.85606  0.41994  0.92178  1.0000
  H   H595      1.0  0.86383  0.32078  0.92901  1.0000
  C   C332      1.0  0.84416  0.01742  0.80783  1.0000
  H   H596      1.0  0.73416  0.24742  0.89181  1.0000
  H   H597      1.0  0.87245  0.40771  0.89409  1.0000
  H   H598      1.0  0.85449  0.03548  0.83631  1.0000
  H   H599      1.0  0.84097  0.20474  0.96924  1.0000
  C   C333      1.0  0.83906  0.39315  0.95413  1.0000
  H   H600      1.0  0.79795  0.03684  0.81737  1.0000
  H   H601      1.0  0.87746  0.17178  0.91348  1.0000
  C   C334      1.0  0.82208  0.31993  0.97923  1.0000
  S   S75       1.0  0.69462  0.21097  0.67667  1.0000
  C   C335      1.0  0.73296  0.21689  0.96281  1.0000
  H   H602      1.0  0.82057  0.31777  0.52388  1.0000
  H   H603      1.0  0.83914  0.43573  0.89967  1.0000
  H   H604      1.0  0.80697  0.18876  0.53353  1.0000
  C   C336      1.0  0.83258  0.18144  0.94945  1.0000
  H   H605      1.0  0.74631  0.07979  0.68209  1.0000
  C   C337      1.0  0.75843  0.26463  0.50797  1.0000
  H   H606      1.0  0.87288  0.15289  0.97682  1.0000
  H   H607      1.0  0.84677  0.02821  0.76817  1.0000
  C   C338      1.0  0.71843  0.22929  0.91190  1.0000
  H   H608      1.0  0.69606  0.24231  0.92016  1.0000
  H   H609      1.0  0.75912  0.11335  0.98870  1.0000
  C   C339      1.0  0.87874  0.24118  0.50847  1.0000
  H   H610      1.0  0.75458  0.13733  0.51299  1.0000
  H   H611      1.0  0.80858  0.29909  0.99761  1.0000
  H   H612      1.0  0.86779  0.17457  0.50448  1.0000
  C   C340      1.0  0.74207  0.13273  0.00172  1.0000
  H   H613      1.0  0.82873  0.13446  0.50739  1.0000
  C   C341      1.0  0.79351  0.17274  0.50600  1.0000
  C   C342      1.0  0.74443  0.01478  0.77505  1.0000
  Fe  Fe38      1.0  0.70110  0.77936  0.35502  1.0000
  S   S76       1.0  0.73327  0.75612  0.29639  1.0000
  S   S77       1.0  0.71546  0.79375  0.43791  1.0000
  S   S78       1.0  0.70134  0.66434  0.27018  1.0000
  S   S79       1.0  0.74080  0.81309  0.17390  1.0000
  H   H614      1.0  0.81938  0.63323  0.04720  1.0000
  S   S80       1.0  0.76220  0.97086  0.13357  1.0000
  H   H615      1.0  0.77313  0.67426  0.44765  1.0000
  H   H616      1.0  0.73454  0.90340  0.40658  1.0000
  S   S81       1.0  0.71673  0.59599  0.04766  1.0000
  S   S82       1.0  0.79789  0.55110  0.04261  1.0000
  C   C343      1.0  0.70780  0.64643  0.20799  1.0000
  C   C344      1.0  0.71856  0.61280  0.20405  1.0000
  C   C345      1.0  0.72257  0.59734  0.15503  1.0000
  C   C346      1.0  0.71510  0.61521  0.10972  1.0000
  H   H617      1.0  0.82008  0.92727  0.17333  1.0000
  H   H618      1.0  0.72099  0.75293  0.01640  1.0000
  H   H619      1.0  0.73069  0.57136  0.15237  1.0000
  H   H620      1.0  0.79131  0.93357  0.25848  1.0000
  H   H621      1.0  0.83145  0.81897  0.23128  1.0000
  C   C347      1.0  0.75498  0.92693  0.14211  1.0000
  C   C348      1.0  0.76816  0.90244  0.10937  1.0000
  C   C349      1.0  0.76327  0.86764  0.11923  1.0000
  C   C350      1.0  0.74488  0.85705  0.16142  1.0000
  C   C351      1.0  0.73658  0.91630  0.18429  1.0000
  H   H622      1.0  0.78246  0.91033  0.07692  1.0000
  H   H623      1.0  0.77385  0.84883  0.09412  1.0000
  H   H624      1.0  0.79812  0.87628  0.22323  1.0000
  C   C352      1.0  0.75255  0.78819  0.46752  1.0000
  C   C353      1.0  0.77804  0.77485  0.44045  1.0000
  C   C354      1.0  0.80687  0.77031  0.46605  1.0000
  H   H625      1.0  0.77553  0.76795  0.39990  1.0000
  H   H626      1.0  0.82647  0.76006  0.44477  1.0000
  S   S83       1.0  0.83819  0.99750  0.05344  1.0000
  Fe  Fe39      1.0  0.69348  0.72103  0.27808  1.0000
  H   H627      1.0  0.84402  0.80792  0.29631  1.0000
  C   C355      1.0  0.72495  0.88394  0.37963  1.0000
  H   H628      1.0  0.69820  0.66258  0.07881  1.0000
  H   H629      1.0  0.83743  0.87424  0.24456  1.0000
  H   H630      1.0  0.76237  0.84853  0.39045  1.0000
  H   H631      1.0  0.71945  0.71922  0.06430  1.0000
  Fe  Fe40      1.0  0.78601  0.99370  0.06268  1.0000
  C   C356      1.0  0.75836  0.71546  0.00980  1.0000
  Fe  Fe41      1.0  0.71074  0.79159  0.23880  1.0000
  H   H632      1.0  0.74237  0.64728  0.47205  1.0000
  H   H633      1.0  0.80724  0.75895  0.29613  1.0000
  H   H634      1.0  0.71698  0.87366  0.22610  1.0000
  H   H635      1.0  0.72908  0.67297  0.38691  1.0000
  H   H636      1.0  0.85191  0.86015  0.32768  1.0000
  H   H637      1.0  0.74795  0.75249  0.07017  1.0000
  C   C357      1.0  0.74936  0.67396  0.46456  1.0000
  H   H638      1.0  0.72628  0.93512  0.20972  1.0000
  H   H639      1.0  0.81828  0.82346  0.39187  1.0000
  H   H640      1.0  0.83413  0.75715  0.24241  1.0000
  H   H641      1.0  0.70832  0.86777  0.40160  1.0000
  H   H642      1.0  0.74007  0.84215  0.33272  1.0000
  H   H643      1.0  0.82988  0.96501  0.20927  1.0000
  H   H644      1.0  0.86294  0.87679  0.43735  1.0000
  H   H645      1.0  0.83362  0.89596  0.35506  1.0000
  C   C358      1.0  0.73131  0.88152  0.19370  1.0000
  H   H646      1.0  0.72375  0.59861  0.23903  1.0000
  H   H647      1.0  0.79454  0.77041  0.23114  1.0000
  H   H648      1.0  0.82797  0.93223  0.29218  1.0000
  H   H649      1.0  0.71199  0.89665  0.34763  1.0000
  C   C359      1.0  0.70440  0.64883  0.11368  1.0000
  C   C360      1.0  0.72740  0.68835  0.42311  1.0000
  H   H650      1.0  0.85081  0.83762  0.46749  1.0000
  H   H651      1.0  0.80716  0.86358  0.42105  1.0000
  C   C361      1.0  0.73516  0.73619  0.04194  1.0000
  C   C362      1.0  0.85505  0.85038  0.42956  1.0000
  N   N20       1.0  0.80345  0.86573  0.30569  1.0000
  C   C363      1.0  0.79651  0.82912  0.29221  1.0000
  C   C364      1.0  0.77421  0.88322  0.32484  1.0000
  C   C365      1.0  0.81385  0.88319  0.25619  1.0000
  C   C366      1.0  0.82954  0.86888  0.34493  1.0000
  C   C367      1.0  0.82504  0.85032  0.39746  1.0000
  C   C368      1.0  0.82390  0.80831  0.26918  1.0000
  C   C369      1.0  0.81519  0.92270  0.25767  1.0000
  C   C370      1.0  0.75106  0.86181  0.35766  1.0000
  H   H652      1.0  0.85639  0.92941  0.20899  1.0000
  C   C371      1.0  0.70116  0.66457  0.16254  1.0000
  C   C372      1.0  0.81426  0.77147  0.25922  1.0000
  C   C373      1.0  0.83143  0.93681  0.20936  1.0000
  H   H653      1.0  0.77698  0.82809  0.26365  1.0000
  H   H654      1.0  0.78792  0.81477  0.32640  1.0000
  H   H655      1.0  0.78029  0.90657  0.34726  1.0000
  H   H656      1.0  0.76000  0.89208  0.29117  1.0000
  H   H657      1.0  0.87374  0.83623  0.40898  1.0000
  Fe  Fe42      1.0  0.74623  0.54922  0.03126  1.0000
  H   H658      1.0  0.85623  0.64656  0.02040  1.0000
  H   H659      1.0  0.73376  0.71500  0.41355  1.0000
  C   C374      1.0  0.83268  0.63680  0.01053  1.0000
  H   H660      1.0  0.77218  0.70003  0.03764  1.0000
  H   H661      1.0  0.70286  0.68771  0.43672  1.0000
  S   S84       1.0  0.68084  0.81760  0.29857  1.0000
  H   H662      1.0  0.69288  0.69042  0.16502  1.0000
  H   H663      1.0  0.93840  0.93852  0.01864  1.0000
  Fe  Fe43      1.0  0.83886  0.79556  0.74632  1.0000
  S   S85       1.0  0.87737  0.80846  0.69046  1.0000
  S   S86       1.0  0.80654  0.82971  0.79258  1.0000
  Fe  Fe44      1.0  0.84409  0.71867  0.72653  1.0000
  S   S87       1.0  0.88369  0.72555  0.67002  1.0000
  S   S88       1.0  0.81442  0.67140  0.73886  1.0000
  Fe  Fe45      1.0  0.90287  0.76411  0.72699  1.0000
  S   S89       1.0  0.95147  0.76928  0.76413  1.0000
  Fe  Fe46      1.0  0.85518  0.76909  0.63765  1.0000
  S   S90       1.0  0.84717  0.77209  0.54966  1.0000
  S   S91       1.0  0.86499  0.75353  0.78605  1.0000
  S   S92       1.0  0.81516  0.75998  0.69093  1.0000
  Fe  Fe47      1.0  0.82827  0.98790  0.96847  1.0000
  S   S93       1.0  0.77683  0.98017  0.97890  1.0000
  S   S94       1.0  0.85914  0.95754  0.91395  1.0000
  Fe  Fe48      1.0  0.80060  0.53245  0.96016  1.0000
  S   S95       1.0  0.74888  0.53310  0.94704  1.0000
  S   S96       1.0  0.83792  0.55805  0.91109  1.0000
  H   H664      1.0  0.97362  0.75395  0.65845  1.0000
  C   C375      1.0  0.78494  0.79187  0.54606  1.0000
  H   H665      1.0  0.78737  0.79860  0.58671  1.0000
  H   H666      1.0  0.70086  0.98185  0.83719  1.0000
  C   C376      1.0  0.82087  0.64119  0.78873  1.0000
  C   C377      1.0  0.84809  0.64121  0.81871  1.0000
  C   C378      1.0  0.85283  0.61580  0.85653  1.0000
  C   C379      1.0  0.83007  0.59082  0.86576  1.0000
  C   C380      1.0  0.80244  0.59147  0.83686  1.0000
  C   C381      1.0  0.79811  0.61625  0.79799  1.0000
  H   H667      1.0  0.86582  0.66021  0.81184  1.0000
  H   H668      1.0  0.87432  0.61535  0.87857  1.0000
  H   H669      1.0  0.78491  0.57216  0.84326  1.0000
  H   H670      1.0  0.77705  0.61596  0.77481  1.0000
  C   C382      1.0  0.82017  0.86672  0.82369  1.0000
  C   C383      1.0  0.80453  0.87881  0.86790  1.0000
  C   C384      1.0  0.81568  0.90739  0.89502  1.0000
  C   C385      1.0  0.84231  0.92430  0.87757  1.0000
  C   C386      1.0  0.85699  0.91327  0.83178  1.0000
  C   C387      1.0  0.84601  0.88444  0.80498  1.0000
  H   H671      1.0  0.78426  0.86541  0.88217  1.0000
  H   H672      1.0  0.80425  0.91562  0.93034  1.0000
  H   H673      1.0  0.87727  0.92666  0.81759  1.0000
  H   H674      1.0  0.85759  0.87578  0.77001  1.0000
  H   H675      1.0  0.87891  0.86496  0.89891  1.0000
  C   C388      1.0  0.98889  0.77009  0.73432  1.0000
  H   H676      1.0  0.72874  0.74414  0.58184  1.0000
  H   H677      1.0  0.96687  0.88662  0.81175  1.0000
  H   H678      1.0  0.86475  0.69765  0.54408  1.0000
  C   C389      1.0  0.76067  0.72321  0.86521  1.0000
  C   C390      1.0  0.73294  0.74632  0.66466  1.0000
  H   H679      1.0  0.75802  0.96272  0.70811  1.0000
  H   H680      1.0  0.74969  0.76776  0.66234  1.0000
  H   H681      1.0  0.94429  0.81943  0.94707  1.0000
  C   C391      1.0  0.71660  0.96100  0.84945  1.0000
  C   C392      1.0  0.92959  0.89850  0.96232  1.0000
  C   C393      1.0  0.85834  0.67299  0.56215  1.0000
  H   H682      1.0  0.90018  0.79028  0.88811  1.0000
  H   H683      1.0  0.85721  0.99309  0.81026  1.0000
  H   H684      1.0  0.68512  0.94493  0.91072  1.0000
  H   H685      1.0  0.83064  0.66516  0.93945  1.0000
  C   C394      1.0  0.74753  0.89384  0.71733  1.0000
  H   H686      1.0  0.72237  0.67013  0.87842  1.0000
  N   N21       1.0  0.92806  0.85439  0.88733  1.0000
  H   H687      1.0  0.72074  0.58983  0.56334  1.0000
  H   H688      1.0  0.75678  0.86786  0.72441  1.0000
  H   H689      1.0  0.96859  0.93378  0.97041  1.0000
  H   H690      1.0  0.75585  0.90910  0.79607  1.0000
  H   H691      1.0  0.80816  0.00321  0.86145  1.0000
  H   H692      1.0  0.95808  0.89888  0.89268  1.0000
  H   H693      1.0  0.85959  0.65258  0.53231  1.0000
  H   H694      1.0  0.71353  0.70796  0.61501  1.0000
  H   H695      1.0  0.93420  0.88514  0.73189  1.0000
  C   C395      1.0  0.75126  0.97097  0.84164  1.0000
  C   C396      1.0  0.85468  0.79942  0.92030  1.0000
  C   C397      1.0  0.74041  0.65343  0.89599  1.0000
  C   C398      1.0  0.76180  0.91851  0.75669  1.0000
  N   N22       1.0  0.76023  0.98139  0.78720  1.0000
  H   H696      1.0  0.95269  0.80646  0.88277  1.0000
  H   H697      1.0  0.73899  0.72991  0.69838  1.0000
  H   H698      1.0  0.91852  0.90831  0.88210  1.0000
  C   C399      1.0  0.72212  0.62368  0.92102  1.0000
  H   H699      1.0  0.84543  0.77516  0.90450  1.0000
  H   H700      1.0  0.80297  0.98891  0.74384  1.0000
  C   C400      1.0  0.95168  0.82936  0.90841  1.0000
  C   C401      1.0  0.98551  0.84243  0.91634  1.0000
  H   H701      1.0  0.69275  0.60049  0.61293  1.0000
  H   H702      1.0  0.97341  0.69110  0.72683  1.0000
  H   H703      1.0  0.72404  0.95473  0.74468  1.0000
  H   H704      1.0  0.72520  0.93313  0.92153  1.0000
  H   H705      1.0  0.74631  0.70978  0.83573  1.0000
  H   H706      1.0  0.76604  0.94958  0.85556  1.0000
  C   C402      1.0  0.92683  0.85278  0.82860  1.0000
  H   H707      1.0  0.90429  0.89926  0.97153  1.0000
  H   H708      1.0  0.79775  0.73279  0.80931  1.0000
  H   H709      1.0  0.70455  0.63345  0.94890  1.0000
  C   C403      1.0  0.89624  0.84480  0.90790  1.0000
  H   H710      1.0  0.80643  0.96025  0.79621  1.0000
  C   C404      1.0  0.77997  0.69769  0.89815  1.0000
  H   H711      1.0  0.75613  0.99209  0.86933  1.0000
  C   C405      1.0  0.81602  0.66192  0.97478  1.0000
  N   N23       1.0  0.76158  0.67343  0.93180  1.0000
  H   H712      1.0  0.73785  0.60603  0.94177  1.0000
  C   C406      1.0  0.74800  0.69545  0.51516  1.0000
  H   H713      1.0  0.78203  0.72896  0.60015  1.0000
  H   H714      1.0  0.90799  0.86958  0.81400  1.0000
  H   H715      1.0  0.99484  0.85499  0.88121  1.0000
  H   H716      1.0  0.87397  0.81438  0.84722  1.0000
  H   H717      1.0  0.79582  0.76323  0.86223  1.0000
  H   H718      1.0  0.78746  0.91714  0.75199  1.0000
  H   H719      1.0  0.73673  0.80725  0.54159  1.0000
  H   H720      1.0  0.92079  0.82677  0.81500  1.0000
  C   C407      1.0  0.95707  0.86194  0.79903  1.0000
  C   C408      1.0  0.70481  0.60295  0.87976  1.0000
  H   H721      1.0  0.82586  0.69542  0.61537  1.0000
  H   H722      1.0  0.71067  0.93785  0.82683  1.0000
  H   H723      1.0  0.89671  0.84310  0.95113  1.0000
  C   C409      1.0  0.76505  0.70782  0.60550  1.0000
  C   C410      1.0  0.88250  0.81085  0.88767  1.0000
  C   C411      1.0  0.93429  0.89068  0.90362  1.0000
  C   C412      1.0  0.78188  0.74732  0.83514  1.0000
  H   H724      1.0  0.77197  0.69520  0.64263  1.0000
  C   C413      1.0  0.73325  0.72594  0.61399  1.0000
  C   C414      1.0  0.94302  0.93321  0.97689  1.0000
  H   H725      1.0  0.82139  0.65046  0.60571  1.0000
  H   H726      1.0  0.83540  0.61183  0.99090  1.0000
  C   C415      1.0  0.71730  0.60396  0.60037  1.0000
  C   C416      1.0  0.99344  0.76090  0.68229  1.0000
  H   H727      1.0  0.70758  0.65131  0.56294  1.0000
  C   C417      1.0  0.78324  0.64866  0.95893  1.0000
  H   H728      1.0  0.75411  0.64283  0.86301  1.0000
  N   N24       1.0  0.76733  0.68302  0.56050  1.0000
  H   H729      1.0  0.87555  0.66716  0.59317  1.0000
  C   C418      1.0  0.75839  0.64757  0.57719  1.0000
  H   H730      1.0  0.77225  0.63977  0.61178  1.0000
  C   C419      1.0  0.82569  0.67493  0.58568  1.0000
  H   H731      1.0  0.79656  0.71301  0.92148  1.0000
  H   H732      1.0  0.83583  0.81876  0.91881  1.0000
  H   H733      1.0  0.79482  0.68293  0.87062  1.0000
  C   C420      1.0  0.74992  0.95536  0.74760  1.0000
  C   C421      1.0  0.95109  0.86450  0.74047  1.0000
  H   H734      1.0  0.74532  0.73889  0.89026  1.0000
  H   H735      1.0  0.78806  0.62630  0.93349  1.0000
  H   H736      1.0  0.96392  0.64784  0.71010  1.0000
  C   C422      1.0  0.97912  0.66404  0.73486  1.0000
  H   H737      1.0  0.97466  0.84160  0.80474  1.0000
  H   H738      1.0  0.80427  0.66197  0.51272  1.0000
  H   H739      1.0  0.86171  0.79520  0.96140  1.0000
  H   H740      1.0  0.97392  0.65840  0.77631  1.0000
  C   C423      1.0  0.72404  0.64180  0.59279  1.0000
  H   H741      1.0  0.94184  0.84012  0.72503  1.0000
  H   H742      1.0  0.97328  0.87013  0.72002  1.0000
  H   H743      1.0  0.71935  0.65437  0.63063  1.0000
  H   H744      1.0  0.72306  0.69774  0.52561  1.0000
  H   H745      1.0  0.72289  0.70654  0.95080  1.0000
  H   H746      1.0  0.75367  0.90136  0.67698  1.0000
  H   H747      1.0  0.72179  0.89307  0.72147  1.0000
  H   H748      1.0  0.73280  0.59311  0.63081  1.0000
  C   C424      1.0  0.70965  0.95349  0.90658  1.0000
  H   H749      1.0  0.76758  0.76449  0.81049  1.0000
  C   C425      1.0  0.74140  0.69173  0.97088  1.0000
  H   H750      1.0  0.71275  0.97682  0.93047  1.0000
  H   H751      1.0  0.70936  0.75712  0.67107  1.0000
  H   H752      1.0  0.76454  0.62886  0.54634  1.0000
  C   C426      1.0  0.79519  0.98455  0.78458  1.0000
  H   H753      1.0  0.99996  0.80101  0.96734  1.0000
  C   C427      1.0  0.80091  0.68196  0.54283  1.0000
  H   H754      1.0  0.69164  0.58216  0.89899  1.0000
  H   H755      1.0  0.72159  0.59133  0.85206  1.0000
  C   C428      1.0  0.75627  0.79685  0.52031  1.0000
  C   C429      1.0  0.81046  0.77860  0.51906  1.0000
  H   H756      1.0  0.80739  0.70644  0.52395  1.0000
  H   H757      1.0  0.98644  0.86117  0.94861  1.0000
  H   H758      1.0  0.77182  0.63790  0.99425  1.0000
  H   H759      1.0  0.93177  0.95352  0.95340  1.0000
  H   H760      1.0  0.94062  0.87882  0.98712  1.0000
  H   H761      1.0  0.71890  0.01103  0.77041  1.0000
  H   H762      1.0  0.68812  0.61921  0.85809  1.0000
  C   C430      1.0  0.01335  0.65680  0.72260  1.0000
  H   H763      1.0  0.72862  0.67301  0.99531  1.0000
  H   H764      1.0  0.77381  0.73379  0.98981  1.0000
  H   H765      1.0  0.75534  0.72170  0.50486  1.0000
  C   C431      1.0  0.00749  0.81331  0.93054  1.0000
  H   H766      1.0  0.00798  0.79397  0.89902  1.0000
  H   H767      1.0  0.01183  0.78618  0.80483  1.0000
  H   H768      1.0  0.81501  0.68666  0.99512  1.0000
  C   C432      1.0  0.80977  0.01191  0.82054  1.0000
