data_image0
_chemical_formula_structural       HCSCFeHCH2NC6H7CH3CH3CHNHCHCH2CH2CH3CH3CHCH3CHCH5CH2C2HC2HCH3C2H3CHCH4SH2CHCHCH6SH3CSHC2HSCHSFeS2FeS2FeS2C6H4C7H7CH3CH2C2HCHCHFeCSH2CNCHCHCH4CH3FeHCH7FeHSH3SH4CH7FeHC2H4CHCHCH2CSHFeHCFeS2FeSCSC3HC3H6SC2H2C2HC3H2CH10C2HCHCHCHC2HCSHCHCHSFeH3CH3NH6CHCH2CSCHCHC2H2C2HNH3CHC2HCH2CHCH3C2NH5C2SHFeSCFeS2FeS2H2C6H6C2H3C2H2NH3CHCH4CHSH2SH6C2H6FeH2CH4C3HNCHC2FeHC2HFeHC2HSCHCSH5CNC2H2S2FeS2H3CSHC6H6C6H6CH2Fe2H18C2H2CNC12H20C2HCHCH2C2HS2H4SH2CH2CHC4H3FeSCSH4CH2CNSHCHC3HSFeS2CH2C7H5CHC4HC4H2CH6CNH4CH4FeH6CH14CH4FeS2NFeCH2SCHFeSC6H9SC3SC2NCH2C3FeH2CH3C2H3CH2C2HC2H2CH5CSH7S2C2HCH3CH7CH6SCH4CHCH3CHCH3CH2CHC2H2FeSFeS2HSHCSH4CSCH3C6HCH2C6H2SH4CHCH4NHCH5CSH4CHC2H3C2SH2CH2CH4NHCHCH3C2HFeHFeCHFeCSCH4CHCH3CH2SH3FeHCH2SHSHC6H9CH2C2H3CHCNCHC2H2C2H2CH2C2H4CH2CHC3FeCH5FeHSCHC3H5CH5NH3CH3SCH2C6H4CH5CHCH2CNHC3HC2H9FeCH4CHCH4C2HC2H3FeSCH4C2HCH2SH2CH3SHC2HSHCH2CS2FeS2FeS2FeS3H4CHCFeH2C6H4C6H6FeCH4SCHCH10CH2CH2CHCFeH6C2HCH8C2HCHFeH2CH5CH2NC6H2CHNH7CHCH3C2SCHFeC2FeS2FeSCSC2HC2HNC2H4C2H2CHCH3NH2CH4NHC3HSH5CHCH2C2H2SH3C2HC2H9CHCH2CHSCSHC
_chemical_formula_sum              "H768 C432 S96 Fe48 N24"
_cell_length_a       37.6424
_cell_length_b       30.2599
_cell_length_c       44.2764
_cell_angle_alpha    90.1992
_cell_angle_beta     89.9807
_cell_angle_gamma    90.1118

_space_group_name_H-M_alt    "P 1"
_space_group_IT_number       1

loop_
  _space_group_symop_operation_xyz
  'x, y, z'

loop_
  _atom_site_type_symbol
  _atom_site_label
  _atom_site_symmetry_multiplicity
  _atom_site_fract_x
  _atom_site_fract_y
  _atom_site_fract_z
  _atom_site_occupancy
  H   H1        1.0  0.12538  0.13156  0.05756  1.0000
  C   C1        1.0  0.04408  0.06382  0.20077  1.0000
  S   S1        1.0  0.05431  0.13492  0.07934  1.0000
  C   C2        1.0  0.05320  0.12444  0.23644  1.0000
  Fe  Fe1       1.0  0.99518  0.12736  0.08907  1.0000
  H   H2        1.0  0.40326  0.32913  0.05717  1.0000
  C   C3        1.0  0.42613  0.43156  0.02359  1.0000
  H   H3        1.0  0.37967  0.13853  0.00894  1.0000
  H   H4        1.0  0.43498  0.41080  0.04195  1.0000
  N   N1        1.0  0.05844  0.11025  0.20391  1.0000
  C   C4        1.0  0.08571  0.09136  0.07901  1.0000
  C   C5        1.0  0.11938  0.09930  0.06655  1.0000
  C   C6        1.0  0.14549  0.06611  0.06615  1.0000
  C   C7        1.0  0.13864  0.02506  0.07925  1.0000
  C   C8        1.0  0.10512  0.01719  0.09220  1.0000
  C   C9        1.0  0.07853  0.04994  0.09160  1.0000
  H   H5        1.0  0.03943  0.00399  0.01403  1.0000
  H   H6        1.0  0.01576  0.06294  0.20795  1.0000
  H   H7        1.0  0.04036  0.13416  0.16008  1.0000
  H   H8        1.0  0.05272  0.04333  0.10125  1.0000
  H   H9        1.0  0.11135  0.13812  0.20970  1.0000
  H   H10       1.0  0.10349  0.15528  0.15699  1.0000
  H   H11       1.0  0.38647  0.44006  0.31380  1.0000
  C   C10       1.0  0.34393  0.36599  0.02908  1.0000
  H   H12       1.0  0.03105  0.20153  0.21160  1.0000
  H   H13       1.0  0.45621  0.31197  0.02636  1.0000
  H   H14       1.0  0.02438  0.12893  0.24141  1.0000
  C   C11       1.0  0.03663  0.14097  0.18450  1.0000
  H   H15       1.0  0.32869  0.45648  0.02830  1.0000
  H   H16       1.0  0.09209  0.10010  0.14692  1.0000
  H   H17       1.0  0.06575  0.15727  0.24049  1.0000
  C   C12       1.0  0.10791  0.12009  0.16289  1.0000
  H   H18       1.0  0.33184  0.29225  0.05848  1.0000
  N   N2        1.0  0.34505  0.32053  0.01500  1.0000
  H   H19       1.0  0.07507  0.03404  0.16415  1.0000
  C   C13       1.0  0.30365  0.21119  0.04679  1.0000
  H   H20       1.0  0.31438  0.23449  0.00216  1.0000
  C   C14       1.0  0.04333  0.19105  0.18990  1.0000
  H   H21       1.0  0.38999  0.27189  0.05646  1.0000
  H   H22       1.0  0.08827  0.14375  0.29187  1.0000
  C   C15       1.0  0.09768  0.11170  0.19648  1.0000
  H   H23       1.0  0.17151  0.07273  0.05692  1.0000
  H   H24       1.0  0.28414  0.45210  0.04290  1.0000
  C   C16       1.0  0.02669  0.21921  0.16514  1.0000
  H   H25       1.0  0.32124  0.43505  0.06581  1.0000
  H   H26       1.0  0.07216  0.19852  0.19096  1.0000
  H   H27       1.0  0.03657  0.06407  0.15137  1.0000
  C   C17       1.0  0.31062  0.43602  0.04240  1.0000
  H   H28       1.0  0.35280  0.36477  0.05302  1.0000
  H   H29       1.0  0.07763  0.09169  0.30940  1.0000
  H   H30       1.0  0.23202  0.14915  0.00109  1.0000
  C   C18       1.0  0.36247  0.99314  0.99818  1.0000
  H   H31       1.0  0.01825  0.05515  0.05281  1.0000
  C   C19       1.0  0.40283  0.29859  0.04326  1.0000
  H   H32       1.0  0.15230  0.07398  0.16074  1.0000
  H   H33       1.0  0.00777  0.13508  0.18835  1.0000
  H   H34       1.0  0.03767  0.21013  0.14265  1.0000
  C   C20       1.0  0.06917  0.11574  0.29193  1.0000
  H   H35       1.0  0.35301  0.22708  0.02543  1.0000
  C   C21       1.0  0.30732  0.38934  0.02929  1.0000
  H   H36       1.0  0.27544  0.22189  0.04705  1.0000
  H   H37       1.0  0.29520  0.29864  0.03398  1.0000
  H   H38       1.0  0.30463  0.17613  0.03929  1.0000
  H   H39       1.0  0.20984  0.12320  0.03258  1.0000
  H   H40       1.0  0.99742  0.21462  0.16506  1.0000
  C   C22       1.0  0.00318  0.02441  0.04821  1.0000
  H   H41       1.0  0.05065  0.06360  0.26329  1.0000
  H   H42       1.0  0.36319  0.38834  0.01780  1.0000
  C   C23       1.0  0.44142  0.28503  0.03787  1.0000
  C   C24       1.0  0.14699  0.10965  0.15694  1.0000
  H   H43       1.0  0.11064  0.08043  0.20379  1.0000
  C   C25       1.0  0.32375  0.28929  0.03437  1.0000
  C   C26       1.0  0.04691  0.04220  0.16918  1.0000
  H   H44       1.0  0.28805  0.37081  0.04338  1.0000
  C   C27       1.0  0.37344  0.99483  0.03138  1.0000
  H   H45       1.0  0.31468  0.21331  0.07002  1.0000
  H   H46       1.0  0.38581  0.27587  0.99899  1.0000
  H   H47       1.0  0.04241  0.12824  0.29822  1.0000
  C   C28       1.0  0.41178  0.47331  0.02994  1.0000
  C   C29       1.0  0.32538  0.23971  0.02514  1.0000
  H   H48       1.0  0.15353  0.11723  0.13303  1.0000
  H   H49       1.0  0.21649  0.18214  0.03224  1.0000
  H   H50       1.0  0.09542  0.08200  0.25534  1.0000
  C   C30       1.0  0.38331  0.30628  0.01288  1.0000
  H   H51       1.0  0.16444  0.12980  0.17183  1.0000
  C   C31       1.0  0.06812  0.09307  0.26100  1.0000
  H   H52       1.0  0.03247  0.25466  0.16946  1.0000
  H   H53       1.0  0.37502  0.02958  0.03945  1.0000
  H   H54       1.0  0.05834  0.04073  0.21598  1.0000
  H   H55       1.0  0.32584  0.09079  0.00963  1.0000
  S   S2        1.0  0.19746  0.00140  0.99770  1.0000
  H   H56       1.0  0.29630  0.39255  0.00619  1.0000
  H   H57       1.0  0.39901  0.33137  0.00051  1.0000
  C   C32       1.0  0.02577  0.99908  0.16763  1.0000
  H   H58       1.0  0.44273  0.25457  0.02379  1.0000
  C   C33       1.0  0.17477  0.15953  0.00204  1.0000
  H   H59       1.0  0.99708  0.00541  0.17168  1.0000
  C   C34       1.0  0.21040  0.15288  0.01795  1.0000
  H   H60       1.0  0.45460  0.27835  0.05981  1.0000
  H   H61       1.0  0.48359  0.45303  0.07607  1.0000
  H   H62       1.0  0.42691  0.46836  0.32499  1.0000
  H   H63       1.0  0.03425  0.15493  0.01217  1.0000
  H   H64       1.0  0.15978  0.09081  0.00226  1.0000
  H   H65       1.0  0.15499  0.16889  0.01941  1.0000
  S   S3        1.0  0.26928  0.99545  0.04042  1.0000
  H   H66       1.0  0.09737  0.09949  0.00417  1.0000
  H   H67       1.0  0.03187  0.09571  0.00689  1.0000
  H   H68       1.0  0.10142  0.15730  0.00100  1.0000
  C   C35       1.0  0.02778  0.98974  0.03479  1.0000
  S   S4        1.0  0.40492  0.48872  0.06803  1.0000
  H   H69       1.0  0.11083  0.26607  0.54137  1.0000
  C   C36       1.0  0.02017  0.20045  0.51528  1.0000
  C   C37       1.0  0.00697  0.01342  0.50526  1.0000
  H   H70       1.0  0.35322  0.43041  0.65868  1.0000
  S   S5        1.0  0.05910  0.21455  0.40958  1.0000
  C   C38       1.0  0.39915  0.46050  0.33170  1.0000
  H   H71       1.0  0.45856  0.02554  0.40840  1.0000
  S   S6        1.0  0.45312  0.25892  0.62854  1.0000
  Fe  Fe2       1.0  0.42856  0.29744  0.59024  1.0000
  S   S7        1.0  0.37450  0.28180  0.57051  1.0000
  S   S8        1.0  0.44162  0.36395  0.60957  1.0000
  Fe  Fe3       1.0  0.13961  0.42005  0.50710  1.0000
  S   S9        1.0  0.14811  0.44304  0.55527  1.0000
  S   S10       1.0  0.09180  0.37384  0.50066  1.0000
  Fe  Fe4       1.0  0.20637  0.43545  0.54521  1.0000
  S   S11       1.0  0.24618  0.41668  0.58159  1.0000
  S   S12       1.0  0.19800  0.40797  0.49842  1.0000
  C   C39       1.0  0.34035  0.32192  0.57148  1.0000
  C   C40       1.0  0.31004  0.31626  0.55334  1.0000
  C   C41       1.0  0.28165  0.34648  0.55489  1.0000
  C   C42       1.0  0.28318  0.38214  0.57503  1.0000
  C   C43       1.0  0.31385  0.38837  0.59257  1.0000
  C   C44       1.0  0.34237  0.35856  0.59072  1.0000
  H   H72       1.0  0.30829  0.28804  0.53834  1.0000
  H   H73       1.0  0.25805  0.34124  0.54139  1.0000
  H   H74       1.0  0.31533  0.41613  0.60795  1.0000
  H   H75       1.0  0.36550  0.36342  0.60465  1.0000
  C   C45       1.0  0.06700  0.26040  0.43393  1.0000
  C   C46       1.0  0.04089  0.27691  0.45337  1.0000
  C   C47       1.0  0.04879  0.31242  0.47300  1.0000
  C   C48       1.0  0.08286  0.33168  0.47363  1.0000
  C   C49       1.0  0.10878  0.31571  0.45379  1.0000
  C   C50       1.0  0.10083  0.28032  0.43404  1.0000
  C   C51       1.0  0.09686  0.15227  0.54095  1.0000
  H   H76       1.0  0.02843  0.32493  0.48799  1.0000
  H   H77       1.0  0.13503  0.33035  0.45385  1.0000
  H   H78       1.0  0.12117  0.26803  0.41894  1.0000
  H   H79       1.0  0.10447  0.06566  0.56271  1.0000
  H   H80       1.0  0.47175  0.27811  0.48573  1.0000
  H   H81       1.0  0.07032  0.08204  0.45198  1.0000
  H   H82       1.0  0.01457  0.26252  0.45316  1.0000
  C   C52       1.0  0.16388  0.27227  0.52478  1.0000
  H   H83       1.0  0.00818  0.04866  0.50149  1.0000
  H   H84       1.0  0.13303  0.14272  0.46858  1.0000
  H   H85       1.0  0.07473  0.18252  0.46810  1.0000
  C   C53       1.0  0.06794  0.11757  0.54863  1.0000
  H   H86       1.0  0.39067  0.39446  0.65371  1.0000
  H   H87       1.0  0.00260  0.01915  0.55385  1.0000
  C   C54       1.0  0.10818  0.12540  0.47503  1.0000
  C   C55       1.0  0.40132  0.48458  0.45885  1.0000
  H   H88       1.0  0.01365  0.16681  0.52318  1.0000
  C   C56       1.0  0.08147  0.08439  0.57188  1.0000
  H   H89       1.0  0.08950  0.10150  0.59305  1.0000
  C   C57       1.0  0.12121  0.21102  0.50917  1.0000
  H   H90       1.0  0.14121  0.22489  0.55509  1.0000
  Fe  Fe5       1.0  0.01298  0.16523  0.40788  1.0000
  C   C58       1.0  0.13265  0.24340  0.53478  1.0000
  S   S13       1.0  0.01533  0.00304  0.44311  1.0000
  H   H91       1.0  0.05474  0.13951  0.48866  1.0000
  H   H92       1.0  0.11716  0.23102  0.48832  1.0000
  C   C59       1.0  0.07979  0.15853  0.48655  1.0000
  N   N3        1.0  0.08854  0.18325  0.51531  1.0000
  C   C60       1.0  0.00401  0.99662  0.53488  1.0000
  H   H93       1.0  0.01694  0.20110  0.49035  1.0000
  C   C61       1.0  0.05858  0.21433  0.52385  1.0000
  H   H94       1.0  0.44423  0.99526  0.37545  1.0000
  C   C62       1.0  0.38748  0.41643  0.52341  1.0000
  H   H95       1.0  0.42140  0.46035  0.54804  1.0000
  H   H96       1.0  0.39996  0.44090  0.35286  1.0000
  H   H97       1.0  0.08985  0.12445  0.42836  1.0000
  H   H98       1.0  0.41402  0.45237  0.46370  1.0000
  C   C63       1.0  0.41035  0.37484  0.52225  1.0000
  H   H99       1.0  0.10160  0.17123  0.56214  1.0000
  H   H100      1.0  0.17187  0.29464  0.54355  1.0000
  H   H101      1.0  0.11556  0.07698  0.43924  1.0000
  Fe  Fe6       1.0  0.46907  0.32574  0.64632  1.0000
  H   H102      1.0  0.06006  0.06035  0.57732  1.0000
  C   C64       1.0  0.41082  0.45861  0.52461  1.0000
  H   H103      1.0  0.05957  0.09831  0.52852  1.0000
  H   H104      1.0  0.15616  0.29311  0.50525  1.0000
  H   H105      1.0  0.35907  0.45503  0.43157  1.0000
  H   H106      1.0  0.48357  0.40756  0.45337  1.0000
  H   H107      1.0  0.36984  0.41515  0.50347  1.0000
  H   H108      1.0  0.37098  0.41460  0.54413  1.0000
  H   H109      1.0  0.04448  0.13417  0.55867  1.0000
  Fe  Fe7       1.0  0.99699  0.06805  0.42297  1.0000
  H   H110      1.0  0.31686  0.37058  0.65452  1.0000
  S   S14       1.0  0.47718  0.29392  0.56053  1.0000
  H   H111      1.0  0.06229  0.24695  0.51273  1.0000
  H   H112      1.0  0.43472  0.45332  0.51042  1.0000
  H   H113      1.0  0.12229  0.13464  0.53661  1.0000
  S   S15       1.0  0.02797  0.10059  0.38578  1.0000
  H   H114      1.0  0.42885  0.37390  0.54174  1.0000
  H   H115      1.0  0.39304  0.34514  0.52295  1.0000
  H   H116      1.0  0.42576  0.37370  0.50088  1.0000
  H   H117      1.0  0.05915  0.22167  0.54853  1.0000
  C   C65       1.0  0.09504  0.10079  0.44696  1.0000
  H   H118      1.0  0.26778  0.42587  0.64745  1.0000
  H   H119      1.0  0.14470  0.18980  0.50466  1.0000
  H   H120      1.0  0.18708  0.25160  0.51844  1.0000
  H   H121      1.0  0.11432  0.10023  0.49239  1.0000
  H   H122      1.0  0.99867  0.26683  0.52134  1.0000
  H   H123      1.0  0.47859  0.22737  0.50651  1.0000
  H   H124      1.0  0.47239  0.22572  0.46622  1.0000
  Fe  Fe8       1.0  0.19933  0.47956  0.48381  1.0000
  H   H125      1.0  0.39957  0.46733  0.41138  1.0000
  C   C66       1.0  0.38108  0.47927  0.42917  1.0000
  C   C67       1.0  0.48437  0.24493  0.48507  1.0000
  H   H126      1.0  0.37248  0.24908  0.63679  1.0000
  H   H127      1.0  0.40901  0.47224  0.65436  1.0000
  H   H128      1.0  0.32707  0.46059  0.53428  1.0000
  H   H129      1.0  0.36855  0.32756  0.65556  1.0000
  C   C68       1.0  0.36632  0.23781  0.66008  1.0000
  H   H130      1.0  0.35317  0.47668  0.48454  1.0000
  C   C69       1.0  0.45148  0.99218  0.39967  1.0000
  H   H131      1.0  0.35178  0.20593  0.65843  1.0000
  C   C70       1.0  0.99292  0.23244  0.52859  1.0000
  H   H132      1.0  0.99317  0.23090  0.55365  1.0000
  H   H133      1.0  0.31853  0.27545  0.66309  1.0000
  C   C71       1.0  0.16294  0.11700  0.98493  1.0000
  S   S16       1.0  0.26752  0.08053  0.96631  1.0000
  H   H134      1.0  0.42757  0.44351  0.68618  1.0000
  Fe  Fe9       1.0  0.45166  0.28449  0.87064  1.0000
  H   H135      1.0  0.43834  0.22757  0.76112  1.0000
  C   C72       1.0  0.36296  0.31694  0.67911  1.0000
  Fe  Fe10      1.0  0.43579  0.35229  0.92039  1.0000
  S   S17       1.0  0.45844  0.30925  0.95628  1.0000
  S   S18       1.0  0.41533  0.42116  0.93220  1.0000
  Fe  Fe11      1.0  0.42985  0.25263  0.93399  1.0000
  S   S19       1.0  0.40668  0.20179  0.96702  1.0000
  C   C73       1.0  0.16398  0.20286  0.90460  1.0000
  S   S20       1.0  0.40329  0.29673  0.89994  1.0000
  C   C74       1.0  0.41584  0.44162  0.96981  1.0000
  C   C75       1.0  0.30589  0.11483  0.96728  1.0000
  C   C76       1.0  0.34893  0.30461  0.77806  1.0000
  H   H136      1.0  0.44531  0.26345  0.71093  1.0000
  C   C77       1.0  0.36729  0.16942  0.96644  1.0000
  C   C78       1.0  0.34259  0.17162  0.94292  1.0000
  C   C79       1.0  0.31199  0.14456  0.94343  1.0000
  H   H137      1.0  0.32787  0.27903  0.77592  1.0000
  H   H138      1.0  0.42659  0.13834  0.91848  1.0000
  H   H139      1.0  0.34717  0.19392  0.92426  1.0000
  H   H140      1.0  0.29316  0.14628  0.92502  1.0000
  H   H141      1.0  0.37841  0.08282  0.93261  1.0000
  H   H142      1.0  0.32652  0.32044  0.92096  1.0000
  S   S21       1.0  0.47670  0.23750  0.90415  1.0000
  C   C80       1.0  0.45146  0.28603  0.78679  1.0000
  C   C81       1.0  0.43453  0.07447  0.94035  1.0000
  H   H143      1.0  0.27744  0.39657  0.71343  1.0000
  H   H144      1.0  0.16458  0.23312  0.91889  1.0000
  C   C82       1.0  0.34674  0.00782  0.93567  1.0000
  C   C83       1.0  0.45986  0.32667  0.72949  1.0000
  H   H145      1.0  0.29160  0.33605  0.67817  1.0000
  C   C84       1.0  0.46112  0.33058  0.78486  1.0000
  C   C85       1.0  0.45003  0.28221  0.73139  1.0000
  C   C86       1.0  0.44599  0.26200  0.75988  1.0000
  H   H146      1.0  0.16493  0.13235  0.90897  1.0000
  H   H147      1.0  0.45333  0.09982  0.89704  1.0000
  C   C87       1.0  0.12567  0.07933  0.94743  1.0000
  H   H148      1.0  0.12836  0.03310  0.98602  1.0000
  H   H149      1.0  0.32132  0.36574  0.74031  1.0000
  H   H150      1.0  0.33656  0.25819  0.69883  1.0000
  H   H151      1.0  0.43218  0.08802  0.96361  1.0000
  H   H152      1.0  0.47267  0.38526  0.75517  1.0000
  H   H153      1.0  0.40059  0.05120  0.90440  1.0000
  H   H154      1.0  0.05692  0.10372  0.95510  1.0000
  H   H155      1.0  0.44084  0.38467  0.98917  1.0000
  H   H156      1.0  0.30524  0.43452  0.69296  1.0000
  H   H157      1.0  0.05907  0.16261  0.96009  1.0000
  C   C88       1.0  0.32566  0.35398  0.93122  1.0000
  C   C89       1.0  0.39823  0.05585  0.92927  1.0000
  H   H158      1.0  0.37424  0.28809  0.73633  1.0000
  C   C90       1.0  0.11381  0.03710  0.96452  1.0000
  H   H159      1.0  0.33824  0.33375  0.79035  1.0000
  C   C91       1.0  0.40220  0.48388  0.97608  1.0000
  H   H160      1.0  0.10778  0.16011  0.93001  1.0000
  C   C92       1.0  0.16441  0.16147  0.92427  1.0000
  H   H161      1.0  0.00538  0.13170  0.98377  1.0000
  C   C93       1.0  0.11994  0.99586  0.94514  1.0000
  C   C94       1.0  0.44719  0.11221  0.92009  1.0000
  H   H162      1.0  0.15136  0.07160  0.93606  1.0000
  C   C95       1.0  0.36275  0.31803  0.74695  1.0000
  S   S22       1.0  0.46524  0.35386  0.69427  1.0000
  H   H163      1.0  0.35677  0.41662  0.71570  1.0000
  C   C96       1.0  0.34537  0.35473  0.96137  1.0000
  H   H164      1.0  0.33859  0.37750  0.91540  1.0000
  C   C97       1.0  0.31036  0.36448  0.67863  1.0000
  H   H165      1.0  0.10653  0.08422  0.92856  1.0000
  S   S23       1.0  0.44582  0.25869  0.82199  1.0000
  Fe  Fe12      1.0  0.25557  0.01770  0.99323  1.0000
  H   H166      1.0  0.18953  0.16194  0.93736  1.0000
  H   H167      1.0  0.31076  0.31287  0.72583  1.0000
  H   H168      1.0  0.49084  0.45553  0.97108  1.0000
  C   C98       1.0  0.06141  0.13040  0.97187  1.0000
  H   H169      1.0  0.38987  0.47992  0.69138  1.0000
  H   H170      1.0  0.18776  0.20310  0.88973  1.0000
  H   H171      1.0  0.29756  0.36414  0.93435  1.0000
  N   N4        1.0  0.12950  0.12080  0.96624  1.0000
  H   H172      1.0  0.39146  0.23220  0.67262  1.0000
  H   H173      1.0  0.17819  0.18795  0.98661  1.0000
  H   H174      1.0  0.18573  0.10566  0.97083  1.0000
  H   H175      1.0  0.28272  0.02563  0.90702  1.0000
  H   H176      1.0  0.46539  0.34952  0.80532  1.0000
  H   H177      1.0  0.24183  0.44265  0.67959  1.0000
  C   C99       1.0  0.33262  0.33764  0.72721  1.0000
  H   H178      1.0  0.12956  0.19143  0.95809  1.0000
  C   C100      1.0  0.09831  0.12668  0.98729  1.0000
  H   H179      1.0  0.13989  0.20337  0.89011  1.0000
  H   H180      1.0  0.08508  0.03865  0.97008  1.0000
  C   C101      1.0  0.13133  0.15983  0.94522  1.0000
  S   S24       1.0  0.48187  0.34367  0.88825  1.0000
  C   C102      1.0  0.37721  0.41687  0.66980  1.0000
  H   H181      1.0  0.38432  0.34249  0.75055  1.0000
  C   C103      1.0  0.33038  0.11305  0.99095  1.0000
  H   H182      1.0  0.29256  0.99855  0.87168  1.0000
  C   C104      1.0  0.34335  0.27192  0.67638  1.0000
  C   C105      1.0  0.42889  0.41626  0.99367  1.0000
  H   H183      1.0  0.14845  0.99282  0.93898  1.0000
  H   H184      1.0  0.38568  0.05375  0.98479  1.0000
  C   C106      1.0  0.36083  0.14027  0.99053  1.0000
  C   C107      1.0  0.46521  0.35075  0.75636  1.0000
  H   H185      1.0  0.34385  0.38895  0.97029  1.0000
  N   N5        1.0  0.34342  0.35280  0.69609  1.0000
  H   H186      1.0  0.33097  0.03541  0.94541  1.0000
  H   H187      1.0  0.37106  0.29063  0.79160  1.0000
  H   H188      1.0  0.33344  0.28770  0.97264  1.0000
  C   C108      1.0  0.03150  0.12805  0.99516  1.0000
  H   H189      1.0  0.39354  0.38185  0.70950  1.0000
  C   C109      1.0  0.28872  0.40431  0.69090  1.0000
  C   C110      1.0  0.36782  0.39216  0.69940  1.0000
  H   H190      1.0  0.34531  0.03716  0.89012  1.0000
  C   C111      1.0  0.33809  0.00575  0.90145  1.0000
  H   H191      1.0  0.38964  0.31116  0.68920  1.0000
  H   H192      1.0  0.45552  0.04889  0.94039  1.0000
  C   C112      1.0  0.38924  0.01868  0.97796  1.0000
  H   H193      1.0  0.10388  0.99716  0.92413  1.0000
  C   C113      1.0  0.29832  0.99865  0.89628  1.0000
  H   H194      1.0  0.37361  0.34691  0.95672  1.0000
  H   H195      1.0  0.03734  0.99279  0.93362  1.0000
  H   H196      1.0  0.41674  0.00996  0.98509  1.0000
  C   C114      1.0  0.25777  0.41522  0.66988  1.0000
  C   C115      1.0  0.40242  0.45550  0.67595  1.0000
  N   N6        1.0  0.38535  0.01372  0.94406  1.0000
  H   H197      1.0  0.30014  0.32511  0.98448  1.0000
  H   H198      1.0  0.24012  0.38607  0.66677  1.0000
  H   H199      1.0  0.33571  0.00839  0.99643  1.0000
  H   H200      1.0  0.46998  0.18375  0.67794  1.0000
  H   H201      1.0  0.47161  0.12734  0.92974  1.0000
  C   C116      1.0  0.32945  0.32049  0.98361  1.0000
  C   C117      1.0  0.45938  0.57566  0.25714  1.0000
  S   S25       1.0  0.46856  0.56201  0.11182  1.0000
  H   H202      1.0  0.28538  0.58259  0.27446  1.0000
  Fe  Fe13      1.0  0.41744  0.55750  0.08618  1.0000
  S   S26       1.0  0.42621  0.61988  0.05990  1.0000
  C   C118      1.0  0.12297  0.90292  0.04397  1.0000
  Fe  Fe14      1.0  0.43911  0.60086  0.14734  1.0000
  S   S27       1.0  0.45048  0.66634  0.12503  1.0000
  S   S28       1.0  0.44891  0.57591  0.19565  1.0000
  Fe  Fe15      1.0  0.39957  0.65506  0.09882  1.0000
  S   S29       1.0  0.35294  0.70385  0.09596  1.0000
  S   S30       1.0  0.38692  0.59130  0.12336  1.0000
  H   H203      1.0  0.39954  0.97844  0.03460  1.0000
  H   H204      1.0  0.22323  0.82192  0.06514  1.0000
  C   C119      1.0  0.33353  0.83322  0.04307  1.0000
  C   C120      1.0  0.36420  0.80788  0.03748  1.0000
  C   C121      1.0  0.37081  0.76847  0.05355  1.0000
  C   C122      1.0  0.34672  0.75386  0.07546  1.0000
  C   C123      1.0  0.31597  0.77914  0.08094  1.0000
  C   C124      1.0  0.30947  0.81863  0.06497  1.0000
  H   H205      1.0  0.24089  0.70047  0.00039  1.0000
  H   H206      1.0  0.39452  0.74942  0.04902  1.0000
  H   H207      1.0  0.29719  0.76825  0.09785  1.0000
  H   H208      1.0  0.28610  0.83805  0.06989  1.0000
  H   H209      1.0  0.46773  0.57399  0.30560  1.0000
  H   H210      1.0  0.28790  0.61984  0.30574  1.0000
  C   C125      1.0  0.45167  0.60183  0.23173  1.0000
  C   C126      1.0  0.44653  0.64721  0.23579  1.0000
  H   H211      1.0  0.32859  0.67358  0.03215  1.0000
  H   H212      1.0  0.04897  0.98368  0.05163  1.0000
  H   H213      1.0  0.38544  0.61256  0.27990  1.0000
  C   C127      1.0  0.44853  0.66596  0.26498  1.0000
  C   C128      1.0  0.46161  0.59447  0.28631  1.0000
  H   H214      1.0  0.37015  0.50957  0.28928  1.0000
  H   H215      1.0  0.32537  0.61819  0.22419  1.0000
  N   N7        1.0  0.35297  0.57168  0.30893  1.0000
  H   H216      1.0  0.35088  0.57954  0.20194  1.0000
  H   H217      1.0  0.01425  0.83592  0.04825  1.0000
  H   H218      1.0  0.34019  0.62569  0.27848  1.0000
  C   C129      1.0  0.20374  0.79749  0.05636  1.0000
  H   H219      1.0  0.28162  0.66849  0.03864  1.0000
  C   C130      1.0  0.35086  0.59987  0.22289  1.0000
  H   H220      1.0  0.12665  0.86671  0.04136  1.0000
  H   H221      1.0  0.19332  0.77825  0.07576  1.0000
  H   H222      1.0  0.06454  0.86022  0.02151  1.0000
  H   H223      1.0  0.20135  0.74142  0.02698  1.0000
  C   C131      1.0  0.35854  0.59722  0.28004  1.0000
  H   H224      1.0  0.05352  0.89521  0.05248  1.0000
  S   S31       1.0  0.45657  0.66509  0.32675  1.0000
  H   H225      1.0  0.31167  0.52230  0.30236  1.0000
  H   H226      1.0  0.25981  0.81117  0.01533  1.0000
  S   S32       1.0  0.22117  0.90535  0.02661  1.0000
  H   H227      1.0  0.14837  0.91956  0.03866  1.0000
  H   H228      1.0  0.48947  0.57543  0.02445  1.0000
  H   H229      1.0  0.48292  0.49737  0.02759  1.0000
  H   H230      1.0  0.18123  0.81519  0.04565  1.0000
  H   H231      1.0  0.40525  0.54283  0.30364  1.0000
  H   H232      1.0  0.38929  0.53212  0.01064  1.0000
  C   C132      1.0  0.30215  0.67374  0.02098  1.0000
  C   C133      1.0  0.09452  0.91981  0.02246  1.0000
  H   H233      1.0  0.44075  0.66782  0.21649  1.0000
  H   H234      1.0  0.09249  0.95596  0.02550  1.0000
  H   H235      1.0  0.99973  0.93377  0.05127  1.0000
  H   H236      1.0  0.03569  0.97517  0.18463  1.0000
  H   H237      1.0  0.33265  0.54664  0.25121  1.0000
  H   H238      1.0  0.46370  0.54058  0.25423  1.0000
  Fe  Fe16      1.0  0.21143  0.97503  0.04326  1.0000
  H   H239      1.0  0.29735  0.74450  0.02261  1.0000
  H   H240      1.0  0.11587  0.91069  0.06776  1.0000
  C   C134      1.0  0.22139  0.76628  0.03372  1.0000
  H   H241      1.0  0.38311  0.81887  0.02070  1.0000
  H   H242      1.0  0.38006  0.55048  0.24680  1.0000
  H   H243      1.0  0.37315  0.62387  0.22137  1.0000
  H   H244      1.0  0.24288  0.74861  0.04585  1.0000
  C   C135      1.0  0.31520  0.55553  0.31290  1.0000
  C   C136      1.0  0.28515  0.58461  0.29950  1.0000
  C   C137      1.0  0.35539  0.56998  0.25038  1.0000
  H   H245      1.0  0.24409  0.53391  0.30357  1.0000
  N   N8        1.0  0.02660  0.91164  0.01074  1.0000
  C   C138      1.0  0.05885  0.89528  0.02772  1.0000
  H   H246      1.0  0.34157  0.66398  0.32004  1.0000
  C   C139      1.0  0.40058  0.49994  0.00600  1.0000
  C   C140      1.0  0.29649  0.71806  0.00530  1.0000
  Fe  Fe17      1.0  0.27759  0.92728  0.01996  1.0000
  H   H247      1.0  0.30124  0.64615  0.00439  1.0000
  C   C141      1.0  0.37747  0.53211  0.30819  1.0000
  C   C142      1.0  0.45584  0.63973  0.29045  1.0000
  H   H248      1.0  0.44418  0.70105  0.26788  1.0000
  Fe  Fe18      1.0  0.47616  0.62610  0.08777  1.0000
  H   H249      1.0  0.02870  0.98412  0.14481  1.0000
  C   C143      1.0  0.00726  0.94646  0.02864  1.0000
  C   C144      1.0  0.23693  0.79181  0.00626  1.0000
  H   H250      1.0  0.22760  0.58952  0.29981  1.0000
  S   S33       1.0  0.17240  0.98466  0.08196  1.0000
  C   C145      1.0  0.24865  0.56890  0.31023  1.0000
  H   H251      1.0  0.10406  0.91376  0.99914  1.0000
  C   C146      1.0  0.00171  0.87293  0.00638  1.0000
  S   S34       1.0  0.32663  0.88269  0.02214  1.0000
  H   H252      1.0  0.47077  0.64552  0.00160  1.0000
  H   H253      1.0  0.09972  0.98563  0.10267  1.0000
  H   H254      1.0  0.21727  0.81725  0.99932  1.0000
  H   H255      1.0  0.35345  0.97701  0.04525  1.0000
  H   H256      1.0  0.48572  0.50070  0.17004  1.0000
  C   C147      1.0  0.99691  0.64941  0.64802  1.0000
  N   N9        1.0  0.39318  0.50144  0.51599  1.0000
  C   C148      1.0  0.36617  0.51525  0.53948  1.0000
  C   C149      1.0  0.44025  0.54793  0.54530  1.0000
  H   H257      1.0  0.99832  0.67992  0.60325  1.0000
  H   H258      1.0  0.08039  0.74381  0.46598  1.0000
  S   S35       1.0  0.46335  0.61106  0.46049  1.0000
  S   S36       1.0  0.44314  0.68591  0.41088  1.0000
  Fe  Fe19      1.0  0.41595  0.62759  0.43210  1.0000
  S   S37       1.0  0.36328  0.63267  0.45710  1.0000
  S   S38       1.0  0.43044  0.58115  0.39459  1.0000
  H   H259      1.0  0.35091  0.49370  0.34429  1.0000
  H   H260      1.0  0.28442  0.53108  0.40076  1.0000
  H   H261      1.0  0.44378  0.79935  0.44138  1.0000
  C   C150      1.0  0.99554  0.64647  0.61308  1.0000
  S   S39       1.0  0.13590  0.57491  0.56104  1.0000
  H   H262      1.0  0.47911  0.59375  0.56374  1.0000
  C   C151      1.0  0.32687  0.59631  0.45241  1.0000
  C   C152      1.0  0.31968  0.57528  0.42490  1.0000
  C   C153      1.0  0.28998  0.54708  0.42213  1.0000
  C   C154      1.0  0.26762  0.53915  0.44698  1.0000
  C   C155      1.0  0.27503  0.56010  0.47442  1.0000
  C   C156      1.0  0.30415  0.58901  0.47702  1.0000
  H   H263      1.0  0.33685  0.58096  0.40580  1.0000
  H   H264      1.0  0.06814  0.63136  0.62829  1.0000
  H   H265      1.0  0.25829  0.55417  0.49369  1.0000
  H   H266      1.0  0.30942  0.60525  0.49836  1.0000
  H   H267      1.0  0.40992  0.56837  0.50600  1.0000
  H   H268      1.0  0.36301  0.55194  0.53944  1.0000
  C   C157      1.0  0.04166  0.66943  0.54662  1.0000
  C   C158      1.0  0.04293  0.62884  0.53106  1.0000
  C   C159      1.0  0.07148  0.59936  0.53522  1.0000
  C   C160      1.0  0.09913  0.61033  0.55495  1.0000
  C   C161      1.0  0.09804  0.65112  0.57027  1.0000
  C   C162      1.0  0.06959  0.68065  0.56599  1.0000
  H   H269      1.0  0.08908  0.56625  0.46365  1.0000
  H   H270      1.0  0.07200  0.56812  0.52326  1.0000
  H   H271      1.0  0.11957  0.66015  0.58526  1.0000
  H   H272      1.0  0.06968  0.71256  0.57701  1.0000
  H   H273      1.0  0.38691  0.68266  0.35828  1.0000
  H   H274      1.0  0.30943  0.55048  0.33736  1.0000
  C   C163      1.0  0.46596  0.58674  0.54179  1.0000
  H   H275      1.0  0.12382  0.54889  0.43776  1.0000
  H   H276      1.0  0.24546  0.69123  0.41084  1.0000
  Fe  Fe20      1.0  0.15217  0.51159  0.53613  1.0000
  Fe  Fe21      1.0  0.46155  0.63786  0.37488  1.0000
  H   H277      1.0  0.48212  0.84855  0.47049  1.0000
  H   H278      1.0  0.02161  0.62006  0.51577  1.0000
  H   H279      1.0  0.31651  0.49519  0.58475  1.0000
  H   H280      1.0  0.27807  0.49784  0.56091  1.0000
  H   H281      1.0  0.06935  0.74959  0.50534  1.0000
  H   H282      1.0  0.27555  0.71932  0.43619  1.0000
  H   H283      1.0  0.26972  0.66049  0.43909  1.0000
  H   H284      1.0  0.04723  0.70382  0.62502  1.0000
  H   H285      1.0  0.10677  0.55503  0.65324  1.0000
  H   H286      1.0  0.10754  0.77819  0.49049  1.0000
  H   H287      1.0  0.42094  0.55723  0.56311  1.0000
  H   H288      1.0  0.36226  0.65277  0.38679  1.0000
  H   H289      1.0  0.08482  0.57617  0.42370  1.0000
  H   H290      1.0  0.01683  0.62505  0.60388  1.0000
  H   H291      1.0  0.37024  0.51151  0.42189  1.0000
  H   H292      1.0  0.45523  0.88024  0.44467  1.0000
  H   H293      1.0  0.37579  0.50651  0.56249  1.0000
  H   H294      1.0  0.24641  0.60233  0.55228  1.0000
  C   C164      1.0  0.00474  0.92191  0.51538  1.0000
  C   C165      1.0  0.36004  0.67157  0.36537  1.0000
  H   H295      1.0  0.30457  0.54660  0.56636  1.0000
  H   H296      1.0  0.00424  0.88660  0.51900  1.0000
  C   C166      1.0  0.07979  0.72283  0.66255  1.0000
  N   N10       1.0  0.16897  0.66207  0.47855  1.0000
  C   C167      1.0  0.19771  0.66184  0.45474  1.0000
  C   C168      1.0  0.14684  0.62073  0.47452  1.0000
  C   C169      1.0  0.14680  0.70316  0.47491  1.0000
  C   C170      1.0  0.18450  0.66216  0.50998  1.0000
  C   C171      1.0  0.21329  0.62687  0.51601  1.0000
  C   C172      1.0  0.22568  0.69949  0.45691  1.0000
  C   C173      1.0  0.11465  0.70720  0.49673  1.0000
  C   C174      1.0  0.12225  0.61974  0.44632  1.0000
  C   C175      1.0  0.10392  0.57496  0.44279  1.0000
  C   C176      1.0  0.22633  0.62865  0.54867  1.0000
  C   C177      1.0  0.25584  0.69208  0.43431  1.0000
  C   C178      1.0  0.09173  0.74722  0.48903  1.0000
  H   H297      1.0  0.18588  0.66443  0.43183  1.0000
  H   H298      1.0  0.21195  0.62952  0.45458  1.0000
  H   H299      1.0  0.16427  0.59107  0.47306  1.0000
  H   H300      1.0  0.12995  0.61462  0.49470  1.0000
  H   H301      1.0  0.13719  0.70626  0.45124  1.0000
  H   H302      1.0  0.16328  0.73317  0.47888  1.0000
  H   H303      1.0  0.19582  0.69512  0.51576  1.0000
  H   H304      1.0  0.16322  0.65648  0.52701  1.0000
  H   H305      1.0  0.23678  0.63188  0.50137  1.0000
  H   H306      1.0  0.20237  0.59353  0.51167  1.0000
  H   H307      1.0  0.21331  0.73183  0.45166  1.0000
  H   H308      1.0  0.23779  0.70171  0.47966  1.0000
  H   H309      1.0  0.12397  0.71151  0.52034  1.0000
  H   H310      1.0  0.09734  0.67760  0.49584  1.0000
  H   H311      1.0  0.10105  0.64500  0.44821  1.0000
  H   H312      1.0  0.13739  0.62596  0.42530  1.0000
  H   H313      1.0  0.45588  0.51919  0.55330  1.0000
  H   H314      1.0  0.23880  0.66116  0.55362  1.0000
  H   H315      1.0  0.46004  0.82125  0.40615  1.0000
  H   H316      1.0  0.20402  0.62303  0.56461  1.0000
  C   C179      1.0  0.48282  0.96048  0.40291  1.0000
  C   C180      1.0  0.42144  0.53701  0.51490  1.0000
  H   H317      1.0  0.39141  0.52054  0.35590  1.0000
  C   C181      1.0  0.46715  0.81441  0.43003  1.0000
  H   H318      1.0  0.42797  0.97955  0.41216  1.0000
  C   C182      1.0  0.00280  0.95074  0.54005  1.0000
  H   H319      1.0  0.01066  0.91591  0.46711  1.0000
  H   H320      1.0  0.47014  0.95063  0.45024  1.0000
  C   C183      1.0  0.34295  0.64333  0.34061  1.0000
  C   C184      1.0  0.00848  0.93863  0.48595  1.0000
  H   H321      1.0  0.44295  0.52781  0.49894  1.0000
  S   S40       1.0  0.01182  0.80309  0.60566  1.0000
  S   S41       1.0  0.21117  0.50557  0.52991  1.0000
  H   H322      1.0  0.02316  0.72952  0.65444  1.0000
  H   H323      1.0  0.45155  0.61690  0.53450  1.0000
  H   H324      1.0  0.48916  0.79005  0.43048  1.0000
  H   H325      1.0  0.06565  0.79249  0.65924  1.0000
  S   S42       1.0  0.00543  0.70562  0.54022  1.0000
  H   H326      1.0  0.42227  0.50967  0.45491  1.0000
  H   H327      1.0  0.48686  0.57888  0.52493  1.0000
  C   C185      1.0  0.37813  0.50298  0.33703  1.0000
  H   H328      1.0  0.08203  0.55337  0.61822  1.0000
  H   H329      1.0  0.47436  0.92826  0.39334  1.0000
  C   C186      1.0  0.37641  0.49918  0.48502  1.0000
  H   H330      1.0  0.31476  0.51117  0.51623  1.0000
  C   C187      1.0  0.32785  0.49697  0.53641  1.0000
  C   C188      1.0  0.08684  0.76970  0.65129  1.0000
  C   C189      1.0  0.47785  0.85702  0.44637  1.0000
  C   C190      1.0  0.36429  0.60035  0.33523  1.0000
  H   H331      1.0  0.34355  0.70132  0.36968  1.0000
  H   H332      1.0  0.36546  0.53206  0.47903  1.0000
  H   H333      1.0  0.11268  0.78173  0.66025  1.0000
  Fe  Fe22      1.0  0.47979  0.56771  0.42200  1.0000
  S   S43       1.0  0.23022  0.50402  0.44278  1.0000
  C   C191      1.0  0.30556  0.51009  0.56385  1.0000
  S   S44       1.0  0.99923  0.93039  0.57747  1.0000
  H   H334      1.0  0.36205  0.58199  0.35676  1.0000
  H   H335      1.0  0.39290  0.60937  0.33286  1.0000
  H   H336      1.0  0.08800  0.77031  0.62621  1.0000
  H   H337      1.0  0.02624  0.56807  0.64623  1.0000
  C   C192      1.0  0.00942  0.98434  0.48067  1.0000
  H   H338      1.0  0.07383  0.51266  0.64697  1.0000
  H   H339      1.0  0.31572  0.63509  0.34841  1.0000
  C   C193      1.0  0.04416  0.70455  0.64989  1.0000
  N   N11       1.0  0.03276  0.65989  0.66162  1.0000
  S   S45       1.0  0.14020  0.48971  0.48866  1.0000
  H   H340      1.0  0.10236  0.70198  0.65499  1.0000
  C   C194      1.0  0.06075  0.62677  0.65244  1.0000
  H   H341      1.0  0.24646  0.57197  0.33519  1.0000
  C   C195      1.0  0.05172  0.57737  0.65705  1.0000
  C   C196      1.0  0.08040  0.54797  0.64303  1.0000
  C   C197      1.0  0.00661  0.63598  0.74614  1.0000
  H   H342      1.0  0.35232  0.97807  0.89033  1.0000
  S   S46       1.0  0.04127  0.78248  0.95256  1.0000
  Fe  Fe23      1.0  0.21061  0.93353  0.98086  1.0000
  S   S47       1.0  0.18008  0.90203  0.94223  1.0000
  S   S48       1.0  0.26753  0.95162  0.97272  1.0000
  C   C198      1.0  0.18392  0.73587  0.96801  1.0000
  H   H343      1.0  0.01375  0.84854  0.99056  1.0000
  H   H344      1.0  0.31926  0.72338  0.98972  1.0000
  C   C199      1.0  0.40785  0.97610  0.93244  1.0000
  C   C200      1.0  0.07908  0.81715  0.94998  1.0000
  C   C201      1.0  0.10442  0.81690  0.97333  1.0000
  C   C202      1.0  0.13502  0.84371  0.97172  1.0000
  C   C203      1.0  0.14073  0.87057  0.94651  1.0000
  C   C204      1.0  0.11548  0.87067  0.92317  1.0000
  C   C205      1.0  0.08463  0.84446  0.92501  1.0000
  H   H345      1.0  0.44891  0.89955  0.93108  1.0000
  H   H346      1.0  0.33541  0.97754  0.94580  1.0000
  H   H347      1.0  0.11989  0.89091  0.90342  1.0000
  H   H348      1.0  0.06556  0.84461  0.90674  1.0000
  H   H349      1.0  0.07971  0.72404  0.68759  1.0000
  C   C206      1.0  0.39844  0.92940  0.94423  1.0000
  H   H350      1.0  0.99847  0.97172  0.91461  1.0000
  C   C207      1.0  0.03711  0.92800  0.97981  1.0000
  C   C208      1.0  0.21758  0.76036  0.95692  1.0000
  C   C209      1.0  0.27811  0.78803  0.96311  1.0000
  C   C210      1.0  0.00659  0.94478  0.95935  1.0000
  H   H351      1.0  0.16801  0.70842  0.92435  1.0000
  C   C211      1.0  0.02103  0.96276  0.92956  1.0000
  C   C212      1.0  0.26908  0.83309  0.94844  1.0000
  C   C213      1.0  0.41997  0.89386  0.92788  1.0000
  C   C214      1.0  0.02999  0.66350  0.69572  1.0000
  H   H352      1.0  0.28961  0.96648  0.90577  1.0000
  H   H353      1.0  0.41319  0.86088  0.93724  1.0000
  C   C215      1.0  0.30272  0.85624  0.93720  1.0000
  H   H354      1.0  0.17059  0.75557  0.98588  1.0000
  H   H355      1.0  0.44412  0.60027  0.98764  1.0000
  H   H356      1.0  0.03735  0.93740  0.91781  1.0000
  H   H357      1.0  0.22698  0.74387  0.93582  1.0000
  H   H358      1.0  0.28933  0.76650  0.94498  1.0000
  H   H359      1.0  0.15015  0.76270  0.93231  1.0000
  C   C216      1.0  0.15709  0.73020  0.94232  1.0000
  N   N12       1.0  0.24795  0.76463  0.97908  1.0000
  H   H360      1.0  0.29542  0.88729  0.92549  1.0000
  H   H361      1.0  0.02226  0.69777  0.70253  1.0000
  H   H362      1.0  0.41374  0.89370  0.90335  1.0000
  H   H363      1.0  0.20778  0.79357  0.95011  1.0000
  C   C217      1.0  0.00245  0.63347  0.71182  1.0000
  H   H364      1.0  0.25162  0.82847  0.92847  1.0000
  H   H365      1.0  0.05637  0.65782  0.70639  1.0000
  H   H366      1.0  0.19007  0.70249  0.97674  1.0000
  H   H367      1.0  0.31729  0.83483  0.92099  1.0000
  Fe  Fe24      1.0  0.99200  0.79554  0.92400  1.0000
  H   H368      1.0  0.05107  0.90119  0.96729  1.0000
  H   H369      1.0  0.03302  0.62323  0.75309  1.0000
  H   H370      1.0  0.25547  0.85507  0.96485  1.0000
  H   H371      1.0  0.43617  0.98143  0.93850  1.0000
  H   H372      1.0  0.37001  0.92130  0.94087  1.0000
  H   H373      1.0  0.13229  0.71500  0.95114  1.0000
  C   C218      1.0  0.47121  0.61493  0.98765  1.0000
  H   H374      1.0  0.40764  0.97523  0.90733  1.0000
  H   H375      1.0  0.32044  0.86458  0.95645  1.0000
  H   H376      1.0  0.00495  0.59847  0.70491  1.0000
  H   H377      1.0  0.30035  0.79466  0.97916  1.0000
  H   H378      1.0  0.05648  0.95540  0.98135  1.0000
  H   H379      1.0  0.11245  0.96581  0.95788  1.0000
  H   H380      1.0  0.26523  0.69889  0.96653  1.0000
  H   H381      1.0  0.47877  0.62398  0.96422  1.0000
  H   H382      1.0  0.47246  0.52679  0.97904  1.0000
  H   H383      1.0  0.40507  0.92694  0.96860  1.0000
  H   H384      1.0  0.15444  0.84306  0.98968  1.0000
  H   H385      1.0  0.39236  0.50402  0.95777  1.0000
  H   H386      1.0  0.00374  0.67063  0.75419  1.0000
  H   H387      1.0  0.10042  0.79564  0.99263  1.0000
  C   C219      1.0  0.26105  0.71909  0.98734  1.0000
  H   H388      1.0  0.99151  0.97185  0.97035  1.0000
  H   H389      1.0  0.35986  0.95808  0.99156  1.0000
  H   H390      1.0  0.05060  0.56970  0.68148  1.0000
  H   H391      1.0  0.08583  0.63278  0.66508  1.0000
  Fe  Fe25      1.0  0.92298  0.17121  0.07344  1.0000
  S   S49       1.0  0.89296  0.12613  0.10485  1.0000
  S   S50       1.0  0.90373  0.22620  0.04221  1.0000
  N   N13       1.0  0.84505  0.09192  0.31772  1.0000
  Fe  Fe26      1.0  0.92823  0.07205  0.08600  1.0000
  C   C220      1.0  0.94143  0.14088  0.22077  1.0000
  H   H392      1.0  0.95949  0.27658  0.13398  1.0000
  H   H393      1.0  0.52947  0.46619  0.08443  1.0000
  S   S51       1.0  0.95495  0.11639  0.05234  1.0000
  C   C221      1.0  0.92605  0.29354  0.18487  1.0000
  H   H394      1.0  0.77274  0.10102  0.29699  1.0000
  Fe  Fe27      1.0  0.76204  0.42632  0.03705  1.0000
  S   S52       1.0  0.77828  0.36441  0.06330  1.0000
  C   C222      1.0  0.86797  0.26356  0.04767  1.0000
  C   C223      1.0  0.86651  0.30232  0.03024  1.0000
  C   C224      1.0  0.83905  0.33341  0.03440  1.0000
  C   C225      1.0  0.81275  0.32595  0.05609  1.0000
  C   C226      1.0  0.81386  0.28681  0.07313  1.0000
  C   C227      1.0  0.84122  0.25568  0.06887  1.0000
  H   H395      1.0  0.87090  0.11996  0.27857  1.0000
  H   H396      1.0  0.96035  0.33493  0.13934  1.0000
  H   H397      1.0  0.94776  0.07506  0.20317  1.0000
  H   H398      1.0  0.84167  0.22556  0.08193  1.0000
  H   H399      1.0  0.83604  0.40795  0.15363  1.0000
  H   H400      1.0  0.81893  0.04341  0.26648  1.0000
  H   H401      1.0  0.93663  0.20213  0.24550  1.0000
  H   H402      1.0  0.81760  0.10022  0.22586  1.0000
  H   H403      1.0  0.69870  0.34332  0.06055  1.0000
  S   S53       1.0  0.92983  0.16556  0.18583  1.0000
  C   C228      1.0  0.94917  0.09588  0.22306  1.0000
  C   C229      1.0  0.96070  0.10420  0.27728  1.0000
  C   C230      1.0  0.87739  0.06483  0.32617  1.0000
  S   S54       1.0  0.97032  0.08045  0.12202  1.0000
  C   C231      1.0  0.84305  0.06357  0.26234  1.0000
  C   C232      1.0  0.84563  0.39789  0.13091  1.0000
  N   N14       1.0  0.91152  0.30302  0.15371  1.0000
  C   C233      1.0  0.88926  0.26367  0.14446  1.0000
  H   H404      1.0  0.83854  0.36338  0.02114  1.0000
  H   H405      1.0  0.91519  0.29156  0.09000  1.0000
  C   C234      1.0  0.89049  0.34558  0.15469  1.0000
  C   C235      1.0  0.85974  0.35059  0.13143  1.0000
  C   C236      1.0  0.85977  0.25009  0.16720  1.0000
  Fe  Fe28      1.0  0.93771  0.13815  0.13800  1.0000
  H   H406      1.0  0.50251  0.42166  0.02616  1.0000
  H   H407      1.0  0.86079  0.00127  0.30499  1.0000
  C   C237      1.0  0.83269  0.21885  0.15278  1.0000
  H   H408      1.0  0.90644  0.23412  0.14100  1.0000
  H   H409      1.0  0.87656  0.26895  0.12227  1.0000
  H   H410      1.0  0.83717  0.32865  0.13740  1.0000
  C   C238      1.0  0.51977  0.44623  0.03776  1.0000
  C   C239      1.0  0.84159  0.07966  0.22965  1.0000
  H   H411      1.0  0.90407  0.29201  0.20166  1.0000
  H   H412      1.0  0.74356  0.03279  0.31676  1.0000
  H   H413      1.0  0.84619  0.18927  0.14330  1.0000
  C   C240      1.0  0.96786  0.31214  0.07940  1.0000
  H   H414      1.0  0.84546  0.27932  0.17617  1.0000
  H   H415      1.0  0.91327  0.04475  0.01657  1.0000
  C   C241      1.0  0.96099  0.31843  0.23097  1.0000
  C   C242      1.0  0.94274  0.16729  0.24699  1.0000
  H   H416      1.0  0.66610  0.30154  0.06874  1.0000
  C   C243      1.0  0.93450  0.31566  0.09894  1.0000
  C   C244      1.0  0.51166  0.44370  0.07156  1.0000
  H   H417      1.0  0.71896  0.26980  0.04397  1.0000
  H   H418      1.0  0.86662  0.42116  0.12327  1.0000
  C   C245      1.0  0.91273  0.00941  0.01291  1.0000
  H   H419      1.0  0.93651  0.32291  0.24467  1.0000
  H   H420      1.0  0.87799  0.35030  0.17729  1.0000
  H   H421      1.0  0.92646  0.99855  0.30889  1.0000
  H   H422      1.0  0.81791  0.23596  0.13457  1.0000
  H   H423      1.0  0.93893  0.26038  0.18528  1.0000
  C   C246      1.0  0.95248  0.14913  0.27511  1.0000
  S   S55       1.0  0.70337  0.43040  0.02878  1.0000
  H   H424      1.0  0.82434  0.12711  0.27899  1.0000
  H   H425      1.0  0.98142  0.34202  0.23931  1.0000
  H   H426      1.0  0.65921  0.33820  0.03732  1.0000
  H   H427      1.0  0.67924  0.26253  0.02177  1.0000
  H   H428      1.0  0.96084  0.31891  0.05548  1.0000
  H   H429      1.0  0.79339  0.28063  0.08975  1.0000
  H   H430      1.0  0.73804  0.33290  0.01321  1.0000
  S   S56       1.0  0.97416  0.07939  0.31167  1.0000
  S   S57       1.0  0.91181  0.00117  0.07521  1.0000
  C   C247      1.0  0.67960  0.31968  0.05024  1.0000
  C   C248      1.0  0.95871  0.07769  0.25117  1.0000
  H   H431      1.0  0.54768  0.43612  0.03438  1.0000
  C   C249      1.0  0.95345  0.32716  0.19758  1.0000
  H   H432      1.0  0.86568  0.09935  0.22407  1.0000
  H   H433      1.0  0.92398  0.34962  0.09607  1.0000
  H   H434      1.0  0.94369  0.36158  0.19533  1.0000
  C   C250      1.0  0.94288  0.30697  0.13257  1.0000
  H   H435      1.0  0.96482  0.04283  0.25268  1.0000
  H   H436      1.0  0.86782  0.34191  0.10817  1.0000
  H   H437      1.0  0.86705  0.04256  0.26433  1.0000
  H   H438      1.0  0.82303  0.40006  0.11484  1.0000
  H   H439      1.0  0.84050  0.05082  0.21408  1.0000
  H   H440      1.0  0.97912  0.27829  0.08052  1.0000
  H   H441      1.0  0.88700  0.30860  0.01364  1.0000
  C   C251      1.0  0.84561  0.10299  0.28453  1.0000
  H   H442      1.0  0.81332  0.20775  0.17009  1.0000
  H   H443      1.0  0.87174  0.23240  0.18663  1.0000
  H   H444      1.0  0.95406  0.16994  0.29499  1.0000
  H   H445      1.0  0.90867  0.37440  0.15199  1.0000
  H   H446      1.0  0.88315  0.17536  0.30815  1.0000
  H   H447      1.0  0.51590  0.40943  0.07965  1.0000
  S   S58       1.0  0.96568  0.18606  0.10730  1.0000
  C   C252      1.0  0.69907  0.28700  0.02976  1.0000
  H   H448      1.0  0.51819  0.47148  0.14756  1.0000
  H   H449      1.0  0.59188  0.48419  0.02712  1.0000
  H   H450      1.0  0.81065  0.18926  0.00929  1.0000
  H   H451      1.0  0.50641  0.45167  0.18462  1.0000
  C   C253      1.0  0.77589  0.09256  0.32119  1.0000
  H   H452      1.0  0.80901  0.03570  0.31513  1.0000
  C   C254      1.0  0.87347  0.01365  0.32591  1.0000
  H   H453      1.0  0.97919  0.32404  0.18550  1.0000
  H   H454      1.0  0.97111  0.28426  0.23414  1.0000
  H   H455      1.0  0.90013  0.07365  0.31138  1.0000
  C   C255      1.0  0.81142  0.06804  0.32678  1.0000
  H   H456      1.0  0.78238  0.27689  0.00576  1.0000
  C   C256      1.0  0.74429  0.06370  0.33037  1.0000
  H   H457      1.0  0.71913  0.08196  0.32657  1.0000
  H   H458      1.0  0.98169  0.03212  0.03196  1.0000
  H   H459      1.0  0.82423  0.15691  0.32863  1.0000
  C   C257      1.0  0.51093  0.48178  0.17087  1.0000
  H   H460      1.0  0.75230  0.23320  0.01182  1.0000
  H   H461      1.0  0.98822  0.33651  0.08677  1.0000
  C   C258      1.0  0.59089  0.48735  0.00215  1.0000
  H   H462      1.0  0.56461  0.48851  0.18549  1.0000
  C   C259      1.0  0.90950  0.99084  0.32873  1.0000
  C   C260      1.0  0.71759  0.31096  0.00305  1.0000
  H   H463      1.0  0.64769  0.47950  0.99944  1.0000
  H   H464      1.0  0.99141  0.01257  0.06973  1.0000
  Fe  Fe29      1.0  0.70891  0.00278  0.46229  1.0000
  S   S59       1.0  0.96320  0.17239  0.37984  1.0000
  Fe  Fe30      1.0  0.93670  0.13349  0.41721  1.0000
  S   S60       1.0  0.88293  0.14921  0.43805  1.0000
  S   S61       1.0  0.94677  0.06776  0.39574  1.0000
  H   H465      1.0  0.77951  0.04908  0.51630  1.0000
  S   S62       1.0  0.69750  0.03409  0.50747  1.0000
  H   H466      1.0  0.52701  0.30751  0.50906  1.0000
  C   C261      1.0  0.51003  0.43831  0.52409  1.0000
  S   S63       1.0  0.59219  0.06623  0.50017  1.0000
  H   H467      1.0  0.90266  0.07403  0.47508  1.0000
  H   H468      1.0  0.60656  0.26655  0.56249  1.0000
  H   H469      1.0  0.74591  0.05508  0.35474  1.0000
  H   H470      1.0  0.53714  0.25706  0.52707  1.0000
  C   C262      1.0  0.64183  0.24491  0.50469  1.0000
  S   S64       1.0  0.54718  0.20879  0.60027  1.0000
  C   C263      1.0  0.59068  0.29715  0.56017  1.0000
  H   H471      1.0  0.85692  0.00303  0.34539  1.0000
  H   H472      1.0  0.60289  0.31608  0.60628  1.0000
  H   H473      1.0  0.61995  0.32876  0.52377  1.0000
  C   C264      1.0  0.58050  0.10608  0.52815  1.0000
  C   C265      1.0  0.54933  0.13113  0.52428  1.0000
  C   C266      1.0  0.53868  0.16265  0.54605  1.0000
  C   C267      1.0  0.55926  0.16972  0.57194  1.0000
  C   C268      1.0  0.59056  0.14495  0.57569  1.0000
  C   C269      1.0  0.60115  0.11332  0.55397  1.0000
  H   H474      1.0  0.53306  0.12570  0.50447  1.0000
  C   C270      1.0  0.65818  0.19889  0.50773  1.0000
  H   H475      1.0  0.60668  0.15005  0.59562  1.0000
  H   H476      1.0  0.62517  0.09437  0.55729  1.0000
  C   C271      1.0  0.84661  0.11202  0.43559  1.0000
  C   C272      1.0  0.81647  0.11889  0.45376  1.0000
  C   C273      1.0  0.78698  0.09017  0.45199  1.0000
  C   C274      1.0  0.78720  0.05479  0.43157  1.0000
  C   C275      1.0  0.81744  0.04772  0.41364  1.0000
  C   C276      1.0  0.84704  0.07605  0.41570  1.0000
  H   H477      1.0  0.81586  0.14668  0.46920  1.0000
  H   H478      1.0  0.76374  0.09609  0.46579  1.0000
  S   S65       1.0  0.52077  0.32559  0.62101  1.0000
  H   H479      1.0  0.87008  0.07010  0.40183  1.0000
  H   H480      1.0  0.53546  0.21509  0.47934  1.0000
  H   H481      1.0  0.64997  0.18344  0.52938  1.0000
  H   H482      1.0  0.51431  0.18095  0.54303  1.0000
  C   C277      1.0  0.49778  0.41116  0.50065  1.0000
  H   H483      1.0  0.93710  0.15188  0.53520  1.0000
  C   C278      1.0  0.59253  0.31623  0.52775  1.0000
  H   H484      1.0  0.56278  0.28965  0.56628  1.0000
  H   H485      1.0  0.79177  0.01124  0.54628  1.0000
  H   H486      1.0  0.57106  0.37539  0.48293  1.0000
  H   H487      1.0  0.93903  0.04672  0.49238  1.0000
  N   N15       1.0  0.88791  0.01591  0.50065  1.0000
  H   H488      1.0  0.96441  0.11495  0.51323  1.0000
  C   C279      1.0  0.91088  0.09103  0.52210  1.0000
  H   H489      1.0  0.56092  0.39876  0.43071  1.0000
  H   H490      1.0  0.64975  0.17712  0.48875  1.0000
  H   H491      1.0  0.65209  0.25974  0.48352  1.0000
  H   H492      1.0  0.63303  0.33854  0.57863  1.0000
  H   H493      1.0  0.57549  0.34629  0.52808  1.0000
  C   C280      1.0  0.54202  0.27615  0.50605  1.0000
  S   S66       1.0  0.65111  0.99267  0.45135  1.0000
  H   H494      1.0  0.81800  0.01997  0.39819  1.0000
  H   H495      1.0  0.88644  0.07296  0.34948  1.0000
  H   H496      1.0  0.91852  0.07611  0.54394  1.0000
  H   H497      1.0  0.61754  0.31779  0.47203  1.0000
  C   C281      1.0  0.52444  0.24907  0.48020  1.0000
  H   H498      1.0  0.68762  0.20143  0.50745  1.0000
  C   C282      1.0  0.60073  0.24199  0.50397  1.0000
  C   C283      1.0  0.56690  0.34928  0.46563  1.0000
  H   H499      1.0  0.60569  0.37886  0.43510  1.0000
  H   H500      1.0  0.87034  0.01321  0.45449  1.0000
  H   H501      1.0  0.58876  0.36130  0.58277  1.0000
  C   C284      1.0  0.91087  0.05640  0.49599  1.0000
  C   C285      1.0  0.93716  0.12834  0.51592  1.0000
  S   S67       1.0  0.51775  0.41796  0.56096  1.0000
  H   H502      1.0  0.90985  0.00661  0.54538  1.0000
  H   H503      1.0  0.57246  0.34467  0.41667  1.0000
  C   C286      1.0  0.51755  0.48287  0.51802  1.0000
  H   H504      1.0  0.88432  0.10642  0.52482  1.0000
  H   H505      1.0  0.90364  0.22404  0.34866  1.0000
  C   C287      1.0  0.57727  0.36890  0.43513  1.0000
  H   H506      1.0  0.92942  0.14656  0.49521  1.0000
  H   H507      1.0  0.90482  0.14387  0.33715  1.0000
  H   H508      1.0  0.65135  0.26499  0.52405  1.0000
  H   H509      1.0  0.58610  0.28360  0.45381  1.0000
  N   N16       1.0  0.58116  0.28543  0.50263  1.0000
  H   H510      1.0  0.53812  0.34157  0.46460  1.0000
  C   C288      1.0  0.58918  0.30742  0.47286  1.0000
  H   H511      1.0  0.85200  0.03777  0.53581  1.0000
  C   C289      1.0  0.60477  0.33045  0.58329  1.0000
  H   H512      1.0  0.59189  0.22230  0.52379  1.0000
  H   H513      1.0  0.59391  0.22111  0.48405  1.0000
  H   H514      1.0  0.84279  0.12816  0.35994  1.0000
  C   C290      1.0  0.81959  0.00055  0.50371  1.0000
  C   C291      1.0  0.85165  0.03108  0.51103  1.0000
  H   H515      1.0  0.84466  0.06304  0.50010  1.0000
  Fe  Fe31      1.0  0.63982  0.01900  0.49820  1.0000
  H   H516      1.0  0.81249  0.06020  0.35130  1.0000
  Fe  Fe32      1.0  0.97667  0.10576  0.36019  1.0000
  C   C292      1.0  0.87951  0.20355  0.35229  1.0000
  H   H517      1.0  0.92339  0.00164  0.34961  1.0000
  Fe  Fe33      1.0  0.50321  0.26108  0.60029  1.0000
  C   C293      1.0  0.78695  0.01447  0.52163  1.0000
  S   S68       1.0  0.74978  0.02013  0.42622  1.0000
  C   C294      1.0  0.49294  0.42870  0.47144  1.0000
  H   H518      1.0  0.52852  0.26477  0.45790  1.0000
  H   H519      1.0  0.87878  0.19334  0.37637  1.0000
  H   H520      1.0  0.50351  0.99009  0.44301  1.0000
  H   H521      1.0  0.96593  0.22355  0.52045  1.0000
  C   C295      1.0  0.49968  0.47363  0.46561  1.0000
  H   H522      1.0  0.93728  0.00696  0.45105  1.0000
  C   C296      1.0  0.88483  0.99199  0.47078  1.0000
  H   H523      1.0  0.85584  0.22416  0.34736  1.0000
  H   H524      1.0  0.49461  0.15622  0.64852  1.0000
  H   H525      1.0  0.81293  0.00275  0.47933  1.0000
  C   C297      1.0  0.84637  0.13479  0.33533  1.0000
  H   H526      1.0  0.65983  0.20946  0.66244  1.0000
  H   H527      1.0  0.76462  0.99240  0.51551  1.0000
  S   S69       1.0  0.98552  0.13182  0.44692  1.0000
  H   H528      1.0  0.77417  0.12317  0.33496  1.0000
  H   H529      1.0  0.49221  0.37673  0.50499  1.0000
  H   H530      1.0  0.52455  0.99204  0.48886  1.0000
  Fe  Fe34      1.0  0.49189  0.35809  0.58269  1.0000
  H   H531      1.0  0.52370  0.22560  0.66240  1.0000
  C   C298      1.0  0.88060  0.16301  0.33161  1.0000
  H   H532      1.0  0.80583  0.31319  0.96434  1.0000
  H   H533      1.0  0.53318  0.18170  0.72453  1.0000
  S   S70       1.0  0.55662  0.29858  0.94792  1.0000
  H   H534      1.0  0.63973  0.16898  0.68680  1.0000
  S   S71       1.0  0.68691  0.43234  0.94208  1.0000
  H   H535      1.0  0.62435  0.25450  0.93001  1.0000
  C   C299      1.0  0.58862  0.34158  0.94643  1.0000
  C   C300      1.0  0.59969  0.35976  0.91897  1.0000
  C   C301      1.0  0.62925  0.38846  0.91808  1.0000
  C   C302      1.0  0.64777  0.39965  0.94460  1.0000
  C   C303      1.0  0.63567  0.38293  0.97217  1.0000
  C   C304      1.0  0.60652  0.35373  0.97303  1.0000
  H   H536      1.0  0.58644  0.35023  0.89827  1.0000
  H   H537      1.0  0.63831  0.40125  0.89662  1.0000
  H   H538      1.0  0.54454  0.21403  0.82373  1.0000
  H   H539      1.0  0.53717  0.43215  0.89853  1.0000
  H   H540      1.0  0.72813  0.33561  0.94784  1.0000
  H   H541      1.0  0.54481  0.37422  0.67903  1.0000
  H   H542      1.0  0.75309  0.29097  0.93337  1.0000
  H   H543      1.0  0.66279  0.22341  0.91868  1.0000
  H   H544      1.0  0.59837  0.33957  0.99435  1.0000
  C   C305      1.0  0.74833  0.31045  0.95436  1.0000
  H   H545      1.0  0.69821  0.33406  0.99262  1.0000
  H   H546      1.0  0.81721  0.38607  0.94171  1.0000
  C   C306      1.0  0.79257  0.36767  0.93588  1.0000
  C   C307      1.0  0.52893  0.21237  0.71123  1.0000
  H   H547      1.0  0.58702  0.39375  0.69279  1.0000
  H   H548      1.0  0.67784  0.29895  0.93846  1.0000
  H   H549      1.0  0.91289  0.01482  0.96434  1.0000
  C   C308      1.0  0.67226  0.27176  0.95454  1.0000
  H   H550      1.0  0.77090  0.39201  0.93229  1.0000
  C   C309      1.0  0.91246  0.99235  0.98330  1.0000
  N   N17       1.0  0.55646  0.24691  0.71919  1.0000
  C   C310      1.0  0.55113  0.28710  0.69960  1.0000
  H   H551      1.0  0.59973  0.32101  0.71557  1.0000
  C   C311      1.0  0.54985  0.26083  0.75158  1.0000
  C   C312      1.0  0.59356  0.22805  0.71673  1.0000
  H   H552      1.0  0.65673  0.28534  0.97369  1.0000
  H   H553      1.0  0.56468  0.46839  0.94155  1.0000
  C   C313      1.0  0.54776  0.22308  0.77513  1.0000
  C   C314      1.0  0.70706  0.25016  0.96602  1.0000
  H   H554      1.0  0.55778  0.28022  0.67566  1.0000
  H   H555      1.0  0.62057  0.26748  0.68188  1.0000
  C   C315      1.0  0.54813  0.24142  0.80736  1.0000
  H   H556      1.0  0.52609  0.26534  0.81070  1.0000
  H   H557      1.0  0.71879  0.23208  0.94649  1.0000
  C   C316      1.0  0.57235  0.36408  0.68475  1.0000
  C   C317      1.0  0.53518  0.46878  0.94070  1.0000
  H   H558      1.0  0.52455  0.27980  0.75334  1.0000
  H   H559      1.0  0.57104  0.28384  0.75947  1.0000
  H   H560      1.0  0.61167  0.24394  0.73347  1.0000
  H   H561      1.0  0.59340  0.19241  0.72296  1.0000
  C   C318      1.0  0.64636  0.20461  0.68452  1.0000
  H   H562      1.0  0.52254  0.29604  0.69909  1.0000
  H   H563      1.0  0.55890  0.34418  0.72962  1.0000
  C   C319      1.0  0.57189  0.32909  0.70953  1.0000
  H   H564      1.0  0.57041  0.19994  0.77261  1.0000
  C   C320      1.0  0.78308  0.33605  0.96152  1.0000
  C   C321      1.0  0.76326  0.25480  0.99382  1.0000
  C   C322      1.0  0.78387  0.22343  0.97228  1.0000
  Fe  Fe35      1.0  0.71687  0.45747  0.98347  1.0000
  C   C323      1.0  0.52699  0.19725  0.67787  1.0000
  H   H565      1.0  0.83653  0.23255  0.99169  1.0000
  H   H566      1.0  0.52252  0.20436  0.77238  1.0000
  H   H567      1.0  0.59565  0.22256  0.66652  1.0000
  H   H568      1.0  0.55111  0.17833  0.67171  1.0000
  H   H569      1.0  0.79717  0.34910  0.91457  1.0000
  Fe  Fe36      1.0  0.50315  0.29799  0.92387  1.0000
  H   H570      1.0  0.76684  0.19482  0.96601  1.0000
  S   S72       1.0  0.77600  0.44900  0.99019  1.0000
  C   C324      1.0  0.64872  0.23797  0.93838  1.0000
  H   H571      1.0  0.79219  0.24012  0.95119  1.0000
  C   C325      1.0  0.81726  0.20541  0.98748  1.0000
  C   C326      1.0  0.52328  0.43055  0.92063  1.0000
  C   C327      1.0  0.61264  0.23259  0.68571  1.0000
  H   H572      1.0  0.49420  0.43257  0.91659  1.0000
  H   H573      1.0  0.83019  0.18066  0.97254  1.0000
  H   H574      1.0  0.50210  0.22448  0.71763  1.0000
  H   H575      1.0  0.78042  0.35539  0.98264  1.0000
  H   H576      1.0  0.57378  0.25818  0.81226  1.0000
  C   C328      1.0  0.51952  0.46409  0.97299  1.0000
  H   H577      1.0  0.58575  0.35129  0.66415  1.0000
  H   H578      1.0  0.53208  0.43399  0.98232  1.0000
  H   H579      1.0  0.64063  0.21128  0.95413  1.0000
  H   H580      1.0  0.66500  0.21447  0.70281  1.0000
  H   H581      1.0  0.52949  0.39838  0.93138  1.0000
  N   N18       1.0  0.73409  0.28147  0.97935  1.0000
  H   H582      1.0  0.69980  0.22390  0.98246  1.0000
  H   H583      1.0  0.64925  0.39150  0.99279  1.0000
  H   H584      1.0  0.58660  0.45419  0.99220  1.0000
  C   C329      1.0  0.49528  0.16652  0.67264  1.0000
  H   H585      1.0  0.49752  0.13644  0.68681  1.0000
  H   H586      1.0  0.65230  0.59650  0.18755  1.0000
  H   H587      1.0  0.73461  0.69643  0.01410  1.0000
  S   S73       1.0  0.52840  0.64293  0.06443  1.0000
  C   C330      1.0  0.91031  0.91784  0.00270  1.0000
  H   H588      1.0  0.52868  0.64418  0.26310  1.0000
  H   H589      1.0  0.91281  0.73006  0.04673  1.0000
  C   C331      1.0  0.56500  0.60631  0.06600  1.0000
  C   C332      1.0  0.56260  0.56607  0.08119  1.0000
  C   C333      1.0  0.59242  0.53853  0.08371  1.0000
  C   C334      1.0  0.62497  0.55057  0.07070  1.0000
  C   C335      1.0  0.62723  0.59009  0.05447  1.0000
  C   C336      1.0  0.59732  0.61793  0.05223  1.0000
  H   H590      1.0  0.53779  0.55620  0.09112  1.0000
  H   H591      1.0  0.91896  0.73992  0.00681  1.0000
  H   H592      1.0  0.65230  0.59992  0.04458  1.0000
  H   H593      1.0  0.59944  0.64895  0.04028  1.0000
  C   C337      1.0  0.80765  0.84179  0.03741  1.0000
  H   H594      1.0  0.81481  0.69444  0.00110  1.0000
  H   H595      1.0  0.54769  0.54413  0.14252  1.0000
  H   H596      1.0  0.57574  0.63377  0.26358  1.0000
  H   H597      1.0  0.55259  0.65379  0.21242  1.0000
  H   H598      1.0  0.80710  0.89425  0.07106  1.0000
  C   C338      1.0  0.54947  0.61938  0.22062  1.0000
  H   H599      1.0  0.84841  0.74837  0.04100  1.0000
  C   C339      1.0  0.54062  0.50956  0.18497  1.0000
  H   H600      1.0  0.67554  0.52125  0.14498  1.0000
  H   H601      1.0  0.88637  0.61557  0.99832  1.0000
  C   C340      1.0  0.81255  0.89020  0.04655  1.0000
  N   N19       1.0  0.57924  0.57946  0.17520  1.0000
  H   H602      1.0  0.84023  0.90114  0.04214  1.0000
  C   C341      1.0  0.58130  0.62075  0.15605  1.0000
  C   C342      1.0  0.61152  0.55133  0.16828  1.0000
  C   C343      1.0  0.58015  0.59051  0.20845  1.0000
  H   H603      1.0  0.52328  0.60636  0.21360  1.0000
  C   C344      1.0  0.64793  0.57574  0.16724  1.0000
  C   C345      1.0  0.67866  0.54290  0.16513  1.0000
  H   H604      1.0  0.59947  0.64532  0.16676  1.0000
  H   H605      1.0  0.60848  0.53449  0.14601  1.0000
  H   H606      1.0  0.61432  0.52444  0.18517  1.0000
  H   H607      1.0  0.58121  0.55971  0.22209  1.0000
  H   H608      1.0  0.60491  0.60860  0.21425  1.0000
  H   H609      1.0  0.98162  0.95460  0.01763  1.0000
  H   H610      1.0  0.64961  0.59733  0.14704  1.0000
  H   H611      1.0  0.56518  0.71212  0.15204  1.0000
  H   H612      1.0  0.90929  0.91259  0.05139  1.0000
  Fe  Fe37      1.0  0.70587  0.50077  0.04448  1.0000
  C   C346      1.0  0.91032  0.93494  0.03239  1.0000
  H   H613      1.0  0.77990  0.83237  0.04315  1.0000
  H   H614      1.0  0.53139  0.62464  0.13079  1.0000
  H   H615      1.0  0.76947  0.68433  0.04113  1.0000
  H   H616      1.0  0.59318  0.61286  0.13358  1.0000
  C   C347      1.0  0.51219  0.49318  0.02539  1.0000
  H   H617      1.0  0.67986  0.52206  0.18570  1.0000
  C   C348      1.0  0.86809  0.76250  0.02519  1.0000
  H   H618      1.0  0.70417  0.56110  0.16293  1.0000
  H   H619      1.0  0.52383  0.51743  0.04148  1.0000
  H   H620      1.0  0.97465  0.86910  0.05060  1.0000
  H   H621      1.0  0.79326  0.75961  0.03224  1.0000
  C   C349      1.0  0.54590  0.64432  0.14805  1.0000
  C   C350      1.0  0.55290  0.69012  0.13484  1.0000
  H   H622      1.0  0.88975  0.69644  0.01959  1.0000
  C   C351      1.0  0.54669  0.55277  0.16693  1.0000
  C   C352      1.0  0.54979  0.62134  0.25513  1.0000
  H   H623      1.0  0.82580  0.82174  0.05135  1.0000
  H   H624      1.0  0.54443  0.58814  0.26477  1.0000
  H   H625      1.0  0.87782  0.79447  0.03446  1.0000
  Fe  Fe38      1.0  0.77468  0.51842  0.00913  1.0000
  S   S74       1.0  0.82210  0.56594  0.00510  1.0000
  C   C353      1.0  0.89939  0.73041  0.02442  1.0000
  H   H626      1.0  0.52195  0.57218  0.16968  1.0000
  H   H627      1.0  0.53275  0.51759  0.20856  1.0000
  H   H628      1.0  0.52745  0.70507  0.12742  1.0000
  H   H629      1.0  0.57071  0.68775  0.11487  1.0000
  C   C354      1.0  0.96824  0.80731  0.02796  1.0000
  C   C355      1.0  0.49797  0.58249  0.00097  1.0000
  H   H630      1.0  0.52785  0.64834  0.16753  1.0000
  C   C356      1.0  0.91164  0.98081  0.03762  1.0000
  H   H631      1.0  0.94317  0.81755  0.01686  1.0000
  H   H632      1.0  0.90884  0.88260  0.99886  1.0000
  S   S75       1.0  0.66277  0.51807  0.07859  1.0000
  H   H633      1.0  0.96153  0.78941  0.04905  1.0000
  H   H634      1.0  0.56481  0.54898  0.00925  1.0000
  C   C357      1.0  0.76195  0.68335  0.01688  1.0000
  H   H635      1.0  0.76218  0.64823  0.00937  1.0000
  H   H636      1.0  0.59035  0.50778  0.09598  1.0000
  H   H637      1.0  0.98300  0.78445  0.01277  1.0000
  S   S76       1.0  0.76367  0.49491  0.05676  1.0000
  H   H638      1.0  0.52408  0.59952  0.00170  1.0000
  C   C358      1.0  0.78900  0.75927  0.00751  1.0000
  C   C359      1.0  0.78838  0.70984  0.99794  1.0000
  H   H639      1.0  0.63350  0.53626  0.00103  1.0000
  S   S77       1.0  0.71663  0.52906  0.99841  1.0000
  H   H640      1.0  0.79401  0.91172  0.03379  1.0000
  C   C360      1.0  0.81419  0.83518  0.00308  1.0000
  H   H641      1.0  0.76171  0.77273  0.00438  1.0000
  H   H642      1.0  0.90570  0.95448  0.32975  1.0000
  C   C361      1.0  0.99079  0.84776  0.03552  1.0000
  S   S78       1.0  0.95658  0.81837  0.54853  1.0000
  S   S79       1.0  0.93754  0.74659  0.60030  1.0000
  Fe  Fe39      1.0  0.91198  0.80732  0.58132  1.0000
  S   S80       1.0  0.85470  0.80465  0.56486  1.0000
  S   S81       1.0  0.93407  0.85128  0.61760  1.0000
  Fe  Fe40      1.0  0.65567  0.92573  0.47287  1.0000
  S   S82       1.0  0.64115  0.95084  0.51913  1.0000
  S   S83       1.0  0.63790  0.86468  0.44610  1.0000
  Fe  Fe41      1.0  0.70000  0.96387  0.52475  1.0000
  S   S84       1.0  0.73034  0.94547  0.56735  1.0000
  S   S85       1.0  0.71432  0.93392  0.48017  1.0000
  S   S86       1.0  0.51251  0.62132  0.39952  1.0000
  H   H643      1.0  0.77421  0.74015  0.48717  1.0000
  H   H644      1.0  0.81904  0.68952  0.55238  1.0000
  H   H645      1.0  0.77955  0.75264  0.55597  1.0000
  H   H646      1.0  0.97722  0.67492  0.65507  1.0000
  C   C362      1.0  0.59998  0.94145  0.38495  1.0000
  H   H647      1.0  0.57254  0.88278  0.39861  1.0000
  C   C363      1.0  0.77673  0.73148  0.53554  1.0000
  Fe  Fe42      1.0  0.98037  0.85969  0.58556  1.0000
  H   H648      1.0  0.83359  0.73035  0.52560  1.0000
  H   H649      1.0  0.71350  0.85435  0.42711  1.0000
  C   C364      1.0  0.60440  0.82440  0.45262  1.0000
  C   C365      1.0  0.58785  0.81954  0.48069  1.0000
  C   C366      1.0  0.56190  0.78638  0.48486  1.0000
  C   C367      1.0  0.55220  0.75770  0.46111  1.0000
  C   C368      1.0  0.56868  0.76274  0.43301  1.0000
  C   C369      1.0  0.59479  0.79570  0.42890  1.0000
  H   H650      1.0  0.59533  0.84091  0.49928  1.0000
  H   H651      1.0  0.54947  0.78256  0.50674  1.0000
  H   H652      1.0  0.56165  0.74082  0.41458  1.0000
  H   H653      1.0  0.60763  0.79893  0.40715  1.0000
  C   C370      1.0  0.82554  0.85041  0.56559  1.0000
  C   C371      1.0  0.81201  0.86635  0.59296  1.0000
  C   C372      1.0  0.78360  0.89654  0.59315  1.0000
  C   C373      1.0  0.76827  0.91088  0.56600  1.0000
  C   C374      1.0  0.78270  0.89619  0.53862  1.0000
  C   C375      1.0  0.81111  0.86601  0.53843  1.0000
  H   H654      1.0  0.82225  0.85372  0.61397  1.0000
  H   H655      1.0  0.77263  0.90771  0.61443  1.0000
  H   H656      1.0  0.77168  0.90748  0.51757  1.0000
  H   H657      1.0  0.82145  0.85396  0.51716  1.0000
  H   H658      1.0  0.52754  0.50397  0.53589  1.0000
  H   H659      1.0  0.93756  0.64722  0.61120  1.0000
  Fe  Fe43      1.0  0.98438  0.76107  0.57055  1.0000
  C   C376      1.0  0.54182  0.96297  0.49275  1.0000
  H   H660      1.0  0.56190  0.92815  0.53231  1.0000
  H   H661      1.0  0.89360  0.88853  0.56253  1.0000
  H   H662      1.0  0.66499  0.81411  0.57810  1.0000
  H   H663      1.0  0.91533  0.93788  0.57589  1.0000
  S   S87       1.0  0.52022  0.71562  0.46810  1.0000
  C   C377      1.0  0.90831  0.91841  0.55542  1.0000
  H   H664      1.0  0.74819  0.84115  0.48913  1.0000
  C   C378      1.0  0.70640  0.73981  0.49723  1.0000
  H   H665      1.0  0.75591  0.70653  0.54015  1.0000
  H   H666      1.0  0.98621  0.61780  0.65676  1.0000
  H   H667      1.0  0.93271  0.97814  0.51677  1.0000
  H   H668      1.0  0.50934  0.87553  0.40775  1.0000
  H   H669      1.0  0.71153  0.77011  0.55164  1.0000
  H   H670      1.0  0.87894  0.92410  0.51435  1.0000
  H   H671      1.0  0.93297  0.90788  0.54381  1.0000
  H   H672      1.0  0.93905  0.94670  0.41449  1.0000
  H   H673      1.0  0.74419  0.81208  0.54724  1.0000
  H   H674      1.0  0.61809  0.71779  0.47806  1.0000
  C   C379      1.0  0.74052  0.79978  0.44958  1.0000
  H   H675      1.0  0.92744  0.93572  0.65905  1.0000
  H   H676      1.0  0.70437  0.86558  0.52850  1.0000
  C   C380      1.0  0.52661  0.92078  0.47728  1.0000
  H   H677      1.0  0.86099  0.82507  0.65165  1.0000
  H   H678      1.0  0.95718  0.59264  0.60932  1.0000
  C   C381      1.0  0.51210  0.50056  0.48904  1.0000
  H   H679      1.0  0.65012  0.68112  0.49452  1.0000
  C   C382      1.0  0.55793  0.93619  0.42991  1.0000
  Fe  Fe44      1.0  0.96317  0.79151  0.63467  1.0000
  H   H680      1.0  0.86865  0.96150  0.47282  1.0000
  H   H681      1.0  0.74795  0.82853  0.40513  1.0000
  H   H682      1.0  0.65669  0.70227  0.45662  1.0000
  H   H683      1.0  0.78744  0.78797  0.50754  1.0000
  H   H684      1.0  0.70344  0.82948  0.48010  1.0000
  H   H685      1.0  0.66091  0.87200  0.56915  1.0000
  C   C383      1.0  0.64688  0.71033  0.47965  1.0000
  C   C384      1.0  0.88558  0.94548  0.53394  1.0000
  H   H686      1.0  0.89458  0.96910  0.64044  1.0000
  C   C385      1.0  0.66666  0.75037  0.49250  1.0000
  H   H687      1.0  0.66293  0.77798  0.47652  1.0000
  H   H688      1.0  0.86103  0.95431  0.54647  1.0000
  H   H689      1.0  0.75968  0.86491  0.43591  1.0000
  H   H690      1.0  0.80945  0.68207  0.51277  1.0000
  H   H691      1.0  0.76762  0.78557  0.44891  1.0000
  H   H692      1.0  0.66876  0.82743  0.52278  1.0000
  H   H693      1.0  0.87296  0.89324  0.64439  1.0000
  H   H694      1.0  0.70715  0.71390  0.51491  1.0000
  C   C386      1.0  0.67933  0.84336  0.56913  1.0000
  C   C387      1.0  0.81183  0.70689  0.53120  1.0000
  H   H695      1.0  0.58014  0.92408  0.44425  1.0000
  C   C388      1.0  0.69226  0.83451  0.53696  1.0000
  H   H696      1.0  0.50492  0.97427  0.38931  1.0000
  Fe  Fe45      1.0  0.49208  0.66632  0.43653  1.0000
  H   H697      1.0  0.70209  0.85145  0.58416  1.0000
  H   H698      1.0  0.54425  0.89277  0.48355  1.0000
  C   C389      1.0  0.91324  0.95563  0.42505  1.0000
  H   H699      1.0  0.72136  0.77513  0.44054  1.0000
  H   H700      1.0  0.65402  0.75857  0.51445  1.0000
  H   H701      1.0  0.56881  0.97090  0.48425  1.0000
  H   H702      1.0  0.55640  0.98689  0.53729  1.0000
  H   H703      1.0  0.53409  0.85336  0.43773  1.0000
  C   C390      1.0  0.74039  0.83939  0.42823  1.0000
  H   H704      1.0  0.93472  0.95413  0.46981  1.0000
  H   H705      1.0  0.71636  0.72311  0.47646  1.0000
  N   N20       1.0  0.73031  0.77802  0.50568  1.0000
  C   C391      1.0  0.72999  0.81392  0.48206  1.0000
  C   C392      1.0  0.72041  0.79699  0.53623  1.0000
  C   C393      1.0  0.76785  0.76033  0.50753  1.0000
  C   C394      1.0  0.92011  0.97797  0.45551  1.0000
  C   C395      1.0  0.96011  0.62759  0.60215  1.0000
  C   C396      1.0  0.56693  0.91881  0.39772  1.0000
  H   H706      1.0  0.85834  0.74952  0.62927  1.0000
  H   H707      1.0  0.62337  0.93495  0.39954  1.0000
  C   C397      1.0  0.54460  0.95675  0.52691  1.0000
  H   H708      1.0  0.54497  0.92385  0.38155  1.0000
  N   N21       1.0  0.52249  0.92268  0.44333  1.0000
  H   H709      1.0  0.51789  0.95138  0.53693  1.0000
  H   H710      1.0  0.89102  0.72874  0.65570  1.0000
  H   H711      1.0  0.82465  0.96540  0.50858  1.0000
  H   H712      1.0  0.56078  0.97287  0.43003  1.0000
  H   H713      1.0  0.51806  0.53494  0.48467  1.0000
  H   H714      1.0  0.95917  0.62879  0.57707  1.0000
  H   H715      1.0  0.89735  0.92499  0.42808  1.0000
  C   C398      1.0  0.51225  0.87691  0.43263  1.0000
  H   H716      1.0  0.84789  0.70325  0.65326  1.0000
  C   C399      1.0  0.86231  0.73525  0.65214  1.0000
  H   H717      1.0  0.60577  0.92816  0.36207  1.0000
  H   H718      1.0  0.89897  0.97839  0.40962  1.0000
  H   H719      1.0  0.50062  0.91405  0.48833  1.0000
  C   C400      1.0  0.90039  0.95007  0.66127  1.0000
  C   C401      1.0  0.90559  0.98765  0.52421  1.0000
  S   S88       1.0  0.49321  0.49489  0.42877  1.0000
  C   C402      1.0  0.49430  0.95651  0.43633  1.0000
  H   H720      1.0  0.59584  0.97769  0.38323  1.0000
  Fe  Fe46      1.0  0.95823  0.81902  0.86292  1.0000
  C   C403      1.0  0.86387  0.82485  0.72913  1.0000
  C   C404      1.0  0.97098  0.82941  0.72311  1.0000
  Fe  Fe47      1.0  0.93143  0.86158  0.92270  1.0000
  S   S89       1.0  0.94009  0.79991  0.94944  1.0000
  S   S90       1.0  0.91021  0.92721  0.94024  1.0000
  Fe  Fe48      1.0  0.91669  0.76339  0.90974  1.0000
  S   S91       1.0  0.86910  0.71588  0.91151  1.0000
  C   C405      1.0  0.82567  0.82176  0.93781  1.0000
  S   S92       1.0  0.90447  0.82620  0.88435  1.0000
  C   C406      1.0  0.76590  0.90708  0.70584  1.0000
  C   C407      1.0  0.96348  0.78462  0.71856  1.0000
  H   H721      1.0  0.98574  0.61560  0.75713  1.0000
  C   C408      1.0  0.85767  0.67197  0.93643  1.0000
  C   C409      1.0  0.88011  0.65846  0.95978  1.0000
  H   H722      1.0  0.80866  0.75575  0.94775  1.0000
  N   N22       1.0  0.52412  0.50366  0.99354  1.0000
  C   C410      1.0  0.81323  0.61797  0.95358  1.0000
  C   C411      1.0  0.82433  0.65123  0.93331  1.0000
  H   H723      1.0  0.90592  0.67377  0.96235  1.0000
  H   H724      1.0  0.77621  0.79669  0.95610  1.0000
  H   H725      1.0  0.89992  0.97311  0.68085  1.0000
  H   H726      1.0  0.88819  0.80178  0.78570  1.0000
  C   C412      1.0  0.91155  0.94657  0.97801  1.0000
  C   C413      1.0  0.81101  0.82094  0.90561  1.0000
  H   H727      1.0  0.97659  0.88353  0.99554  1.0000
  H   H728      1.0  0.84102  0.80361  0.73588  1.0000
  C   C414      1.0  0.83538  0.60515  0.97735  1.0000
  H   H729      1.0  0.88713  0.80207  0.72774  1.0000
  C   C415      1.0  0.88015  0.88591  0.69401  1.0000
  H   H730      1.0  0.89601  0.80657  0.67500  1.0000
  H   H731      1.0  0.83908  0.85320  0.99703  1.0000
  H   H732      1.0  0.75521  0.93210  0.72184  1.0000
  N   N23       1.0  0.85679  0.84578  0.69865  1.0000
  H   H733      1.0  0.80678  0.66126  0.91526  1.0000
  H   H734      1.0  0.95151  0.72293  0.74063  1.0000
  C   C416      1.0  0.62730  0.50310  0.99160  1.0000
  H   H735      1.0  0.80003  0.87910  0.73931  1.0000
  H   H736      1.0  0.97587  0.85058  0.70392  1.0000
  H   H737      1.0  0.79225  0.85369  0.99189  1.0000
  H   H738      1.0  0.87792  0.90971  0.71298  1.0000
  N   N24       1.0  0.81562  0.78819  0.99126  1.0000
  H   H739      1.0  0.87187  0.79263  0.98178  1.0000
  C   C417      1.0  0.86682  0.81242  0.67459  1.0000
  C   C418      1.0  0.87099  0.83153  0.78617  1.0000
  C   C419      1.0  0.87269  0.85605  0.75606  1.0000
  H   H740      1.0  0.50847  0.55043  0.95879  1.0000
  S   S93       1.0  0.96121  0.76062  0.68191  1.0000
  H   H741      1.0  0.90010  0.86918  0.75346  1.0000
  H   H742      1.0  0.81992  0.92237  0.71690  1.0000
  H   H743      1.0  0.82364  0.85630  0.94610  1.0000
  H   H744      1.0  0.84624  0.92963  0.66668  1.0000
  H   H745      1.0  0.85485  0.73884  0.98006  1.0000
  C   C420      1.0  0.86893  0.62542  0.98014  1.0000
  H   H746      1.0  0.84329  0.82132  0.79128  1.0000
  C   C421      1.0  0.84827  0.76658  0.67650  1.0000
  H   H747      1.0  0.81223  0.86577  0.67110  1.0000
  H   H748      1.0  0.81455  0.78766  0.89535  1.0000
  C   C422      1.0  0.80283  0.89255  0.71613  1.0000
  C   C423      1.0  0.56172  0.52078  0.99328  1.0000
  H   H749      1.0  0.85417  0.81282  0.93662  1.0000
  H   H750      1.0  0.85292  0.75062  0.69867  1.0000
  S   S94       1.0  0.96945  0.75385  0.88589  1.0000
  H   H751      1.0  0.78737  0.60273  0.95108  1.0000
  H   H752      1.0  0.78238  0.82972  0.90543  1.0000
  H   H753      1.0  0.76722  0.92219  0.68301  1.0000
  C   C424      1.0  0.97266  0.84679  0.75270  1.0000
  C   C425      1.0  0.96657  0.81984  0.77808  1.0000
  H   H754      1.0  0.62850  0.50432  0.96654  1.0000
  C   C426      1.0  0.95902  0.77502  0.77347  1.0000
  C   C427      1.0  0.95751  0.75759  0.74388  1.0000
  H   H755      1.0  0.97508  0.64471  0.70636  1.0000
  H   H756      1.0  0.56822  0.53475  0.97069  1.0000
  H   H757      1.0  0.78030  0.70603  0.97400  1.0000
  H   H758      1.0  0.90864  0.87577  0.69391  1.0000
  H   H759      1.0  0.82556  0.84534  0.89157  1.0000
  H   H760      1.0  0.98801  0.91760  0.95367  1.0000
  H   H761      1.0  0.95425  0.75390  0.79272  1.0000
  H   H762      1.0  0.81924  0.76969  0.67287  1.0000
  H   H763      1.0  0.88053  0.85352  0.80464  1.0000
  C   C428      1.0  0.81793  0.85644  0.69494  1.0000
  H   H764      1.0  0.74735  0.87847  0.70525  1.0000
  C   C429      1.0  0.85283  0.77009  0.99315  1.0000
  H   H765      1.0  0.85453  0.88460  0.75760  1.0000
  H   H766      1.0  0.80135  0.82666  0.69911  1.0000
  C   C430      1.0  0.80503  0.78890  0.95829  1.0000
  H   H767      1.0  0.97864  0.88146  0.75601  1.0000
  S   S95       1.0  0.96807  0.84429  0.81470  1.0000
  C   C431      1.0  0.50010  0.53966  0.98164  1.0000
  S   S96       1.0  0.98448  0.85950  0.89965  1.0000
  H   H768      1.0  0.52679  0.49959  0.92942  1.0000
  C   C432      1.0  0.87267  0.91355  0.66517  1.0000
