data_image0
_chemical_formula_structural       H4CHCH2CH2C2H3SCH2C5H5NCSC2HC2HCH2C2HCH2SH7C4H5SH2SH2NC2H2SCH2CHCH2CH4C2H3FeCHFeS4H2SC7H3C2HCFeC3H2C4H4C2H13SH2CHC2NHC2HCH2C2H10CHNFeHSH2CHCH2C2H5FeH2C2H5FeHCHSFeS2CSH3FeC7HSH2CNH2CSCH3C2H3C2SH10CH2CH3CNHFeH4C2H6C3HCH2C3H2CHSC2H3CFeH3CHCH2C2HC2H4C4S2H5C4HCH5SCHCHSCHCHCH3CFeCNC2H9CH5CHCHCH2CHCSCH4SHFeS2C2H2SCHS2HS2CH2CHC6H4FeHC6H3FeNC3H2CHCH8CHC4HCHNH2CH2C3HCH3NCFeH4SHC2HCH3CH8CH2CH2CFeHCHCH4FeCHCH2CSH5CH7CH4FeH3CH2CS2FeHSH2SFeS3HC6H3SH3C6H4FeCHFeHC5FeHCSH4C2H3CH9C3HCH2FeHCSH3NCH4SH7SHC2SFeS2FeS2HNFeS2HCHFeS2H3C6H4C6H5CH3C2H2CNH3SH2CH5C2H5CFeC2H5CH3CH2C2H2C3HC2H5CHFeH2C2H2CHSCH2CH5NCH2CHSHC2HFeS2HSCFeSH3FeS2CHC7H3C6H5SCNH2CH2C2H3CHCH3CHCH2C2H8CH6CH4CHCHC2HSH4CFeH2C2H4CHCFeHCHC3HCH3CH2CH5CH3NHSH2S3FeS2H2SC6H4CH3NH2CH3C2H2C3H4NHSHC2H6CH4C2HC2H3CH2C2H2CHC2HCHCHCHCHCH6CH9CHFeH3CHFeHCHCH3CHCS2H5CFeHC6HC3H5CH2SFeSHCH3C2NH5CHCSHCH3C2SHCH3CH3CH6CHCHCH8CSFeH2S2C3HCH2CH2CH2C6HCH7C3H3C2HCNHCH3CH6NCH9CHCHCH2CH4CHCSCH3SH4C2HFeCH6CH5FeSHCH2SC2HCFeS2CSCSHC6H4CNSCH2FeH3SH3C2H2C2H2CHCH4CH5CHFeH4CHCHCHC2HCH6FeH3C2NHCHCH2CH2CH3CH2CHCSH3CHNHCFe
_chemical_formula_sum              "H768 C432 S96 N24 Fe48"
_cell_length_a       45.0832
_cell_length_b       30.2957
_cell_length_c       37.1086
_cell_angle_alpha    89.9041
_cell_angle_beta     90.1442
_cell_angle_gamma    90.8714

_space_group_name_H-M_alt    "P 1"
_space_group_IT_number       1

loop_
  _space_group_symop_operation_xyz
  'x, y, z'

loop_
  _atom_site_type_symbol
  _atom_site_label
  _atom_site_symmetry_multiplicity
  _atom_site_fract_x
  _atom_site_fract_y
  _atom_site_fract_z
  _atom_site_occupancy
  H   H1        1.0  0.99768  0.11675  0.46870  1.0000
  H   H2        1.0  0.06885  0.09655  0.20203  1.0000
  H   H3        1.0  0.23082  0.38504  0.47327  1.0000
  H   H4        1.0  0.18088  0.03042  0.47805  1.0000
  C   C1        1.0  0.30757  0.22572  0.45406  1.0000
  H   H5        1.0  0.31236  0.28931  0.40315  1.0000
  C   C2        1.0  0.00387  0.10809  0.41155  1.0000
  H   H6        1.0  0.04063  0.06491  0.11539  1.0000
  H   H7        1.0  0.30437  0.25833  0.32149  1.0000
  C   C3        1.0  0.08565  0.08615  0.48140  1.0000
  H   H8        1.0  0.11757  0.23354  0.42444  1.0000
  H   H9        1.0  0.07732  0.04662  0.15832  1.0000
  C   C4        1.0  0.13849  0.22256  0.43730  1.0000
  C   C5        1.0  0.31892  0.25679  0.39191  1.0000
  H   H10       1.0  0.29085  0.32462  0.35892  1.0000
  H   H11       1.0  0.04695  0.11667  0.16526  1.0000
  H   H12       1.0  0.15176  0.25229  0.44509  1.0000
  S   S1        1.0  0.08698  0.30223  0.47767  1.0000
  C   C6        1.0  0.06357  0.01647  0.16333  1.0000
  H   H13       1.0  0.03239  0.12623  0.24616  1.0000
  H   H14       1.0  0.20132  0.06208  0.44501  1.0000
  C   C7        1.0  0.01725  0.12462  0.38030  1.0000
  C   C8        1.0  0.03454  0.16363  0.38247  1.0000
  C   C9        1.0  0.03884  0.18550  0.41565  1.0000
  C   C10       1.0  0.02570  0.16854  0.44696  1.0000
  C   C11       1.0  0.00807  0.12999  0.44466  1.0000
  H   H15       1.0  0.99837  0.09303  0.07026  1.0000
  H   H16       1.0  0.07589  0.09851  0.42416  1.0000
  H   H17       1.0  0.05228  0.21535  0.41697  1.0000
  H   H18       1.0  0.03756  0.04464  0.45008  1.0000
  H   H19       1.0  0.11786  0.14127  0.43542  1.0000
  N   N1        1.0  0.03102  0.02793  0.16432  1.0000
  C   C12       1.0  0.02691  0.06001  0.19491  1.0000
  S   S2        1.0  0.28999  0.35214  0.47950  1.0000
  C   C13       1.0  0.05888  0.03424  0.43812  1.0000
  C   C14       1.0  0.02185  0.04646  0.12820  1.0000
  H   H20       1.0  0.06615  0.00360  0.45179  1.0000
  C   C15       1.0  0.29086  0.34340  0.30343  1.0000
  C   C16       1.0  0.11135  0.15471  0.46204  1.0000
  H   H21       1.0  0.08873  0.16795  0.45782  1.0000
  C   C17       1.0  0.04581  0.10318  0.19301  1.0000
  H   H22       1.0  0.03282  0.04398  0.22095  1.0000
  H   H23       1.0  0.28029  0.37546  0.30936  1.0000
  C   C18       1.0  0.98771  0.29522  0.43944  1.0000
  C   C19       1.0  0.25535  0.33073  0.49536  1.0000
  H   H24       1.0  0.01160  0.38011  0.42213  1.0000
  C   C20       1.0  0.03342  0.13855  0.21792  1.0000
  H   H25       1.0  0.10337  0.05690  0.43152  1.0000
  H   H26       1.0  0.00331  0.06906  0.19796  1.0000
  S   S3        1.0  0.03048  0.19381  0.48964  1.0000
  H   H27       1.0  0.99030  0.07834  0.41019  1.0000
  H   H28       1.0  0.01675  0.01893  0.10925  1.0000
  H   H29       1.0  0.28736  0.20835  0.44390  1.0000
  H   H30       1.0  0.04800  0.16841  0.21720  1.0000
  H   H31       1.0  0.16747  0.12404  0.45107  1.0000
  H   H32       1.0  0.15308  0.18488  0.48316  1.0000
  H   H33       1.0  0.04478  0.17684  0.35833  1.0000
  C   C21       1.0  0.13177  0.19497  0.47087  1.0000
  C   C22       1.0  0.02163  0.35145  0.40836  1.0000
  C   C23       1.0  0.08259  0.07066  0.44176  1.0000
  C   C24       1.0  0.15967  0.09128  0.46090  1.0000
  H   H34       1.0  0.04053  0.33946  0.42475  1.0000
  H   H35       1.0  0.00261  0.11216  0.13601  1.0000
  H   H36       1.0  0.11806  0.00941  0.12730  1.0000
  H   H37       1.0  0.15147  0.20321  0.41764  1.0000
  H   H38       1.0  0.14798  0.07467  0.43851  1.0000
  S   S4        1.0  0.01245  0.09837  0.33797  1.0000
  H   H39       1.0  0.01080  0.14798  0.20912  1.0000
  H   H40       1.0  0.12048  0.21665  0.49044  1.0000
  S   S5        1.0  0.98956  0.01113  0.26954  1.0000
  H   H41       1.0  0.06372  0.10061  0.48824  1.0000
  H   H42       1.0  0.20055  0.08054  0.49113  1.0000
  N   N2        1.0  0.11035  0.11888  0.49025  1.0000
  C   C25       1.0  0.99519  0.07855  0.12783  1.0000
  C   C26       1.0  0.01036  0.44142  0.48863  1.0000
  H   H43       1.0  0.06633  0.99393  0.10684  1.0000
  H   H44       1.0  0.29800  0.24009  0.38281  1.0000
  S   S6        1.0  0.04686  0.42102  0.48260  1.0000
  C   C27       1.0  0.00423  0.48520  0.47881  1.0000
  H   H45       1.0  0.02470  0.03018  0.01352  1.0000
  H   H46       1.0  0.27320  0.31932  0.29548  1.0000
  C   C28       1.0  0.22929  0.35409  0.48780  1.0000
  H   H47       1.0  0.03023  0.36277  0.38185  1.0000
  C   C29       1.0  0.00860  0.00571  0.00459  1.0000
  H   H48       1.0  0.00557  0.27312  0.44933  1.0000
  H   H49       1.0  0.99943  0.22534  0.07219  1.0000
  C   C30       1.0  0.18726  0.06441  0.46945  1.0000
  H   H50       1.0  0.18141  0.35622  0.49270  1.0000
  H   H51       1.0  0.00872  0.28841  0.38659  1.0000
  H   H52       1.0  0.30646  0.34833  0.28058  1.0000
  H   H53       1.0  0.30145  0.25886  0.46397  1.0000
  C   C31       1.0  0.99843  0.31480  0.40295  1.0000
  C   C32       1.0  0.13981  0.09606  0.49478  1.0000
  H   H54       1.0  0.31667  0.20666  0.47706  1.0000
  H   H55       1.0  0.05499  0.02680  0.40914  1.0000
  H   H56       1.0  0.07072  0.00328  0.19006  1.0000
  Fe  Fe1       1.0  0.99082  0.03064  0.32803  1.0000
  C   C33       1.0  0.30736  0.32725  0.33687  1.0000
  H   H57       1.0  0.08749  0.05600  0.49840  1.0000
  Fe  Fe2       1.0  0.06204  0.30817  0.57867  1.0000
  S   S7        1.0  0.09467  0.35697  0.55479  1.0000
  S   S8        1.0  0.03909  0.30489  0.63319  1.0000
  S   S9        1.0  0.08526  0.24999  0.55536  1.0000
  S   S10       1.0  0.16405  0.27493  0.53148  1.0000
  H   H58       1.0  0.03673  0.34140  0.80296  1.0000
  H   H59       1.0  0.00547  0.34479  0.86168  1.0000
  S   S11       1.0  0.04776  0.42998  0.76987  1.0000
  C   C34       1.0  0.04179  0.34635  0.66666  1.0000
  C   C35       1.0  0.01583  0.36059  0.68358  1.0000
  C   C36       1.0  0.01731  0.38786  0.71425  1.0000
  C   C37       1.0  0.04484  0.40033  0.72880  1.0000
  C   C38       1.0  0.07080  0.38715  0.71122  1.0000
  C   C39       1.0  0.06932  0.36054  0.68013  1.0000
  C   C40       1.0  0.99065  0.46204  0.60067  1.0000
  H   H60       1.0  0.99209  0.21688  0.80102  1.0000
  H   H61       1.0  0.09220  0.39671  0.72220  1.0000
  H   H62       1.0  0.08948  0.34925  0.66765  1.0000
  C   C41       1.0  0.22485  0.27421  0.52472  1.0000
  C   C42       1.0  0.25293  0.29057  0.51386  1.0000
  H   H63       1.0  0.05124  0.26132  0.70228  1.0000
  C   C43       1.0  0.04949  0.23282  0.72101  1.0000
  Fe  Fe3       1.0  0.00729  0.45825  0.79757  1.0000
  C   C44       1.0  0.03106  0.31130  0.81909  1.0000
  C   C45       1.0  0.30063  0.28158  0.59087  1.0000
  C   C46       1.0  0.09181  0.13325  0.59270  1.0000
  H   H64       1.0  0.11141  0.15437  0.59949  1.0000
  H   H65       1.0  0.08222  0.16027  0.52268  1.0000
  C   C47       1.0  0.29496  0.45480  0.55445  1.0000
  C   C48       1.0  0.10251  0.14010  0.52577  1.0000
  C   C49       1.0  0.03073  0.40645  0.58912  1.0000
  C   C50       1.0  0.09704  0.10793  0.55773  1.0000
  H   H66       1.0  0.22250  0.36418  0.65406  1.0000
  H   H67       1.0  0.05409  0.38491  0.85471  1.0000
  H   H68       1.0  0.99611  0.19564  0.88631  1.0000
  H   H69       1.0  0.05241  0.39514  0.59934  1.0000
  C   C51       1.0  0.04504  0.24897  0.75957  1.0000
  C   C52       1.0  0.02602  0.32569  0.85857  1.0000
  H   H70       1.0  0.27434  0.35586  0.67697  1.0000
  H   H71       1.0  0.07198  0.15441  0.59007  1.0000
  H   H72       1.0  0.22326  0.24303  0.53887  1.0000
  H   H73       1.0  0.27259  0.27168  0.51918  1.0000
  H   H74       1.0  0.08794  0.10962  0.61517  1.0000
  H   H75       1.0  0.19102  0.31727  0.61196  1.0000
  H   H76       1.0  0.11636  0.08621  0.56189  1.0000
  H   H77       1.0  0.27631  0.44692  0.60708  1.0000
  H   H78       1.0  0.07035  0.21394  0.71926  1.0000
  H   H79       1.0  0.04741  0.36559  0.89996  1.0000
  H   H80       1.0  0.29329  0.36477  0.56350  1.0000
  H   H81       1.0  0.28275  0.48571  0.54918  1.0000
  H   H82       1.0  0.99448  0.34965  0.67335  1.0000
  S   S12       1.0  0.02996  0.31058  0.53248  1.0000
  H   H83       1.0  0.17698  0.37203  0.61882  1.0000
  H   H84       1.0  0.27775  0.26929  0.58564  1.0000
  C   C53       1.0  0.27821  0.42684  0.58230  1.0000
  H   H85       1.0  0.30930  0.29732  0.56597  1.0000
  C   C54       1.0  0.05173  0.35493  0.87186  1.0000
  C   C55       1.0  0.30177  0.31457  0.62289  1.0000
  N   N3        1.0  0.28219  0.35456  0.61964  1.0000
  H   H86       1.0  0.30349  0.39640  0.72538  1.0000
  C   C56       1.0  0.25088  0.33873  0.61116  1.0000
  C   C57       1.0  0.28316  0.37819  0.65548  1.0000
  H   H87       1.0  0.03076  0.21100  0.71239  1.0000
  C   C58       1.0  0.19878  0.29761  0.51718  1.0000
  H   H88       1.0  0.22827  0.40301  0.61820  1.0000
  H   H89       1.0  0.26844  0.40715  0.65557  1.0000
  C   C59       1.0  0.22486  0.36758  0.62437  1.0000
  C   C60       1.0  0.19548  0.35298  0.60714  1.0000
  H   H90       1.0  0.05154  0.29142  0.82005  1.0000
  H   H91       1.0  0.19593  0.35921  0.57764  1.0000
  H   H92       1.0  0.29618  0.29570  0.64785  1.0000
  H   H93       1.0  0.02502  0.29633  0.87645  1.0000
  H   H94       1.0  0.01368  0.38070  0.59525  1.0000
  H   H95       1.0  0.24819  0.33380  0.58157  1.0000
  H   H96       1.0  0.24648  0.30573  0.62357  1.0000
  H   H97       1.0  0.03218  0.41106  0.55956  1.0000
  H   H98       1.0  0.06467  0.26998  0.76634  1.0000
  H   H99       1.0  0.07286  0.33657  0.87136  1.0000
  C   C61       1.0  0.29425  0.38296  0.58949  1.0000
  H   H100      1.0  0.25581  0.41991  0.57099  1.0000
  N   N4        1.0  0.00611  0.28588  0.80097  1.0000
  Fe  Fe4       1.0  0.11593  0.29879  0.52758  1.0000
  H   H101      1.0  0.99170  0.46301  0.67635  1.0000
  S   S13       1.0  0.99828  0.44381  0.85625  1.0000
  H   H102      1.0  0.99858  0.25706  0.74825  1.0000
  H   H103      1.0  0.29690  0.43656  0.52861  1.0000
  C   C62       1.0  0.02346  0.44979  0.60736  1.0000
  H   H104      1.0  0.31818  0.39036  0.59399  1.0000
  C   C63       1.0  0.01611  0.27585  0.76304  1.0000
  H   H105      1.0  0.99715  0.39787  0.72726  1.0000
  H   H106      1.0  0.04471  0.21971  0.77758  1.0000
  C   C64       1.0  0.31207  0.41924  0.70426  1.0000
  C   C65       1.0  0.31960  0.24123  0.59849  1.0000
  H   H107      1.0  0.03922  0.47522  0.59723  1.0000
  H   H108      1.0  0.02034  0.22985  0.83251  1.0000
  H   H109      1.0  0.31132  0.22319  0.62263  1.0000
  H   H110      1.0  0.02776  0.44538  0.63659  1.0000
  H   H111      1.0  0.01963  0.30702  0.74761  1.0000
  Fe  Fe5       1.0  0.06302  0.35666  0.50733  1.0000
  H   H112      1.0  0.12036  0.16355  0.53460  1.0000
  H   H113      1.0  0.15396  0.11399  0.51485  1.0000
  C   C66       1.0  0.31406  0.39559  0.66802  1.0000
  C   C67       1.0  0.99959  0.24286  0.82038  1.0000
  H   H114      1.0  0.99149  0.38122  0.50990  1.0000
  H   H115      1.0  0.07702  0.08696  0.55285  1.0000
  H   H116      1.0  0.31866  0.21854  0.57503  1.0000
  H   H117      1.0  0.31753  0.46371  0.56444  1.0000
  H   H118      1.0  0.29740  0.44827  0.70221  1.0000
  Fe  Fe6       1.0  0.05567  0.25619  0.50699  1.0000
  H   H119      1.0  0.13641  0.06255  0.50655  1.0000
  C   C68       1.0  0.20119  0.33779  0.49872  1.0000
  H   H120      1.0  0.00106  0.80757  0.27003  1.0000
  S   S14       1.0  0.08700  0.75859  0.04274  1.0000
  Fe  Fe7       1.0  0.05541  0.80668  0.06794  1.0000
  S   S15       1.0  0.02473  0.79658  0.11609  1.0000
  S   S16       1.0  0.08824  0.86287  0.06686  1.0000
  C   C69       1.0  0.15923  0.67748  0.05373  1.0000
  S   S17       1.0  0.04398  0.91392  0.25673  1.0000
  H   H121      1.0  0.20008  0.88610  0.15279  1.0000
  H   H122      1.0  0.06357  0.94954  0.13929  1.0000
  H   H123      1.0  0.28189  0.79896  0.09221  1.0000
  Fe  Fe8       1.0  0.11865  0.81676  0.03744  1.0000
  C   C70       1.0  0.22584  0.78817  0.04181  1.0000
  C   C71       1.0  0.03032  0.82964  0.15494  1.0000
  C   C72       1.0  0.00680  0.83557  0.17914  1.0000
  C   C73       1.0  0.01055  0.86219  0.20995  1.0000
  C   C74       1.0  0.03804  0.88211  0.21736  1.0000
  C   C75       1.0  0.06167  0.87567  0.19349  1.0000
  C   C76       1.0  0.05776  0.84999  0.16221  1.0000
  H   H124      1.0  0.30384  0.86884  0.24512  1.0000
  S   S18       1.0  0.16639  0.80057  0.05422  1.0000
  H   H125      1.0  0.08310  0.89068  0.19914  1.0000
  H   H126      1.0  0.07618  0.84517  0.14413  1.0000
  C   C77       1.0  0.01732  0.91817  0.08140  1.0000
  N   N5        1.0  0.01103  0.77461  0.32036  1.0000
  H   H127      1.0  0.23920  0.83057  0.16279  1.0000
  H   H128      1.0  0.29306  0.82711  0.18955  1.0000
  C   C78       1.0  0.25381  0.79776  0.02649  1.0000
  S   S19       1.0  0.03375  0.82283  0.01477  1.0000
  C   C79       1.0  0.04130  0.75930  0.30877  1.0000
  H   H129      1.0  0.04723  0.79515  0.25719  1.0000
  H   H130      1.0  0.02568  0.90178  0.05694  1.0000
  H   H131      1.0  0.27264  0.77730  0.03253  1.0000
  C   C80       1.0  0.03163  0.82114  0.37373  1.0000
  C   C81       1.0  0.05887  0.79092  0.28330  1.0000
  H   H132      1.0  0.02472  0.89929  0.10529  1.0000
  H   H133      1.0  0.28099  0.79521  0.13942  1.0000
  H   H134      1.0  0.31059  0.93094  0.02259  1.0000
  C   C82       1.0  0.03637  0.86866  0.38629  1.0000
  C   C83       1.0  0.08947  0.77272  0.27468  1.0000
  S   S20       1.0  0.05583  0.94909  0.00156  1.0000
  H   H135      1.0  0.26846  0.87337  0.19486  1.0000
  H   H136      1.0  0.05591  0.75309  0.33221  1.0000
  H   H137      1.0  0.02026  0.84517  0.32007  1.0000
  H   H138      1.0  0.29631  0.86345  0.06124  1.0000
  H   H139      1.0  0.04942  0.86908  0.41170  1.0000
  H   H140      1.0  0.24964  0.90499  0.12617  1.0000
  H   H141      1.0  0.03909  0.72675  0.29493  1.0000
  H   H142      1.0  0.04874  0.88806  0.36564  1.0000
  H   H143      1.0  0.05391  0.80712  0.36982  1.0000
  H   H144      1.0  0.02000  0.80323  0.39583  1.0000
  C   C84       1.0  0.31145  0.88179  0.21864  1.0000
  H   H145      1.0  0.06233  0.82383  0.29582  1.0000
  H   H146      1.0  0.99006  0.82936  0.34725  1.0000
  C   C85       1.0  0.20089  0.81367  0.03333  1.0000
  H   H147      1.0  0.29580  0.91843  0.15287  1.0000
  H   H148      1.0  0.01867  0.95984  0.15310  1.0000
  H   H149      1.0  0.24687  0.87091  0.08725  1.0000
  C   C86       1.0  0.23253  0.83818  0.13483  1.0000
  N   N6        1.0  0.28707  0.86191  0.11850  1.0000
  H   H150      1.0  0.03213  0.73395  0.38496  1.0000
  Fe  Fe9       1.0  0.00592  0.94510  0.28705  1.0000
  H   H151      1.0  0.99223  0.86724  0.22811  1.0000
  H   H152      1.0  0.10131  0.79583  0.25617  1.0000
  H   H153      1.0  0.10288  0.76933  0.29966  1.0000
  H   H154      1.0  0.08735  0.74011  0.26118  1.0000
  C   C87       1.0  0.25421  0.87117  0.11604  1.0000
  C   C88       1.0  0.30195  0.88258  0.08595  1.0000
  H   H155      1.0  0.02875  0.68877  0.35409  1.0000
  H   H156      1.0  0.14142  0.70157  0.05896  1.0000
  H   H157      1.0  0.11285  0.95305  0.11290  1.0000
  H   H158      1.0  0.22342  0.76052  0.06011  1.0000
  H   H159      1.0  0.02105  0.97282  0.19957  1.0000
  H   H160      1.0  0.01474  0.88436  0.39161  1.0000
  C   C89       1.0  0.20429  0.84898  0.00934  1.0000
  C   C90       1.0  0.29224  0.81282  0.11700  1.0000
  C   C91       1.0  0.30082  0.88270  0.15162  1.0000
  H   H161      1.0  0.19343  0.86450  0.10798  1.0000
  C   C92       1.0  0.01257  0.81886  0.33901  1.0000
  H   H162      1.0  0.23168  0.80661  0.11961  1.0000
  H   H163      1.0  0.18558  0.83074  0.14682  1.0000
  C   C93       1.0  0.29147  0.86352  0.18859  1.0000
  C   C94       1.0  0.20104  0.85615  0.13564  1.0000
  C   C95       1.0  0.29445  0.93162  0.07799  1.0000
  H   H164      1.0  0.27096  0.93467  0.06938  1.0000
  H   H165      1.0  0.18045  0.69082  0.06482  1.0000
  C   C96       1.0  0.31376  0.95039  0.04767  1.0000
  H   H166      1.0  0.02184  0.50605  0.46819  1.0000
  S   S21       1.0  0.01095  0.96646  0.34481  1.0000
  C   C97       1.0  0.01602  0.71315  0.36993  1.0000
  C   C98       1.0  0.99736  0.68759  0.39755  1.0000
  H   H167      1.0  0.02716  0.95178  0.08222  1.0000
  H   H168      1.0  0.18538  0.86898  0.00258  1.0000
  H   H169      1.0  0.15356  0.64626  0.06802  1.0000
  C   C99       1.0  0.16204  0.66872  0.01333  1.0000
  Fe  Fe10      1.0  0.06779  0.87757  0.01277  1.0000
  H   H170      1.0  0.18741  0.72954  0.00699  1.0000
  H   H171      1.0  0.01191  0.66673  0.41447  1.0000
  H   H172      1.0  0.29812  0.95283  0.10190  1.0000
  C   C100      1.0  0.25741  0.83393  0.00341  1.0000
  H   H173      1.0  0.31678  0.73474  0.09151  1.0000
  C   C101      1.0  0.07311  0.98285  0.13411  1.0000
  H   H174      1.0  0.31604  0.73285  0.14037  1.0000
  H   H175      1.0  0.31081  0.91843  0.21937  1.0000
  C   C102      1.0  0.99257  0.77955  0.28654  1.0000
  C   C103      1.0  0.99606  0.74030  0.34420  1.0000
  H   H176      1.0  0.11467  0.96539  0.16035  1.0000
  C   C104      1.0  0.10677  0.97754  0.13379  1.0000
  C   C105      1.0  0.01389  0.98602  0.17292  1.0000
  H   H177      1.0  0.99438  0.74948  0.26941  1.0000
  H   H178      1.0  0.30748  0.98502  0.04199  1.0000
  H   H179      1.0  0.17956  0.64386  0.00988  1.0000
  H   H180      1.0  0.14043  0.65486  0.00401  1.0000
  C   C106      1.0  0.01661  0.58760  0.54103  1.0000
  C   C107      1.0  0.25668  0.65827  0.96060  1.0000
  C   C108      1.0  0.23244  0.85917  0.99468  1.0000
  C   C109      1.0  0.99864  0.52424  0.64467  1.0000
  S   S22       1.0  0.10124  0.83686  0.98311  1.0000
  S   S23       1.0  0.06484  0.73744  0.93869  1.0000
  H   H181      1.0  0.02409  0.51963  0.55331  1.0000
  H   H182      1.0  0.00219  0.58004  0.51751  1.0000
  H   H183      1.0  0.15025  0.62121  0.95262  1.0000
  H   H184      1.0  0.15190  0.85439  0.92215  1.0000
  H   H185      1.0  0.00395  0.89878  0.97747  1.0000
  C   C110      1.0  0.04520  0.68686  0.93184  1.0000
  C   C111      1.0  0.04543  0.66745  0.89738  1.0000
  C   C112      1.0  0.03057  0.62696  0.89075  1.0000
  C   C113      1.0  0.01483  0.60579  0.91841  1.0000
  H   H186      1.0  0.00887  0.61833  0.55412  1.0000
  C   C114      1.0  0.02995  0.66528  0.95966  1.0000
  H   H187      1.0  0.05739  0.68371  0.87575  1.0000
  H   H188      1.0  0.03128  0.61217  0.86430  1.0000
  H   H189      1.0  0.19054  0.84312  0.92974  1.0000
  H   H190      1.0  0.19834  0.64360  0.95578  1.0000
  H   H191      1.0  0.02282  0.52433  0.63955  1.0000
  S   S24       1.0  0.99392  0.55636  0.91121  1.0000
  C   C115      1.0  0.01491  0.62495  0.95294  1.0000
  H   H192      1.0  0.17180  0.82146  0.89015  1.0000
  C   C116      1.0  0.20313  0.67805  0.94734  1.0000
  H   H193      1.0  0.03958  0.59330  0.53116  1.0000
  S   S25       1.0  0.99932  0.53160  0.80274  1.0000
  C   C117      1.0  0.99696  0.93161  0.98452  1.0000
  H   H194      1.0  0.01151  0.49268  0.73364  1.0000
  C   C118      1.0  0.01795  0.96282  0.99641  1.0000
  H   H195      1.0  0.23492  0.88709  0.97664  1.0000
  C   C119      1.0  0.18496  0.75253  0.93886  1.0000
  H   H196      1.0  0.20803  0.67609  0.91794  1.0000
  H   H197      1.0  0.22903  0.69452  0.99640  1.0000
  H   H198      1.0  0.01901  0.54551  0.71308  1.0000
  C   C120      1.0  0.16030  0.78758  0.94024  1.0000
  Fe  Fe11      1.0  0.06849  0.78019  0.98937  1.0000
  C   C121      1.0  0.01718  0.50945  0.70804  1.0000
  N   N7        1.0  0.17670  0.70729  0.95326  1.0000
  C   C122      1.0  0.14672  0.63962  0.92725  1.0000
  C   C123      1.0  0.16931  0.82910  0.91924  1.0000
  H   H199      1.0  0.00303  0.60864  0.97461  1.0000
  H   H200      1.0  0.03889  0.49695  0.69868  1.0000
  H   H201      1.0  0.02077  0.62432  0.79851  1.0000
  H   H202      1.0  0.14973  0.70423  0.90450  1.0000
  H   H203      1.0  0.19271  0.74991  0.91042  1.0000
  H   H204      1.0  0.20373  0.76737  0.95441  1.0000
  H   H205      1.0  0.02973  0.67964  0.98632  1.0000
  H   H206      1.0  0.11098  0.64471  0.88768  1.0000
  H   H207      1.0  0.12901  0.70233  0.94490  1.0000
  C   C124      1.0  0.01612  0.54920  0.56780  1.0000
  H   H208      1.0  0.11483  0.59075  0.90762  1.0000
  H   H209      1.0  0.14950  0.73304  0.99612  1.0000
  H   H210      1.0  0.15672  0.79755  0.96860  1.0000
  H   H211      1.0  0.13895  0.77522  0.92893  1.0000
  H   H212      1.0  0.25003  0.62552  0.97170  1.0000
  C   C125      1.0  0.11595  0.62678  0.91308  1.0000
  H   H213      1.0  0.01285  0.64613  0.75440  1.0000
  C   C126      1.0  0.14990  0.69037  0.93237  1.0000
  H   H214      1.0  0.16331  0.62828  0.90732  1.0000
  C   C127      1.0  0.16925  0.71186  0.99263  1.0000
  H   H215      1.0  0.09881  0.63452  0.93348  1.0000
  H   H216      1.0  0.03192  0.55797  0.58960  1.0000
  C   C128      1.0  0.99292  0.49922  0.68051  1.0000
  H   H217      1.0  0.99366  0.55948  0.64951  1.0000
  C   C129      1.0  0.23236  0.69200  0.96687  1.0000
  S   S26       1.0  0.29253  0.84957  0.98535  1.0000
  C   C130      1.0  0.00946  0.65116  0.78374  1.0000
  H   H218      1.0  0.24103  0.72411  0.95668  1.0000
  H   H219      1.0  0.26142  0.65503  0.93136  1.0000
  H   H220      1.0  0.01979  0.68331  0.79146  1.0000
  H   H221      1.0  0.27741  0.66939  0.97436  1.0000
  S   S27       1.0  0.59053  0.19270  0.03517  1.0000
  H   H222      1.0  0.61760  0.20304  0.13351  1.0000
  Fe  Fe12      1.0  0.55498  0.14508  0.05397  1.0000
  S   S28       1.0  0.52714  0.15486  0.10466  1.0000
  S   S29       1.0  0.58459  0.08696  0.04966  1.0000
  C   C131      1.0  0.56162  0.13348  0.26820  1.0000
  C   C132      1.0  0.57914  0.23434  0.15615  1.0000
  H   H223      1.0  0.37683  0.27917  0.39533  1.0000
  H   H224      1.0  0.39765  0.37217  0.36422  1.0000
  S   S30       1.0  0.41248  0.06915  0.36152  1.0000
  C   C133      1.0  0.49248  0.01641  0.06806  1.0000
  H   H225      1.0  0.42510  0.04994  0.44159  1.0000
  S   S31       1.0  0.37341  0.35590  0.45327  1.0000
  S   S32       1.0  0.42683  0.25656  0.43839  1.0000
  H   H226      1.0  0.42711  0.34879  0.33797  1.0000
  S   S33       1.0  0.44550  0.02609  0.26540  1.0000
  S   S34       1.0  0.48955  0.00721  0.33462  1.0000
  C   C134      1.0  0.48789  0.05674  0.42409  1.0000
  H   H227      1.0  0.45309  0.02819  0.16923  1.0000
  H   H228      1.0  0.56478  0.08051  0.12215  1.0000
  C   C135      1.0  0.37808  0.16864  0.30554  1.0000
  H   H229      1.0  0.56459  0.16429  0.28407  1.0000
  C   C136      1.0  0.42293  0.20363  0.41834  1.0000
  C   C137      1.0  0.44381  0.19067  0.39243  1.0000
  C   C138      1.0  0.44139  0.14929  0.37521  1.0000
  C   C139      1.0  0.41777  0.12063  0.38347  1.0000
  C   C140      1.0  0.39711  0.13335  0.40971  1.0000
  C   C141      1.0  0.39988  0.17435  0.42741  1.0000
  H   H230      1.0  0.46190  0.21296  0.38547  1.0000
  H   H231      1.0  0.45744  0.13997  0.35509  1.0000
  H   H232      1.0  0.37892  0.11120  0.41653  1.0000
  H   H233      1.0  0.38429  0.18323  0.44816  1.0000
  Fe  Fe13      1.0  0.44190  0.02603  0.32602  1.0000
  H   H234      1.0  0.60764  0.12883  0.25462  1.0000
  C   C142      1.0  0.52650  0.11543  0.14007  1.0000
  C   C143      1.0  0.50488  0.11808  0.16720  1.0000
  C   C144      1.0  0.50505  0.08886  0.19686  1.0000
  C   C145      1.0  0.52741  0.05756  0.20013  1.0000
  C   C146      1.0  0.54877  0.05459  0.17276  1.0000
  C   C147      1.0  0.54800  0.08285  0.14265  1.0000
  H   H235      1.0  0.48810  0.14317  0.16548  1.0000
  H   H236      1.0  0.48854  0.09163  0.21781  1.0000
  H   H237      1.0  0.56608  0.03039  0.17502  1.0000
  Fe  Fe14      1.0  0.61901  0.13339  0.02659  1.0000
  N   N8        1.0  0.61025  0.17187  0.18558  1.0000
  C   C148      1.0  0.62198  0.12701  0.17589  1.0000
  C   C149      1.0  0.58457  0.16691  0.21160  1.0000
  C   C150      1.0  0.59882  0.19297  0.15131  1.0000
  H   H238      1.0  0.39989  0.17158  0.31934  1.0000
  H   H239      1.0  0.34035  0.20831  0.29322  1.0000
  C   C151      1.0  0.65022  0.18634  0.23517  1.0000
  H   H240      1.0  0.32413  0.35295  0.34402  1.0000
  C   C152      1.0  0.53223  0.08533  0.38846  1.0000
  H   H241      1.0  0.37133  0.21027  0.36732  1.0000
  H   H242      1.0  0.56225  0.10485  0.28693  1.0000
  H   H243      1.0  0.60344  0.10571  0.16595  1.0000
  H   H244      1.0  0.63069  0.10952  0.19984  1.0000
  H   H245      1.0  0.58076  0.19869  0.22582  1.0000
  H   H246      1.0  0.56365  0.15942  0.19652  1.0000
  H   H247      1.0  0.58548  0.16861  0.13538  1.0000
  H   H248      1.0  0.55993  0.28717  0.12459  1.0000
  C   C153      1.0  0.36068  0.21117  0.31013  1.0000
  H   H249      1.0  0.35068  0.24647  0.43648  1.0000
  C   C154      1.0  0.32222  0.28221  0.32964  1.0000
  C   C155      1.0  0.44219  0.02763  0.45304  1.0000
  C   C156      1.0  0.64663  0.12615  0.14688  1.0000
  C   C157      1.0  0.65240  0.26596  0.02747  1.0000
  H   H250      1.0  0.43316  0.01557  0.47924  1.0000
  C   C158      1.0  0.44121  0.00428  0.15121  1.0000
  H   H251      1.0  0.58329  0.09680  0.22692  1.0000
  N   N9        1.0  0.33986  0.26301  0.36041  1.0000
  H   H252      1.0  0.51177  0.12026  0.43144  1.0000
  H   H253      1.0  0.37231  0.05580  0.15742  1.0000
  C   C159      1.0  0.51671  0.08537  0.42503  1.0000
  H   H254      1.0  0.33501  0.19177  0.35555  1.0000
  H   H255      1.0  0.57939  0.00586  0.10085  1.0000
  C   C160      1.0  0.44954  0.48233  0.48056  1.0000
  C   C161      1.0  0.46357  0.09933  0.47095  1.0000
  C   C162      1.0  0.46982  0.45127  0.46845  1.0000
  H   H256      1.0  0.33612  0.28697  0.30532  1.0000
  C   C163      1.0  0.40978  0.34134  0.35839  1.0000
  H   H257      1.0  0.46272  0.41737  0.46433  1.0000
  H   H258      1.0  0.63756  0.05826  0.13023  1.0000
  H   H259      1.0  0.44963  0.03690  0.08365  1.0000
  N   N10       1.0  0.47096  0.05299  0.45904  1.0000
  C   C164      1.0  0.46971  0.02531  0.09809  1.0000
  Fe  Fe15      1.0  0.39838  0.29820  0.47617  1.0000
  H   H260      1.0  0.36565  0.13985  0.31684  1.0000
  H   H261      1.0  0.42200  0.44612  0.04862  1.0000
  H   H262      1.0  0.35543  0.32487  0.38312  1.0000
  H   H263      1.0  0.41743  0.09481  0.49028  1.0000
  S   S35       1.0  0.53072  0.02325  0.23860  1.0000
  H   H264      1.0  0.50459  0.08604  0.06415  1.0000
  C   C165      1.0  0.33091  0.23000  0.42445  1.0000
  C   C166      1.0  0.46221  0.45850  0.01728  1.0000
  H   H265      1.0  0.33692  0.19605  0.41649  1.0000
  C   C167      1.0  0.38857  0.30553  0.34413  1.0000
  H   H266      1.0  0.55695  0.22455  0.16671  1.0000
  H   H267      1.0  0.38215  0.16249  0.27649  1.0000
  H   H268      1.0  0.45546  0.11906  0.44767  1.0000
  C   C168      1.0  0.63430  0.20188  0.20055  1.0000
  H   H269      1.0  0.44160  0.39684  0.03564  1.0000
  H   H270      1.0  0.58915  0.25857  0.17504  1.0000
  H   H271      1.0  0.47858  0.06724  0.03024  1.0000
  H   H272      1.0  0.62794  0.01883  0.06914  1.0000
  H   H273      1.0  0.59569  0.26980  0.10877  1.0000
  H   H274      1.0  0.51715  0.05271  0.02780  1.0000
  H   H275      1.0  0.41872  0.05970  0.12488  1.0000
  H   H276      1.0  0.53259  0.07257  0.44524  1.0000
  C   C169      1.0  0.49842  0.05824  0.04631  1.0000
  H   H277      1.0  0.48363  0.99159  0.04878  1.0000
  H   H278      1.0  0.48446  0.44347  0.01584  1.0000
  C   C170      1.0  0.49921  0.46435  0.46070  1.0000
  H   H279      1.0  0.51730  0.09820  0.36714  1.0000
  H   H280      1.0  0.49411  0.02385  0.41381  1.0000
  C   C171      1.0  0.39130  0.03661  0.16783  1.0000
  Fe  Fe16      1.0  0.39644  0.39678  0.49554  1.0000
  H   H281      1.0  0.56295  0.23592  0.10072  1.0000
  C   C172      1.0  0.57425  0.25814  0.12031  1.0000
  H   H282      1.0  0.47813  0.05387  0.11431  1.0000
  C   C173      1.0  0.36459  0.29373  0.37237  1.0000
  H   H283      1.0  0.37873  0.31806  0.31879  1.0000
  H   H284      1.0  0.40211  0.27606  0.33840  1.0000
  H   H285      1.0  0.53950  0.13349  0.25494  1.0000
  H   H286      1.0  0.37443  0.23861  0.29928  1.0000
  Fe  Fe17      1.0  0.33851  0.34040  0.49515  1.0000
  C   C174      1.0  0.44425  0.43162  0.04473  1.0000
  H   H287      1.0  0.42095  0.33007  0.38344  1.0000
  C   C175      1.0  0.58623  0.12940  0.24018  1.0000
  H   H288      1.0  0.38248  0.00529  0.17936  1.0000
  H   H289      1.0  0.47322  0.07074  0.40283  1.0000
  C   C176      1.0  0.35184  0.21830  0.35013  1.0000
  S   S36       1.0  0.41199  0.46794  0.48843  1.0000
  H   H290      1.0  0.53909  0.05139  0.38126  1.0000
  H   H291      1.0  0.51466  0.44030  0.45070  1.0000
  H   H292      1.0  0.55240  0.10680  0.38961  1.0000
  H   H293      1.0  0.40246  0.05598  0.18951  1.0000
  H   H294      1.0  0.63841  0.13941  0.12092  1.0000
  C   C177      1.0  0.41288  0.02728  0.13717  1.0000
  H   H295      1.0  0.50877  0.05369  0.49517  1.0000
  H   H296      1.0  0.65290  0.23343  0.04127  1.0000
  H   H297      1.0  0.45600  0.43173  0.07108  1.0000
  H   H298      1.0  0.48387  0.11699  0.48076  1.0000
  H   H299      1.0  0.40119  0.00653  0.11683  1.0000
  H   H300      1.0  0.44549  0.00047  0.39837  1.0000
  H   H301      1.0  0.62522  0.23471  0.20723  1.0000
  C   C178      1.0  0.48926  0.03227  0.48854  1.0000
  H   H302      1.0  0.43424  0.17436  0.49336  1.0000
  H   H303      1.0  0.62956  0.27230  0.01758  1.0000
  H   H304      1.0  0.63494  0.18861  0.25847  1.0000
  H   H305      1.0  0.51402  0.00558  0.07920  1.0000
  Fe  Fe18      1.0  0.49172  0.00167  0.27383  1.0000
  H   H306      1.0  0.50172  0.00115  0.15322  1.0000
  H   H307      1.0  0.61735  0.01995  0.00550  1.0000
  H   H308      1.0  0.65143  0.20887  0.17966  1.0000
  C   C179      1.0  0.62939  0.01147  0.93113  1.0000
  H   H309      1.0  0.53826  0.43390  0.90353  1.0000
  H   H310      1.0  0.34311  0.25124  0.60297  1.0000
  C   C180      1.0  0.43980  0.10337  0.50103  1.0000
  S   S37       1.0  0.57848  0.23660  0.93712  1.0000
  S   S38       1.0  0.60339  0.12227  0.96991  1.0000
  Fe  Fe19      1.0  0.49413  0.43091  0.81985  1.0000
  H   H311      1.0  0.41100  0.46687  0.59728  1.0000
  S   S39       1.0  0.49164  0.37863  0.86514  1.0000
  H   H312      1.0  0.49136  0.45036  0.67707  1.0000
  H   H313      1.0  0.61012  0.03301  0.93595  1.0000
  S   S40       1.0  0.49133  0.42391  0.75914  1.0000
  Fe  Fe20      1.0  0.38539  0.32728  0.55331  1.0000
  S   S41       1.0  0.35979  0.38608  0.53559  1.0000
  S   S42       1.0  0.39361  0.31206  0.61227  1.0000
  S   S43       1.0  0.36194  0.27972  0.51536  1.0000
  H   H314      1.0  0.33455  0.43103  0.71257  1.0000
  C   C181      1.0  0.40821  0.42449  0.69384  1.0000
  C   C182      1.0  0.42147  0.38354  0.69909  1.0000
  C   C183      1.0  0.41661  0.34916  0.67412  1.0000
  C   C184      1.0  0.39951  0.35599  0.64298  1.0000
  C   C185      1.0  0.38638  0.39701  0.63768  1.0000
  C   C186      1.0  0.39010  0.43068  0.66348  1.0000
  H   H315      1.0  0.43511  0.37810  0.72266  1.0000
  H   H316      1.0  0.42658  0.31736  0.67867  1.0000
  H   H317      1.0  0.37286  0.40253  0.61409  1.0000
  S   S44       1.0  0.42362  0.34080  0.51607  1.0000
  H   H318      1.0  0.44884  0.00984  0.94962  1.0000
  H   H319      1.0  0.32333  0.41966  0.64835  1.0000
  H   H320      1.0  0.45103  0.48861  0.56175  1.0000
  C   C187      1.0  0.55376  0.27556  0.91734  1.0000
  C   C188      1.0  0.52403  0.27872  0.92766  1.0000
  C   C189      1.0  0.50551  0.31035  0.91135  1.0000
  C   C190      1.0  0.51628  0.33917  0.88435  1.0000
  C   C191      1.0  0.54604  0.33610  0.87408  1.0000
  C   C192      1.0  0.56461  0.30459  0.89052  1.0000
  H   H321      1.0  0.51525  0.25676  0.94816  1.0000
  H   H322      1.0  0.48256  0.31226  0.91952  1.0000
  H   H323      1.0  0.55474  0.35795  0.85345  1.0000
  H   H324      1.0  0.58752  0.30259  0.88222  1.0000
  Fe  Fe21      1.0  0.45383  0.47154  0.76121  1.0000
  C   C193      1.0  0.43861  0.15058  0.51547  1.0000
  H   H325      1.0  0.44544  0.42316  0.97050  1.0000
  Fe  Fe22      1.0  0.51980  0.48588  0.75632  1.0000
  H   H326      1.0  0.49677  0.47917  0.54332  1.0000
  C   C194      1.0  0.49177  0.46877  0.94477  1.0000
  C   C195      1.0  0.64140  0.14153  0.87897  1.0000
  C   C196      1.0  0.47151  0.45274  0.62303  1.0000
  C   C197      1.0  0.39448  0.47987  0.88189  1.0000
  C   C198      1.0  0.49596  0.43746  0.64966  1.0000
  Fe  Fe23      1.0  0.57331  0.18063  0.97889  1.0000
  H   H327      1.0  0.54332  0.99327  0.50840  1.0000
  C   C199      1.0  0.49707  0.38722  0.65201  1.0000
  S   S45       1.0  0.45378  0.47427  0.82177  1.0000
  H   H328      1.0  0.49811  0.48548  0.88746  1.0000
  H   H329      1.0  0.32990  0.36827  0.67165  1.0000
  H   H330      1.0  0.47153  0.43150  0.59857  1.0000
  H   H331      1.0  0.44996  0.44478  0.63624  1.0000
  C   C200      1.0  0.54039  0.46943  0.91056  1.0000
  C   C201      1.0  0.51312  0.48138  0.56558  1.0000
  H   H332      1.0  0.51837  0.44928  0.64171  1.0000
  H   H333      1.0  0.64217  0.02508  0.90799  1.0000
  H   H334      1.0  0.40126  0.45168  0.86484  1.0000
  C   C202      1.0  0.64637  0.18510  0.89895  1.0000
  H   H335      1.0  0.49057  0.43249  0.93940  1.0000
  H   H336      1.0  0.51399  0.37756  0.67223  1.0000
  H   H337      1.0  0.47531  0.37335  0.66051  1.0000
  H   H338      1.0  0.50313  0.37298  0.62552  1.0000
  H   H339      1.0  0.61807  0.13944  0.86929  1.0000
  H   H340      1.0  0.64154  0.21231  0.87986  1.0000
  H   H341      1.0  0.32554  0.32469  0.62555  1.0000
  H   H342      1.0  0.64295  0.23575  0.96035  1.0000
  H   H343      1.0  0.49857  0.04492  0.95716  1.0000
  C   C203      1.0  0.63364  0.46916  0.55913  1.0000
  C   C204      1.0  0.64928  0.00959  0.96450  1.0000
  C   C205      1.0  0.44379  0.48226  0.91598  1.0000
  H   H344      1.0  0.45987  0.15993  0.52880  1.0000
  C   C206      1.0  0.44676  0.45814  0.97986  1.0000
  H   H345      1.0  0.50579  0.47313  0.96920  1.0000
  H   H346      1.0  0.51678  0.44765  0.57619  1.0000
  Fe  Fe24      1.0  0.56612  0.08056  0.99351  1.0000
  H   H347      1.0  0.45088  0.45236  0.90089  1.0000
  C   C207      1.0  0.49531  0.01036  0.96369  1.0000
  S   S46       1.0  0.55580  0.00866  0.97825  1.0000
  H   H348      1.0  0.42051  0.15316  0.53558  1.0000
  H   H349      1.0  0.54922  0.47533  0.52750  1.0000
  H   H350      1.0  0.44435  0.08131  0.52414  1.0000
  N   N11       1.0  0.46101  0.48648  0.95096  1.0000
  C   C208      1.0  0.40946  0.47746  0.91878  1.0000
  H   H351      1.0  0.37002  0.47803  0.88516  1.0000
  H   H352      1.0  0.64535  0.11311  0.89723  1.0000
  H   H353      1.0  0.42346  0.46754  0.98466  1.0000
  H   H354      1.0  0.37924  0.46192  0.65965  1.0000
  S   S47       1.0  0.41326  0.46845  0.72467  1.0000
  H   H355      1.0  0.63701  0.43341  0.55438  1.0000
  H   H356      1.0  0.40342  0.44475  0.93048  1.0000
  H   H357      1.0  0.47643  0.03038  0.51400  1.0000
  H   H358      1.0  0.62644  0.48452  0.53338  1.0000
  H   H359      1.0  0.63005  0.18595  0.92103  1.0000
  H   H360      1.0  0.55340  0.48636  0.88913  1.0000
  H   H361      1.0  0.61585  0.47282  0.57953  1.0000
  S   S48       1.0  0.52601  0.48879  0.81664  1.0000
  H   H362      1.0  0.55283  0.47285  0.93628  1.0000
  C   C209      1.0  0.63202  0.99218  0.99795  1.0000
  C   C210      1.0  0.46710  0.99035  0.95943  1.0000
  S   S49       1.0  0.53494  0.13780  0.99825  1.0000
  Fe  Fe25      1.0  0.47351  0.93625  0.33379  1.0000
  S   S50       1.0  0.42570  0.95548  0.32738  1.0000
  S   S51       1.0  0.48161  0.89182  0.38319  1.0000
  Fe  Fe26      1.0  0.43303  0.95400  0.26772  1.0000
  S   S52       1.0  0.39719  0.93402  0.22758  1.0000
  S   S53       1.0  0.47947  0.92900  0.27361  1.0000
  H   H363      1.0  0.53083  0.93964  0.19098  1.0000
  N   N12       1.0  0.46203  0.98717  0.12269  1.0000
  Fe  Fe27      1.0  0.39146  0.80328  0.04662  1.0000
  S   S54       1.0  0.40778  0.79080  0.10367  1.0000
  S   S55       1.0  0.37295  0.86758  0.02748  1.0000
  H   H364      1.0  0.58621  0.97329  0.04005  1.0000
  C   C211      1.0  0.59974  0.96076  0.06269  1.0000
  H   H365      1.0  0.45298  0.62794  0.36988  1.0000
  Fe  Fe28      1.0  0.57845  0.68399  0.46776  1.0000
  S   S56       1.0  0.56948  0.73396  0.42231  1.0000
  S   S57       1.0  0.60031  0.62373  0.44495  1.0000
  H   H366      1.0  0.48232  0.74383  0.39210  1.0000
  H   H367      1.0  0.64230  0.96946  0.08774  1.0000
  H   H368      1.0  0.42963  0.87067  0.07127  1.0000
  C   C212      1.0  0.50620  0.84781  0.39329  1.0000
  C   C213      1.0  0.50616  0.82972  0.42832  1.0000
  C   C214      1.0  0.52532  0.79503  0.43781  1.0000
  C   C215      1.0  0.54469  0.77771  0.41226  1.0000
  C   C216      1.0  0.54454  0.79555  0.37716  1.0000
  C   C217      1.0  0.52546  0.83033  0.36770  1.0000
  H   H369      1.0  0.49140  0.84295  0.44840  1.0000
  H   H370      1.0  0.52535  0.78206  0.46498  1.0000
  H   H371      1.0  0.55945  0.78253  0.35715  1.0000
  H   H372      1.0  0.52579  0.84372  0.34066  1.0000
  C   C218      1.0  0.40241  0.89559  0.19257  1.0000
  C   C219      1.0  0.38561  0.89978  0.16090  1.0000
  C   C220      1.0  0.38795  0.86874  0.13298  1.0000
  C   C221      1.0  0.40638  0.83238  0.13699  1.0000
  C   C222      1.0  0.42338  0.82834  0.16857  1.0000
  C   C223      1.0  0.42169  0.86013  0.19614  1.0000
  H   H373      1.0  0.37084  0.92734  0.15789  1.0000
  H   H374      1.0  0.37525  0.87256  0.10857  1.0000
  H   H375      1.0  0.43774  0.80032  0.17186  1.0000
  H   H376      1.0  0.43462  0.85649  0.22055  1.0000
  H   H377      1.0  0.33757  0.95009  0.05544  1.0000
  C   C224      1.0  0.52524  0.62483  0.39348  1.0000
  H   H378      1.0  0.48659  0.92699  0.07244  1.0000
  H   H379      1.0  0.44220  0.90659  0.03564  1.0000
  H   H380      1.0  0.35082  0.73833  0.11689  1.0000
  C   C225      1.0  0.44270  0.98816  0.42633  1.0000
  C   C226      1.0  0.63106  0.98306  0.06356  1.0000
  H   H381      1.0  0.49969  0.65558  0.35204  1.0000
  H   H382      1.0  0.51125  0.69463  0.44232  1.0000
  C   C227      1.0  0.46654  0.91384  0.08601  1.0000
  N   N13       1.0  0.47878  0.67388  0.40237  1.0000
  H   H383      1.0  0.41573  0.66910  0.41137  1.0000
  H   H384      1.0  0.44345  0.55045  0.49514  1.0000
  H   H385      1.0  0.56046  0.95352  0.09601  1.0000
  S   S58       1.0  0.54566  0.52333  0.45485  1.0000
  H   H386      1.0  0.46097  0.96524  0.43154  1.0000
  H   H387      1.0  0.41475  0.93367  0.40829  1.0000
  C   C228      1.0  0.45751  0.63518  0.39877  1.0000
  H   H388      1.0  0.47404  0.89131  0.10770  1.0000
  H   H389      1.0  0.50579  0.95798  0.12244  1.0000
  H   H390      1.0  0.52078  0.69366  0.37861  1.0000
  H   H391      1.0  0.51090  0.98120  0.45516  1.0000
  H   H392      1.0  0.47712  0.95665  0.19705  1.0000
  C   C229      1.0  0.50599  0.66385  0.38023  1.0000
  C   C230      1.0  0.46963  0.71125  0.46508  1.0000
  H   H393      1.0  0.38612  0.60201  0.42492  1.0000
  H   H394      1.0  0.43042  0.93278  0.11935  1.0000
  H   H395      1.0  0.60133  0.92444  0.06000  1.0000
  H   H396      1.0  0.50923  0.89226  0.20536  1.0000
  H   H397      1.0  0.47277  0.74603  0.45619  1.0000
  C   C231      1.0  0.42760  0.63860  0.41873  1.0000
  Fe  Fe29      1.0  0.56799  0.58444  0.47816  1.0000
  C   C232      1.0  0.44360  0.76113  0.33738  1.0000
  C   C233      1.0  0.51347  0.91531  0.18259  1.0000
  H   H398      1.0  0.46772  0.60471  0.40960  1.0000
  H   H399      1.0  0.52158  0.89589  0.15935  1.0000
  H   H400      1.0  0.46773  0.91363  0.16574  1.0000
  H   H401      1.0  0.33639  0.80970  0.14257  1.0000
  H   H402      1.0  0.46380  0.85930  0.04837  1.0000
  C   C234      1.0  0.41362  0.96165  0.42754  1.0000
  H   H403      1.0  0.51264  0.59313  0.39300  1.0000
  H   H404      1.0  0.56683  0.64906  0.37034  1.0000
  H   H405      1.0  0.59466  0.95679  0.12119  1.0000
  C   C235      1.0  0.58265  0.96988  0.09738  1.0000
  H   H406      1.0  0.56522  0.59041  0.37872  1.0000
  H   H407      1.0  0.54535  0.61295  0.34095  1.0000
  C   C236      1.0  0.46597  0.71624  0.38802  1.0000
  C   C237      1.0  0.44666  0.95048  0.10194  1.0000
  H   H408      1.0  0.32537  0.88138  0.14998  1.0000
  H   H409      1.0  0.42318  0.76719  0.35321  1.0000
  C   C238      1.0  0.48866  0.53910  0.47889  1.0000
  C   C239      1.0  0.45905  0.52629  0.48573  1.0000
  C   C240      1.0  0.48978  0.97225  0.14156  1.0000
  H   H410      1.0  0.43769  0.76117  0.30830  1.0000
  C   C241      1.0  0.48483  0.93885  0.17274  1.0000
  C   C242      1.0  0.44946  0.88594  0.05862  1.0000
  H   H411      1.0  0.40204  0.59842  0.38052  1.0000
  H   H412      1.0  0.47663  0.71235  0.33008  1.0000
  H   H413      1.0  0.43349  0.97688  0.16905  1.0000
  H   H414      1.0  0.41783  0.56775  0.41775  1.0000
  H   H415      1.0  0.53349  0.63037  0.42125  1.0000
  C   C243      1.0  0.55227  0.61914  0.36926  1.0000
  H   H416      1.0  0.45980  0.78855  0.34232  1.0000
  Fe  Fe30      1.0  0.63049  0.62478  0.49322  1.0000
  H   H417      1.0  0.44597  0.72576  0.40330  1.0000
  H   H418      1.0  0.44034  0.69049  0.34170  1.0000
  C   C244      1.0  0.45704  0.71676  0.34766  1.0000
  C   C245      1.0  0.40724  0.59926  0.40979  1.0000
  H   H419      1.0  0.44563  0.70359  0.46366  1.0000
  H   H420      1.0  0.43304  0.96446  0.07968  1.0000
  C   C246      1.0  0.32713  0.74792  0.11656  1.0000
  H   H421      1.0  0.48972  0.64750  0.45495  1.0000
  S   S59       1.0  0.35597  0.76207  0.01916  1.0000
  C   C247      1.0  0.48840  0.68010  0.44118  1.0000
  H   H422      1.0  0.43140  0.63752  0.44826  1.0000
  H   H423      1.0  0.49583  0.57287  0.48313  1.0000
  C   C248      1.0  0.50876  0.50823  0.46589  1.0000
  H   H424      1.0  0.39474  0.98279  0.41965  1.0000
  H   H425      1.0  0.40978  0.94794  0.45493  1.0000
  H   H426      1.0  0.63716  0.90895  0.02278  1.0000
  H   H427      1.0  0.33733  0.81110  0.09392  1.0000
  H   H428      1.0  0.32645  0.88117  0.08848  1.0000
  N   N14       1.0  0.64996  0.97746  0.03026  1.0000
  C   C249      1.0  0.32506  0.79821  0.11765  1.0000
  H   H429      1.0  0.33479  0.87149  0.21459  1.0000
  H   H430      1.0  0.48150  0.96102  0.48428  1.0000
  C   C250      1.0  0.50034  0.98485  0.48188  1.0000
  H   H431      1.0  0.46456  0.49260  0.02785  1.0000
  S   S60       1.0  0.42460  0.79673  0.00146  1.0000
  H   H432      1.0  0.45247  0.59451  0.01968  1.0000
  C   C251      1.0  0.50592  0.79853  0.95316  1.0000
  C   C252      1.0  0.54258  0.49748  0.54979  1.0000
  H   H433      1.0  0.45158  0.51463  0.66402  1.0000
  Fe  Fe31      1.0  0.38777  0.76048  0.97219  1.0000
  S   S61       1.0  0.38767  0.69679  0.93893  1.0000
  S   S62       1.0  0.36982  0.82276  0.94773  1.0000
  H   H434      1.0  0.48872  0.75489  0.85142  1.0000
  S   S63       1.0  0.48211  0.53314  0.75637  1.0000
  C   C253      1.0  0.50239  0.51288  0.59564  1.0000
  Fe  Fe32      1.0  0.48543  0.53164  0.81701  1.0000
  S   S64       1.0  0.48811  0.59070  0.85572  1.0000
  H   H435      1.0  0.42136  0.53794  0.99153  1.0000
  H   H436      1.0  0.51068  0.79177  0.89618  1.0000
  H   H437      1.0  0.62111  0.97790  0.92390  1.0000
  Fe  Fe33      1.0  0.57847  0.64221  0.54332  1.0000
  S   S65       1.0  0.56295  0.65009  0.60122  1.0000
  S   S66       1.0  0.59964  0.58003  0.52464  1.0000
  C   C254      1.0  0.39191  0.74425  0.84500  1.0000
  H   H438      1.0  0.49860  0.79342  0.77556  1.0000
  C   C255      1.0  0.55714  0.53473  0.68218  1.0000
  C   C256      1.0  0.57260  0.52989  0.64964  1.0000
  C   C257      1.0  0.57406  0.56465  0.62437  1.0000
  C   C258      1.0  0.56067  0.60497  0.63173  1.0000
  C   C259      1.0  0.54558  0.60999  0.66450  1.0000
  C   C260      1.0  0.54366  0.57499  0.68951  1.0000
  C   C261      1.0  0.43717  0.87163  0.86808  1.0000
  H   H439      1.0  0.58566  0.56034  0.59933  1.0000
  H   H440      1.0  0.53534  0.64115  0.67063  1.0000
  H   H441      1.0  0.53224  0.57945  0.71479  1.0000
  C   C262      1.0  0.41593  0.66841  0.91546  1.0000
  C   C263      1.0  0.44599  0.67872  0.92018  1.0000
  C   C264      1.0  0.46772  0.65487  0.90143  1.0000
  C   C265      1.0  0.45967  0.62028  0.87787  1.0000
  C   C266      1.0  0.42958  0.60995  0.87316  1.0000
  C   C267      1.0  0.40788  0.63382  0.89193  1.0000
  H   H442      1.0  0.45242  0.70417  0.93912  1.0000
  H   H443      1.0  0.49095  0.66287  0.90552  1.0000
  H   H444      1.0  0.42306  0.58373  0.85492  1.0000
  H   H445      1.0  0.38466  0.62550  0.88811  1.0000
  H   H446      1.0  0.41370  0.51279  0.62774  1.0000
  S   S67       1.0  0.61103  0.68782  0.51439  1.0000
  C   C268      1.0  0.64877  0.68159  0.60553  1.0000
  N   N15       1.0  0.45404  0.82909  0.87215  1.0000
  H   H447      1.0  0.45738  0.63764  0.67164  1.0000
  H   H448      1.0  0.48193  0.59929  0.69296  1.0000
  C   C269      1.0  0.46238  0.94540  0.96730  1.0000
  H   H449      1.0  0.48360  0.59331  0.62601  1.0000
  H   H450      1.0  0.44400  0.58374  0.62528  1.0000
  C   C270      1.0  0.49211  0.79330  0.91571  1.0000
  C   C271      1.0  0.46418  0.53423  0.96210  1.0000
  H   H451      1.0  0.39036  0.81445  0.85071  1.0000
  H   H452      1.0  0.49522  0.84179  0.84391  1.0000
  H   H453      1.0  0.44242  0.58808  0.69220  1.0000
  C   C272      1.0  0.50975  0.49016  0.91353  1.0000
  H   H454      1.0  0.37951  0.73857  0.87041  1.0000
  C   C273      1.0  0.43689  0.95451  0.85709  1.0000
  H   H455      1.0  0.42100  0.87515  0.89058  1.0000
  H   H456      1.0  0.48311  0.88579  0.98527  1.0000
  H   H457      1.0  0.37579  0.74316  0.82234  1.0000
  C   C274      1.0  0.48124  0.77529  0.82850  1.0000
  H   H458      1.0  0.41738  0.79566  0.81899  1.0000
  C   C275      1.0  0.45613  0.91487  0.86618  1.0000
  H   H459      1.0  0.39786  0.56414  0.58021  1.0000
  H   H460      1.0  0.45121  0.54425  0.57486  1.0000
  C   C276      1.0  0.46973  0.52804  0.64666  1.0000
  C   C277      1.0  0.48633  0.92049  0.97946  1.0000
  H   H461      1.0  0.54046  0.53145  0.53886  1.0000
  H   H462      1.0  0.53009  0.93701  0.50531  1.0000
  H   H463      1.0  0.63015  0.61687  0.59839  1.0000
  H   H464      1.0  0.46675  0.92233  0.89248  1.0000
  H   H465      1.0  0.48839  0.79936  0.97411  1.0000
  H   H466      1.0  0.42653  0.95055  0.83008  1.0000
  H   H467      1.0  0.46138  0.75853  0.81687  1.0000
  H   H468      1.0  0.42369  0.87106  0.84295  1.0000
  C   C278      1.0  0.46141  0.60209  0.67665  1.0000
  H   H469      1.0  0.48990  0.52523  0.66389  1.0000
  H   H470      1.0  0.48747  0.86146  0.90553  1.0000
  H   H471      1.0  0.50967  0.73998  0.79172  1.0000
  H   H472      1.0  0.44230  0.75950  0.87814  1.0000
  H   H473      1.0  0.37138  0.51945  0.58602  1.0000
  H   H474      1.0  0.51951  0.82938  0.95468  1.0000
  C   C279      1.0  0.47201  0.83264  0.90648  1.0000
  H   H475      1.0  0.45698  0.83852  0.92978  1.0000
  H   H476      1.0  0.46384  0.83877  0.81536  1.0000
  H   H477      1.0  0.47369  0.91257  0.84542  1.0000
  H   H478      1.0  0.52651  0.78907  0.81062  1.0000
  C   C280      1.0  0.44265  0.60124  0.99279  1.0000
  H   H479      1.0  0.45850  0.62179  0.97695  1.0000
  C   C281      1.0  0.43148  0.79201  0.87616  1.0000
  H   H480      1.0  0.47969  0.76165  0.91536  1.0000
  C   C282      1.0  0.46465  0.57803  0.64076  1.0000
  C   C283      1.0  0.51474  0.94032  0.98305  1.0000
  H   H481      1.0  0.52046  0.77009  0.95890  1.0000
  S   S68       1.0  0.42683  0.92148  0.95850  1.0000
  H   H482      1.0  0.41925  0.95834  0.87768  1.0000
  H   H483      1.0  0.63386  0.55930  0.65014  1.0000
  H   H484      1.0  0.56023  0.49705  0.57064  1.0000
  H   H485      1.0  0.40810  0.71736  0.84117  1.0000
  C   C284      1.0  0.47390  0.82341  0.83972  1.0000
  Fe  Fe34      1.0  0.33991  0.82611  0.99609  1.0000
  H   H486      1.0  0.62687  0.69437  0.61395  1.0000
  H   H487      1.0  0.41942  0.79505  0.90218  1.0000
  C   C285      1.0  0.50550  0.77464  0.79984  1.0000
  C   C286      1.0  0.40760  0.78927  0.84592  1.0000
  H   H488      1.0  0.63005  0.51752  0.70659  1.0000
  H   H489      1.0  0.48080  0.53779  0.98417  1.0000
  H   H490      1.0  0.61667  0.96512  0.98901  1.0000
  H   H491      1.0  0.39609  0.51950  0.54804  1.0000
  C   C287      1.0  0.64964  0.63182  0.61221  1.0000
  H   H492      1.0  0.50165  0.54664  0.58377  1.0000
  C   C288      1.0  0.43547  0.55798  0.97324  1.0000
  Fe  Fe35      1.0  0.40419  0.85931  0.98094  1.0000
  H   H493      1.0  0.64296  0.50286  0.64388  1.0000
  C   C289      1.0  0.65229  0.52806  0.69654  1.0000
  H   H494      1.0  0.46513  0.73115  0.52094  1.0000
  C   C290      1.0  0.41666  0.50255  0.59941  1.0000
  C   C291      1.0  0.65092  0.53449  0.65574  1.0000
  C   C292      1.0  0.51939  0.98540  0.97525  1.0000
  H   H495      1.0  0.63662  0.54675  0.58891  1.0000
  C   C293      1.0  0.47907  0.70891  0.50460  1.0000
  H   H496      1.0  0.42255  0.56639  0.94872  1.0000
  H   H497      1.0  0.51338  0.52602  0.91791  1.0000
  H   H498      1.0  0.47341  0.55442  0.93957  1.0000
  C   C294      1.0  0.44883  0.51015  0.58582  1.0000
  H   H499      1.0  0.65193  0.68914  0.57651  1.0000
  H   H500      1.0  0.47635  0.67474  0.51516  1.0000
  C   C295      1.0  0.39421  0.52804  0.57694  1.0000
  H   H501      1.0  0.50259  0.71976  0.50769  1.0000
  H   H502      1.0  0.64762  0.62709  0.64173  1.0000
  H   H503      1.0  0.53323  0.92060  0.99177  1.0000
  H   H504      1.0  0.45082  0.98508  0.85700  1.0000
  H   H505      1.0  0.51378  0.97364  0.53770  1.0000
  C   C296      1.0  0.52327  0.97159  0.51016  1.0000
  H   H506      1.0  0.40025  0.51139  0.86810  1.0000
  H   H507      1.0  0.58308  0.49886  0.64372  1.0000
  H   H508      1.0  0.52018  0.51511  0.61623  1.0000
  N   N16       1.0  0.47304  0.50089  0.61282  1.0000
  H   H509      1.0  0.44900  0.51083  0.89794  1.0000
  S   S69       1.0  0.55561  0.49010  0.71311  1.0000
  H   H510      1.0  0.39977  0.50326  0.93592  1.0000
  H   H511      1.0  0.42200  0.62027  0.99654  1.0000
  S   S70       1.0  0.54454  0.64379  0.49870  1.0000
  S   S71       1.0  0.86618  0.17701  0.02876  1.0000
  S   S72       1.0  0.92719  0.11917  0.02496  1.0000
  Fe  Fe36      1.0  0.88921  0.12618  0.06299  1.0000
  S   S73       1.0  0.90354  0.13999  0.12062  1.0000
  S   S74       1.0  0.86317  0.06882  0.04014  1.0000
  H   H512      1.0  0.91282  0.21904  0.40656  1.0000
  H   H513      1.0  0.88238  0.30047  0.09736  1.0000
  S   S75       1.0  0.66602  0.13708  0.05020  1.0000
  C   C297      1.0  0.90675  0.09590  0.15173  1.0000
  C   C298      1.0  0.89343  0.05466  0.14522  1.0000
  C   C299      1.0  0.89431  0.02141  0.17175  1.0000
  C   C300      1.0  0.90911  0.02867  0.20463  1.0000
  C   C301      1.0  0.92350  0.06930  0.21054  1.0000
  C   C302      1.0  0.92204  0.10291  0.18433  1.0000
  H   H514      1.0  0.88157  0.04891  0.12026  1.0000
  H   H515      1.0  0.67021  0.25085  0.24711  1.0000
  H   H516      1.0  0.93490  0.07528  0.23579  1.0000
  H   H517      1.0  0.93241  0.13468  0.18958  1.0000
  C   C303      1.0  0.93452  0.20227  0.40582  1.0000
  H   H518      1.0  0.95747  0.15817  0.36907  1.0000
  H   H519      1.0  0.85749  0.29823  0.04568  1.0000
  H   H520      1.0  0.92909  0.30295  0.40007  1.0000
  N   N17       1.0  0.92135  0.30181  0.06346  1.0000
  H   H521      1.0  0.91780  0.15086  0.37005  1.0000
  H   H522      1.0  0.91151  0.28462  0.44000  1.0000
  C   C304      1.0  0.90414  0.28391  0.09519  1.0000
  H   H523      1.0  0.89856  0.37278  0.41026  1.0000
  H   H524      1.0  0.87908  0.27574  0.16333  1.0000
  H   H525      1.0  0.97975  0.32856  0.38723  1.0000
  C   C305      1.0  0.96067  0.23599  0.40874  1.0000
  C   C306      1.0  0.98169  0.21066  0.05499  1.0000
  H   H526      1.0  0.89848  0.24826  0.09118  1.0000
  H   H527      1.0  0.95160  0.36740  0.42941  1.0000
  C   C307      1.0  0.92614  0.35084  0.06824  1.0000
  C   C308      1.0  0.95381  0.24632  0.47333  1.0000
  C   C309      1.0  0.90412  0.29206  0.02946  1.0000
  H   H528      1.0  0.87425  0.34949  0.03080  1.0000
  H   H529      1.0  0.69105  0.00761  0.01032  1.0000
  H   H530      1.0  0.71685  0.05921  0.07710  1.0000
  H   H531      1.0  0.98737  0.32239  0.45937  1.0000
  N   N18       1.0  0.95839  0.27042  0.43807  1.0000
  H   H532      1.0  0.97199  0.22234  0.47746  1.0000
  S   S76       1.0  0.94375  0.00750  0.33808  1.0000
  H   H533      1.0  0.97139  0.99516  0.14525  1.0000
  C   C310      1.0  0.67707  0.21602  0.24369  1.0000
  C   C311      1.0  0.87319  0.31340  0.02609  1.0000
  H   H534      1.0  0.94006  0.34918  0.47300  1.0000
  H   H535      1.0  0.69677  0.26227  0.00778  1.0000
  H   H536      1.0  0.98135  0.17438  0.05900  1.0000
  H   H537      1.0  0.94166  0.35728  0.09108  1.0000
  H   H538      1.0  0.93389  0.19784  0.34705  1.0000
  H   H539      1.0  0.77518  0.14650  0.05192  1.0000
  C   C312      1.0  0.95126  0.28024  0.06037  1.0000
  H   H540      1.0  0.92321  0.37509  0.01214  1.0000
  H   H541      1.0  0.91322  0.27031  0.18832  1.0000
  H   H542      1.0  0.69377  0.21424  0.22178  1.0000
  H   H543      1.0  0.65838  0.15218  0.23276  1.0000
  C   C313      1.0  0.95147  0.22926  0.06491  1.0000
  C   C314      1.0  0.93906  0.37584  0.03508  1.0000
  H   H544      1.0  0.90513  0.36701  0.07614  1.0000
  C   C315      1.0  0.90241  0.26461  0.16177  1.0000
  C   C316      1.0  0.93436  0.34805  0.44410  1.0000
  H   H545      1.0  0.96335  0.10622  0.09088  1.0000
  H   H546      1.0  0.88315  0.99010  0.16698  1.0000
  H   H547      1.0  0.90029  0.25607  0.02661  1.0000
  C   C317      1.0  0.93246  0.29993  0.42973  1.0000
  H   H548      1.0  0.88713  0.35524  0.45496  1.0000
  H   H549      1.0  0.97196  0.04959  0.08177  1.0000
  C   C318      1.0  0.93610  0.17581  0.37083  1.0000
  C   C319      1.0  0.75581  0.13801  0.03595  1.0000
  H   H550      1.0  0.90736  0.40640  0.44897  1.0000
  H   H551      1.0  0.93455  0.21299  0.04766  1.0000
  C   C320      1.0  0.94542  0.42432  0.04392  1.0000
  H   H552      1.0  0.72464  0.15592  0.07735  1.0000
  C   C321      1.0  0.72708  0.14351  0.05022  1.0000
  C   C322      1.0  0.90499  0.37185  0.43917  1.0000
  H   H553      1.0  0.96729  0.29428  0.08028  1.0000
  C   C323      1.0  0.91931  0.28995  0.13248  1.0000
  H   H554      1.0  0.96278  0.25205  0.38186  1.0000
  C   C324      1.0  0.70160  0.13238  0.02995  1.0000
  H   H555      1.0  0.93549  0.17809  0.42833  1.0000
  C   C325      1.0  0.75940  0.12142  0.00109  1.0000
  H   H556      1.0  0.90251  0.22859  0.15616  1.0000
  C   C326      1.0  0.97848  0.01707  0.00143  1.0000
  H   H557      1.0  0.94246  0.27818  0.13252  1.0000
  C   C327      1.0  0.72472  0.02630  0.06873  1.0000
  H   H558      1.0  0.91971  0.32538  0.14014  1.0000
  H   H559      1.0  0.97178  0.01511  0.19109  1.0000
  H   H560      1.0  0.65848  0.29190  0.04736  1.0000
  H   H561      1.0  0.94676  0.21954  0.09319  1.0000
  H   H562      1.0  0.96013  0.36101  0.02609  1.0000
  H   H563      1.0  0.97716  0.06873  0.14639  1.0000
  C   C328      1.0  0.65656  0.07893  0.13977  1.0000
  H   H564      1.0  0.68764  0.20494  0.26916  1.0000
  H   H565      1.0  0.95425  0.44145  0.01961  1.0000
  H   H566      1.0  0.96123  0.28764  0.03354  1.0000
  H   H567      1.0  0.66640  0.14571  0.15549  1.0000
  H   H568      1.0  0.96222  0.42727  0.06577  1.0000
  H   H569      1.0  0.93298  0.22627  0.47277  1.0000
  H   H570      1.0  0.98673  0.21737  0.02617  1.0000
  H   H571      1.0  0.92477  0.44097  0.05232  1.0000
  H   H572      1.0  0.67389  0.07923  0.11855  1.0000
  C   C329      1.0  0.95228  0.47548  0.49551  1.0000
  H   H573      1.0  0.67044  0.04147  0.03910  1.0000
  Fe  Fe37      1.0  0.84294  0.11871  0.00248  1.0000
  H   H574      1.0  0.97158  0.05012  0.00782  1.0000
  H   H575      1.0  0.98121  0.21655  0.41230  1.0000
  H   H576      1.0  0.73648  0.02942  0.04252  1.0000
  C   C330      1.0  0.67722  0.00662  0.03495  1.0000
  H   H577      1.0  0.66603  0.06415  0.16459  1.0000
  Fe  Fe38      1.0  0.90037  0.06504  0.99981  1.0000
  H   H578      1.0  0.91735  0.30151  0.00533  1.0000
  C   C331      1.0  0.98154  0.08196  0.09027  1.0000
  H   H579      1.0  0.74076  0.01470  0.08931  1.0000
  C   C332      1.0  0.69855  0.99382  0.06607  1.0000
  H   H580      1.0  0.68727  0.99401  0.09254  1.0000
  H   H581      1.0  0.78879  0.20029  0.91733  1.0000
  H   H582      1.0  0.73638  0.09773  0.95380  1.0000
  C   C333      1.0  0.67945  0.27158  0.91299  1.0000
  H   H583      1.0  0.69325  0.18487  0.89018  1.0000
  C   C334      1.0  0.86026  0.30600  0.98840  1.0000
  S   S77       1.0  0.93463  0.22085  0.96871  1.0000
  S   S78       1.0  0.87874  0.11095  0.96011  1.0000
  H   H584      1.0  0.67350  0.30063  0.98431  1.0000
  H   H585      1.0  0.68587  0.10739  0.97922  1.0000
  H   H586      1.0  0.95319  0.24777  0.83853  1.0000
  H   H587      1.0  0.89538  0.45601  0.62615  1.0000
  H   H588      1.0  0.96875  0.30072  0.50942  1.0000
  C   C335      1.0  0.89558  0.48494  0.60773  1.0000
  Fe  Fe39      1.0  0.90298  0.16626  0.98878  1.0000
  H   H589      1.0  0.66953  0.47378  0.59750  1.0000
  C   C336      1.0  0.92926  0.26412  0.93722  1.0000
  C   C337      1.0  0.90481  0.26490  0.91402  1.0000
  C   C338      1.0  0.90217  0.29915  0.88850  1.0000
  C   C339      1.0  0.92376  0.33305  0.88605  1.0000
  C   C340      1.0  0.94793  0.33272  0.90974  1.0000
  C   C341      1.0  0.95071  0.29826  0.93506  1.0000
  H   H590      1.0  0.88821  0.23879  0.91533  1.0000
  C   C342      1.0  0.74116  0.20890  0.92137  1.0000
  C   C343      1.0  0.97949  0.31535  0.79811  1.0000
  C   C344      1.0  0.95368  0.24670  0.54170  1.0000
  H   H591      1.0  0.95317  0.25960  0.77431  1.0000
  H   H592      1.0  0.87433  0.32273  0.96779  1.0000
  H   H593      1.0  0.83762  0.31983  0.98685  1.0000
  H   H594      1.0  0.69183  0.24604  0.85921  1.0000
  H   H595      1.0  0.65635  0.13947  0.85531  1.0000
  C   C345      1.0  0.95124  0.27495  0.50768  1.0000
  H   H596      1.0  0.88338  0.29920  0.87031  1.0000
  H   H597      1.0  0.68623  0.30161  0.92822  1.0000
  S   S79       1.0  0.96109  0.44144  0.77954  1.0000
  Fe  Fe40      1.0  0.95127  0.43144  0.83844  1.0000
  S   S80       1.0  0.91970  0.37439  0.85258  1.0000
  H   H598      1.0  0.94529  0.48031  0.64486  1.0000
  C   C346      1.0  0.71808  0.23008  0.94681  1.0000
  H   H599      1.0  0.68470  0.34601  0.86952  1.0000
  H   H600      1.0  0.93182  0.30260  0.79301  1.0000
  H   H601      1.0  0.96460  0.35872  0.90828  1.0000
  C   C347      1.0  0.70518  0.11615  0.99505  1.0000
  C   C348      1.0  0.95225  0.29596  0.77724  1.0000
  N   N19       1.0  0.68601  0.23051  0.93449  1.0000
  H   H602      1.0  0.97118  0.32443  0.82512  1.0000
  H   H603      1.0  0.67980  0.48478  0.55160  1.0000
  H   H604      1.0  0.96974  0.29786  0.95286  1.0000
  H   H605      1.0  0.92926  0.29100  0.50819  1.0000
  H   H606      1.0  0.71874  0.28327  0.87968  1.0000
  C   C349      1.0  0.98724  0.41484  0.50214  1.0000
  H   H607      1.0  0.73926  0.22056  0.89325  1.0000
  C   C350      1.0  0.66663  0.23096  0.96776  1.0000
  S   S81       1.0  0.79492  0.11437  0.98115  1.0000
  H   H608      1.0  0.94070  0.41095  0.51585  1.0000
  C   C351      1.0  0.94809  0.31695  0.74007  1.0000
  H   H609      1.0  0.92805  0.30246  0.72693  1.0000
  H   H610      1.0  0.94486  0.35308  0.74268  1.0000
  H   H611      1.0  0.95661  0.20029  0.89127  1.0000
  C   C352      1.0  0.68197  0.31457  0.85441  1.0000
  C   C353      1.0  0.69474  0.27609  0.87587  1.0000
  S   S82       1.0  0.91921  0.99775  0.98612  1.0000
  H   H612      1.0  0.69381  0.31794  0.82831  1.0000
  C   C354      1.0  0.73386  0.11067  0.98076  1.0000
  H   H613      1.0  0.97579  0.23097  0.54309  1.0000
  H   H614      1.0  0.95120  0.26785  0.56590  1.0000
  H   H615      1.0  0.93608  0.22064  0.54214  1.0000
  C   C355      1.0  0.67850  0.18896  0.91374  1.0000
  H   H616      1.0  0.68258  0.15959  0.93099  1.0000
  H   H617      1.0  0.85882  0.27016  0.98211  1.0000
  H   H618      1.0  0.97726  0.43584  0.61450  1.0000
  C   C356      1.0  0.95839  0.43175  0.50539  1.0000
  H   H619      1.0  0.98607  0.34778  0.78602  1.0000
  H   H620      1.0  0.93359  0.46342  0.57795  1.0000
  H   H621      1.0  0.65802  0.30865  0.84870  1.0000
  H   H622      1.0  0.96743  0.31098  0.72249  1.0000
  H   H623      1.0  0.88001  0.47814  0.58508  1.0000
  H   H624      1.0  0.73800  0.17245  0.92121  1.0000
  C   C357      1.0  0.97560  0.24345  0.85033  1.0000
  H   H625      1.0  0.97120  0.17160  0.85301  1.0000
  C   C358      1.0  0.97497  0.20004  0.87139  1.0000
  H   H626      1.0  0.65757  0.04361  0.96998  1.0000
  C   C359      1.0  0.77284  0.21864  0.93423  1.0000
  H   H627      1.0  0.65504  0.27482  0.90903  1.0000
  H   H628      1.0  0.77810  0.25447  0.93209  1.0000
  H   H629      1.0  0.72589  0.26422  0.95331  1.0000
  H   H630      1.0  0.98584  0.45748  0.57147  1.0000
  H   H631      1.0  0.97941  0.27054  0.86967  1.0000
  H   H632      1.0  0.77579  0.20788  0.96264  1.0000
  H   H633      1.0  0.72014  0.21091  0.97241  1.0000
  H   H634      1.0  0.66739  0.19844  0.98185  1.0000
  C   C360      1.0  0.67433  0.26711  0.99620  1.0000
  S   S83       1.0  0.96059  0.91535  0.29490  1.0000
  Fe  Fe41      1.0  0.96384  0.94135  0.35152  1.0000
  H   H635      1.0  0.97854  0.75595  0.36075  1.0000
  H   H636      1.0  0.96593  0.79340  0.04339  1.0000
  S   S84       1.0  0.87389  0.60833  0.47154  1.0000
  S   S85       1.0  0.91570  0.70177  0.42461  1.0000
  C   C361      1.0  0.85799  0.87662  0.40608  1.0000
  C   C362      1.0  0.93668  0.85411  0.11498  1.0000
  C   C363      1.0  0.92053  0.91083  0.07049  1.0000
  H   H637      1.0  0.95182  0.81694  0.23880  1.0000
  C   C364      1.0  0.90590  0.84451  0.13160  1.0000
  H   H638      1.0  0.94696  0.87986  0.13217  1.0000
  H   H639      1.0  0.87317  0.82661  0.44220  1.0000
  C   C365      1.0  0.79000  0.76702  0.46461  1.0000
  H   H640      1.0  0.92564  0.84538  0.02295  1.0000
  H   H641      1.0  0.88080  0.88438  0.39647  1.0000
  C   C366      1.0  0.94246  0.78858  0.05165  1.0000
  H   H642      1.0  0.92345  0.93287  0.09431  1.0000
  H   H643      1.0  0.90507  0.74804  0.03291  1.0000
  C   C367      1.0  0.94196  0.84818  0.40920  1.0000
  C   C368      1.0  0.93110  0.82293  0.38046  1.0000
  C   C369      1.0  0.92289  0.77832  0.38579  1.0000
  C   C370      1.0  0.92510  0.75857  0.42000  1.0000
  C   C371      1.0  0.93518  0.78412  0.44902  1.0000
  C   C372      1.0  0.94357  0.82870  0.44359  1.0000
  H   H644      1.0  0.92838  0.83822  0.35439  1.0000
  C   C373      1.0  0.82476  0.81696  0.43339  1.0000
  H   H645      1.0  0.93691  0.76941  0.47553  1.0000
  H   H646      1.0  0.87224  0.96121  0.09524  1.0000
  H   H647      1.0  0.96880  0.94140  0.21507  1.0000
  H   H648      1.0  0.66683  0.91710  0.05325  1.0000
  H   H649      1.0  0.85310  0.73805  0.41812  1.0000
  H   H650      1.0  0.72943  0.77534  0.47378  1.0000
  H   H651      1.0  0.94447  0.75810  0.24144  1.0000
  C   C374      1.0  0.82886  0.73729  0.42398  1.0000
  C   C375      1.0  0.82103  0.68916  0.43507  1.0000
  C   C376      1.0  0.76543  0.76655  0.43520  1.0000
  H   H652      1.0  0.81677  0.84348  0.45151  1.0000
  H   H653      1.0  0.78437  0.79435  0.48319  1.0000
  H   H654      1.0  0.91455  0.75902  0.36336  1.0000
  C   C377      1.0  0.82967  0.65677  0.40551  1.0000
  C   C378      1.0  0.97542  0.50222  0.48238  1.0000
  H   H655      1.0  0.88405  0.89666  0.03295  1.0000
  C   C379      1.0  0.65757  0.92928  0.02729  1.0000
  N   N20       1.0  0.82143  0.77240  0.45118  1.0000
  H   H656      1.0  0.90200  0.82456  0.05728  1.0000
  C   C380      1.0  0.96549  0.94559  0.18565  1.0000
  H   H657      1.0  0.95157  0.84813  0.46615  1.0000
  H   H658      1.0  0.98555  0.81982  0.17388  1.0000
  H   H659      1.0  0.81806  0.74404  0.39758  1.0000
  C   C381      1.0  0.85652  0.82927  0.42031  1.0000
  H   H660      1.0  0.79692  0.68444  0.43988  1.0000
  H   H661      1.0  0.85256  0.90035  0.42779  1.0000
  H   H662      1.0  0.95084  0.82479  0.11927  1.0000
  H   H663      1.0  0.77016  0.74299  0.41323  1.0000
  H   H664      1.0  0.97748  0.94832  0.06239  1.0000
  H   H665      1.0  0.71789  0.75532  0.43011  1.0000
  N   N21       1.0  0.93735  0.86844  0.07604  1.0000
  C   C382      1.0  0.88690  0.90672  0.06158  1.0000
  H   H666      1.0  0.94132  0.94553  0.17991  1.0000
  H   H667      1.0  0.92060  0.85194  0.18736  1.0000
  H   H668      1.0  0.94196  0.77329  0.07883  1.0000
  H   H669      1.0  0.82381  0.62260  0.41409  1.0000
  H   H670      1.0  0.81758  0.66402  0.38013  1.0000
  H   H671      1.0  0.85395  0.65866  0.40048  1.0000
  H   H672      1.0  0.70206  0.86514  0.02609  1.0000
  H   H673      1.0  0.98347  0.84936  0.07634  1.0000
  H   H674      1.0  0.78762  0.73659  0.48137  1.0000
  C   C383      1.0  0.73537  0.75322  0.45116  1.0000
  H   H675      1.0  0.89312  0.87546  0.13326  1.0000
  C   C384      1.0  0.90896  0.82714  0.17013  1.0000
  H   H676      1.0  0.89331  0.81948  0.11578  1.0000
  C   C385      1.0  0.92550  0.83283  0.05126  1.0000
  H   H677      1.0  0.98556  0.71077  0.41554  1.0000
  H   H678      1.0  0.91880  0.79655  0.26070  1.0000
  C   C386      1.0  0.87155  0.95090  0.06653  1.0000
  H   H679      1.0  0.81028  0.81877  0.40913  1.0000
  H   H680      1.0  0.94104  0.72428  0.02611  1.0000
  H   H681      1.0  0.98429  0.71490  0.32753  1.0000
  H   H682      1.0  0.76321  0.79994  0.42322  1.0000
  C   C387      1.0  0.98359  0.92064  0.08045  1.0000
  H   H683      1.0  0.88660  0.82070  0.18169  1.0000
  C   C388      1.0  0.92845  0.75551  0.02537  1.0000
  S   S86       1.0  0.95270  0.90443  0.40372  1.0000
  C   C389      1.0  0.94265  0.79000  0.25593  1.0000
  H   H684      1.0  0.87510  0.88203  0.07839  1.0000
  H   H685      1.0  0.92989  0.92970  0.04721  1.0000
  H   H686      1.0  0.92149  0.79583  0.17052  1.0000
  S   S87       1.0  0.67832  0.60180  0.48510  1.0000
  H   H687      1.0  0.94811  0.76220  0.30849  1.0000
  H   H688      1.0  0.86315  0.80716  0.39804  1.0000
  H   H689      1.0  0.88262  0.97672  0.04989  1.0000
  H   H690      1.0  0.97598  0.92911  0.10776  1.0000
  C   C390      1.0  0.73912  0.59652  0.48625  1.0000
  C   C391      1.0  0.95904  0.78826  0.29200  1.0000
  H   H691      1.0  0.95598  0.82039  0.30535  1.0000
  Fe  Fe42      1.0  0.90847  0.66262  0.47674  1.0000
  C   C392      1.0  0.96948  0.87681  0.06639  1.0000
  H   H692      1.0  0.97096  0.53574  0.47417  1.0000
  H   H693      1.0  0.73567  0.56748  0.46973  1.0000
  H   H694      1.0  0.84239  0.88086  0.38316  1.0000
  H   H695      1.0  0.83298  0.68018  0.46007  1.0000
  H   H696      1.0  0.97541  0.91734  0.17156  1.0000
  H   H697      1.0  0.70777  0.96056  0.06143  1.0000
  C   C393      1.0  0.84220  0.76807  0.48293  1.0000
  H   H698      1.0  0.86552  0.76385  0.47380  1.0000
  H   H699      1.0  0.97245  0.87692  0.03662  1.0000
  H   H700      1.0  0.73591  0.71860  0.46102  1.0000
  H   H701      1.0  0.84801  0.94803  0.05786  1.0000
  H   H702      1.0  0.98073  0.66585  0.38393  1.0000
  Fe  Fe43      1.0  0.94436  0.98333  0.28060  1.0000
  S   S88       1.0  0.90821  0.98688  0.23807  1.0000
  H   H703      1.0  0.78684  0.58926  0.48840  1.0000
  C   C394      1.0  0.68924  0.86910  0.00070  1.0000
  H   H704      1.0  0.66994  0.84583  0.00081  1.0000
  H   H705      1.0  0.84929  0.83804  0.49803  1.0000
  S   S89       1.0  0.91531  0.49466  0.49859  1.0000
  C   C395      1.0  0.97966  0.98891  0.17296  1.0000
  C   C396      1.0  0.71447  0.62106  0.49725  1.0000
  H   H706      1.0  0.83683  0.73738  0.49821  1.0000
  C   C397      1.0  0.76818  0.60877  0.49678  1.0000
  Fe  Fe44      1.0  0.91739  0.64208  0.55746  1.0000
  S   S90       1.0  0.88241  0.58887  0.55741  1.0000
  S   S91       1.0  0.94552  0.65682  0.60701  1.0000
  C   C398      1.0  0.66257  0.49063  0.57238  1.0000
  S   S92       1.0  0.88910  0.69021  0.52725  1.0000
  C   C399      1.0  0.68174  0.54793  0.64006  1.0000
  S   S93       1.0  0.92005  0.54883  0.75132  1.0000
  H   H707      1.0  0.88079  0.70263  0.83005  1.0000
  C   C400      1.0  0.93785  0.62834  0.64769  1.0000
  C   C401      1.0  0.90999  0.60911  0.65434  1.0000
  C   C402      1.0  0.90494  0.58514  0.68633  1.0000
  C   C403      1.0  0.92784  0.57914  0.71152  1.0000
  C   C404      1.0  0.95567  0.59850  0.70494  1.0000
  C   C405      1.0  0.96039  0.62393  0.67359  1.0000
  H   H708      1.0  0.89228  0.61290  0.63495  1.0000
  H   H709      1.0  0.88325  0.57066  0.69132  1.0000
  H   H710      1.0  0.97358  0.59382  0.72385  1.0000
  H   H711      1.0  0.97951  0.62475  0.84594  1.0000
  C   C406      1.0  0.92925  0.70624  0.83122  1.0000
  N   N22       1.0  0.93873  0.66140  0.84436  1.0000
  S   S94       1.0  0.80869  0.66085  0.53523  1.0000
  C   C407      1.0  0.71929  0.65859  0.51852  1.0000
  H   H712      1.0  0.66847  0.50218  0.70371  1.0000
  H   H713      1.0  0.92836  0.70703  0.80129  1.0000
  Fe  Fe45      1.0  0.98628  0.51588  0.85991  1.0000
  H   H714      1.0  0.95516  0.65388  0.95599  1.0000
  H   H715      1.0  0.87781  0.63837  0.85568  1.0000
  H   H716      1.0  0.88353  0.54946  0.81688  1.0000
  S   S95       1.0  0.94048  0.61950  0.50707  1.0000
  H   H717      1.0  0.66720  0.91875  0.97028  1.0000
  H   H718      1.0  0.92768  0.69666  0.95327  1.0000
  H   H719      1.0  0.98039  0.68772  0.90170  1.0000
  C   C408      1.0  0.89395  0.77045  0.83327  1.0000
  C   C409      1.0  0.97625  0.65089  0.79204  1.0000
  H   H720      1.0  0.70383  0.86050  0.97775  1.0000
  H   H721      1.0  0.68177  0.62297  0.56987  1.0000
  C   C410      1.0  0.77290  0.64546  0.51896  1.0000
  C   C411      1.0  0.86276  0.79770  0.54218  1.0000
  H   H722      1.0  0.89587  0.77484  0.80362  1.0000
  H   H723      1.0  0.69159  0.57393  0.65781  1.0000
  C   C412      1.0  0.96693  0.94303  0.98114  1.0000
  H   H724      1.0  0.70065  0.67818  0.52680  1.0000
  C   C413      1.0  0.89852  0.72216  0.84369  1.0000
  H   H725      1.0  0.69676  0.62999  0.61401  1.0000
  H   H726      1.0  0.75175  0.69909  0.54648  1.0000
  H   H727      1.0  0.91477  0.65957  0.89521  1.0000
  H   H728      1.0  0.93318  0.59434  0.82471  1.0000
  C   C414      1.0  0.92009  0.62507  0.82715  1.0000
  H   H729      1.0  0.87147  0.78083  0.84163  1.0000
  H   H730      1.0  0.86563  0.59736  0.79813  1.0000
  H   H731      1.0  0.85116  0.57122  0.83826  1.0000
  H   H732      1.0  0.98193  0.63901  0.66876  1.0000
  H   H733      1.0  0.96643  0.67825  0.77649  1.0000
  C   C415      1.0  0.89133  0.61021  0.84711  1.0000
  H   H734      1.0  0.74042  0.61134  0.59214  1.0000
  Fe  Fe46      1.0  0.85522  0.63489  0.52320  1.0000
  H   H735      1.0  0.78784  0.57565  0.59949  1.0000
  H   H736      1.0  0.94617  0.73188  0.83854  1.0000
  H   H737      1.0  0.91421  0.63402  0.79888  1.0000
  H   H738      1.0  0.94214  0.53731  0.63472  1.0000
  C   C416      1.0  0.74832  0.67048  0.52948  1.0000
  H   H739      1.0  0.86260  0.82609  0.56107  1.0000
  C   C417      1.0  0.97061  0.65517  0.83314  1.0000
  H   H740      1.0  0.69901  0.93820  0.99593  1.0000
  C   C418      1.0  0.73971  0.57650  0.60152  1.0000
  H   H741      1.0  0.92915  0.76878  0.99744  1.0000
  C   C419      1.0  0.92671  0.49333  0.59277  1.0000
  C   C420      1.0  0.67909  0.61248  0.59846  1.0000
  H   H742      1.0  0.85541  0.76769  0.55715  1.0000
  C   C421      1.0  0.87178  0.58032  0.82355  1.0000
  H   H743      1.0  0.94547  0.62424  0.89334  1.0000
  H   H744      1.0  0.76995  0.55417  0.55971  1.0000
  H   H745      1.0  0.89579  0.71972  0.87329  1.0000
  H   H746      1.0  0.91060  0.79212  0.84692  1.0000
  H   H747      1.0  0.89726  0.59108  0.87163  1.0000
  H   H748      1.0  0.71245  0.55883  0.55559  1.0000
  Fe  Fe47      1.0  0.95224  0.51330  0.78828  1.0000
  H   H749      1.0  0.95092  0.91868  0.97175  1.0000
  H   H750      1.0  0.65862  0.55950  0.71010  1.0000
  H   H751      1.0  0.88777  0.51444  0.62251  1.0000
  C   C422      1.0  0.93775  0.65758  0.88494  1.0000
  C   C423      1.0  0.71236  0.55198  0.58515  1.0000
  N   N23       1.0  0.68255  0.56306  0.60117  1.0000
  H   H752      1.0  0.71659  0.51603  0.58790  1.0000
  C   C424      1.0  0.95636  0.69234  0.90621  1.0000
  H   H753      1.0  0.73905  0.57615  0.63140  1.0000
  C   C425      1.0  0.76870  0.55552  0.58957  1.0000
  H   H754      1.0  0.96618  0.71090  0.96142  1.0000
  H   H755      1.0  0.96656  0.61942  0.78196  1.0000
  C   C426      1.0  0.84189  0.80652  0.51058  1.0000
  H   H756      1.0  0.97138  0.52950  0.55825  1.0000
  H   H757      1.0  0.97484  0.57258  0.59050  1.0000
  C   C427      1.0  0.98437  0.54039  0.58220  1.0000
  H   H758      1.0  0.66638  0.69887  0.62132  1.0000
  H   H759      1.0  0.66862  0.98933  0.95767  1.0000
  H   H760      1.0  0.92511  0.52113  0.57351  1.0000
  C   C428      1.0  0.94897  0.50524  0.62320  1.0000
  H   H761      1.0  0.69605  0.51864  0.64408  1.0000
  H   H762      1.0  0.77051  0.52158  0.60063  1.0000
  C   C429      1.0  0.95091  0.68809  0.94671  1.0000
  H   H763      1.0  0.95064  0.72646  0.89826  1.0000
  C   C430      1.0  0.67893  0.91668  0.99655  1.0000
  S   S96       1.0  0.93840  0.50214  0.84586  1.0000
  H   H764      1.0  0.65889  0.55625  0.55076  1.0000
  H   H765      1.0  0.81940  0.81097  0.52185  1.0000
  H   H766      1.0  0.98488  0.68302  0.84284  1.0000
  C   C431      1.0  0.95748  0.98571  0.98970  1.0000
  H   H767      1.0  0.88584  0.79335  0.53250  1.0000
  N   N24       1.0  0.98130  0.50739  0.61258  1.0000
  H   H768      1.0  0.97147  0.50937  0.69234  1.0000
  C   C432      1.0  0.65908  0.54101  0.57811  1.0000
  Fe  Fe48      1.0  0.90460  0.56760  0.50587  1.0000
