data_image0
_chemical_formula_structural       H4CSFeS2FeS2FeSFeHS3H2C2HC2H5CH3CH3C6H2C2HC3HNH2C2H2C2HCHCH3FeH2CH3CH3CH4C3H6C2HC2HCH2CH4CHCHCH2CH5CNH2CH2CH9C2H4C2HCHCH3FeCH6CH4C5H2CH2CSHCH2SFeS2FeS2FeSFeHS3H3FeH2SH3CHCH4CHC7H5CH3CHCH5CH3CH3C3HCHC2HCHCHC2SH3C2H2C2HNH2C2HCH5C2HSC2H2CSH2CH3C2HCH2CNHNCH2FeC2H2CH4C2HCHSH2CH2CHCH2FeHCH4CH5CH4NC3H2CH2CH5FeHCHCHCHCH5CHFeSFeS3FeSHCHFeSFeS3CHC3HC2H2C6H6CHCS2FeSFeSFeS2FeS2Fe2HS2H2CH6C7H4CHCH2CH2SH9CHCH9CNCHC4HC2H2CH7CHCH5CH4C2H5CHCH2C2HCH2CNC7NHC2SH14CH2CH3CNC2HC4HCH5CH19SHCH2CHC2HCHCH3C2H4CHCH2C2H4CH2CHFeSFeS3FeSC3FeSFeS3H3NHNC2H2C6H3C2H3CS2FeSFeSFeS2FeS2Fe2HS2HC2H3CH2C7H4C3HC9H2CH21CH4CH2CH3SH5C2NH2C2H3CH4CH2CH2C2H3CH3C3H2CHCHSH6C4HCH2CH9CH2CH2C2HCH2CH2CNCH3CHSH3CH2SH4C4H7CH4C2HC2H3C2H3CH2CHCHCH2CH3C2H2FeHFeS4FeSHFeS2FeSFeS3H3CHCSCH2CHCSHCH3SC6H4C2H2C4HCH6C2HNHC2H5C5H3FeC3HCH3C2HCHCH6C5H7CH2CHCH2CH5CH4NH11C4H2CHSH6NCHCHCH6CH2C2HCHC2HCHCH4CHCHCH4SH3CH5CH2C2H2CH2C2HFeSHCSFeSCFeS2FeSFeS3C2NH2C3H2CHCHCH2CHC7H4C2H5C2HCHSNHCHC2H6CH19CHCHCHC2H4CH2C2HCH11C3H3C2HC2HCHCNHC3HCNH3CNCH3CH3CH7C3H2CH2CSC2H2CH5CSCHC2H5C2HCHNH2C2HSHCHFeS2FeS2FeSFeS4C6H4CH4CHCH7C6H3CH3C2H5CH5C2H5C2HC3H4CHSHCH4CFeH8CH3SCH4CNCHNHNHCH8CH4NHCHCHCH3CHSCH2CHCH5CH2CH7CHCHCNC10H4FeH4C4H4C3HCH3CSCHCHFeS2FeS2FeSFeS4C6H6CH2C3H5C8H8CH3CHFeH2C3FeHCH8CH3CH5CHCH2C2NHNH5CH4C2H7NHC9SCSH9CH3SCHCHC2H4C3HC2HC2HCH17CHC2H4CNH2CHCHCH4C2HCH4C2SH2SFeSFeS2FeS2HFeS3C3FeHC3H3CH2C7H6CHSFe2S2FeS2CFeS3C3H2C2H3FeCH3C6H4CH2SH7CH4CH2CFeH13C3SCH2C4H4CH3CHC2NH4CH6CH3CNC12H23FeH2SH2CH5CHCHC3HCH4C2SH3FeHFeS2FeS2CFeSCSC3HC4H7C6H4FeSFeS3FeS2FeS2Fe2S3C3H2C3H4CH2C6H4NC5HC4HCH4FeH6CH5SH14CH3C2H3CH4C2NCHCH4CH3CHFeH2CHC2HCH8NC12H29SH2CH2SH4CHNHC2H4SC2HCH3C4HCH3C3H4SCHSFeS2FeS2FeSFeS3C3H2C6H4C2H5NHC7H4NC4HC2H4C2HCH2CH2CSH3CHCHCHCHCH2CHCH3C2HNC7H2CNCH15CHCH3C2H7CHCHCHC2H3CH4CH8FeHSC3H5C2H2CHCH4C4H4CHSHFeHCH3C2H11CHNH8CH5CSCHSFeS2FeS2FeSFeS3CHC2HC6H3NC3H2C2HCHC6H3C2SHCH7CHCH3C2HCHC3H2CHCHC2H2C3H6C2H5CH2FeH3CH4CH3NCH4CSC2H2CH2FeH7CH3NCH5C3HSCH3CH5CH3CH7CH8C2H4CH2CH6NHCH2NH3
_chemical_formula_sum              "H1536 C864 S192 Fe96 N48"
_cell_length_a       39.8898
_cell_length_b       45.6669
_cell_length_c       40.5632
_cell_angle_alpha    90.3396
_cell_angle_beta     89.7937
_cell_angle_gamma    89.4419

_space_group_name_H-M_alt    "P 1"
_space_group_IT_number       1

loop_
  _space_group_symop_operation_xyz
  'x, y, z'

loop_
  _atom_site_type_symbol
  _atom_site_label
  _atom_site_symmetry_multiplicity
  _atom_site_fract_x
  _atom_site_fract_y
  _atom_site_fract_z
  _atom_site_occupancy
  H   H1        1.0  0.50483  0.30159  0.30247  1.0000
  H   H2        1.0  0.32546  0.08470  0.48474  1.0000
  H   H3        1.0  0.23949  0.01454  0.12733  1.0000
  H   H4        1.0  0.07185  0.01528  0.13806  1.0000
  C   C1        1.0  0.27208  0.33572  0.00974  1.0000
  S   S1        1.0  0.18105  0.04941  0.22749  1.0000
  Fe  Fe1       1.0  0.33136  0.08750  0.09869  1.0000
  S   S2        1.0  0.33239  0.10577  0.04722  1.0000
  S   S3        1.0  0.28786  0.05701  0.11034  1.0000
  Fe  Fe2       1.0  0.40369  0.10810  0.11163  1.0000
  S   S4        1.0  0.40974  0.12671  0.06103  1.0000
  S   S5        1.0  0.44475  0.11283  0.14973  1.0000
  Fe  Fe3       1.0  0.35796  0.14515  0.06892  1.0000
  S   S6        1.0  0.34390  0.19322  0.06141  1.0000
  Fe  Fe4       1.0  0.38396  0.08574  0.04420  1.0000
  H   H5        1.0  0.03029  0.07315  0.18986  1.0000
  S   S7        1.0  0.35286  0.12847  0.12099  1.0000
  S   S8        1.0  0.38202  0.06554  0.09434  1.0000
  S   S9        1.0  0.35708  0.28521  0.45014  1.0000
  H   H6        1.0  0.23980  0.00713  0.24810  1.0000
  H   H7        1.0  0.51132  0.03689  0.03146  1.0000
  C   C2        1.0  0.51136  0.12410  0.15857  1.0000
  C   C3        1.0  0.09971  0.02367  0.48654  1.0000
  H   H8        1.0  0.30842  0.03736  0.24444  1.0000
  C   C4        1.0  0.36093  0.21695  0.03147  1.0000
  C   C5        1.0  0.35237  0.24689  0.03261  1.0000
  H   H9        1.0  0.28040  0.02166  0.31071  1.0000
  H   H10       1.0  0.10538  0.03392  0.41788  1.0000
  H   H11       1.0  0.07111  0.07111  0.08406  1.0000
  H   H12       1.0  0.33773  0.22656  0.46666  1.0000
  H   H13       1.0  0.33626  0.25505  0.05220  1.0000
  C   C6        1.0  0.08703  0.03552  0.13846  1.0000
  H   H14       1.0  0.05843  0.01626  0.45159  1.0000
  H   H15       1.0  0.36434  0.03699  0.17110  1.0000
  H   H16       1.0  0.50356  0.23629  0.11705  1.0000
  C   C7        1.0  0.48677  0.11493  0.13626  1.0000
  H   H17       1.0  0.50476  0.19795  0.03463  1.0000
  H   H18       1.0  0.47749  0.09985  0.08676  1.0000
  H   H19       1.0  0.18001  0.01684  0.02294  1.0000
  C   C8        1.0  0.21117  0.05160  0.19521  1.0000
  C   C9        1.0  0.23241  0.07596  0.19315  1.0000
  C   C10       1.0  0.25636  0.07811  0.16752  1.0000
  C   C11       1.0  0.25897  0.05597  0.14359  1.0000
  C   C12       1.0  0.23769  0.03178  0.14568  1.0000
  C   C13       1.0  0.21415  0.02955  0.17136  1.0000
  H   H20       1.0  0.23030  0.09326  0.21140  1.0000
  H   H21       1.0  0.27251  0.09696  0.16611  1.0000
  C   C14       1.0  0.06350  0.06109  0.14941  1.0000
  C   C15       1.0  0.38207  0.20667  0.00632  1.0000
  H   H22       1.0  0.19811  0.01084  0.17241  1.0000
  C   C16       1.0  0.05152  0.02773  0.07284  1.0000
  C   C17       1.0  0.35658  0.23314  0.48426  1.0000
  C   C18       1.0  0.04838  0.05538  0.18339  1.0000
  H   H23       1.0  0.48612  0.14720  0.02221  1.0000
  N   N1        1.0  0.10513  0.03948  0.10605  1.0000
  H   H24       1.0  0.45866  0.18187  0.13027  1.0000
  H   H25       1.0  0.45741  0.28627  0.33878  1.0000
  C   C19       1.0  0.13104  0.06303  0.11063  1.0000
  C   C20       1.0  0.08127  0.04870  0.07917  1.0000
  H   H26       1.0  0.50592  0.06975  0.19400  1.0000
  H   H27       1.0  0.29080  0.30636  0.49258  1.0000
  C   C21       1.0  0.15511  0.06800  0.08107  1.0000
  C   C22       1.0  0.36408  0.26629  0.00835  1.0000
  H   H28       1.0  0.22152  0.00829  0.32408  1.0000
  C   C23       1.0  0.33231  0.01312  0.20483  1.0000
  H   H29       1.0  0.10738  0.04579  0.47816  1.0000
  C   C24       1.0  0.18264  0.08961  0.09026  1.0000
  H   H30       1.0  0.10534  0.03199  0.15876  1.0000
  H   H31       1.0  0.07720  0.08205  0.15090  1.0000
  H   H32       1.0  0.04233  0.06381  0.13200  1.0000
  Fe  Fe5       1.0  0.37019  0.33333  0.44146  1.0000
  H   H33       1.0  0.14641  0.05869  0.13305  1.0000
  H   H34       1.0  0.11867  0.08453  0.11557  1.0000
  C   C25       1.0  0.37101  0.26105  0.48162  1.0000
  H   H35       1.0  0.09480  0.05040  0.05524  1.0000
  H   H36       1.0  0.44397  0.05199  0.18968  1.0000
  H   H37       1.0  0.46364  0.30526  0.03478  1.0000
  C   C26       1.0  0.08372  0.00750  0.45705  1.0000
  H   H38       1.0  0.05656  0.02407  0.33346  1.0000
  H   H39       1.0  0.14121  0.07721  0.05980  1.0000
  H   H40       1.0  0.16768  0.04746  0.07297  1.0000
  C   C27       1.0  0.46905  0.26395  0.06061  1.0000
  H   H41       1.0  0.29116  0.01398  0.05166  1.0000
  H   H42       1.0  0.28489  0.06806  0.48032  1.0000
  H   H43       1.0  0.50443  0.21179  0.25053  1.0000
  H   H44       1.0  0.47170  0.31657  0.36365  1.0000
  C   C28       1.0  0.47396  0.29258  0.35955  1.0000
  C   C29       1.0  0.26066  0.02546  0.29206  1.0000
  C   C30       1.0  0.04384  0.01227  0.35280  1.0000
  H   H45       1.0  0.50418  0.13046  0.18337  1.0000
  H   H46       1.0  0.06080  0.00628  0.06341  1.0000
  H   H47       1.0  0.19962  0.09285  0.06885  1.0000
  H   H48       1.0  0.17162  0.11116  0.09746  1.0000
  H   H49       1.0  0.19786  0.08104  0.11105  1.0000
  H   H50       1.0  0.42486  0.23669  0.06509  1.0000
  C   C31       1.0  0.40977  0.19958  0.12141  1.0000
  C   C32       1.0  0.39582  0.19282  0.15564  1.0000
  H   H51       1.0  0.33653  0.00553  0.09282  1.0000
  C   C33       1.0  0.30484  0.07372  0.49822  1.0000
  C   C34       1.0  0.39650  0.02231  0.00151  1.0000
  H   H52       1.0  0.50513  0.04450  0.22659  1.0000
  C   C35       1.0  0.34360  0.04160  0.18879  1.0000
  H   H53       1.0  0.36823  0.19002  0.15409  1.0000
  H   H54       1.0  0.40323  0.18096  0.10510  1.0000
  C   C36       1.0  0.50217  0.01745  0.49702  1.0000
  H   H55       1.0  0.02005  0.11276  0.48679  1.0000
  H   H56       1.0  0.40026  0.01618  0.45573  1.0000
  H   H57       1.0  0.06001  0.07331  0.47213  1.0000
  H   H58       1.0  0.25350  0.01996  0.00882  1.0000
  C   C37       1.0  0.47761  0.19380  0.03176  1.0000
  H   H59       1.0  0.39659  0.21945  0.11237  1.0000
  C   C38       1.0  0.01674  0.09061  0.49740  1.0000
  H   H60       1.0  0.40099  0.21104  0.17309  1.0000
  C   C39       1.0  0.02573  0.02763  0.37746  1.0000
  H   H61       1.0  0.48784  0.27397  0.07729  1.0000
  H   H62       1.0  0.35268  0.05729  0.20771  1.0000
  C   C40       1.0  0.44759  0.24159  0.08002  1.0000
  H   H63       1.0  0.43809  0.25412  0.10188  1.0000
  H   H64       1.0  0.03487  0.03421  0.18358  1.0000
  H   H65       1.0  0.43287  0.18737  0.05952  1.0000
  H   H66       1.0  0.45412  0.21920  0.14280  1.0000
  H   H67       1.0  0.40704  0.17220  0.16521  1.0000
  C   C41       1.0  0.50131  0.21868  0.09805  1.0000
  N   N2        1.0  0.46472  0.21341  0.09077  1.0000
  H   H68       1.0  0.06836  0.05499  0.20238  1.0000
  H   H69       1.0  0.51096  0.25976  0.34829  1.0000
  C   C42       1.0  0.44840  0.20350  0.12246  1.0000
  H   H70       1.0  0.50075  0.25218  0.29071  1.0000
  H   H71       1.0  0.43714  0.01519  0.17517  1.0000
  C   C43       1.0  0.22749  0.02877  0.31070  1.0000
  H   H72       1.0  0.28053  0.02649  0.21321  1.0000
  H   H73       1.0  0.46769  0.16795  0.07548  1.0000
  H   H74       1.0  0.40740  0.02024  0.05336  1.0000
  H   H75       1.0  0.47464  0.00691  0.45368  1.0000
  H   H76       1.0  0.12975  0.01108  0.07010  1.0000
  H   H77       1.0  0.26566  0.04657  0.27960  1.0000
  H   H78       1.0  0.26360  0.32017  0.02894  1.0000
  H   H79       1.0  0.03672  0.02391  0.09557  1.0000
  H   H80       1.0  0.02975  0.03152  0.49465  1.0000
  C   C44       1.0  0.45995  0.18960  0.06536  1.0000
  C   C45       1.0  0.48960  0.02674  0.17962  1.0000
  H   H81       1.0  0.43295  0.29989  0.06691  1.0000
  H   H82       1.0  0.32268  0.05191  0.17506  1.0000
  H   H83       1.0  0.46564  0.21218  0.01828  1.0000
  H   H84       1.0  0.49006  0.03370  0.15339  1.0000
  C   C46       1.0  0.40105  0.00792  0.03154  1.0000
  C   C47       1.0  0.49624  0.10707  0.10414  1.0000
  H   H85       1.0  0.48265  0.25365  0.03968  1.0000
  C   C48       1.0  0.02756  0.04007  0.04700  1.0000
  H   H86       1.0  0.38871  0.18367  0.00512  1.0000
  C   C49       1.0  0.51031  0.28377  0.35222  1.0000
  H   H87       1.0  0.22925  0.04692  0.32892  1.0000
  H   H88       1.0  0.45070  0.02121  0.21702  1.0000
  H   H89       1.0  0.12361  0.01186  0.49153  1.0000
  Fe  Fe6       1.0  0.15205  0.00744  0.23735  1.0000
  C   C50       1.0  0.05045  0.07439  0.49787  1.0000
  H   H90       1.0  0.51470  0.22700  0.07608  1.0000
  H   H91       1.0  0.04084  0.04375  0.02327  1.0000
  H   H92       1.0  0.44746  0.16172  0.00532  1.0000
  H   H93       1.0  0.42985  0.28025  0.02817  1.0000
  H   H94       1.0  0.02466  0.05131  0.37690  1.0000
  H   H95       1.0  0.01607  0.06099  0.05570  1.0000
  C   C51       1.0  0.44744  0.28883  0.04690  1.0000
  H   H96       1.0  0.46514  0.28139  0.38218  1.0000
  H   H97       1.0  0.51308  0.18480  0.13489  1.0000
  H   H98       1.0  0.32861  0.03167  0.49507  1.0000
  H   H99       1.0  0.46896  0.02584  0.02338  1.0000
  C   C52       1.0  0.10493  0.01069  0.42584  1.0000
  C   C53       1.0  0.12111  0.01062  0.09621  1.0000
  C   C54       1.0  0.45315  0.02896  0.19123  1.0000
  C   C55       1.0  0.49371  0.02994  0.01182  1.0000
  C   C56       1.0  0.47427  0.16646  0.01012  1.0000
  H   H100      1.0  0.35739  0.28927  0.00957  1.0000
  H   H101      1.0  0.20681  0.03402  0.29341  1.0000
  C   C57       1.0  0.51270  0.04673  0.20045  1.0000
  H   H102      1.0  0.32764  0.00695  0.28582  1.0000
  H   H103      1.0  0.17157  0.01602  0.11731  1.0000
  C   C58       1.0  0.30195  0.01845  0.22833  1.0000
  S   S10       1.0  0.11441  0.05372  0.73925  1.0000
  H   H104      1.0  0.41833  0.30057  0.65897  1.0000
  C   C59       1.0  0.29085  0.03101  0.53539  1.0000
  H   H105      1.0  0.31873  0.02777  0.59340  1.0000
  H   H106      1.0  0.13237  0.05601  0.60087  1.0000
  S   S11       1.0  0.21366  0.07121  0.74984  1.0000
  Fe  Fe7       1.0  0.34612  0.10126  0.60354  1.0000
  S   S12       1.0  0.35571  0.11816  0.55209  1.0000
  S   S13       1.0  0.29345  0.08432  0.61399  1.0000
  Fe  Fe8       1.0  0.42049  0.10414  0.62103  1.0000
  S   S14       1.0  0.43532  0.11993  0.57098  1.0000
  S   S15       1.0  0.45758  0.09924  0.66290  1.0000
  Fe  Fe9       1.0  0.39090  0.15060  0.57515  1.0000
  S   S16       1.0  0.40226  0.19920  0.56614  1.0000
  Fe  Fe10      1.0  0.39921  0.08641  0.55207  1.0000
  H   H107      1.0  0.48395  0.16774  0.57026  1.0000
  S   S17       1.0  0.37772  0.13632  0.62687  1.0000
  S   S18       1.0  0.38797  0.06793  0.60188  1.0000
  S   S19       1.0  0.39826  0.27873  0.95030  1.0000
  H   H108      1.0  0.35238  0.01097  0.64124  1.0000
  H   H109      1.0  0.49328  0.08227  0.60305  1.0000
  H   H110      1.0  0.10964  0.06290  0.53189  1.0000
  Fe  Fe11      1.0  0.16777  0.04209  0.75123  1.0000
  H   H111      1.0  0.02676  0.07496  0.73429  1.0000
  H   H112      1.0  0.44801  0.16426  0.67697  1.0000
  S   S20       1.0  0.40971  0.05889  0.50644  1.0000
  H   H113      1.0  0.47381  0.29048  0.92635  1.0000
  H   H114      1.0  0.50597  0.29815  0.83908  1.0000
  H   H115      1.0  0.17515  0.28955  0.93795  1.0000
  C   C60       1.0  0.48332  0.30189  0.90413  1.0000
  H   H116      1.0  0.41392  0.29242  0.59856  1.0000
  C   C61       1.0  0.04045  0.02479  0.61570  1.0000
  H   H117      1.0  0.23706  0.32022  0.97437  1.0000
  H   H118      1.0  0.06765  0.08788  0.51284  1.0000
  H   H119      1.0  0.08608  0.02971  0.86744  1.0000
  H   H120      1.0  0.29909  0.01665  0.89388  1.0000
  C   C62       1.0  0.39002  0.22215  0.53286  1.0000
  H   H121      1.0  0.44671  0.21307  0.62523  1.0000
  C   C63       1.0  0.09902  0.04272  0.54285  1.0000
  C   C64       1.0  0.23648  0.07376  0.71229  1.0000
  C   C65       1.0  0.22235  0.06503  0.68235  1.0000
  C   C66       1.0  0.24024  0.06844  0.65268  1.0000
  C   C67       1.0  0.27271  0.08013  0.65249  1.0000
  C   C68       1.0  0.28725  0.08829  0.68250  1.0000
  C   C69       1.0  0.26907  0.08532  0.71224  1.0000
  H   H122      1.0  0.19710  0.05664  0.68186  1.0000
  H   H123      1.0  0.22843  0.06263  0.62966  1.0000
  H   H124      1.0  0.31212  0.09753  0.68270  1.0000
  H   H125      1.0  0.28008  0.09243  0.73522  1.0000
  H   H126      1.0  0.31911  0.30930  0.57994  1.0000
  C   C70       1.0  0.29116  0.22989  0.96152  1.0000
  H   H127      1.0  0.14651  0.01713  0.53996  1.0000
  H   H128      1.0  0.24425  0.02823  0.58668  1.0000
  H   H129      1.0  0.29627  0.19033  0.93140  1.0000
  C   C71       1.0  0.04856  0.03323  0.90610  1.0000
  H   H130      1.0  0.47479  0.21722  0.57909  1.0000
  C   C72       1.0  0.50738  0.16508  0.58488  1.0000
  H   H131      1.0  0.26380  0.03898  0.77856  1.0000
  H   H132      1.0  0.06787  0.09521  0.69547  1.0000
  H   H133      1.0  0.33947  0.05288  0.53095  1.0000
  H   H134      1.0  0.31958  0.05642  0.76485  1.0000
  H   H135      1.0  0.04731  0.07795  0.66124  1.0000
  C   C73       1.0  0.40775  0.02034  0.50808  1.0000
  H   H136      1.0  0.46260  0.30339  0.88596  1.0000
  H   H137      1.0  0.42279  0.25685  0.54812  1.0000
  H   H138      1.0  0.47952  0.25327  0.53154  1.0000
  C   C74       1.0  0.33577  0.03682  0.76039  1.0000
  H   H139      1.0  0.29459  0.03007  0.80786  1.0000
  H   H140      1.0  0.02190  0.01166  0.73957  1.0000
  H   H141      1.0  0.31998  0.30753  0.91713  1.0000
  C   C75       1.0  0.36307  0.04582  0.73599  1.0000
  C   C76       1.0  0.24309  0.27365  0.92858  1.0000
  C   C77       1.0  0.51328  0.28501  0.88964  1.0000
  H   H142      1.0  0.28005  0.32182  0.90831  1.0000
  C   C78       1.0  0.48486  0.00616  0.68299  1.0000
  H   H143      1.0  0.02600  0.10662  0.68452  1.0000
  C   C79       1.0  0.02928  0.06457  0.70965  1.0000
  C   C80       1.0  0.28351  0.29457  0.96885  1.0000
  H   H144      1.0  0.30791  0.01136  0.98577  1.0000
  C   C81       1.0  0.23572  0.03439  0.83990  1.0000
  H   H145      1.0  0.17986  0.26832  0.90027  1.0000
  C   C82       1.0  0.39371  0.22604  0.98201  1.0000
  H   H146      1.0  0.35302  0.29169  0.55882  1.0000
  C   C83       1.0  0.29425  0.30089  0.90968  1.0000
  C   C84       1.0  0.45658  0.19168  0.63394  1.0000
  S   S21       1.0  0.40002  0.06056  0.99859  1.0000
  H   H147      1.0  0.04844  0.04668  0.60981  1.0000
  H   H148      1.0  0.04803  0.04656  0.71130  1.0000
  H   H149      1.0  0.40952  0.21776  0.96227  1.0000
  C   C85       1.0  0.39547  0.26917  0.50438  1.0000
  C   C86       1.0  0.29924  0.30060  0.51783  1.0000
  H   H150      1.0  0.35175  0.05292  0.71230  1.0000
  H   H151      1.0  0.44823  0.17416  0.61688  1.0000
  C   C87       1.0  0.50678  0.25423  0.53672  1.0000
  C   C88       1.0  0.29994  0.25275  0.93468  1.0000
  H   H152      1.0  0.50253  0.17219  0.65041  1.0000
  N   N3        1.0  0.27944  0.28080  0.93518  1.0000
  H   H153      1.0  0.27600  0.27315  0.86851  1.0000
  H   H154      1.0  0.26846  0.02798  0.51950  1.0000
  C   C89       1.0  0.40016  0.28466  0.64876  1.0000
  C   C90       1.0  0.05825  0.00847  0.63921  1.0000
  H   H155      1.0  0.46344  0.33062  0.54315  1.0000
  C   C91       1.0  0.05962  0.03165  0.87304  1.0000
  H   H156      1.0  0.27460  0.27959  0.98844  1.0000
  H   H157      1.0  0.30074  0.23708  0.98586  1.0000
  H   H158      1.0  0.27728  0.30161  0.53471  1.0000
  H   H159      1.0  0.30215  0.02104  0.72410  1.0000
  H   H160      1.0  0.41609  0.01706  0.56029  1.0000
  C   C92       1.0  0.29726  0.28774  0.87436  1.0000
  C   C93       1.0  0.39059  0.29280  0.61351  1.0000
  H   H161      1.0  0.40502  0.31460  0.55088  1.0000
  S   S22       1.0  0.15262  0.01596  0.79602  1.0000
  C   C94       1.0  0.26450  0.32377  0.97528  1.0000
  C   C95       1.0  0.38439  0.25582  0.98261  1.0000
  H   H162      1.0  0.16492  0.01799  0.98113  1.0000
  H   H163      1.0  0.24110  0.25359  0.91294  1.0000
  C   C96       1.0  0.25355  0.00668  0.59544  1.0000
  S   S23       1.0  0.09559  0.02291  0.65542  1.0000
  H   H164      1.0  0.08257  0.05032  0.56348  1.0000
  H   H165      1.0  0.35475  0.19237  0.51129  1.0000
  C   C97       1.0  0.30737  0.20013  0.95394  1.0000
  H   H166      1.0  0.28284  0.04738  0.55434  1.0000
  H   H167      1.0  0.31061  0.29828  0.97380  1.0000
  H   H168      1.0  0.41287  0.18692  0.66532  1.0000
  C   C98       1.0  0.44061  0.18621  0.66762  1.0000
  C   C99       1.0  0.32620  0.32203  0.52894  1.0000
  H   H169      1.0  0.16031  0.06448  0.56702  1.0000
  C   C100      1.0  0.18432  0.28995  0.91206  1.0000
  H   H170      1.0  0.23024  0.26793  0.95208  1.0000
  H   H171      1.0  0.37739  0.06447  0.74631  1.0000
  C   C101      1.0  0.50058  0.09662  0.65309  1.0000
  N   N4        1.0  0.36458  0.33483  0.57852  1.0000
  H   H172      1.0  0.32072  0.27446  0.87242  1.0000
  N   N5        1.0  0.51430  0.19298  0.60389  1.0000
  C   C102      1.0  0.40446  0.25006  0.53019  1.0000
  H   H173      1.0  0.37377  0.27534  0.60436  1.0000
  H   H174      1.0  0.33482  0.20238  0.95030  1.0000
  Fe  Fe12      1.0  0.09899  0.02312  0.77993  1.0000
  C   C103      1.0  0.14889  0.04648  0.58138  1.0000
  C   C104      1.0  0.29855  0.31157  0.84814  1.0000
  H   H175      1.0  0.38669  0.01683  0.94971  1.0000
  H   H176      1.0  0.41197  0.26252  0.64885  1.0000
  C   C105      1.0  0.12901  0.02609  0.55882  1.0000
  H   H177      1.0  0.26370  0.22675  0.96360  1.0000
  H   H178      1.0  0.34985  0.32214  0.62761  1.0000
  H   H179      1.0  0.29735  0.24136  0.91052  1.0000
  H   H180      1.0  0.47973  0.02699  0.50948  1.0000
  C   C106      1.0  0.31029  0.00940  0.91752  1.0000
  C   C107      1.0  0.37312  0.32338  0.61238  1.0000
  H   H181      1.0  0.16973  0.30684  0.89849  1.0000
  C   C108      1.0  0.22156  0.29743  0.91095  1.0000
  H   H182      1.0  0.32517  0.02767  0.92797  1.0000
  S   S24       1.0  0.04829  0.03093  0.80523  1.0000
  H   H183      1.0  0.32717  0.25767  0.93712  1.0000
  H   H184      1.0  0.26582  0.02005  0.94503  1.0000
  C   C109      1.0  0.50188  0.21937  0.58505  1.0000
  H   H185      1.0  0.22453  0.31949  0.92188  1.0000
  H   H186      1.0  0.22886  0.29899  0.88461  1.0000
  C   C110      1.0  0.51146  0.08786  0.62173  1.0000
  H   H187      1.0  0.38078  0.02734  0.73122  1.0000
  C   C111      1.0  0.27458  0.02033  0.79256  1.0000
  H   H188      1.0  0.06674  0.03256  0.92581  1.0000
  H   H189      1.0  0.22436  0.05247  0.82533  1.0000
  Fe  Fe13      1.0  0.38907  0.32760  0.94265  1.0000
  H   H190      1.0  0.37752  0.28418  0.66480  1.0000
  C   C112      1.0  0.49537  0.19214  0.63627  1.0000
  H   H191      1.0  0.51203  0.11111  0.55262  1.0000
  H   H192      1.0  0.34795  0.03091  0.78391  1.0000
  H   H193      1.0  0.49102  0.04813  0.99391  1.0000
  H   H194      1.0  0.27479  0.32447  0.84808  1.0000
  C   C113      1.0  0.03637  0.03304  0.84738  1.0000
  H   H195      1.0  0.50402  0.23944  0.60066  1.0000
  H   H196      1.0  0.44824  0.20325  0.68565  1.0000
  H   H197      1.0  0.30205  0.30145  0.82339  1.0000
  H   H198      1.0  0.16924  0.03401  0.59370  1.0000
  H   H199      1.0  0.29455  0.08931  0.51691  1.0000
  C   C114      1.0  0.34064  0.31333  0.56299  1.0000
  H   H200      1.0  0.30314  0.18506  0.97494  1.0000
  H   H201      1.0  0.47916  0.02957  0.67771  1.0000
  H   H202      1.0  0.49076  0.32435  0.91151  1.0000
  H   H203      1.0  0.31972  0.32656  0.85288  1.0000
  N   N6        1.0  0.07880  0.02603  0.51753  1.0000
  C   C115      1.0  0.04331  0.08750  0.68619  1.0000
  C   C116      1.0  0.18765  0.01950  0.99678  1.0000
  C   C117      1.0  0.39511  0.33680  0.55663  1.0000
  H   H204      1.0  0.12019  0.00769  0.57429  1.0000
  H   H205      1.0  0.21640  0.02602  0.85714  1.0000
  C   C118      1.0  0.31850  0.04616  0.51482  1.0000
  H   H206      1.0  0.51268  0.20783  0.53357  1.0000
  H   H207      1.0  0.48087  0.01176  0.94983  1.0000
  C   C119      1.0  0.04665  0.04306  0.51193  1.0000
  H   H208      1.0  0.25695  0.04302  0.85454  1.0000
  H   H209      1.0  0.03232  0.04472  0.53551  1.0000
  H   H210      1.0  0.50465  0.26245  0.88427  1.0000
  H   H211      1.0  0.50217  0.13858  0.52214  1.0000
  H   H212      1.0  0.50220  0.21123  0.65206  1.0000
  Fe  Fe14      1.0  0.11530  0.01370  0.70692  1.0000
  H   H213      1.0  0.35033  0.01677  0.56560  1.0000
  C   C120      1.0  0.32691  0.00911  0.57746  1.0000
  H   H214      1.0  0.40745  0.29014  0.50181  1.0000
  C   C121      1.0  0.24751  0.00961  0.81705  1.0000
  H   H215      1.0  0.27133  0.01052  0.61594  1.0000
  C   C122      1.0  0.36615  0.21371  0.50958  1.0000
  H   H216      1.0  0.50204  0.14668  0.60197  1.0000
  C   C123      1.0  0.31450  0.01139  0.74627  1.0000
  H   H217      1.0  0.34640  0.32147  0.51012  1.0000
  H   H218      1.0  0.19873  0.04152  0.99343  1.0000
  H   H219      1.0  0.30935  0.27785  0.51710  1.0000
  H   H220      1.0  0.48697  0.17002  0.98609  1.0000
  H   H221      1.0  0.51182  0.27285  0.55367  1.0000
  C   C124      1.0  0.38972  0.00588  0.97311  1.0000
  H   H222      1.0  0.24707  0.00656  0.73588  1.0000
  Fe  Fe15      1.0  0.13129  0.49034  0.19928  1.0000
  S   S25       1.0  0.11297  0.48180  0.14663  1.0000
  Fe  Fe16      1.0  0.17688  0.46292  0.25355  1.0000
  S   S26       1.0  0.21066  0.42419  0.26629  1.0000
  S   S27       1.0  0.12173  0.46116  0.24266  1.0000
  S   S28       1.0  0.18712  0.48769  0.20708  1.0000
  Fe  Fe17      1.0  0.38820  0.39365  0.46974  1.0000
  S   S29       1.0  0.38512  0.41540  0.42054  1.0000
  H   H223      1.0  0.37043  0.48918  0.15913  1.0000
  C   C125      1.0  0.14402  0.53655  0.06283  1.0000
  H   H224      1.0  0.32551  0.42621  0.28402  1.0000
  Fe  Fe18      1.0  0.41253  0.37547  0.40153  1.0000
  S   S30       1.0  0.45181  0.38182  0.36159  1.0000
  Fe  Fe19      1.0  0.33799  0.38992  0.41298  1.0000
  S   S31       1.0  0.29144  0.41714  0.40105  1.0000
  S   S32       1.0  0.41947  0.35523  0.45165  1.0000
  S   S33       1.0  0.33947  0.37015  0.46351  1.0000
  C   C126      1.0  0.24753  0.53560  0.33576  1.0000
  H   H225      1.0  0.32039  0.56445  0.01364  1.0000
  C   C127      1.0  0.04820  0.50485  0.15101  1.0000
  C   C128      1.0  0.10682  0.39560  0.28512  1.0000
  C   C129      1.0  0.15896  0.50763  0.48417  1.0000
  H   H226      1.0  0.46837  0.54344  0.03487  1.0000
  C   C130      1.0  0.50519  0.59673  0.13019  1.0000
  C   C131      1.0  0.40208  0.47738  0.03212  1.0000
  H   H227      1.0  0.41109  0.45736  0.46412  1.0000
  H   H228      1.0  0.40977  0.46787  0.05530  1.0000
  C   C132      1.0  0.27064  0.41889  0.36272  1.0000
  C   C133      1.0  0.24768  0.44187  0.35762  1.0000
  C   C134      1.0  0.22947  0.44384  0.32810  1.0000
  C   C135      1.0  0.23388  0.42273  0.30337  1.0000
  C   C136      1.0  0.25713  0.39985  0.30829  1.0000
  C   C137      1.0  0.27559  0.39797  0.33781  1.0000
  H   H229      1.0  0.24411  0.45819  0.37674  1.0000
  H   H230      1.0  0.21189  0.46159  0.32451  1.0000
  H   H231      1.0  0.26073  0.38338  0.28929  1.0000
  H   H232      1.0  0.29319  0.38011  0.34150  1.0000
  H   H233      1.0  0.24603  0.66108  0.06115  1.0000
  H   H234      1.0  0.48732  0.35442  0.41604  1.0000
  C   C138      1.0  0.49490  0.37731  0.37047  1.0000
  H   H235      1.0  0.39001  0.51284  0.12910  1.0000
  C   C139      1.0  0.07137  0.48836  0.13256  1.0000
  S   S34       1.0  0.12502  0.53221  0.22836  1.0000
  S   S35       1.0  0.17251  0.50254  0.28599  1.0000
  Fe  Fe20      1.0  0.11766  0.50280  0.27278  1.0000
  S   S36       1.0  0.07111  0.50138  0.30626  1.0000
  Fe  Fe21      1.0  0.18059  0.52750  0.23867  1.0000
  S   S37       1.0  0.22410  0.55935  0.23661  1.0000
  Fe  Fe22      1.0  0.34710  0.60666  0.09025  1.0000
  S   S38       1.0  0.35384  0.62240  0.03816  1.0000
  S   S39       1.0  0.29260  0.59676  0.10200  1.0000
  Fe  Fe23      1.0  0.42300  0.60552  0.10166  1.0000
  S   S40       1.0  0.43482  0.62020  0.05031  1.0000
  S   S41       1.0  0.46214  0.59677  0.14074  1.0000
  Fe  Fe24      1.0  0.39279  0.65282  0.05804  1.0000
  Fe  Fe25      1.0  0.39483  0.58843  0.03533  1.0000
  H   H236      1.0  0.09312  0.37529  0.29134  1.0000
  S   S42       1.0  0.38298  0.63976  0.11071  1.0000
  S   S43       1.0  0.38612  0.57116  0.08607  1.0000
  H   H237      1.0  0.25712  0.45080  0.19965  1.0000
  H   H238      1.0  0.27833  0.57090  0.02920  1.0000
  C   C140      1.0  0.40284  0.50794  0.02805  1.0000
  H   H239      1.0  0.42094  0.51068  0.46251  1.0000
  H   H240      1.0  0.41135  0.52173  0.04798  1.0000
  H   H241      1.0  0.25625  0.48902  0.29363  1.0000
  H   H242      1.0  0.31907  0.41662  0.01878  1.0000
  H   H243      1.0  0.22675  0.51967  0.33679  1.0000
  H   H244      1.0  0.36154  0.44767  0.27452  1.0000
  C   C141      1.0  0.02012  0.50187  0.39359  1.0000
  C   C142      1.0  0.24510  0.56561  0.19874  1.0000
  C   C143      1.0  0.27741  0.57770  0.19893  1.0000
  C   C144      1.0  0.29339  0.58559  0.16924  1.0000
  C   C145      1.0  0.27674  0.58212  0.13920  1.0000
  C   C146      1.0  0.24497  0.56906  0.13893  1.0000
  C   C147      1.0  0.22940  0.56049  0.16850  1.0000
  H   H245      1.0  0.28972  0.58177  0.22221  1.0000
  H   H246      1.0  0.31776  0.59578  0.16978  1.0000
  H   H247      1.0  0.23182  0.56640  0.11584  1.0000
  H   H248      1.0  0.20450  0.55128  0.16804  1.0000
  C   C148      1.0  0.06035  0.50821  0.34828  1.0000
  H   H249      1.0  0.20651  0.50610  0.11985  1.0000
  C   C149      1.0  0.10155  0.41673  0.34279  1.0000
  H   H250      1.0  0.27830  0.42494  0.49651  1.0000
  H   H251      1.0  0.02150  0.47336  0.06590  1.0000
  C   C150      1.0  0.22633  0.65460  0.12400  1.0000
  H   H252      1.0  0.18151  0.35688  0.38485  1.0000
  H   H253      1.0  0.18968  0.37602  0.42329  1.0000
  S   S44       1.0  0.03167  0.52032  0.45811  1.0000
  H   H254      1.0  0.17061  0.52951  0.48694  1.0000
  H   H255      1.0  0.33838  0.48344  0.32242  1.0000
  H   H256      1.0  0.32873  0.47031  0.03762  1.0000
  H   H257      1.0  0.34401  0.42352  0.34313  1.0000
  H   H258      1.0  0.04618  0.40998  0.38311  1.0000
  H   H259      1.0  0.24222  0.63162  0.16848  1.0000
  H   H260      1.0  0.23104  0.63590  0.10691  1.0000
  H   H261      1.0  0.46736  0.65679  0.11476  1.0000
  H   H262      1.0  0.24114  0.55288  0.31757  1.0000
  C   C151      1.0  0.47429  0.66658  0.47640  1.0000
  H   H263      1.0  0.20314  0.66591  0.11589  1.0000
  C   C152      1.0  0.10711  0.53687  0.05289  1.0000
  H   H264      1.0  0.10227  0.48687  0.00249  1.0000
  H   H265      1.0  0.38085  0.44433  0.33271  1.0000
  H   H266      1.0  0.08381  0.43319  0.33208  1.0000
  H   H267      1.0  0.25011  0.54600  0.36042  1.0000
  H   H268      1.0  0.04104  0.54413  0.06784  1.0000
  H   H269      1.0  0.05736  0.58520  0.02488  1.0000
  H   H270      1.0  0.35768  0.58130  0.46744  1.0000
  H   H271      1.0  0.08919  0.53772  0.42017  1.0000
  H   H272      1.0  0.28606  0.50398  0.34575  1.0000
  C   C153      1.0  0.29284  0.52477  0.02503  1.0000
  N   N7        1.0  0.30838  0.49012  0.27847  1.0000
  C   C154      1.0  0.29802  0.47208  0.24896  1.0000
  H   H273      1.0  0.37013  0.52839  0.16508  1.0000
  C   C155      1.0  0.27710  0.50497  0.29193  1.0000
  C   C156      1.0  0.33274  0.51386  0.26937  1.0000
  C   C157      1.0  0.36524  0.50405  0.25141  1.0000
  C   C158      1.0  0.28147  0.48927  0.22034  1.0000
  H   H274      1.0  0.14203  0.38849  0.32346  1.0000
  C   C159      1.0  0.38549  0.53057  0.24044  1.0000
  C   C160      1.0  0.27344  0.46899  0.19143  1.0000
  H   H275      1.0  0.47273  0.49389  0.00696  1.0000
  H   H276      1.0  0.31953  0.45979  0.23820  1.0000
  C   C161      1.0  0.10285  0.54572  0.01635  1.0000
  H   H277      1.0  0.26809  0.52221  0.27477  1.0000
  H   H278      1.0  0.32013  0.53083  0.25401  1.0000
  H   H279      1.0  0.49877  0.65641  0.46985  1.0000
  H   H280      1.0  0.35988  0.49085  0.22908  1.0000
  H   H281      1.0  0.32985  0.43130  0.07775  1.0000
  H   H282      1.0  0.25745  0.49940  0.22844  1.0000
  H   H283      1.0  0.29813  0.50672  0.21108  1.0000
  C   C162      1.0  0.30530  0.43645  0.06616  1.0000
  H   H284      1.0  0.09834  0.44614  0.42049  1.0000
  C   C163      1.0  0.32267  0.47051  0.30507  1.0000
  H   H285      1.0  0.40849  0.52308  0.22721  1.0000
  H   H286      1.0  0.37057  0.54458  0.22354  1.0000
  H   H287      1.0  0.10526  0.53112  0.36116  1.0000
  H   H288      1.0  0.25973  0.48162  0.17238  1.0000
  H   H289      1.0  0.29683  0.45979  0.18042  1.0000
  C   C164      1.0  0.08847  0.43818  0.39648  1.0000
  H   H290      1.0  0.45142  0.62397  0.48506  1.0000
  H   H291      1.0  0.07916  0.46415  0.08735  1.0000
  H   H292      1.0  0.07446  0.45700  0.38570  1.0000
  H   H293      1.0  0.34100  0.52583  0.29181  1.0000
  C   C165      1.0  0.28031  0.52012  0.32617  1.0000
  C   C166      1.0  0.04172  0.51592  0.41554  1.0000
  H   H294      1.0  0.07475  0.39365  0.41236  1.0000
  H   H295      1.0  0.27998  0.45493  0.25691  1.0000
  H   H296      1.0  0.49803  0.60438  0.07840  1.0000
  H   H297      1.0  0.30248  0.39153  0.04862  1.0000
  H   H298      1.0  0.33999  0.50600  0.49781  1.0000
  C   C167      1.0  0.36853  0.51060  0.14641  1.0000
  H   H299      1.0  0.14607  0.53060  0.08930  1.0000
  C   C168      1.0  0.07246  0.52648  0.40354  1.0000
  H   H300      1.0  0.37460  0.40867  0.31475  1.0000
  H   H301      1.0  0.08855  0.41228  0.27630  1.0000
  C   C169      1.0  0.34295  0.44292  0.29396  1.0000
  C   C170      1.0  0.08174  0.52268  0.37012  1.0000
  H   H302      1.0  0.38142  0.49133  0.26838  1.0000
  C   C171      1.0  0.21935  0.64211  0.15821  1.0000
  H   H303      1.0  0.21982  0.37685  0.39015  1.0000
  H   H304      1.0  0.27463  0.41658  0.02774  1.0000
  C   C172      1.0  0.06159  0.47726  0.10162  1.0000
  N   N8        1.0  0.30312  0.49259  0.07760  1.0000
  C   C173      1.0  0.30533  0.46810  0.05247  1.0000
  C   C174      1.0  0.30616  0.52206  0.06081  1.0000
  C   C175      1.0  0.33250  0.48929  0.10074  1.0000
  C   C176      1.0  0.27147  0.49130  0.09804  1.0000
  C   C177      1.0  0.23793  0.48996  0.07917  1.0000
  C   C178      1.0  0.36166  0.42912  0.32294  1.0000
  C   C179      1.0  0.33529  0.51323  0.12802  1.0000
  N   N9        1.0  0.06810  0.54292  0.00219  1.0000
  H   H305      1.0  0.32735  0.55879  0.44654  1.0000
  C   C180      1.0  0.20854  0.48672  0.10323  1.0000
  C   C181      1.0  0.29416  0.55648  0.01324  1.0000
  S   S45       1.0  0.39228  0.42077  0.01177  1.0000
  H   H306      1.0  0.19944  0.62532  0.15662  1.0000
  H   H307      1.0  0.29370  0.53945  0.07588  1.0000
  H   H308      1.0  0.33296  0.52870  0.05904  1.0000
  H   H309      1.0  0.35639  0.48883  0.08636  1.0000
  H   H310      1.0  0.33155  0.46809  0.11403  1.0000
  H   H311      1.0  0.27249  0.47229  0.11502  1.0000
  H   H312      1.0  0.26942  0.51086  0.11446  1.0000
  H   H313      1.0  0.23728  0.47099  0.06202  1.0000
  H   H314      1.0  0.23371  0.51052  0.06535  1.0000
  H   H315      1.0  0.05527  0.51346  0.17488  1.0000
  H   H316      1.0  0.02561  0.44495  0.42593  1.0000
  H   H317      1.0  0.31488  0.51094  0.14647  1.0000
  H   H318      1.0  0.33358  0.53562  0.11775  1.0000
  H   H319      1.0  0.09718  0.51475  0.05776  1.0000
  C   C182      1.0  0.48663  0.40453  0.00585  1.0000
  H   H320      1.0  0.28514  0.43334  0.08463  1.0000
  H   H321      1.0  0.28463  0.46967  0.03437  1.0000
  C   C183      1.0  0.30002  0.41401  0.03856  1.0000
  H   H322      1.0  0.21159  0.46670  0.11843  1.0000
  H   H323      1.0  0.12729  0.38381  0.38682  1.0000
  H   H324      1.0  0.02018  0.40740  0.43789  1.0000
  C   C184      1.0  0.44721  0.64381  0.46980  1.0000
  N   N10       1.0  0.11696  0.42893  0.37388  1.0000
  C   C185      1.0  0.13637  0.45608  0.36530  1.0000
  C   C186      1.0  0.02459  0.55443  0.04930  1.0000
  H   H325      1.0  0.09424  0.55305  0.06915  1.0000
  C   C187      1.0  0.13804  0.40593  0.39110  1.0000
  C   C188      1.0  0.17600  0.40439  0.38224  1.0000
  C   C189      1.0  0.14801  0.47483  0.39514  1.0000
  C   C190      1.0  0.12603  0.40692  0.31508  1.0000
  H   H326      1.0  0.48863  0.57402  0.01584  1.0000
  C   C191      1.0  0.17288  0.49826  0.38470  1.0000
  H   H327      1.0  0.12090  0.47070  0.34939  1.0000
  H   H328      1.0  0.15860  0.45072  0.34992  1.0000
  H   H329      1.0  0.17898  0.49137  0.47814  1.0000
  H   H330      1.0  0.39318  0.54385  0.26213  1.0000
  H   H331      1.0  0.13707  0.40910  0.41835  1.0000
  C   C192      1.0  0.19259  0.37680  0.39607  1.0000
  H   H332      1.0  0.18926  0.42340  0.39294  1.0000
  H   H333      1.0  0.08647  0.39702  0.34832  1.0000
  H   H334      1.0  0.12626  0.48641  0.40644  1.0000
  H   H335      1.0  0.15968  0.46112  0.41450  1.0000
  H   H336      1.0  0.25902  0.65527  0.00096  1.0000
  H   H337      1.0  0.14197  0.42524  0.30679  1.0000
  H   H338      1.0  0.36667  0.54311  0.46032  1.0000
  H   H339      1.0  0.30353  0.65860  0.00826  1.0000
  H   H340      1.0  0.18066  0.40455  0.35539  1.0000
  H   H341      1.0  0.05357  0.42852  0.45570  1.0000
  H   H342      1.0  0.19638  0.48794  0.37565  1.0000
  H   H343      1.0  0.16215  0.51211  0.36488  1.0000
  H   H344      1.0  0.17890  0.51251  0.40610  1.0000
  H   H345      1.0  0.18470  0.48473  0.08938  1.0000
  H   H346      1.0  0.14092  0.50829  0.46335  1.0000
  H   H347      1.0  0.15828  0.52009  0.04802  1.0000
  H   H348      1.0  0.30025  0.53683  0.32602  1.0000
  H   H349      1.0  0.30207  0.46146  0.32039  1.0000
  H   H350      1.0  0.05061  0.50625  0.03106  1.0000
  S   S46       1.0  0.36489  0.35139  0.38985  1.0000
  H   H351      1.0  0.05959  0.45256  0.02278  1.0000
  C   C193      1.0  0.34644  0.55915  0.46639  1.0000
  H   H352      1.0  0.15524  0.55850  0.05942  1.0000
  H   H353      1.0  0.42194  0.65301  0.47548  1.0000
  C   C194      1.0  0.41023  0.46989  0.48670  1.0000
  H   H354      1.0  0.26668  0.51721  0.02285  1.0000
  C   C195      1.0  0.02935  0.49816  0.36019  1.0000
  C   C196      1.0  0.02908  0.48264  0.08924  1.0000
  H   H355      1.0  0.27926  0.65996  0.12720  1.0000
  C   C197      1.0  0.49101  0.55022  0.02096  1.0000
  H   H356      1.0  0.44784  0.63714  0.44343  1.0000
  C   C198      1.0  0.41601  0.50020  0.48586  1.0000
  H   H357      1.0  0.50701  0.40548  0.02440  1.0000
  H   H358      1.0  0.21078  0.65972  0.17536  1.0000
  H   H359      1.0  0.12475  0.39054  0.26478  1.0000
  C   C199      1.0  0.06232  0.41438  0.40481  1.0000
  C   C200      1.0  0.03911  0.42449  0.43281  1.0000
  H   H360      1.0  0.30236  0.51665  0.47746  1.0000
  H   H361      1.0  0.51086  0.39905  0.32615  1.0000
  H   H362      1.0  0.28937  0.66080  0.06915  1.0000
  H   H363      1.0  0.02415  0.59630  0.07546  1.0000
  C   C201      1.0  0.05485  0.51215  0.00504  1.0000
  H   H364      1.0  0.02403  0.57134  0.00059  1.0000
  C   C202      1.0  0.04405  0.56466  0.01829  1.0000
  H   H365      1.0  0.30877  0.51152  0.00790  1.0000
  H   H366      1.0  0.46938  0.44794  0.01588  1.0000
  C   C203      1.0  0.50558  0.36255  0.39870  1.0000
  C   C204      1.0  0.01583  0.51045  0.13846  1.0000
  H   H367      1.0  0.51357  0.54664  0.03647  1.0000
  H   H368      1.0  0.25863  0.35689  0.01351  1.0000
  H   H369      1.0  0.11134  0.56880  0.01493  1.0000
  H   H370      1.0  0.32486  0.45995  0.49634  1.0000
  C   C205      1.0  0.39210  0.45907  0.00614  1.0000
  H   H371      1.0  0.12125  0.53302  0.00115  1.0000
  H   H372      1.0  0.46431  0.39452  0.01754  1.0000
  C   C206      1.0  0.27994  0.67095  0.00390  1.0000
  H   H373      1.0  0.29935  0.33950  0.01278  1.0000
  Fe  Fe26      1.0  0.12300  0.49094  0.72854  1.0000
  S   S47       1.0  0.08337  0.50528  0.69116  1.0000
  Fe  Fe27      1.0  0.17789  0.45282  0.76095  1.0000
  S   S48       1.0  0.21448  0.41426  0.76145  1.0000
  S   S49       1.0  0.12150  0.45512  0.76660  1.0000
  S   S50       1.0  0.17838  0.48473  0.71870  1.0000
  Fe  Fe28      1.0  0.38869  0.39161  0.96646  1.0000
  S   S51       1.0  0.38152  0.40929  0.91559  1.0000
  C   C207      1.0  0.47760  0.43529  0.99388  1.0000
  C   C208      1.0  0.33233  0.50130  0.61958  1.0000
  C   C209      1.0  0.39391  0.52035  0.99783  1.0000
  Fe  Fe29      1.0  0.42000  0.37544  0.90061  1.0000
  S   S52       1.0  0.46045  0.38613  0.86328  1.0000
  Fe  Fe30      1.0  0.34356  0.37379  0.90955  1.0000
  S   S53       1.0  0.28957  0.38468  0.89595  1.0000
  S   S54       1.0  0.43006  0.36010  0.95202  1.0000
  S   S55       1.0  0.34856  0.35770  0.96181  1.0000
  H   H374      1.0  0.34132  0.52388  0.62431  1.0000
  H   H375      1.0  0.26767  0.48141  0.50204  1.0000
  H   H376      1.0  0.32892  0.45698  0.54036  1.0000
  N   N11       1.0  0.29696  0.51207  0.53034  1.0000
  H   H377      1.0  0.03758  0.42085  0.62957  1.0000
  N   N12       1.0  0.50282  0.48061  0.96452  1.0000
  C   C210      1.0  0.06981  0.54999  0.96587  1.0000
  C   C211      1.0  0.40417  0.47258  0.54588  1.0000
  H   H378      1.0  0.37360  0.45788  0.95646  1.0000
  H   H379      1.0  0.39981  0.46197  0.56924  1.0000
  C   C212      1.0  0.27096  0.39439  0.85784  1.0000
  C   C213      1.0  0.23978  0.40893  0.85850  1.0000
  C   C214      1.0  0.22278  0.41567  0.82914  1.0000
  C   C215      1.0  0.23644  0.40741  0.79865  1.0000
  C   C216      1.0  0.26770  0.39285  0.79788  1.0000
  C   C217      1.0  0.28513  0.38668  0.82733  1.0000
  H   H380      1.0  0.22844  0.41475  0.88194  1.0000
  H   H381      1.0  0.19854  0.42647  0.83019  1.0000
  H   H382      1.0  0.27839  0.38625  0.77441  1.0000
  C   C218      1.0  0.50776  0.61516  0.64391  1.0000
  C   C219      1.0  0.03889  0.43987  0.81354  1.0000
  H   H383      1.0  0.29678  0.47857  0.59000  1.0000
  H   H384      1.0  0.31033  0.56862  0.50409  1.0000
  H   H385      1.0  0.03294  0.52797  0.64863  1.0000
  C   C220      1.0  0.05712  0.48744  0.66236  1.0000
  S   S56       1.0  0.13045  0.52719  0.76600  1.0000
  S   S57       1.0  0.18716  0.48658  0.79955  1.0000
  Fe  Fe31      1.0  0.13115  0.49109  0.80348  1.0000
  S   S58       1.0  0.10822  0.48591  0.85486  1.0000
  Fe  Fe32      1.0  0.18565  0.51866  0.75790  1.0000
  S   S59       1.0  0.22910  0.55051  0.75435  1.0000
  Fe  Fe33      1.0  0.34978  0.59799  0.60536  1.0000
  S   S60       1.0  0.35590  0.61238  0.55242  1.0000
  S   S61       1.0  0.29832  0.57842  0.61592  1.0000
  Fe  Fe34      1.0  0.42404  0.60957  0.62009  1.0000
  S   S62       1.0  0.43443  0.62320  0.56841  1.0000
  S   S63       1.0  0.46599  0.61134  0.65775  1.0000
  Fe  Fe35      1.0  0.38691  0.64958  0.57210  1.0000
  Fe  Fe36      1.0  0.40306  0.58490  0.55397  1.0000
  H   H386      1.0  0.39700  0.42632  0.80413  1.0000
  S   S64       1.0  0.37726  0.63726  0.62513  1.0000
  S   S65       1.0  0.39585  0.56904  0.60554  1.0000
  H   H387      1.0  0.04627  0.43634  0.76066  1.0000
  C   C221      1.0  0.38352  0.50206  0.97203  1.0000
  C   C222      1.0  0.40955  0.50303  0.54500  1.0000
  H   H388      1.0  0.37639  0.51151  0.94865  1.0000
  H   H389      1.0  0.40932  0.51562  0.56760  1.0000
  H   H390      1.0  0.01809  0.43972  0.83173  1.0000
  C   C223      1.0  0.38225  0.47159  0.97630  1.0000
  H   H391      1.0  0.13140  0.47646  0.51212  1.0000
  H   H392      1.0  0.48612  0.67108  0.69832  1.0000
  C   C224      1.0  0.45453  0.35360  0.54625  1.0000
  C   C225      1.0  0.24895  0.55711  0.71583  1.0000
  C   C226      1.0  0.27968  0.57197  0.71494  1.0000
  C   C227      1.0  0.29558  0.57817  0.68464  1.0000
  C   C228      1.0  0.28064  0.56983  0.65490  1.0000
  C   C229      1.0  0.25014  0.55465  0.65585  1.0000
  C   C230      1.0  0.23445  0.54822  0.68609  1.0000
  H   H393      1.0  0.29104  0.57907  0.73776  1.0000
  H   H394      1.0  0.31896  0.58996  0.68427  1.0000
  H   H395      1.0  0.23831  0.54818  0.63306  1.0000
  H   H396      1.0  0.21072  0.53702  0.68637  1.0000
  C   C231      1.0  0.06961  0.49915  0.87125  1.0000
  C   C232      1.0  0.03417  0.50456  0.64443  1.0000
  C   C233      1.0  0.26839  0.53403  0.53375  1.0000
  H   H397      1.0  0.47135  0.54705  0.58210  1.0000
  C   C234      1.0  0.05421  0.52474  0.85976  1.0000
  C   C235      1.0  0.32342  0.51726  0.82521  1.0000
  C   C236      1.0  0.26915  0.49089  0.82815  1.0000
  C   C237      1.0  0.26788  0.49107  0.86641  1.0000
  C   C238      1.0  0.30575  0.54767  0.82287  1.0000
  C   C239      1.0  0.35580  0.45786  0.80418  1.0000
  C   C240      1.0  0.37286  0.43016  0.81728  1.0000
  C   C241      1.0  0.23169  0.49248  0.87886  1.0000
  C   C242      1.0  0.32813  0.57185  0.83644  1.0000
  H   H398      1.0  0.34726  0.51912  0.81112  1.0000
  H   H399      1.0  0.33120  0.51390  0.85126  1.0000
  C   C243      1.0  0.11243  0.52076  0.52450  1.0000
  H   H400      1.0  0.28116  0.51014  0.87695  1.0000
  H   H401      1.0  0.27940  0.47073  0.87633  1.0000
  H   H402      1.0  0.29989  0.55322  0.79692  1.0000
  H   H403      1.0  0.28204  0.54835  0.83722  1.0000
  H   H404      1.0  0.35207  0.45475  0.77730  1.0000
  H   H405      1.0  0.37328  0.47628  0.80803  1.0000
  H   H406      1.0  0.35670  0.41079  0.81336  1.0000
  H   H407      1.0  0.21744  0.47321  0.86999  1.0000
  H   H408      1.0  0.23137  0.49242  0.90624  1.0000
  H   H409      1.0  0.21901  0.51280  0.87023  1.0000
  H   H410      1.0  0.33390  0.56795  0.86284  1.0000
  H   H411      1.0  0.35190  0.57293  0.82215  1.0000
  H   H412      1.0  0.31496  0.59331  0.83437  1.0000
  H   H413      1.0  0.12314  0.54787  0.57999  1.0000
  H   H414      1.0  0.47127  0.53851  0.97381  1.0000
  H   H415      1.0  0.16012  0.49834  0.53569  1.0000
  H   H416      1.0  0.20637  0.56124  0.53217  1.0000
  H   H417      1.0  0.10828  0.47012  0.56226  1.0000
  H   H418      1.0  0.47513  0.65645  0.52787  1.0000
  H   H419      1.0  0.49706  0.60972  0.59234  1.0000
  H   H420      1.0  0.16996  0.50763  0.64487  1.0000
  C   C244      1.0  0.50785  0.44956  0.97630  1.0000
  H   H421      1.0  0.34761  0.42939  0.62724  1.0000
  H   H422      1.0  0.48280  0.66656  0.58051  1.0000
  H   H423      1.0  0.07172  0.48008  0.58409  1.0000
  H   H424      1.0  0.04430  0.39239  0.81743  1.0000
  C   C245      1.0  0.34164  0.41556  0.60546  1.0000
  H   H425      1.0  0.05695  0.42826  0.56047  1.0000
  H   H426      1.0  0.43902  0.45261  0.87098  1.0000
  C   C246      1.0  0.03662  0.44428  0.63366  1.0000
  H   H427      1.0  0.07728  0.44002  0.98425  1.0000
  H   H428      1.0  0.34969  0.55496  0.51900  1.0000
  H   H429      1.0  0.38376  0.38698  0.61294  1.0000
  S   S66       1.0  0.38130  0.34116  0.88982  1.0000
  H   H430      1.0  0.46391  0.51718  0.60988  1.0000
  H   H431      1.0  0.30571  0.44430  0.81779  1.0000
  H   H432      1.0  0.25344  0.50933  0.81878  1.0000
  H   H433      1.0  0.41703  0.37862  0.57160  1.0000
  H   H434      1.0  0.30902  0.37534  0.82643  1.0000
  C   C247      1.0  0.23517  0.52339  0.54939  1.0000
  C   C248      1.0  0.21111  0.54915  0.55541  1.0000
  N   N13       1.0  0.09235  0.51524  0.55555  1.0000
  H   H435      1.0  0.05240  0.48805  0.75558  1.0000
  H   H436      1.0  0.47538  0.36689  0.55623  1.0000
  C   C249      1.0  0.51234  0.38540  0.90846  1.0000
  C   C250      1.0  0.41513  0.51701  0.51488  1.0000
  H   H437      1.0  0.31397  0.41474  0.60275  1.0000
  H   H438      1.0  0.32707  0.53654  0.56512  1.0000
  H   H439      1.0  0.35271  0.42588  0.58327  1.0000
  C   C251      1.0  0.10982  0.52724  0.58588  1.0000
  H   H440      1.0  0.22266  0.50785  0.53235  1.0000
  H   H441      1.0  0.09092  0.53348  0.60514  1.0000
  H   H442      1.0  0.26852  0.49361  0.71461  1.0000
  H   H443      1.0  0.03618  0.47593  0.53685  1.0000
  C   C252      1.0  0.06148  0.45732  0.99602  1.0000
  H   H444      1.0  0.43849  0.49092  0.88218  1.0000
  H   H445      1.0  0.16866  0.54092  0.62132  1.0000
  C   C253      1.0  0.29996  0.49416  0.77593  1.0000
  H   H446      1.0  0.06025  0.54657  0.75718  1.0000
  H   H447      1.0  0.25536  0.46764  0.76638  1.0000
  C   C254      1.0  0.28189  0.46858  0.75831  1.0000
  C   C255      1.0  0.15318  0.52305  0.63156  1.0000
  H   H448      1.0  0.22172  0.56447  0.57399  1.0000
  H   H449      1.0  0.32478  0.49737  0.76395  1.0000
  H   H450      1.0  0.04487  0.54633  0.95441  1.0000
  C   C256      1.0  0.34686  0.36433  0.58090  1.0000
  H   H451      1.0  0.08764  0.53515  0.95269  1.0000
  H   H452      1.0  0.35024  0.37678  0.55755  1.0000
  H   H453      1.0  0.26804  0.45447  0.70916  1.0000
  C   C257      1.0  0.13465  0.50666  0.60423  1.0000
  C   C258      1.0  0.47272  0.48356  0.94236  1.0000
  C   C259      1.0  0.47212  0.46362  0.91144  1.0000
  H   H454      1.0  0.08128  0.41073  0.80230  1.0000
  H   H455      1.0  0.15363  0.49692  0.58756  1.0000
  C   C260      1.0  0.28166  0.47284  0.72098  1.0000
  H   H456      1.0  0.07755  0.57210  0.52954  1.0000
  C   C261      1.0  0.43976  0.46829  0.89201  1.0000
  H   H457      1.0  0.28015  0.42260  0.54118  1.0000
  S   S67       1.0  0.42087  0.55532  0.51238  1.0000
  H   H458      1.0  0.06553  0.59835  0.97016  1.0000
  H   H459      1.0  0.10757  0.58475  0.96333  1.0000
  H   H460      1.0  0.44933  0.47971  0.95662  1.0000
  H   H461      1.0  0.31472  0.34423  0.52927  1.0000
  H   H462      1.0  0.49477  0.39034  0.98496  1.0000
  H   H463      1.0  0.49299  0.46904  0.89456  1.0000
  C   C262      1.0  0.05990  0.41230  0.81983  1.0000
  C   C263      1.0  0.40398  0.45594  0.51665  1.0000
  C   C264      1.0  0.08482  0.48324  0.56016  1.0000
  C   C265      1.0  0.08081  0.58152  0.95703  1.0000
  H   H464      1.0  0.43531  0.66440  0.93381  1.0000
  C   C266      1.0  0.30553  0.50140  0.59272  1.0000
  H   H465      1.0  0.12078  0.48855  0.61617  1.0000
  H   H466      1.0  0.47030  0.50638  0.93319  1.0000
  C   C267      1.0  0.28383  0.48158  0.52441  1.0000
  H   H467      1.0  0.44762  0.36261  0.52178  1.0000
  H   H468      1.0  0.47361  0.44016  0.91817  1.0000
  H   H469      1.0  0.41754  0.46459  0.90792  1.0000
  H   H470      1.0  0.07020  0.41318  0.84524  1.0000
  H   H471      1.0  0.32723  0.46344  0.84892  1.0000
  H   H472      1.0  0.06544  0.53653  0.83956  1.0000
  H   H473      1.0  0.06675  0.46450  0.90696  1.0000
  H   H474      1.0  0.13514  0.53263  0.64964  1.0000
  H   H475      1.0  0.08649  0.60913  0.91397  1.0000
  C   C268      1.0  0.35635  0.38481  0.61006  1.0000
  H   H476      1.0  0.04588  0.52437  0.52968  1.0000
  H   H477      1.0  0.23917  0.51219  0.57316  1.0000
  C   C269      1.0  0.49665  0.49970  0.99462  1.0000
  H   H478      1.0  0.37826  0.43246  0.84401  1.0000
  H   H479      1.0  0.03126  0.55200  0.79128  1.0000
  C   C270      1.0  0.02580  0.49529  0.91351  1.0000
  C   C271      1.0  0.07707  0.58701  0.92008  1.0000
  H   H480      1.0  0.08089  0.48970  0.96362  1.0000
  C   C272      1.0  0.06270  0.46897  0.53323  1.0000
  H   H481      1.0  0.28525  0.51412  0.76976  1.0000
  H   H482      1.0  0.12358  0.54300  0.52524  1.0000
  C   C273      1.0  0.31964  0.51352  0.55999  1.0000
  H   H483      1.0  0.35395  0.48717  0.61224  1.0000
  H   H484      1.0  0.07580  0.44374  0.67057  1.0000
  C   C274      1.0  0.06399  0.43557  0.53533  1.0000
  N   N14       1.0  0.30361  0.49148  0.81282  1.0000
  C   C275      1.0  0.32189  0.46364  0.82200  1.0000
  H   H485      1.0  0.27669  0.55367  0.54795  1.0000
  H   H486      1.0  0.32151  0.49283  0.64288  1.0000
  H   H487      1.0  0.09163  0.57051  0.90554  1.0000
  C   C276      1.0  0.42453  0.35526  0.56979  1.0000
  H   H488      1.0  0.26090  0.54247  0.50907  1.0000
  S   S68       1.0  0.39686  0.55832  0.99093  1.0000
  H   H489      1.0  0.34611  0.37597  0.63346  1.0000
  H   H490      1.0  0.28466  0.51546  0.60173  1.0000
  H   H491      1.0  0.26731  0.47462  0.54489  1.0000
  C   C277      1.0  0.05506  0.48437  0.89797  1.0000
  H   H492      1.0  0.05512  0.45891  0.81813  1.0000
  H   H493      1.0  0.25587  0.47070  0.82046  1.0000
  S   S69       1.0  0.39534  0.41798  0.51830  1.0000
  H   H494      1.0  0.34357  0.50193  0.55475  1.0000
  H   H495      1.0  0.07207  0.57453  0.57361  1.0000
  H   H496      1.0  0.29408  0.44718  0.76341  1.0000
  H   H497      1.0  0.03607  0.45651  0.98494  1.0000
  C   C278      1.0  0.02514  0.53583  0.87553  1.0000
  C   C279      1.0  0.05829  0.45718  0.65690  1.0000
  C   C280      1.0  0.05930  0.53143  0.55233  1.0000
  C   C281      1.0  0.06156  0.56531  0.55053  1.0000
  H   H498      1.0  0.31924  0.36145  0.58346  1.0000
  H   H499      1.0  0.04240  0.52598  0.57327  1.0000
  H   H500      1.0  0.38969  0.33866  0.62582  1.0000
  H   H501      1.0  0.30763  0.47326  0.71106  1.0000
  H   H502      1.0  0.18685  0.54104  0.56483  1.0000
  H   H503      1.0  0.05025  0.58592  0.91289  1.0000
  H   H504      1.0  0.31488  0.40993  0.51640  1.0000
  C   C282      1.0  0.49397  0.53323  0.98844  1.0000
  H   H505      1.0  0.49388  0.37946  0.92663  1.0000
  H   H506      1.0  0.02969  0.51082  0.99316  1.0000
  H   H507      1.0  0.03656  0.49844  0.79439  1.0000
  H   H508      1.0  0.02298  0.56848  0.75183  1.0000
  C   C283      1.0  0.02490  0.44019  0.77804  1.0000
  C   C284      1.0  0.50257  0.39002  0.87582  1.0000
  H   H509      1.0  0.49140  0.51217  0.57455  1.0000
  C   C285      1.0  0.48313  0.52774  0.59417  1.0000
  C   C286      1.0  0.03342  0.54879  0.76419  1.0000
  H   H510      1.0  0.28482  0.55784  0.98754  1.0000
  H   H511      1.0  0.02905  0.60338  0.54510  1.0000
  H   H512      1.0  0.45618  0.43331  0.97666  1.0000
  C   C287      1.0  0.02855  0.49329  0.76888  1.0000
  C   C288      1.0  0.02693  0.57916  0.54558  1.0000
  H   H513      1.0  0.50314  0.55355  0.63343  1.0000
  H   H514      1.0  0.43320  0.34748  0.59416  1.0000
  H   H515      1.0  0.01729  0.46206  0.71598  1.0000
  C   C289      1.0  0.07732  0.48726  0.99052  1.0000
  H   H516      1.0  0.51057  0.50161  0.64831  1.0000
  H   H517      1.0  0.09561  0.52106  0.50255  1.0000
  C   C290      1.0  0.31079  0.45710  0.51976  1.0000
  H   H518      1.0  0.08951  0.42723  0.52920  1.0000
  C   C291      1.0  0.29482  0.42685  0.51841  1.0000
  H   H519      1.0  0.01618  0.52025  0.72592  1.0000
  C   C292      1.0  0.51291  0.53766  0.61492  1.0000
  H   H520      1.0  0.38833  0.34638  0.53233  1.0000
  H   H521      1.0  0.07056  0.47541  0.50806  1.0000
  C   C293      1.0  0.14114  0.49888  0.51603  1.0000
  H   H522      1.0  0.01512  0.48387  0.93427  1.0000
  H   H523      1.0  0.04591  0.42603  0.51762  1.0000
  H   H524      1.0  0.27155  0.34080  0.95723  1.0000
  C   C294      1.0  0.31730  0.52026  0.50030  1.0000
  C   C295      1.0  0.33045  0.55213  0.49968  1.0000
  H   H525      1.0  0.51418  0.43462  0.95554  1.0000
  H   H526      1.0  0.01606  0.57184  0.52174  1.0000
  Fe  Fe37      1.0  0.10805  0.96118  0.20533  1.0000
  H   H527      1.0  0.18566  0.96379  0.12225  1.0000
  Fe  Fe38      1.0  0.16646  0.94354  0.25274  1.0000
  S   S70       1.0  0.21118  0.91275  0.25931  1.0000
  S   S71       1.0  0.11207  0.93145  0.24928  1.0000
  S   S72       1.0  0.16365  0.96864  0.20560  1.0000
  S   S73       1.0  0.40302  0.70119  0.04873  1.0000
  Fe  Fe39      1.0  0.39184  0.89386  0.46304  1.0000
  S   S74       1.0  0.38567  0.91546  0.41414  1.0000
  H   H528      1.0  0.22513  0.93965  0.02345  1.0000
  Fe  Fe40      1.0  0.38136  0.83246  0.43415  1.0000
  S   S75       1.0  0.37437  0.85045  0.38265  1.0000
  S   S76       1.0  0.37706  0.78263  0.43798  1.0000
  Fe  Fe41      1.0  0.41843  0.87896  0.39470  1.0000
  S   S77       1.0  0.45801  0.89133  0.35697  1.0000
  Fe  Fe42      1.0  0.34239  0.88541  0.40649  1.0000
  S   S78       1.0  0.29272  0.90728  0.39354  1.0000
  S   S79       1.0  0.42769  0.85894  0.44433  1.0000
  S   S80       1.0  0.34620  0.86569  0.45714  1.0000
  H   H529      1.0  0.29477  0.73052  0.08184  1.0000
  H   H530      1.0  0.34586  0.98110  0.33726  1.0000
  H   H531      1.0  0.25279  0.84860  0.45657  1.0000
  C   C296      1.0  0.04077  0.95581  0.10449  1.0000
  H   H532      1.0  0.49387  0.85786  0.40698  1.0000
  C   C297      1.0  0.40138  0.97386  0.47904  1.0000
  S   S81       1.0  0.06794  0.96089  0.32326  1.0000
  C   C298      1.0  0.39792  0.97737  0.03329  1.0000
  H   H533      1.0  0.39726  0.96213  0.45638  1.0000
  H   H534      1.0  0.40133  0.96641  0.05664  1.0000
  C   C299      1.0  0.23273  0.74441  0.07760  1.0000
  H   H535      1.0  0.20129  0.78047  0.06114  1.0000
  C   C300      1.0  0.23896  0.89190  0.47242  1.0000
  S   S82       1.0  0.38429  0.92295  0.00860  1.0000
  H   H536      1.0  0.13022  0.88090  0.35066  1.0000
  C   C301      1.0  0.27172  0.82186  0.39965  1.0000
  H   H537      1.0  0.40777  0.76322  0.04050  1.0000
  H   H538      1.0  0.44943  0.94099  0.40388  1.0000
  H   H539      1.0  0.37083  0.72044  0.44537  1.0000
  S   S83       1.0  0.15741  0.98267  0.28509  1.0000
  C   C302      1.0  0.27235  0.90979  0.35503  1.0000
  C   C303      1.0  0.24464  0.92881  0.35230  1.0000
  C   C304      1.0  0.22616  0.93036  0.32290  1.0000
  C   C305      1.0  0.23497  0.91259  0.29601  1.0000
  C   C306      1.0  0.26295  0.89377  0.29858  1.0000
  C   C307      1.0  0.28176  0.89250  0.32791  1.0000
  H   H540      1.0  0.23715  0.94222  0.37319  1.0000
  H   H541      1.0  0.20460  0.94477  0.32137  1.0000
  H   H542      1.0  0.26994  0.87995  0.27785  1.0000
  H   H543      1.0  0.30307  0.87777  0.32974  1.0000
  C   C308      1.0  0.04547  0.98167  0.35330  1.0000
  C   C309      1.0  0.22988  0.86240  0.45703  1.0000
  H   H544      1.0  0.06026  0.94663  0.08885  1.0000
  H   H545      1.0  0.49551  0.77983  0.47602  1.0000
  C   C310      1.0  0.04701  0.96001  0.13831  1.0000
  C   C311      1.0  0.19929  0.81364  0.42324  1.0000
  C   C312      1.0  0.19291  0.78407  0.40538  1.0000
  C   C313      1.0  0.18612  0.75973  0.43018  1.0000
  H   H546      1.0  0.17616  0.81954  0.43742  1.0000
  C   C314      1.0  0.25735  0.67503  0.12458  1.0000
  H   H547      1.0  0.17067  0.78560  0.38912  1.0000
  H   H548      1.0  0.21497  0.77718  0.39040  1.0000
  H   H549      1.0  0.20821  0.75625  0.44638  1.0000
  H   H550      1.0  0.16385  0.76524  0.44562  1.0000
  H   H551      1.0  0.18117  0.73892  0.41681  1.0000
  H   H552      1.0  0.32088  0.93373  0.48432  1.0000
  C   C315      1.0  0.02883  0.96669  0.37871  1.0000
  C   C316      1.0  0.02155  0.97184  0.15825  1.0000
  H   H553      1.0  0.41251  0.97523  0.37456  1.0000
  N   N15       1.0  0.26158  0.69488  0.09517  1.0000
  H   H554      1.0  0.44737  0.97574  0.42436  1.0000
  C   C317      1.0  0.40299  0.00457  0.47876  1.0000
  C   C318      1.0  0.24481  0.99683  0.00835  1.0000
  H   H555      1.0  0.30636  0.94199  0.28945  1.0000
  H   H556      1.0  0.24767  0.85157  0.36691  1.0000
  H   H557      1.0  0.32505  0.68419  0.12819  1.0000
  H   H558      1.0  0.34042  0.96798  0.07926  1.0000
  H   H559      1.0  0.33339  0.68761  0.08456  1.0000
  C   C319      1.0  0.38981  0.96105  0.00514  1.0000
  C   C320      1.0  0.21434  0.86627  0.42222  1.0000
  C   C321      1.0  0.39000  0.75534  0.02250  1.0000
  C   C322      1.0  0.28661  0.96563  0.22825  1.0000
  C   C323      1.0  0.27288  0.69226  0.03231  1.0000
  H   H560      1.0  0.44934  0.72705  0.48662  1.0000
  H   H561      1.0  0.46494  0.89944  0.03135  1.0000
  H   H562      1.0  0.18244  0.75837  0.09273  1.0000
  Fe  Fe43      1.0  0.10241  0.97229  0.27987  1.0000
  C   C324      1.0  0.38226  0.72536  0.02138  1.0000
  C   C325      1.0  0.31116  0.96370  0.30068  1.0000
  C   C326      1.0  0.34056  0.96008  0.32448  1.0000
  H   H563      1.0  0.35505  0.73783  0.09417  1.0000
  C   C327      1.0  0.25916  0.94057  0.17936  1.0000
  H   H564      1.0  0.50205  0.95106  0.37826  1.0000
  H   H565      1.0  0.27696  0.94745  0.24367  1.0000
  H   H566      1.0  0.31093  0.95748  0.21804  1.0000
  C   C328      1.0  0.49583  0.96565  0.39967  1.0000
  C   C329      1.0  0.32286  0.98690  0.08160  1.0000
  H   H567      1.0  0.33429  0.94355  0.34344  1.0000
  C   C330      1.0  0.37996  0.75986  0.47332  1.0000
  H   H568      1.0  0.03015  0.94302  0.37942  1.0000
  C   C331      1.0  0.37603  0.72940  0.46954  1.0000
  H   H569      1.0  0.28317  0.84084  0.41241  1.0000
  H   H570      1.0  0.51247  0.71548  0.47571  1.0000
  H   H571      1.0  0.21140  0.88892  0.00561  1.0000
  H   H572      1.0  0.29426  0.70754  0.03383  1.0000
  H   H573      1.0  0.17671  0.82598  0.36122  1.0000
  H   H574      1.0  0.43932  0.68702  0.12336  1.0000
  C   C332      1.0  0.44014  0.97724  0.37205  1.0000
  C   C333      1.0  0.29804  0.80957  0.37572  1.0000
  C   C334      1.0  0.24304  0.92735  0.00747  1.0000
  C   C335      1.0  0.26159  0.96893  0.19932  1.0000
  C   C336      1.0  0.50081  0.88248  0.36245  1.0000
  H   H575      1.0  0.14809  0.85753  0.31867  1.0000
  H   H576      1.0  0.21698  0.71594  0.11588  1.0000
  H   H577      1.0  0.46960  0.68522  0.45957  1.0000
  H   H578      1.0  0.03597  0.98112  0.49201  1.0000
  H   H579      1.0  0.25070  0.92233  0.19530  1.0000
  H   H580      1.0  0.24055  0.94347  0.15930  1.0000
  H   H581      1.0  0.29547  0.94832  0.45149  1.0000
  C   C337      1.0  0.49771  0.89436  0.49325  1.0000
  H   H582      1.0  0.46492  0.94935  0.00825  1.0000
  H   H583      1.0  0.21855  0.80912  0.44223  1.0000
  C   C338      1.0  0.15257  0.87682  0.33482  1.0000
  H   H584      1.0  0.50263  0.98821  0.39197  1.0000
  C   C339      1.0  0.29352  0.96945  0.02957  1.0000
  H   H585      1.0  0.15647  0.84738  0.39245  1.0000
  H   H586      1.0  0.23616  0.97420  0.20875  1.0000
  C   C340      1.0  0.45713  0.96418  0.40237  1.0000
  H   H587      1.0  0.48639  0.71814  0.13930  1.0000
  H   H588      1.0  0.15610  0.89623  0.31879  1.0000
  H   H589      1.0  0.37544  0.68710  0.49352  1.0000
  H   H590      1.0  0.18766  0.89233  0.37046  1.0000
  H   H591      1.0  0.44633  0.00079  0.36962  1.0000
  C   C341      1.0  0.31237  0.95421  0.47212  1.0000
  H   H592      1.0  0.26118  0.91568  0.02363  1.0000
  H   H593      1.0  0.27734  0.95854  0.04810  1.0000
  H   H594      1.0  0.13096  0.00272  0.42996  1.0000
  H   H595      1.0  0.49434  0.87598  0.47556  1.0000
  N   N16       1.0  0.29170  0.99268  0.24911  1.0000
  H   H596      1.0  0.32077  0.80288  0.38963  1.0000
  H   H597      1.0  0.08216  0.98374  0.46232  1.0000
  H   H598      1.0  0.48116  0.75458  0.44448  1.0000
  H   H599      1.0  0.14247  0.99754  0.14378  1.0000
  H   H600      1.0  0.21657  0.90649  0.47403  1.0000
  H   H601      1.0  0.18993  0.87775  0.42673  1.0000
  H   H602      1.0  0.49486  0.91326  0.42933  1.0000
  H   H603      1.0  0.21123  0.70085  0.07592  1.0000
  H   H604      1.0  0.50177  0.77111  0.17467  1.0000
  H   H605      1.0  0.14524  0.95377  0.10641  1.0000
  H   H606      1.0  0.28840  0.78998  0.36261  1.0000
  C   C342      1.0  0.30949  0.99586  0.04781  1.0000
  C   C343      1.0  0.29090  0.71469  0.10211  1.0000
  C   C344      1.0  0.32545  0.69960  0.10720  1.0000
  C   C345      1.0  0.47514  0.76471  0.46878  1.0000
  H   H607      1.0  0.26652  0.80446  0.41778  1.0000
  H   H608      1.0  0.28380  0.93476  0.16816  1.0000
  C   C346      1.0  0.51183  0.86603  0.38936  1.0000
  H   H609      1.0  0.33437  0.96552  0.46154  1.0000
  S   S84       1.0  0.08723  0.95082  0.15415  1.0000
  H   H610      1.0  0.18545  0.74480  0.05071  1.0000
  H   H611      1.0  0.28544  0.72821  0.12451  1.0000
  H   H612      1.0  0.30524  0.82640  0.35741  1.0000
  H   H613      1.0  0.48120  0.82600  0.01260  1.0000
  H   H614      1.0  0.17482  0.97275  0.08031  1.0000
  H   H615      1.0  0.34592  0.73462  0.13782  1.0000
  N   N17       1.0  0.20920  0.83893  0.40157  1.0000
  C   C347      1.0  0.35232  0.72227  0.11495  1.0000
  H   H616      1.0  0.37682  0.71102  0.11865  1.0000
  C   C348      1.0  0.16491  0.97082  0.10581  1.0000
  H   H617      1.0  0.24835  0.98049  0.27828  1.0000
  C   C349      1.0  0.22960  0.71285  0.09149  1.0000
  H   H618      1.0  0.20529  0.86914  0.33860  1.0000
  H   H619      1.0  0.25630  0.68837  0.14770  1.0000
  H   H620      1.0  0.23400  0.81537  0.36175  1.0000
  H   H621      1.0  0.24495  0.75880  0.09612  1.0000
  H   H622      1.0  0.30184  0.98110  0.09829  1.0000
  H   H623      1.0  0.36341  0.95239  0.31114  1.0000
  C   C350      1.0  0.49059  0.69411  0.13917  1.0000
  H   H624      1.0  0.10226  0.99282  0.09709  1.0000
  H   H625      1.0  0.34196  0.97774  0.26068  1.0000
  C   C351      1.0  0.18388  0.87206  0.35582  1.0000
  C   C352      1.0  0.23991  0.83199  0.38100  1.0000
  H   H626      1.0  0.21143  0.85190  0.47370  1.0000
  C   C353      1.0  0.49127  0.99509  0.47105  1.0000
  H   H627      1.0  0.24979  0.70453  0.02569  1.0000
  C   C354      1.0  0.19829  0.75771  0.07014  1.0000
  C   C355      1.0  0.18036  0.84481  0.37829  1.0000
  H   H628      1.0  0.22986  0.88225  0.40849  1.0000
  C   C356      1.0  0.48632  0.90678  0.01591  1.0000
  H   H629      1.0  0.47352  0.93785  0.45577  1.0000
  C   C357      1.0  0.15075  0.00021  0.11789  1.0000
  H   H630      1.0  0.44816  0.96520  0.34942  1.0000
  H   H631      1.0  0.50906  0.98499  0.01392  1.0000
  H   H632      1.0  0.02597  0.97517  0.18429  1.0000
  H   H633      1.0  0.24783  0.74513  0.05468  1.0000
  C   C358      1.0  0.49902  0.93158  0.44705  1.0000
  H   H634      1.0  0.24895  0.88847  0.49764  1.0000
  C   C359      1.0  0.31929  0.98641  0.27357  1.0000
  H   H635      1.0  0.26927  0.98638  0.18215  1.0000
  C   C360      1.0  0.37870  0.71041  0.49678  1.0000
  H   H636      1.0  0.31409  0.95350  0.02360  1.0000
  H   H637      1.0  0.46900  0.68953  0.08999  1.0000
  H   H638      1.0  0.25864  0.90273  0.45756  1.0000
  H   H639      1.0  0.28686  0.99450  0.48286  1.0000
  S   S85       1.0  0.09575  0.00148  0.23526  1.0000
  H   H640      1.0  0.28894  0.97034  0.31550  1.0000
  H   H641      1.0  0.32571  0.99760  0.18478  1.0000
  H   H642      1.0  0.50633  0.91502  0.03242  1.0000
  C   C361      1.0  0.46514  0.68103  0.11532  1.0000
  H   H643      1.0  0.48481  0.68596  0.16414  1.0000
  H   H644      1.0  0.47687  0.97804  0.48407  1.0000
  H   H645      1.0  0.45165  0.77775  0.46612  1.0000
  H   H646      1.0  0.49791  0.00351  0.18080  1.0000
  H   H647      1.0  0.09387  0.99747  0.40562  1.0000
  C   C362      1.0  0.25909  0.00023  0.26631  1.0000
  H   H648      1.0  0.23628  0.99242  0.03404  1.0000
  H   H649      1.0  0.33094  0.00443  0.03353  1.0000
  C   C363      1.0  0.29380  0.97434  0.49640  1.0000
  C   C364      1.0  0.26765  0.67586  0.06518  1.0000
  H   H650      1.0  0.49607  0.88769  0.00161  1.0000
  H   H651      1.0  0.38103  0.79825  0.00168  1.0000
  C   C365      1.0  0.37499  0.77523  0.00046  1.0000
  H   H652      1.0  0.43779  0.82717  0.00054  1.0000
  H   H653      1.0  0.35423  0.00406  0.21812  1.0000
  C   C366      1.0  0.47019  0.74110  0.49488  1.0000
  C   C367      1.0  0.47436  0.93095  0.99277  1.0000
  H   H654      1.0  0.21838  0.99812  0.96022  1.0000
  Fe  Fe44      1.0  0.15257  0.97819  0.76044  1.0000
  S   S86       1.0  0.18117  0.93596  0.77053  1.0000
  H   H655      1.0  0.50299  0.75946  0.92718  1.0000
  C   C368      1.0  0.35247  0.76522  0.97668  1.0000
  S   S87       1.0  0.39071  0.69899  0.56324  1.0000
  Fe  Fe45      1.0  0.36742  0.89759  0.96375  1.0000
  S   S88       1.0  0.36280  0.91787  0.91397  1.0000
  C   C369      1.0  0.49814  0.79126  0.88782  1.0000
  Fe  Fe46      1.0  0.34519  0.83735  0.93900  1.0000
  S   S89       1.0  0.33782  0.85416  0.88716  1.0000
  S   S90       1.0  0.33453  0.78888  0.94692  1.0000
  Fe  Fe47      1.0  0.38712  0.87658  0.89543  1.0000
  S   S91       1.0  0.42736  0.87817  0.85601  1.0000
  Fe  Fe48      1.0  0.31405  0.89403  0.91068  1.0000
  S   S92       1.0  0.26854  0.92300  0.90084  1.0000
  S   S93       1.0  0.39560  0.85782  0.94571  1.0000
  S   S94       1.0  0.31743  0.87554  0.96198  1.0000
  C   C370      1.0  0.47765  0.87386  0.90211  1.0000
  C   C371      1.0  0.46953  0.87595  0.86874  1.0000
  N   N18       1.0  0.27359  0.97660  0.99894  1.0000
  H   H656      1.0  0.45811  0.87388  0.92049  1.0000
  H   H657      1.0  0.46331  0.77825  0.99104  1.0000
  C   C372      1.0  0.38623  0.97540  0.97499  1.0000
  C   C373      1.0  0.50295  0.94060  0.96933  1.0000
  C   C374      1.0  0.40999  0.97432  0.53793  1.0000
  H   H658      1.0  0.38043  0.96319  0.95310  1.0000
  H   H659      1.0  0.41284  0.96267  0.56091  1.0000
  C   C375      1.0  0.38553  0.72171  0.52814  1.0000
  H   H660      1.0  0.49171  0.68860  0.73772  1.0000
  C   C376      1.0  0.50291  0.72312  0.50015  1.0000
  H   H661      1.0  0.31882  0.97612  0.96990  1.0000
  C   C377      1.0  0.51129  0.87204  0.91186  1.0000
  H   H662      1.0  0.48565  0.71049  0.70102  1.0000
  H   H663      1.0  0.49511  0.81190  0.90191  1.0000
  C   C378      1.0  0.46393  0.82495  0.99122  1.0000
  H   H664      1.0  0.05875  0.93606  0.51823  1.0000
  C   C379      1.0  0.46632  0.95688  0.92454  1.0000
  C   C380      1.0  0.24509  0.92605  0.86406  1.0000
  C   C381      1.0  0.21877  0.94668  0.86302  1.0000
  C   C382      1.0  0.19925  0.95001  0.83446  1.0000
  C   C383      1.0  0.20575  0.93264  0.80663  1.0000
  C   C384      1.0  0.23202  0.91191  0.80766  1.0000
  C   C385      1.0  0.25179  0.90871  0.83621  1.0000
  H   H665      1.0  0.21334  0.96010  0.88447  1.0000
  H   H666      1.0  0.17881  0.96569  0.83421  1.0000
  H   H667      1.0  0.23703  0.89820  0.78633  1.0000
  H   H668      1.0  0.27187  0.89263  0.83681  1.0000
  C   C386      1.0  0.46877  0.79579  0.97305  1.0000
  C   C387      1.0  0.22372  0.90415  0.98821  1.0000
  H   H669      1.0  0.46816  0.70535  0.91302  1.0000
  H   H670      1.0  0.44855  0.81421  0.92868  1.0000
  H   H671      1.0  0.06023  0.95888  0.87005  1.0000
  H   H672      1.0  0.03519  0.96674  0.83434  1.0000
  H   H673      1.0  0.40784  0.78308  0.82834  1.0000
  C   C388      1.0  0.01991  0.92686  0.86096  1.0000
  C   C389      1.0  0.33022  0.97754  0.81235  1.0000
  H   H674      1.0  0.43540  0.81169  0.87357  1.0000
  C   C390      1.0  0.49540  0.87643  0.84516  1.0000
  H   H675      1.0  0.50587  0.72931  0.56368  1.0000
  S   S95       1.0  0.40148  0.92001  0.50987  1.0000
  N   N19       1.0  0.49468  0.96583  0.94687  1.0000
  H   H676      1.0  0.46244  0.75223  0.51812  1.0000
  C   C391      1.0  0.48363  0.99255  0.96635  1.0000
  H   H677      1.0  0.38973  0.79448  0.50804  1.0000
  C   C392      1.0  0.29720  0.99109  0.97499  1.0000
  C   C393      1.0  0.47344  0.67668  0.51300  1.0000
  H   H678      1.0  0.05995  0.97963  0.94571  1.0000
  H   H679      1.0  0.31415  0.95572  0.76850  1.0000
  H   H680      1.0  0.45158  0.70336  0.61437  1.0000
  H   H681      1.0  0.28228  0.95901  0.79857  1.0000
  H   H682      1.0  0.45187  0.68488  0.96813  1.0000
  H   H683      1.0  0.20000  0.97424  0.98979  1.0000
  C   C394      1.0  0.04483  0.96284  0.95851  1.0000
  H   H684      1.0  0.32116  0.95980  0.53883  1.0000
  H   H685      1.0  0.26815  0.98302  0.92925  1.0000
  H   H686      1.0  0.48927  0.87808  0.81928  1.0000
  H   H687      1.0  0.42324  0.98253  0.85524  1.0000
  H   H688      1.0  0.08637  0.91627  0.84090  1.0000
  H   H689      1.0  0.25025  0.98661  0.54768  1.0000
  H   H690      1.0  0.21880  0.95122  0.70947  1.0000
  H   H691      1.0  0.24062  0.97610  0.76214  1.0000
  H   H692      1.0  0.05067  0.93091  0.92014  1.0000
  H   H693      1.0  0.48689  0.74569  0.88981  1.0000
  H   H694      1.0  0.47756  0.99295  0.66113  1.0000
  H   H695      1.0  0.46951  0.84355  0.97462  1.0000
  H   H696      1.0  0.04030  0.94724  0.55729  1.0000
  H   H697      1.0  0.48183  0.68292  0.63781  1.0000
  H   H698      1.0  0.33212  0.99430  0.73660  1.0000
  H   H699      1.0  0.06132  0.92425  0.80478  1.0000
  H   H700      1.0  0.45824  0.98939  0.97706  1.0000
  H   H701      1.0  0.09191  0.95009  0.81904  1.0000
  H   H702      1.0  0.46445  0.71732  0.55768  1.0000
  C   C395      1.0  0.49490  0.68758  0.58632  1.0000
  H   H703      1.0  0.02817  0.96386  0.76795  1.0000
  C   C396      1.0  0.45848  0.97788  0.89559  1.0000
  H   H704      1.0  0.39775  0.80965  0.89752  1.0000
  C   C397      1.0  0.49104  0.70953  0.55745  1.0000
  H   H705      1.0  0.46963  0.99905  0.70443  1.0000
  C   C398      1.0  0.38945  0.75215  0.53190  1.0000
  C   C399      1.0  0.26224  0.94804  0.98398  1.0000
  H   H706      1.0  0.23163  0.96883  0.61964  1.0000
  H   H707      1.0  0.48494  0.79315  0.86390  1.0000
  H   H708      1.0  0.39470  0.76114  0.55606  1.0000
  H   H709      1.0  0.46252  0.73825  0.96149  1.0000
  C   C400      1.0  0.04675  0.94890  0.84898  1.0000
  H   H710      1.0  0.01643  0.99189  0.52992  1.0000
  H   H711      1.0  0.45361  0.00050  0.90458  1.0000
  C   C401      1.0  0.34443  0.73529  0.97584  1.0000
  C   C402      1.0  0.41367  0.79776  0.87927  1.0000
  H   H712      1.0  0.44794  0.68578  0.51812  1.0000
  C   C403      1.0  0.36273  0.99284  0.62573  1.0000
  H   H713      1.0  0.02488  0.97398  0.97321  1.0000
  H   H714      1.0  0.01796  0.94708  0.72870  1.0000
  H   H715      1.0  0.24827  0.94402  0.67667  1.0000
  H   H716      1.0  0.06089  0.96768  0.66539  1.0000
  H   H717      1.0  0.47963  0.97831  0.87777  1.0000
  H   H718      1.0  0.47088  0.93463  0.91402  1.0000
  H   H719      1.0  0.36914  0.97413  0.64196  1.0000
  H   H720      1.0  0.44272  0.95478  0.93898  1.0000
  H   H721      1.0  0.01797  0.97741  0.90036  1.0000
  H   H722      1.0  0.34830  0.93217  0.81383  1.0000
  H   H723      1.0  0.27559  0.96650  0.57526  1.0000
  C   C404      1.0  0.28245  0.00064  0.94142  1.0000
  C   C405      1.0  0.42742  0.96806  0.87677  1.0000
  C   C406      1.0  0.39301  0.79448  0.84786  1.0000
  H   H724      1.0  0.24099  0.89129  0.97201  1.0000
  H   H725      1.0  0.43254  0.75328  0.87256  1.0000
  H   H726      1.0  0.03299  0.90885  0.87426  1.0000
  C   C407      1.0  0.07117  0.99603  0.53126  1.0000
  C   C408      1.0  0.42402  0.76747  0.89345  1.0000
  H   H727      1.0  0.34862  0.96512  0.58546  1.0000
  C   C409      1.0  0.44525  0.79372  0.94274  1.0000
  C   C410      1.0  0.26003  0.98737  0.74731  1.0000
  H   H728      1.0  0.40494  0.96948  0.89295  1.0000
  C   C411      1.0  0.50708  0.00219  0.99482  1.0000
  H   H729      1.0  0.49547  0.79422  0.96548  1.0000
  C   C412      1.0  0.35914  0.71546  0.99816  1.0000
  N   N20       1.0  0.44973  0.76710  0.92088  1.0000
  H   H730      1.0  0.39990  0.75791  0.90217  1.0000
  C   C413      1.0  0.44328  0.74046  0.94187  1.0000
  C   C414      1.0  0.48489  0.76458  0.90715  1.0000
  C   C415      1.0  0.02962  0.94159  0.93359  1.0000
  H   H731      1.0  0.31518  0.97457  0.61364  1.0000
  C   C416      1.0  0.44307  0.71051  0.92352  1.0000
  N   N21       1.0  0.50026  0.69781  0.52366  1.0000
  H   H732      1.0  0.47275  0.90257  0.50150  1.0000
  H   H733      1.0  0.25756  0.99178  0.83272  1.0000
  H   H734      1.0  0.41874  0.74292  0.95489  1.0000
  C   C417      1.0  0.40462  0.95857  0.50861  1.0000
  N   N22       1.0  0.28856  0.99774  0.76876  1.0000
  C   C418      1.0  0.27007  0.98915  0.56667  1.0000
  H   H735      1.0  0.32700  0.72735  0.95754  1.0000
  H   H736      1.0  0.29120  0.97300  0.70445  1.0000
  H   H737      1.0  0.51133  0.88593  0.51511  1.0000
  C   C419      1.0  0.47887  0.69940  0.61799  1.0000
  H   H738      1.0  0.32192  0.99396  0.83093  1.0000
  H   H739      1.0  0.42443  0.71029  0.90328  1.0000
  H   H740      1.0  0.31748  0.94154  0.84512  1.0000
  C   C420      1.0  0.31576  0.98122  0.52695  1.0000
  H   H741      1.0  0.27671  0.94373  0.73025  1.0000
  H   H742      1.0  0.49099  0.72007  0.62585  1.0000
  H   H743      1.0  0.35979  0.95431  0.84880  1.0000
  H   H744      1.0  0.35331  0.98519  0.79996  1.0000
  H   H745      1.0  0.06143  0.95069  0.97570  1.0000
  H   H746      1.0  0.35319  0.69243  0.99690  1.0000
  H   H747      1.0  0.45313  0.92205  0.97834  1.0000
  C   C421      1.0  0.07308  0.93381  0.82711  1.0000
  C   C422      1.0  0.43412  0.68573  0.94708  1.0000
  C   C423      1.0  0.30276  0.97145  0.78643  1.0000
  H   H748      1.0  0.28423  0.93536  0.97429  1.0000
  H   H749      1.0  0.41894  0.79477  0.95198  1.0000
  C   C424      1.0  0.26984  0.96526  0.71949  1.0000
  H   H750      1.0  0.38581  0.81652  0.83864  1.0000
  H   H751      1.0  0.24633  0.95180  0.96205  1.0000
  C   C425      1.0  0.33943  0.94964  0.83104  1.0000
  S   S96       1.0  0.09800  0.98335  0.74674  1.0000
  C   C426      1.0  0.24068  0.96012  0.69596  1.0000
  C   C427      1.0  0.04723  0.98049  0.64743  1.0000
  H   H752      1.0  0.36974  0.78207  0.85294  1.0000
  H   H753      1.0  0.27053  0.96302  0.50389  1.0000
  C   C428      1.0  0.33708  0.98322  0.60005  1.0000
  H   H754      1.0  0.43060  0.94518  0.86768  1.0000
  H   H755      1.0  0.09287  0.98089  0.52707  1.0000
  H   H756      1.0  0.34058  0.98888  0.51819  1.0000
  H   H757      1.0  0.40828  0.68882  0.95681  1.0000
  H   H758      1.0  0.20410  0.91459  0.97271  1.0000
  C   C429      1.0  0.22356  0.99033  0.60959  1.0000
  S   S97       1.0  0.16963  0.00402  0.71665  1.0000
  C   C430      1.0  0.21276  0.99553  0.98675  1.0000
  H   H759      1.0  0.22508  0.00172  0.80388  1.0000
  C   C431      1.0  0.38664  0.77115  0.50472  1.0000
  C   C432      1.0  0.41161  0.00512  0.53767  1.0000
  H   H760      1.0  0.28279  0.68335  0.98059  1.0000
  H   H761      1.0  0.38608  0.00025  0.61348  1.0000
  H   H762      1.0  0.20429  0.98675  0.59032  1.0000
  H   H763      1.0  0.23332  0.98092  0.68382  1.0000
  H   H764      1.0  0.50966  0.92085  0.95456  1.0000
  C   C433      1.0  0.03880  0.98071  0.51910  1.0000
  C   C434      1.0  0.49741  0.69025  0.71097  1.0000
  H   H765      1.0  0.21202  0.00345  0.62990  1.0000
  C   C435      1.0  0.03805  0.94875  0.53005  1.0000
  H   H766      1.0  0.01605  0.92469  0.94780  1.0000
  N   N23       1.0  0.30088  0.00259  0.55161  1.0000
  H   H767      1.0  0.06785  0.99729  0.55850  1.0000
  H   H768      1.0  0.32717  0.99040  0.91231  1.0000
  C   C436      1.0  0.01925  0.96858  0.63133  1.0000
  C   C437      1.0  0.79736  0.27383  0.37941  1.0000
  H   H769      1.0  0.51623  0.03558  0.48541  1.0000
  S   S98       1.0  0.89553  0.01766  0.46491  1.0000
  H   H770      1.0  0.56992  0.20553  0.08958  1.0000
  C   C438      1.0  0.55516  0.25780  0.29796  1.0000
  H   H771      1.0  0.76441  0.07512  0.02542  1.0000
  Fe  Fe49      1.0  0.71510  0.12619  0.15099  1.0000
  S   S99       1.0  0.70974  0.13992  0.20424  1.0000
  S   S100      1.0  0.76990  0.11913  0.13676  1.0000
  Fe  Fe50      1.0  0.63881  0.12452  0.14215  1.0000
  S   S101      1.0  0.62851  0.13694  0.19475  1.0000
  S   S102      1.0  0.59750  0.11610  0.10500  1.0000
  Fe  Fe51      1.0  0.66891  0.17040  0.18785  1.0000
  S   S103      1.0  0.65752  0.21781  0.20220  1.0000
  Fe  Fe52      1.0  0.67028  0.10535  0.20628  1.0000
  S   S104      1.0  0.67035  0.07531  0.25011  1.0000
  S   S105      1.0  0.67711  0.15973  0.13404  1.0000
  S   S106      1.0  0.67766  0.08997  0.15428  1.0000
  S   S107      1.0  0.73062  0.30171  0.30500  1.0000
  C   C439      1.0  0.67700  0.23990  0.23256  1.0000
  C   C440      1.0  0.70381  0.22973  0.25161  1.0000
  C   C441      1.0  0.71996  0.24882  0.27381  1.0000
  C   C442      1.0  0.70916  0.27809  0.27750  1.0000
  C   C443      1.0  0.68196  0.28803  0.25886  1.0000
  C   C444      1.0  0.66595  0.26902  0.23660  1.0000
  H   H772      1.0  0.71216  0.20725  0.24910  1.0000
  H   H773      1.0  0.74089  0.24088  0.28822  1.0000
  H   H774      1.0  0.67363  0.31055  0.26110  1.0000
  H   H775      1.0  0.64532  0.27714  0.22192  1.0000
  C   C445      1.0  0.66647  0.03722  0.24471  1.0000
  H   H776      1.0  0.59608  0.06430  0.20805  1.0000
  H   H777      1.0  0.99837  0.07869  0.48200  1.0000
  H   H778      1.0  0.67392  0.02867  0.29633  1.0000
  H   H779      1.0  0.65886  0.03845  0.19231  1.0000
  C   C446      1.0  0.55490  0.11667  0.11719  1.0000
  H   H780      1.0  0.56391  0.11871  0.24917  1.0000
  C   C447      1.0  0.54522  0.12521  0.14900  1.0000
  H   H781      1.0  0.55554  0.24312  0.31978  1.0000
  H   H782      1.0  0.56379  0.13268  0.16628  1.0000
  H   H783      1.0  0.54613  0.30582  0.25954  1.0000
  H   H784      1.0  0.57814  0.27675  0.35528  1.0000
  H   H785      1.0  0.77645  0.10685  0.21487  1.0000
  H   H786      1.0  0.69848  0.29244  0.13241  1.0000
  H   H787      1.0  0.73644  0.04930  0.20297  1.0000
  C   C448      1.0  0.81449  0.07304  0.04510  1.0000
  C   C449      1.0  0.83447  0.07942  0.07243  1.0000
  C   C450      1.0  0.82027  0.09316  0.10044  1.0000
  C   C451      1.0  0.78589  0.10015  0.10173  1.0000
  C   C452      1.0  0.76566  0.09299  0.07484  1.0000
  C   C453      1.0  0.78001  0.07982  0.04652  1.0000
  H   H788      1.0  0.86106  0.07455  0.07156  1.0000
  H   H789      1.0  0.83616  0.09870  0.12107  1.0000
  H   H790      1.0  0.73919  0.09834  0.07543  1.0000
  C   C454      1.0  0.77250  0.24975  0.37063  1.0000
  H   H791      1.0  0.92674  0.05626  0.38381  1.0000
  H   H792      1.0  0.84128  0.31977  0.37364  1.0000
  H   H793      1.0  0.62859  0.30336  0.30635  1.0000
  C   C455      1.0  0.59859  0.03634  0.11192  1.0000
  C   C456      1.0  0.52195  0.19193  0.11030  1.0000
  H   H794      1.0  0.83361  0.20790  0.12634  1.0000
  H   H795      1.0  0.81194  0.06202  0.21391  1.0000
  H   H796      1.0  0.76267  0.06742  0.17490  1.0000
  H   H797      1.0  0.79059  0.09717  0.25554  1.0000
  H   H798      1.0  0.86734  0.01553  0.13063  1.0000
  C   C457      1.0  0.56218  0.01265  0.20920  1.0000
  H   H799      1.0  0.58245  0.31419  0.34665  1.0000
  H   H800      1.0  0.83984  0.33704  0.31536  1.0000
  H   H801      1.0  0.78448  0.04493  0.24323  1.0000
  H   H802      1.0  0.85974  0.26951  0.14208  1.0000
  H   H803      1.0  0.68486  0.02401  0.12128  1.0000
  C   C458      1.0  0.90840  0.04053  0.37350  1.0000
  C   C459      1.0  0.82689  0.31172  0.43592  1.0000
  H   H804      1.0  0.88494  0.04215  0.38828  1.0000
  H   H805      1.0  0.60868  0.02492  0.16214  1.0000
  H   H806      1.0  0.78579  0.21608  0.08162  1.0000
  H   H807      1.0  0.70427  0.03495  0.08314  1.0000
  H   H808      1.0  0.80760  0.06898  0.47377  1.0000
  C   C460      1.0  0.70738  0.02109  0.10536  1.0000
  C   C461      1.0  0.76271  0.04970  0.19352  1.0000
  H   H809      1.0  0.79900  0.26118  0.15937  1.0000
  C   C462      1.0  0.00908  0.01262  0.40279  1.0000
  C   C463      1.0  0.80436  0.04815  0.45989  1.0000
  C   C464      1.0  0.78000  0.29857  0.39980  1.0000
  H   H810      1.0  0.74801  0.08966  0.24372  1.0000
  H   H811      1.0  0.76253  0.23937  0.39329  1.0000
  H   H812      1.0  0.63743  0.26884  0.37068  1.0000
  H   H813      1.0  0.67014  0.28218  0.34413  1.0000
  C   C465      1.0  0.66050  0.02469  0.21376  1.0000
  H   H814      1.0  0.71389  0.22668  0.14676  1.0000
  S   S108      1.0  0.93147  0.03837  0.02557  1.0000
  H   H815      1.0  0.60476  0.10201  0.25472  1.0000
  C   C466      1.0  0.53022  0.10785  0.09469  1.0000
  H   H816      1.0  0.57808  0.05345  0.26254  1.0000
  H   H817      1.0  0.69410  0.30284  0.17520  1.0000
  H   H818      1.0  0.60595  0.06377  0.15418  1.0000
  H   H819      1.0  0.85344  0.25405  0.10133  1.0000
  C   C467      1.0  0.73892  0.03026  0.12385  1.0000
  Fe  Fe53      1.0  0.87981  0.03101  0.00508  1.0000
  H   H820      1.0  0.58906  0.29830  0.26619  1.0000
  H   H821      1.0  0.75126  0.25886  0.35616  1.0000
  H   H822      1.0  0.72996  0.26221  0.19263  1.0000
  H   H823      1.0  0.80480  0.16214  0.23749  1.0000
  H   H824      1.0  0.74236  0.21072  0.19439  1.0000
  H   H825      1.0  0.74072  0.21278  0.08341  1.0000
  H   H826      1.0  0.92931  0.00544  0.40125  1.0000
  H   H827      1.0  0.54954  0.21356  0.25014  1.0000
  C   C468      1.0  0.57775  0.10032  0.26091  1.0000
  H   H828      1.0  0.77423  0.16682  0.18529  1.0000
  H   H829      1.0  0.89115  0.30664  0.46340  1.0000
  H   H830      1.0  0.56141  0.08767  0.19950  1.0000
  S   S109      1.0  0.83190  0.05867  0.00799  1.0000
  C   C469      1.0  0.58349  0.29218  0.33482  1.0000
  H   H831      1.0  0.57500  0.10238  0.28808  1.0000
  H   H832      1.0  0.64332  0.30781  0.36568  1.0000
  H   H833      1.0  0.76044  0.02766  0.10662  1.0000
  H   H834      1.0  0.80538  0.20141  0.24260  1.0000
  C   C470      1.0  0.66903  0.01914  0.27235  1.0000
  N   N24       1.0  0.77234  0.02085  0.17753  1.0000
  C   C471      1.0  0.52676  0.21737  0.26551  1.0000
  H   H835      1.0  0.80189  0.04394  0.14118  1.0000
  N   N25       1.0  0.54995  0.04171  0.19585  1.0000
  H   H836      1.0  0.78517  0.32758  0.34241  1.0000
  N   N26       1.0  0.55717  0.28955  0.30837  1.0000
  H   H837      1.0  0.59059  0.01376  0.10565  1.0000
  C   C472      1.0  0.56613  0.30738  0.27844  1.0000
  H   H838      1.0  0.79111  0.16188  0.07543  1.0000
  H   H839      1.0  0.78524  0.23265  0.35542  1.0000
  H   H840      1.0  0.76845  0.28778  0.42151  1.0000
  H   H841      1.0  0.56224  0.21804  0.13148  1.0000
  H   H842      1.0  0.76523  0.17779  0.04383  1.0000
  H   H843      1.0  0.88410  0.23820  0.12857  1.0000
  H   H844      1.0  0.73625  0.05381  0.13002  1.0000
  H   H845      1.0  0.81389  0.29835  0.45483  1.0000
  C   C473      1.0  0.82179  0.33567  0.38233  1.0000
  H   H846      1.0  0.78104  0.04943  0.44506  1.0000
  H   H847      1.0  0.81336  0.18525  0.18378  1.0000
  H   H848      1.0  0.74157  0.32176  0.45080  1.0000
  H   H849      1.0  0.84508  0.29641  0.42387  1.0000
  N   N27       1.0  0.80226  0.32327  0.41087  1.0000
  H   H850      1.0  0.74595  0.15880  0.07766  1.0000
  C   C474      1.0  0.62017  0.28619  0.32360  1.0000
  H   H851      1.0  0.84021  0.22319  0.16710  1.0000
  C   C475      1.0  0.56395  0.07089  0.24938  1.0000
  H   H852      1.0  0.71988  0.01220  0.16918  1.0000
  C   C476      1.0  0.64411  0.28626  0.35291  1.0000
  H   H853      1.0  0.53747  0.10132  0.06997  1.0000
  H   H854      1.0  0.62282  0.26463  0.31112  1.0000
  H   H855      1.0  0.57320  0.18038  0.12334  1.0000
  C   C477      1.0  0.73084  0.26832  0.16624  1.0000
  H   H856      1.0  0.62530  0.03878  0.10476  1.0000
  S   S110      1.0  0.98736  0.03295  0.43371  1.0000
  C   C478      1.0  0.78552  0.06019  0.22209  1.0000
  H   H857      1.0  0.83866  0.02160  0.09674  1.0000
  H   H858      1.0  0.94666  0.00909  0.36046  1.0000
  C   C479      1.0  0.55902  0.19959  0.11385  1.0000
  H   H859      1.0  0.73537  0.24923  0.11804  1.0000
  C   C480      1.0  0.55709  0.04249  0.15921  1.0000
  H   H860      1.0  0.57788  0.25139  0.28348  1.0000
  H   H861      1.0  0.76603  0.18193  0.24365  1.0000
  H   H862      1.0  0.75174  0.03454  0.49618  1.0000
  H   H863      1.0  0.75115  0.28443  0.16285  1.0000
  H   H864      1.0  0.54552  0.02337  0.14666  1.0000
  C   C481      1.0  0.59454  0.04217  0.14888  1.0000
  H   H865      1.0  0.82596  0.04533  0.44278  1.0000
  H   H866      1.0  0.81808  0.26358  0.39353  1.0000
  C   C482      1.0  0.56853  0.06678  0.21170  1.0000
  H   H867      1.0  0.90310  0.04671  0.34758  1.0000
  H   H868      1.0  0.79363  0.25337  0.11706  1.0000
  H   H869      1.0  0.80771  0.28226  0.35594  1.0000
  H   H870      1.0  0.52757  0.20263  0.28720  1.0000
  H   H871      1.0  0.67638  0.26901  0.16080  1.0000
  H   H872      1.0  0.77805  0.23284  0.20115  1.0000
  H   H873      1.0  0.52540  0.28891  0.37446  1.0000
  C   C483      1.0  0.80435  0.02499  0.15819  1.0000
  H   H874      1.0  0.54528  0.06223  0.14797  1.0000
  C   C484      1.0  0.77436  0.09033  0.23476  1.0000
  H   H875      1.0  0.54077  0.01714  0.25968  1.0000
  C   C485      1.0  0.69792  0.28404  0.15804  1.0000
  N   N28       1.0  0.76806  0.22346  0.14957  1.0000
  C   C486      1.0  0.76680  0.19661  0.12771  1.0000
  C   C487      1.0  0.76845  0.21463  0.18552  1.0000
  C   C488      1.0  0.73626  0.24098  0.14375  1.0000
  C   C489      1.0  0.79744  0.24275  0.14143  1.0000
  C   C490      1.0  0.83262  0.22817  0.14146  1.0000
  C   C491      1.0  0.76486  0.20215  0.09004  1.0000
  C   C492      1.0  0.78794  0.18618  0.19459  1.0000
  C   C493      1.0  0.79119  0.18285  0.23191  1.0000
  C   C494      1.0  0.85897  0.24885  0.12750  1.0000
  C   C495      1.0  0.76693  0.17337  0.07066  1.0000
  H   H876      1.0  0.74485  0.18308  0.13465  1.0000
  H   H877      1.0  0.78879  0.18204  0.13165  1.0000
  H   H878      1.0  0.82524  0.03091  0.17491  1.0000
  H   H879      1.0  0.58347  0.05226  0.09747  1.0000
  Fe  Fe54      1.0  0.95143  0.01456  0.47207  1.0000
  H   H880      1.0  0.73906  0.01205  0.23884  1.0000
  H   H881      1.0  0.75839  0.30713  0.38524  1.0000
  H   H882      1.0  0.52031  0.17327  0.09278  1.0000
  H   H883      1.0  0.52662  0.32377  0.33077  1.0000
  C   C496      1.0  0.80305  0.02225  0.48352  1.0000
  C   C497      1.0  0.52422  0.30070  0.32212  1.0000
  C   C498      1.0  0.52447  0.24940  0.27659  1.0000
  C   C499      1.0  0.74405  0.01156  0.15533  1.0000
  H   H884      1.0  0.52288  0.26302  0.25413  1.0000
  H   H885      1.0  0.53733  0.07046  0.25703  1.0000
  H   H886      1.0  0.00712  0.02419  0.04250  1.0000
  H   H887      1.0  0.58934  0.01393  0.21516  1.0000
  C   C500      1.0  0.92311  0.00956  0.37510  1.0000
  C   C501      1.0  0.84667  0.00586  0.11600  1.0000
  C   C502      1.0  0.84801  0.33517  0.45423  1.0000
  H   H888      1.0  0.77665  0.33089  0.47667  1.0000
  C   C503      1.0  0.87331  0.32084  0.47745  1.0000
  H   H889      1.0  0.88788  0.33811  0.49025  1.0000
  H   H890      1.0  0.82746  0.02088  0.49649  1.0000
  H   H891      1.0  0.86025  0.30758  0.49634  1.0000
  C   C504      1.0  0.70691  0.04092  0.59328  1.0000
  S   S111      1.0  0.85702  0.07037  0.53125  1.0000
  C   C505      1.0  0.99885  0.00554  0.72584  1.0000
  H   H892      1.0  0.00200  0.04057  0.67354  1.0000
  C   C506      1.0  0.55096  0.19693  0.61187  1.0000
  H   H893      1.0  0.55288  0.08642  0.79782  1.0000
  Fe  Fe55      1.0  0.72681  0.09187  0.67942  1.0000
  S   S112      1.0  0.72368  0.11221  0.73002  1.0000
  S   S113      1.0  0.77552  0.06852  0.66599  1.0000
  Fe  Fe56      1.0  0.65162  0.10209  0.66707  1.0000
  S   S114      1.0  0.64300  0.12308  0.71661  1.0000
  S   S115      1.0  0.61266  0.09280  0.62803  1.0000
  Fe  Fe57      1.0  0.69112  0.14700  0.70674  1.0000
  S   S116      1.0  0.69989  0.19639  0.70814  1.0000
  Fe  Fe58      1.0  0.67625  0.08642  0.73532  1.0000
  S   S117      1.0  0.66385  0.05943  0.78053  1.0000
  S   S118      1.0  0.69767  0.12810  0.65543  1.0000
  S   S119      1.0  0.68140  0.06418  0.68638  1.0000
  S   S120      1.0  0.67473  0.29121  0.82263  1.0000
  C   C507      1.0  0.69201  0.22238  0.74019  1.0000
  C   C508      1.0  0.69891  0.25209  0.73442  1.0000
  C   C509      1.0  0.69376  0.27348  0.75925  1.0000
  C   C510      1.0  0.68174  0.26533  0.79028  1.0000
  C   C511      1.0  0.67483  0.23560  0.79603  1.0000
  C   C512      1.0  0.67985  0.21423  0.77116  1.0000
  H   H894      1.0  0.70839  0.25865  0.71060  1.0000
  H   H895      1.0  0.69921  0.29622  0.75444  1.0000
  H   H896      1.0  0.66586  0.22900  0.82002  1.0000
  H   H897      1.0  0.67465  0.19147  0.77608  1.0000
  H   H898      1.0  0.99403  0.04877  0.76737  1.0000
  H   H899      1.0  0.71476  0.01264  0.88986  1.0000
  C   C513      1.0  0.99095  0.03644  0.88815  1.0000
  H   H900      1.0  0.55659  0.15232  0.63135  1.0000
  H   H901      1.0  0.73125  0.05453  0.54887  1.0000
  C   C514      1.0  0.56973  0.09340  0.63858  1.0000
  C   C515      1.0  0.94889  0.09017  0.78655  1.0000
  C   C516      1.0  0.55884  0.10184  0.67006  1.0000
  H   H902      1.0  0.55421  0.07968  0.59012  1.0000
  H   H903      1.0  0.57694  0.10781  0.68857  1.0000
  H   H904      1.0  0.77467  0.19618  0.69505  1.0000
  H   H905      1.0  0.51604  0.11026  0.70156  1.0000
  H   H906      1.0  0.68715  0.05810  0.59096  1.0000
  C   C517      1.0  0.77600  0.19986  0.75974  1.0000
  C   C518      1.0  0.57525  0.07079  0.75173  1.0000
  C   C519      1.0  0.83347  0.06866  0.56815  1.0000
  C   C520      1.0  0.84217  0.04923  0.59326  1.0000
  C   C521      1.0  0.82373  0.04916  0.62286  1.0000
  C   C522      1.0  0.79614  0.06812  0.62741  1.0000
  C   C523      1.0  0.78677  0.08693  0.60192  1.0000
  C   C524      1.0  0.80566  0.08745  0.57254  1.0000
  H   H907      1.0  0.86358  0.03475  0.59020  1.0000
  H   H908      1.0  0.83106  0.03450  0.64247  1.0000
  H   H909      1.0  0.76532  0.10131  0.60504  1.0000
  H   H910      1.0  0.79871  0.10243  0.55310  1.0000
  H   H911      1.0  0.59792  0.19789  0.79763  1.0000
  H   H912      1.0  0.89313  0.20588  0.60881  1.0000
  H   H913      1.0  0.76104  0.02082  0.91660  1.0000
  H   H914      1.0  0.88323  0.08005  0.67119  1.0000
  C   C525      1.0  0.78394  0.01380  0.90308  1.0000
  H   H915      1.0  0.56744  0.19571  0.83044  1.0000
  H   H916      1.0  0.59809  0.08294  0.79868  1.0000
  H   H917      1.0  0.69541  0.02120  0.60432  1.0000
  C   C526      1.0  0.60413  0.17387  0.63558  1.0000
  H   H918      1.0  0.92841  0.01206  0.72266  1.0000
  Fe  Fe59      1.0  0.95158  0.02027  0.97728  1.0000
  H   H919      1.0  0.56671  0.19618  0.58933  1.0000
  H   H920      1.0  0.61617  0.30099  0.92892  1.0000
  C   C527      1.0  0.52436  0.10334  0.67730  1.0000
  C   C528      1.0  0.82674  0.13609  0.69300  1.0000
  C   C529      1.0  0.57626  0.08923  0.78328  1.0000
  Fe  Fe60      1.0  0.89328  0.03356  0.51758  1.0000
  H   H921      1.0  0.87731  0.09650  0.71144  1.0000
  C   C530      1.0  0.79056  0.15456  0.64873  1.0000
  H   H922      1.0  0.52813  0.04341  0.71237  1.0000
  H   H923      1.0  0.70982  0.03853  0.83966  1.0000
  H   H924      1.0  0.72653  0.04924  0.61017  1.0000
  H   H925      1.0  0.84235  0.11360  0.64682  1.0000
  H   H926      1.0  0.57862  0.11273  0.77683  1.0000
  H   H927      1.0  0.61319  0.16603  0.61111  1.0000
  H   H928      1.0  0.61443  0.19593  0.64080  1.0000
  H   H929      1.0  0.61370  0.15849  0.65454  1.0000
  C   C531      1.0  0.76764  0.17902  0.63436  1.0000
  H   H930      1.0  0.64516  0.31138  0.89665  1.0000
  H   H931      1.0  0.97053  0.09366  0.73843  1.0000
  H   H932      1.0  0.87524  0.13349  0.66757  1.0000
  C   C532      1.0  0.54594  0.08625  0.61452  1.0000
  H   H933      1.0  0.55514  0.20898  0.79014  1.0000
  H   H934      1.0  0.59786  0.07603  0.73704  1.0000
  H   H935      1.0  0.70108  0.02588  0.54357  1.0000
  H   H936      1.0  0.84365  0.07655  0.69212  1.0000
  H   H937      1.0  0.55630  0.14378  0.57570  1.0000
  C   C533      1.0  0.52628  0.29983  0.85778  1.0000
  H   H938      1.0  0.86088  0.16365  0.62825  1.0000
  C   C534      1.0  0.75047  0.01053  0.56189  1.0000
  H   H939      1.0  0.58291  0.04434  0.68924  1.0000
  H   H940      1.0  0.77402  0.13580  0.65484  1.0000
  C   C535      1.0  0.85280  0.11970  0.67113  1.0000
  C   C536      1.0  0.86495  0.09151  0.68761  1.0000
  N   N29       1.0  0.56937  0.01703  0.73061  1.0000
  H   H941      1.0  0.64430  0.01397  0.82527  1.0000
  N   N30       1.0  0.81068  0.16325  0.67861  1.0000
  H   H942      1.0  0.75271  0.18712  0.76347  1.0000
  H   H943      1.0  0.93746  0.11241  0.78529  1.0000
  H   H944      1.0  0.79223  0.03166  0.88661  1.0000
  H   H945      1.0  0.55291  0.07797  0.73782  1.0000
  H   H946      1.0  0.96450  0.03840  0.89380  1.0000
  C   C537      1.0  0.56583  0.17459  0.63663  1.0000
  H   H947      1.0  0.78706  0.20452  0.78427  1.0000
  H   H948      1.0  0.73623  0.08173  0.81638  1.0000
  H   H949      1.0  0.54666  0.22683  0.55380  1.0000
  H   H950      1.0  0.81714  0.03042  0.94102  1.0000
  C   C538      1.0  0.66774  0.02085  0.77802  1.0000
  C   C539      1.0  0.99559  0.05234  0.69682  1.0000
  H   H951      1.0  0.80692  0.12022  0.70018  1.0000
  H   H952      1.0  0.93314  0.00986  0.84511  1.0000
  H   H953      1.0  0.55811  0.18054  0.66218  1.0000
  H   H954      1.0  0.63735  0.02847  0.64948  1.0000
  H   H955      1.0  0.98403  0.03751  0.83542  1.0000
  H   H956      1.0  0.95374  0.03343  0.76823  1.0000
  H   H957      1.0  0.54295  0.12118  0.52242  1.0000
  N   N31       1.0  0.55872  0.28783  0.84359  1.0000
  H   H958      1.0  0.56995  0.32676  0.89928  1.0000
  C   C540      1.0  0.56729  0.30312  0.81150  1.0000
  C   C541      1.0  0.55373  0.25578  0.83563  1.0000
  C   C542      1.0  0.58724  0.28982  0.86784  1.0000
  C   C543      1.0  0.59249  0.31963  0.88521  1.0000
  C   C544      1.0  0.94410  0.02436  0.70482  1.0000
  C   C545      1.0  0.58428  0.23988  0.81925  1.0000
  C   C546      1.0  0.53539  0.15348  0.56130  1.0000
  C   C547      1.0  0.75693  0.17198  0.59908  1.0000
  C   C548      1.0  0.62151  0.31750  0.90966  1.0000
  S   S121      1.0  0.94941  0.03474  0.52311  1.0000
  C   C549      1.0  0.57547  0.20871  0.80878  1.0000
  S   S122      1.0  0.00149  0.03579  0.95586  1.0000
  H   H959      1.0  0.89597  0.01911  0.65513  1.0000
  H   H960      1.0  0.59488  0.30230  0.80684  1.0000
  H   H961      1.0  0.55587  0.29146  0.79014  1.0000
  H   H962      1.0  0.53300  0.28400  0.90881  1.0000
  H   H963      1.0  0.54813  0.24316  0.85832  1.0000
  H   H964      1.0  0.58451  0.27305  0.88747  1.0000
  H   H965      1.0  0.61143  0.28427  0.85550  1.0000
  H   H966      1.0  0.59836  0.03219  0.77228  1.0000
  H   H967      1.0  0.83421  0.19358  0.61761  1.0000
  C   C550      1.0  0.53339  0.02041  0.71965  1.0000
  H   H968      1.0  0.85732  0.18497  0.68958  1.0000
  H   H969      1.0  0.60542  0.23830  0.83691  1.0000
  H   H970      1.0  0.59333  0.25149  0.79702  1.0000
  S   S123      1.0  0.90019  0.01787  0.95494  1.0000
  C   C551      1.0  0.81151  0.00926  0.92868  1.0000
  H   H971      1.0  0.76511  0.16013  0.70768  1.0000
  C   C552      1.0  0.88289  0.20595  0.63433  1.0000
  H   H972      1.0  0.77858  0.00959  0.82544  1.0000
  C   C553      1.0  0.83667  0.18623  0.67120  1.0000
  C   C554      1.0  0.57442  0.03754  0.75956  1.0000
  H   H973      1.0  0.52841  0.32361  0.86340  1.0000
  H   H974      1.0  0.97321  0.09180  0.79974  1.0000
  H   H975      1.0  0.82430  0.19542  0.73648  1.0000
  H   H976      1.0  0.78017  0.20058  0.63449  1.0000
  C   C555      1.0  0.00210  0.03593  0.85513  1.0000
  C   C556      1.0  0.85260  0.18578  0.63612  1.0000
  C   C557      1.0  0.73768  0.03895  0.83941  1.0000
  H   H977      1.0  0.53258  0.00703  0.98553  1.0000
  C   C558      1.0  0.94594  0.00650  0.67214  1.0000
  C   C559      1.0  0.97057  0.04705  0.75286  1.0000
  H   H978      1.0  0.78288  0.04426  0.52535  1.0000
  C   C560      1.0  0.68216  0.00712  0.75049  1.0000
  C   C561      1.0  0.95431  0.07801  0.75171  1.0000
  H   H979      1.0  0.80694  0.14609  0.62866  1.0000
  C   C562      1.0  0.74836  0.06001  0.81224  1.0000
  H   H980      1.0  0.93186  0.07587  0.80085  1.0000
  H   H981      1.0  0.95816  0.01930  0.65240  1.0000
  H   H982      1.0  0.00649  0.09305  0.52278  1.0000
  H   H983      1.0  0.61738  0.03341  0.71394  1.0000
  H   H984      1.0  0.87555  0.22878  0.64098  1.0000
  H   H985      1.0  0.92958  0.07738  0.73938  1.0000
  H   H986      1.0  0.76948  0.22106  0.74794  1.0000
  H   H987      1.0  0.52799  0.33756  0.80901  1.0000
  H   H988      1.0  0.97915  0.07090  0.68918  1.0000
  H   H989      1.0  0.54603  0.17090  0.54576  1.0000
  H   H990      1.0  0.74045  0.05172  0.78767  1.0000
  H   H991      1.0  0.77598  0.06283  0.81233  1.0000
  H   H992      1.0  0.82585  0.20868  0.67439  1.0000
  H   H993      1.0  0.74599  0.04812  0.86327  1.0000
  H   H994      1.0  0.55515  0.21915  0.62253  1.0000
  H   H995      1.0  0.53155  0.25312  0.81925  1.0000
  H   H996      1.0  0.77914  0.17026  0.58255  1.0000
  C   C563      1.0  0.61611  0.01340  0.64575  1.0000
  H   H997      1.0  0.74022  0.18971  0.58988  1.0000
  C   C564      1.0  0.78633  0.17545  0.70400  1.0000
  C   C565      1.0  0.80102  0.18246  0.73854  1.0000
  H   H998      1.0  0.84049  0.14149  0.71597  1.0000
  H   H999      1.0  0.90293  0.19828  0.65125  1.0000
  H   H1000     1.0  0.74452  0.18126  0.64956  1.0000
  H   H1001     1.0  0.80662  0.16191  0.75203  1.0000
  C   C566      1.0  0.59334  0.02547  0.70331  1.0000
  N   N32       1.0  0.97727  0.03233  0.72004  1.0000
  H   H1002     1.0  0.69266  0.02000  0.73095  1.0000
  H   H1003     1.0  0.74293  0.15110  0.59824  1.0000
  C   C567      1.0  0.01417  0.03515  0.91386  1.0000
  H   H1004     1.0  0.59536  0.02549  0.63346  1.0000
  C   C568      1.0  0.77436  0.02602  0.50915  1.0000
  H   H1005     1.0  0.92939  0.04450  0.69917  1.0000
  C   C569      1.0  0.75179  0.00762  0.83290  1.0000
  H   H1006     1.0  0.55427  0.03459  0.77828  1.0000
  H   H1007     1.0  0.51804  0.00682  0.51604  1.0000
  H   H1008     1.0  0.53574  0.00891  0.66724  1.0000
  H   H1009     1.0  0.99887  0.02566  0.58168  1.0000
  C   C570      1.0  0.52222  0.12964  0.53827  1.0000
  C   C571      1.0  0.72180  0.03375  0.55931  1.0000
  H   H1010     1.0  0.77035  0.02042  0.57762  1.0000
  C   C572      1.0  0.51907  0.22535  0.55148  1.0000
  H   H1011     1.0  0.51590  0.01622  0.74045  1.0000
  H   H1012     1.0  0.52002  0.25822  0.51305  1.0000
  H   H1013     1.0  0.55190  0.33620  0.75384  1.0000
  H   H1014     1.0  0.59898  0.33660  0.86708  1.0000
  C   C573      1.0  0.55571  0.33543  0.80746  1.0000
  C   C574      1.0  0.01241  0.01296  0.59975  1.0000
  S   S124      1.0  0.88810  0.49565  0.03847  1.0000
  H   H1015     1.0  0.83188  0.34991  0.46942  1.0000
  H   H1016     1.0  0.51597  0.65073  0.18578  1.0000
  S   S125      1.0  0.90411  0.42832  0.44087  1.0000
  Fe  Fe61      1.0  0.94331  0.50533  0.04064  1.0000
  S   S126      1.0  0.96522  0.50779  0.09264  1.0000
  Fe  Fe62      1.0  0.72078  0.39962  0.36531  1.0000
  S   S127      1.0  0.73536  0.38960  0.31270  1.0000
  S   S128      1.0  0.74873  0.42159  0.40759  1.0000
  Fe  Fe63      1.0  0.64989  0.37473  0.35678  1.0000
  S   S129      1.0  0.65867  0.36315  0.30354  1.0000
  S   S130      1.0  0.60673  0.36008  0.38916  1.0000
  H   H1017     1.0  0.79160  0.44452  0.06796  1.0000
  Fe  Fe64      1.0  0.68394  0.40703  0.30056  1.0000
  S   S131      1.0  0.67607  0.43397  0.25457  1.0000
  S   S132      1.0  0.69887  0.35509  0.37301  1.0000
  S   S133      1.0  0.67085  0.42005  0.35260  1.0000
  C   C575      1.0  0.56400  0.36799  0.38177  1.0000
  C   C576      1.0  0.55343  0.38320  0.35381  1.0000
  C   C577      1.0  0.53997  0.35769  0.40414  1.0000
  Fe  Fe65      1.0  0.92471  0.46060  0.47856  1.0000
  H   H1018     1.0  0.82641  0.66332  0.17852  1.0000
  C   C578      1.0  0.68539  0.48670  0.28694  1.0000
  C   C579      1.0  0.67806  0.47248  0.25724  1.0000
  C   C580      1.0  0.67239  0.48917  0.22882  1.0000
  H   H1019     1.0  0.68988  0.47402  0.30895  1.0000
  H   H1020     1.0  0.66659  0.47828  0.20582  1.0000
  H   H1021     1.0  0.58846  0.37921  0.25889  1.0000
  C   C581      1.0  0.82344  0.59129  0.42867  1.0000
  H   H1022     1.0  0.82429  0.65797  0.23927  1.0000
  H   H1023     1.0  0.58891  0.34469  0.30487  1.0000
  C   C582      1.0  0.53572  0.66274  0.19936  1.0000
  C   C583      1.0  0.86092  0.42656  0.43170  1.0000
  C   C584      1.0  0.83662  0.43345  0.45546  1.0000
  C   C585      1.0  0.80240  0.43185  0.44750  1.0000
  C   C586      1.0  0.79213  0.42362  0.41571  1.0000
  C   C587      1.0  0.81641  0.41687  0.39186  1.0000
  C   C588      1.0  0.85069  0.41791  0.40000  1.0000
  H   H1024     1.0  0.84425  0.43985  0.48002  1.0000
  H   H1025     1.0  0.78371  0.43700  0.46610  1.0000
  H   H1026     1.0  0.80876  0.41121  0.36713  1.0000
  H   H1027     1.0  0.86941  0.41267  0.38145  1.0000
  H   H1028     1.0  0.52831  0.66224  0.12400  1.0000
  H   H1029     1.0  0.55881  0.60516  0.06534  1.0000
  C   C589      1.0  0.80153  0.66399  0.22506  1.0000
  H   H1030     1.0  0.81455  0.62569  0.46537  1.0000
  S   S134      1.0  0.92996  0.50801  0.46493  1.0000
  Fe  Fe66      1.0  0.70897  0.34645  0.31934  1.0000
  Fe  Fe67      1.0  0.72716  0.61913  0.16259  1.0000
  S   S135      1.0  0.71550  0.63630  0.21359  1.0000
  S   S136      1.0  0.78233  0.61204  0.15075  1.0000
  Fe  Fe68      1.0  0.65321  0.61078  0.14694  1.0000
  S   S137      1.0  0.63638  0.62586  0.19707  1.0000
  S   S138      1.0  0.61757  0.59933  0.10561  1.0000
  C   C590      1.0  0.81647  0.66769  0.05994  1.0000
  Fe  Fe69      1.0  0.67962  0.59882  0.21569  1.0000
  S   S139      1.0  0.68090  0.57273  0.26272  1.0000
  S   S140      1.0  0.68852  0.64835  0.13901  1.0000
  S   S141      1.0  0.69330  0.58043  0.16606  1.0000
  C   C591      1.0  0.68033  0.53417  0.25994  1.0000
  C   C592      1.0  0.68640  0.51747  0.28828  1.0000
  C   C593      1.0  0.67363  0.51991  0.23011  1.0000
  H   H1031     1.0  0.69155  0.52837  0.31144  1.0000
  H   H1032     1.0  0.66848  0.53253  0.20825  1.0000
  C   C594      1.0  0.57444  0.59773  0.11540  1.0000
  C   C595      1.0  0.56356  0.59287  0.14769  1.0000
  H   H1033     1.0  0.56022  0.62198  0.21432  1.0000
  H   H1034     1.0  0.58172  0.58914  0.16698  1.0000
  H   H1035     1.0  0.80416  0.57187  0.47264  1.0000
  Fe  Fe70      1.0  0.88315  0.53600  0.00803  1.0000
  C   C596      1.0  0.51894  0.38755  0.34801  1.0000
  H   H1036     1.0  0.71696  0.51288  0.42506  1.0000
  H   H1037     1.0  0.79384  0.65397  0.05690  1.0000
  H   H1038     1.0  0.72473  0.48526  0.39407  1.0000
  C   C597      1.0  0.82116  0.57660  0.05135  1.0000
  C   C598      1.0  0.78810  0.58726  0.05423  1.0000
  C   C599      1.0  0.77546  0.59734  0.08476  1.0000
  C   C600      1.0  0.79629  0.59788  0.11238  1.0000
  C   C601      1.0  0.82956  0.58791  0.10934  1.0000
  C   C602      1.0  0.84179  0.57677  0.07912  1.0000
  H   H1039     1.0  0.77235  0.58797  0.03264  1.0000
  H   H1040     1.0  0.74992  0.60539  0.08668  1.0000
  H   H1041     1.0  0.84603  0.58890  0.13042  1.0000
  H   H1042     1.0  0.86747  0.56905  0.07705  1.0000
  C   C603      1.0  0.76013  0.33894  0.45670  1.0000
  H   H1043     1.0  0.86730  0.54152  0.41932  1.0000
  H   H1044     1.0  0.54691  0.35141  0.29072  1.0000
  S   S142      1.0  0.97905  0.45573  0.49241  1.0000
  H   H1045     1.0  0.56704  0.35331  0.23288  1.0000
  H   H1046     1.0  0.85832  0.61868  0.45605  1.0000
  H   H1047     1.0  0.99629  0.49379  0.40233  1.0000
  H   H1048     1.0  0.81290  0.49698  0.02578  1.0000
  H   H1049     1.0  0.83949  0.37395  0.33205  1.0000
  H   H1050     1.0  0.83234  0.63811  0.42703  1.0000
  H   H1051     1.0  0.78228  0.66509  0.11602  1.0000
  C   C604      1.0  0.54935  0.64208  0.22576  1.0000
  H   H1052     1.0  0.76057  0.53330  0.02292  1.0000
  H   H1053     1.0  0.88663  0.47177  0.37468  1.0000
  H   H1054     1.0  0.75734  0.45131  0.01627  1.0000
  H   H1055     1.0  0.78411  0.36405  0.35887  1.0000
  C   C605      1.0  0.87802  0.49487  0.37745  1.0000
  H   H1056     1.0  0.75412  0.56419  0.27347  1.0000
  H   H1057     1.0  0.79582  0.36672  0.43149  1.0000
  C   C606      1.0  0.00608  0.57991  0.06611  1.0000
  Fe  Fe71      1.0  0.67362  0.66203  0.19054  1.0000
  H   H1058     1.0  0.84175  0.58733  0.40844  1.0000
  H   H1059     1.0  0.98840  0.59059  0.04872  1.0000
  H   H1060     1.0  0.90049  0.50880  0.38058  1.0000
  H   H1061     1.0  0.82184  0.47216  0.07843  1.0000
  H   H1062     1.0  0.78404  0.49799  0.39138  1.0000
  H   H1063     1.0  0.77181  0.48792  0.43281  1.0000
  H   H1064     1.0  0.76415  0.54368  0.44451  1.0000
  H   H1065     1.0  0.57177  0.39147  0.33660  1.0000
  H   H1066     1.0  0.79937  0.56650  0.27528  1.0000
  H   H1067     1.0  0.77124  0.51609  0.48992  1.0000
  H   H1068     1.0  0.84810  0.51539  0.47766  1.0000
  H   H1069     1.0  0.60950  0.34585  0.24647  1.0000
  H   H1070     1.0  0.79818  0.59425  0.41774  1.0000
  C   C607      1.0  0.76983  0.50498  0.41362  1.0000
  C   C608      1.0  0.79343  0.48154  0.03414  1.0000
  C   C609      1.0  0.74055  0.36536  0.47017  1.0000
  S   S143      1.0  0.93756  0.54761  0.01257  1.0000
  C   C610      1.0  0.81023  0.45995  0.05771  1.0000
  H   H1071     1.0  0.83591  0.35530  0.39033  1.0000
  H   H1072     1.0  0.52869  0.63547  0.24247  1.0000
  C   C611      1.0  0.84359  0.52981  0.41345  1.0000
  C   C612      1.0  0.00617  0.49961  0.10741  1.0000
  C   C613      1.0  0.74073  0.53354  0.00399  1.0000
  C   C614      1.0  0.82199  0.51417  0.46804  1.0000
  H   H1073     1.0  0.86449  0.50131  0.35470  1.0000
  H   H1074     1.0  0.72934  0.52329  0.38370  1.0000
  H   H1075     1.0  0.81918  0.49138  0.45930  1.0000
  H   H1076     1.0  0.83361  0.48277  0.40378  1.0000
  C   C615      1.0  0.85496  0.49760  0.40750  1.0000
  H   H1077     1.0  0.54799  0.34593  0.42584  1.0000
  H   H1078     1.0  0.56898  0.65302  0.24062  1.0000
  H   H1079     1.0  0.78054  0.54994  0.40469  1.0000
  C   C616      1.0  0.82351  0.56587  0.45394  1.0000
  H   H1080     1.0  0.77534  0.42837  0.21937  1.0000
  C   C617      1.0  0.73297  0.50691  0.40355  1.0000
  C   C618      1.0  0.78254  0.53497  0.42612  1.0000
  N   N33       1.0  0.81754  0.53556  0.44011  1.0000
  H   H1081     1.0  0.69953  0.53465  0.03975  1.0000
  H   H1082     1.0  0.61413  0.65983  0.12961  1.0000
  H   H1083     1.0  0.84802  0.56633  0.46704  1.0000
  H   H1084     1.0  0.86934  0.48959  0.42906  1.0000
  C   C619      1.0  0.55058  0.60161  0.09042  1.0000
  H   H1085     1.0  0.51680  0.49596  0.01318  1.0000
  H   H1086     1.0  0.77416  0.49356  0.04860  1.0000
  H   H1087     1.0  0.83030  0.44729  0.04475  1.0000
  H   H1088     1.0  0.77465  0.59773  0.26255  1.0000
  H   H1089     1.0  0.99819  0.52335  0.15290  1.0000
  H   H1090     1.0  0.73173  0.42668  0.20841  1.0000
  C   C620      1.0  0.78054  0.34723  0.42554  1.0000
  H   H1091     1.0  0.83494  0.53883  0.38945  1.0000
  H   H1092     1.0  0.71543  0.56999  0.02874  1.0000
  H   H1093     1.0  0.75782  0.38343  0.47668  1.0000
  C   C621      1.0  0.83273  0.62017  0.44540  1.0000
  N   N34       1.0  0.78741  0.51673  0.18931  1.0000
  C   C622      1.0  0.78726  0.48377  0.19240  1.0000
  C   C623      1.0  0.82210  0.52726  0.17971  1.0000
  C   C624      1.0  0.77882  0.52945  0.22283  1.0000
  C   C625      1.0  0.76145  0.52760  0.16530  1.0000
  C   C626      1.0  0.76376  0.51535  0.12976  1.0000
  C   C627      1.0  0.75357  0.46970  0.20264  1.0000
  C   C628      1.0  0.77913  0.56343  0.22552  1.0000
  C   C629      1.0  0.84415  0.50648  0.15793  1.0000
  C   C630      1.0  0.87687  0.52098  0.14749  1.0000
  C   C631      1.0  0.73364  0.52551  0.10947  1.0000
  C   C632      1.0  0.75623  0.43628  0.20157  1.0000
  C   C633      1.0  0.77670  0.57347  0.26146  1.0000
  H   H1094     1.0  0.80645  0.47677  0.21075  1.0000
  H   H1095     1.0  0.79475  0.47303  0.16889  1.0000
  H   H1096     1.0  0.82036  0.54879  0.16699  1.0000
  H   H1097     1.0  0.83751  0.53145  0.20211  1.0000
  H   H1098     1.0  0.79618  0.52038  0.24179  1.0000
  H   H1099     1.0  0.75314  0.52307  0.23067  1.0000
  H   H1100     1.0  0.73573  0.52373  0.17505  1.0000
  H   H1101     1.0  0.76304  0.55176  0.16279  1.0000
  H   H1102     1.0  0.76408  0.49109  0.12926  1.0000
  H   H1103     1.0  0.78657  0.52371  0.11738  1.0000
  H   H1104     1.0  0.74658  0.47592  0.22826  1.0000
  H   H1105     1.0  0.73300  0.47624  0.18583  1.0000
  H   H1106     1.0  0.75719  0.57288  0.21241  1.0000
  H   H1107     1.0  0.80219  0.57293  0.21484  1.0000
  H   H1108     1.0  0.85120  0.48658  0.17204  1.0000
  H   H1109     1.0  0.83094  0.49948  0.13532  1.0000
  H   H1110     1.0  0.89249  0.50517  0.13305  1.0000
  H   H1111     1.0  0.87178  0.54018  0.13165  1.0000
  H   H1112     1.0  0.89144  0.52804  0.16938  1.0000
  H   H1113     1.0  0.73551  0.51639  0.08418  1.0000
  H   H1114     1.0  0.70985  0.51786  0.12072  1.0000
  H   H1115     1.0  0.73294  0.54978  0.10782  1.0000
  H   H1116     1.0  0.76287  0.42846  0.17638  1.0000
  Fe  Fe72      1.0  0.98335  0.50360  0.48190  1.0000
  H   H1117     1.0  0.72225  0.37338  0.45160  1.0000
  H   H1118     1.0  0.76200  0.35511  0.40724  1.0000
  S   S144      1.0  0.83608  0.56441  0.01245  1.0000
  H   H1119     1.0  0.86233  0.34882  0.43670  1.0000
  H   H1120     1.0  0.57103  0.65142  0.16207  1.0000
  C   C634      1.0  0.52908  0.59233  0.15502  1.0000
  H   H1121     1.0  0.00559  0.53805  0.04195  1.0000
  H   H1122     1.0  0.99143  0.57155  0.08738  1.0000
  H   H1123     1.0  0.68946  0.55034  0.00013  1.0000
  H   H1124     1.0  0.01247  0.48714  0.34351  1.0000
  H   H1125     1.0  0.83714  0.65391  0.06996  1.0000
  C   C635      1.0  0.58485  0.35552  0.25370  1.0000
  H   H1126     1.0  0.52087  0.58839  0.18004  1.0000
  C   C636      1.0  0.51608  0.60126  0.09780  1.0000
  H   H1127     1.0  0.63764  0.66317  0.07418  1.0000
  C   C637      1.0  0.80085  0.34548  0.35213  1.0000
  C   C638      1.0  0.77688  0.46528  0.00495  1.0000
  C   C639      1.0  0.82356  0.35543  0.32400  1.0000
  H   H1128     1.0  0.58116  0.66146  0.09933  1.0000
  C   C640      1.0  0.70934  0.54789  0.01905  1.0000
  H   H1129     1.0  0.78793  0.64353  0.21921  1.0000
  H   H1130     1.0  0.72647  0.35906  0.49266  1.0000
  H   H1131     1.0  0.80794  0.36282  0.30296  1.0000
  H   H1132     1.0  0.71951  0.49040  0.01057  1.0000
  C   C641      1.0  0.79774  0.51778  0.49782  1.0000
  C   C642      1.0  0.57117  0.34059  0.28450  1.0000
  S   S145      1.0  0.90800  0.46957  0.53082  1.0000
  H   H1133     1.0  0.59980  0.63359  0.76056  1.0000
  H   H1134     1.0  0.83112  0.65135  0.63453  1.0000
  H   H1135     1.0  0.81662  0.62282  0.66134  1.0000
  Fe  Fe73      1.0  0.96324  0.46931  0.54359  1.0000
  H   H1136     1.0  0.63948  0.64912  0.77277  1.0000
  Fe  Fe74      1.0  0.72614  0.39332  0.84742  1.0000
  S   S146      1.0  0.71694  0.37205  0.79787  1.0000
  S   S147      1.0  0.77577  0.41680  0.85475  1.0000
  Fe  Fe75      1.0  0.65154  0.38992  0.86643  1.0000
  S   S148      1.0  0.63749  0.36948  0.81830  1.0000
  S   S149      1.0  0.61270  0.39935  0.90613  1.0000
  C   C643      1.0  0.78083  0.51753  0.93017  1.0000
  Fe  Fe76      1.0  0.67211  0.40227  0.79582  1.0000
  S   S150      1.0  0.65926  0.42741  0.74950  1.0000
  C   C644      1.0  0.80415  0.49402  0.52350  1.0000
  S   S151      1.0  0.68282  0.42486  0.84361  1.0000
  C   C645      1.0  0.57046  0.39577  0.89408  1.0000
  C   C646      1.0  0.56065  0.40071  0.86152  1.0000
  C   C647      1.0  0.54614  0.38838  0.91760  1.0000
  H   H1137     1.0  0.57909  0.40694  0.84332  1.0000
  C   C648      1.0  0.78973  0.50210  0.96303  1.0000
  C   C649      1.0  0.65536  0.48019  0.78311  1.0000
  C   C650      1.0  0.65711  0.46592  0.75255  1.0000
  C   C651      1.0  0.65777  0.48267  0.72370  1.0000
  H   H1138     1.0  0.65322  0.46767  0.80540  1.0000
  H   H1139     1.0  0.65835  0.47186  0.69992  1.0000
  H   H1140     1.0  0.54505  0.66898  0.71418  1.0000
  H   H1141     1.0  0.69009  0.40797  0.94195  1.0000
  H   H1142     1.0  0.53169  0.46576  0.67802  1.0000
  H   H1143     1.0  0.95386  0.48181  0.77483  1.0000
  H   H1144     1.0  0.54120  0.45450  0.91167  1.0000
  C   C652      1.0  0.84354  0.42690  0.94554  1.0000
  C   C653      1.0  0.82005  0.40413  0.94429  1.0000
  C   C654      1.0  0.79889  0.40066  0.91677  1.0000
  C   C655      1.0  0.80133  0.41987  0.89013  1.0000
  C   C656      1.0  0.82495  0.44248  0.89132  1.0000
  C   C657      1.0  0.84585  0.44606  0.91888  1.0000
  H   H1145     1.0  0.81822  0.38911  0.96473  1.0000
  H   H1146     1.0  0.78099  0.38303  0.91604  1.0000
  H   H1147     1.0  0.82704  0.45741  0.87084  1.0000
  H   H1148     1.0  0.86403  0.46344  0.91933  1.0000
  Fe  Fe77      1.0  0.91631  0.51694  0.51825  1.0000
  S   S152      1.0  0.87869  0.55401  0.52836  1.0000
  Fe  Fe78      1.0  0.94652  0.51964  0.96717  1.0000
  S   S153      1.0  0.97660  0.53793  0.92386  1.0000
  S   S154      1.0  0.89127  0.51219  0.95997  1.0000
  S   S155      1.0  0.97044  0.51719  0.53417  1.0000
  Fe  Fe79      1.0  0.73163  0.59260  0.66019  1.0000
  S   S156      1.0  0.72943  0.61011  0.71223  1.0000
  S   S157      1.0  0.77726  0.56318  0.65040  1.0000
  Fe  Fe80      1.0  0.65927  0.61364  0.64732  1.0000
  S   S158      1.0  0.65237  0.63126  0.69841  1.0000
  S   S159      1.0  0.61752  0.61781  0.61006  1.0000
  Fe  Fe81      1.0  0.70353  0.64990  0.69166  1.0000
  Fe  Fe82      1.0  0.67850  0.59000  0.71400  1.0000
  S   S160      1.0  0.66225  0.56588  0.75950  1.0000
  S   S161      1.0  0.70973  0.63416  0.63914  1.0000
  S   S162      1.0  0.68143  0.57064  0.66327  1.0000
  C   C658      1.0  0.65868  0.52756  0.75616  1.0000
  C   C659      1.0  0.65587  0.51091  0.78487  1.0000
  C   C660      1.0  0.65900  0.51336  0.72551  1.0000
  H   H1149     1.0  0.65449  0.52179  0.80860  1.0000
  H   H1150     1.0  0.66022  0.52587  0.70318  1.0000
  C   C661      1.0  0.57548  0.61788  0.62371  1.0000
  C   C662      1.0  0.54987  0.61505  0.60039  1.0000
  C   C663      1.0  0.56711  0.61963  0.65720  1.0000
  H   H1151     1.0  0.55614  0.61313  0.57449  1.0000
  H   H1152     1.0  0.58653  0.62143  0.67547  1.0000
  H   H1153     1.0  0.57167  0.49716  0.88857  1.0000
  H   H1154     1.0  0.78113  0.50125  0.90967  1.0000
  C   C664      1.0  0.55610  0.46836  0.92841  1.0000
  H   H1155     1.0  0.54112  0.55876  0.67268  1.0000
  H   H1156     1.0  0.98056  0.51407  0.81432  1.0000
  C   C665      1.0  0.85032  0.55596  0.56221  1.0000
  C   C666      1.0  0.85103  0.53542  0.58762  1.0000
  C   C667      1.0  0.82832  0.53793  0.61423  1.0000
  C   C668      1.0  0.80443  0.56079  0.61564  1.0000
  C   C669      1.0  0.80347  0.58120  0.59006  1.0000
  C   C670      1.0  0.82640  0.57883  0.56357  1.0000
  H   H1157     1.0  0.86923  0.51770  0.58689  1.0000
  H   H1158     1.0  0.82929  0.52202  0.63386  1.0000
  H   H1159     1.0  0.78532  0.59894  0.59085  1.0000
  H   H1160     1.0  0.82567  0.59484  0.54404  1.0000
  N   N35       1.0  0.56099  0.51837  0.65226  1.0000
  C   C671      1.0  0.97803  0.49064  0.82085  1.0000
  C   C672      1.0  0.57693  0.49000  0.66334  1.0000
  C   C673      1.0  0.55060  0.53720  0.68132  1.0000
  C   C674      1.0  0.58630  0.53495  0.63212  1.0000
  C   C675      1.0  0.59702  0.52053  0.59894  1.0000
  H   H1161     1.0  0.59895  0.67084  0.71737  1.0000
  C   C676      1.0  0.57851  0.54390  0.70682  1.0000
  C   C677      1.0  0.55633  0.47187  0.68841  1.0000
  C   C678      1.0  0.57467  0.44348  0.69732  1.0000
  C   C679      1.0  0.62073  0.54037  0.57984  1.0000
  H   H1162     1.0  0.01395  0.55610  0.86708  1.0000
  C   C680      1.0  0.56473  0.56184  0.73584  1.0000
  H   H1163     1.0  0.78787  0.65099  0.64741  1.0000
  H   H1164     1.0  0.96459  0.44979  0.79678  1.0000
  H   H1165     1.0  0.58169  0.47538  0.64175  1.0000
  H   H1166     1.0  0.60217  0.49394  0.67407  1.0000
  Fe  Fe83      1.0  0.89906  0.47228  0.99070  1.0000
  H   H1167     1.0  0.52790  0.50940  0.93007  1.0000
  H   H1168     1.0  0.57710  0.55752  0.62707  1.0000
  H   H1169     1.0  0.60981  0.53804  0.64635  1.0000
  H   H1170     1.0  0.57519  0.51626  0.58284  1.0000
  H   H1171     1.0  0.61042  0.49951  0.60332  1.0000
  H   H1172     1.0  0.80675  0.55830  0.94110  1.0000
  C   C681      1.0  0.70664  0.42582  0.93333  1.0000
  H   H1173     1.0  0.59897  0.55673  0.69547  1.0000
  H   H1174     1.0  0.58938  0.52352  0.71711  1.0000
  H   H1175     1.0  0.79871  0.47203  0.51315  1.0000
  H   H1176     1.0  0.60084  0.66730  0.51844  1.0000
  H   H1177     1.0  0.77336  0.66136  0.70599  1.0000
  S   S163      1.0  0.86925  0.43087  0.98083  1.0000
  H   H1178     1.0  0.55178  0.50114  0.96569  1.0000
  H   H1179     1.0  0.64316  0.54570  0.59481  1.0000
  H   H1180     1.0  0.62917  0.52917  0.55685  1.0000
  H   H1181     1.0  0.52976  0.44852  0.99326  1.0000
  H   H1182     1.0  0.79928  0.55156  0.89791  1.0000
  H   H1183     1.0  0.98734  0.52507  0.75961  1.0000
  H   H1184     1.0  0.99486  0.50513  0.60781  1.0000
  H   H1185     1.0  0.83064  0.49453  0.53188  1.0000
  H   H1186     1.0  0.59319  0.34429  0.76927  1.0000
  H   H1187     1.0  0.79598  0.44990  0.99424  1.0000
  H   H1188     1.0  0.79868  0.51894  0.98058  1.0000
  H   H1189     1.0  0.75552  0.52778  0.93136  1.0000
  H   H1190     1.0  0.78770  0.49790  0.54528  1.0000
  H   H1191     1.0  0.72523  0.41633  0.91572  1.0000
  C   C682      1.0  0.53334  0.61861  0.66718  1.0000
  H   H1192     1.0  0.81230  0.48813  0.95813  1.0000
  H   H1193     1.0  0.97960  0.48187  0.72401  1.0000
  H   H1194     1.0  0.55468  0.58320  0.72727  1.0000
  C   C683      1.0  0.53425  0.49135  0.94741  1.0000
  C   C684      1.0  0.82296  0.66547  0.68527  1.0000
  H   H1195     1.0  0.80131  0.53908  0.51046  1.0000
  H   H1196     1.0  0.74464  0.64648  0.82520  1.0000
  H   H1197     1.0  0.55354  0.38466  0.94288  1.0000
  C   C685      1.0  0.97392  0.43510  0.72519  1.0000
  H   H1198     1.0  0.74936  0.54792  0.98377  1.0000
  H   H1199     1.0  0.94976  0.50284  0.86474  1.0000
  H   H1200     1.0  0.60768  0.56105  0.57297  1.0000
  H   H1201     1.0  0.53038  0.54912  0.59818  1.0000
  C   C686      1.0  0.95746  0.43671  0.69125  1.0000
  C   C687      1.0  0.01417  0.52172  0.75324  1.0000
  N   N36       1.0  0.00550  0.46726  0.76796  1.0000
  C   C688      1.0  0.80625  0.54112  0.92159  1.0000
  H   H1202     1.0  0.52697  0.61973  0.69309  1.0000
  C   C689      1.0  0.52683  0.39785  0.85245  1.0000
  H   H1203     1.0  0.73663  0.47627  0.93162  1.0000
  H   H1204     1.0  0.80311  0.63502  0.71987  1.0000
  H   H1205     1.0  0.00892  0.42044  0.77639  1.0000
  H   H1206     1.0  0.70486  0.44915  0.97947  1.0000
  C   C690      1.0  0.97452  0.47147  0.78922  1.0000
  H   H1207     1.0  0.57908  0.42969  0.67504  1.0000
  H   H1208     1.0  0.97673  0.43908  0.67168  1.0000
  H   H1209     1.0  0.59982  0.49642  0.92361  1.0000
  C   C691      1.0  0.74935  0.46365  0.95144  1.0000
  H   H1210     1.0  0.99038  0.41533  0.72515  1.0000
  Fe  Fe84      1.0  0.68309  0.34084  0.82489  1.0000
  H   H1211     1.0  0.52898  0.52740  0.69454  1.0000
  H   H1212     1.0  0.60654  0.64462  0.80270  1.0000
  C   C692      1.0  0.56591  0.34743  0.77378  1.0000
  H   H1213     1.0  0.55942  0.43085  0.71513  1.0000
  C   C693      1.0  0.94719  0.48803  0.84309  1.0000
  C   C694      1.0  0.72434  0.43985  0.96275  1.0000
  H   H1214     1.0  0.94478  0.46528  0.85230  1.0000
  C   C695      1.0  0.73295  0.50236  0.99072  1.0000
  H   H1215     1.0  0.77070  0.45217  0.93923  1.0000
  H   H1216     1.0  0.83170  0.53130  0.91891  1.0000
  H   H1217     1.0  0.58521  0.56612  0.75368  1.0000
  H   H1218     1.0  0.94340  0.41629  0.68633  1.0000
  H   H1219     1.0  0.69088  0.44224  0.92032  1.0000
  H   H1220     1.0  0.71388  0.50567  0.97104  1.0000
  H   H1221     1.0  0.59874  0.46598  0.89515  1.0000
  H   H1222     1.0  0.54463  0.54970  0.74875  1.0000
  N   N37       1.0  0.77202  0.49788  0.75914  1.0000
  C   C696      1.0  0.74702  0.48007  0.73996  1.0000
  C   C697      1.0  0.75549  0.50870  0.79058  1.0000
  C   C698      1.0  0.78031  0.52446  0.73864  1.0000
  C   C699      1.0  0.80400  0.48102  0.76638  1.0000
  C   C700      1.0  0.80102  0.44731  0.77087  1.0000
  C   C701      1.0  0.75812  0.47111  0.70451  1.0000
  C   C702      1.0  0.80347  0.54738  0.75523  1.0000
  C   C703      1.0  0.74641  0.48515  0.81630  1.0000
  C   C704      1.0  0.72878  0.49873  0.84630  1.0000
  C   C705      1.0  0.83293  0.43424  0.78575  1.0000
  C   C706      1.0  0.73933  0.44421  0.69215  1.0000
  C   C707      1.0  0.81797  0.56857  0.73001  1.0000
  H   H1223     1.0  0.72330  0.49273  0.73737  1.0000
  H   H1224     1.0  0.73955  0.46014  0.75355  1.0000
  H   H1225     1.0  0.77218  0.52394  0.80401  1.0000
  H   H1226     1.0  0.73227  0.52147  0.78470  1.0000
  H   H1227     1.0  0.75687  0.53615  0.73105  1.0000
  H   H1228     1.0  0.79282  0.51768  0.71518  1.0000
  H   H1229     1.0  0.82275  0.48401  0.74627  1.0000
  H   H1230     1.0  0.81612  0.49014  0.78887  1.0000
  H   H1231     1.0  0.79705  0.43636  0.74674  1.0000
  H   H1232     1.0  0.77979  0.44120  0.78691  1.0000
  H   H1233     1.0  0.75280  0.48947  0.68732  1.0000
  H   H1234     1.0  0.78538  0.46627  0.70308  1.0000
  H   H1235     1.0  0.82477  0.53670  0.76808  1.0000
  H   H1236     1.0  0.78896  0.56071  0.77341  1.0000
  H   H1237     1.0  0.72962  0.46832  0.80583  1.0000
  H   H1238     1.0  0.76961  0.47459  0.82560  1.0000
  H   H1239     1.0  0.74484  0.51550  0.85810  1.0000
  H   H1240     1.0  0.70460  0.50896  0.83906  1.0000
  H   H1241     1.0  0.72363  0.48135  0.86464  1.0000
  H   H1242     1.0  0.83732  0.44351  0.81073  1.0000
  H   H1243     1.0  0.83009  0.41017  0.78827  1.0000
  H   H1244     1.0  0.85494  0.43857  0.76973  1.0000
  H   H1245     1.0  0.74736  0.43887  0.66656  1.0000
  H   H1246     1.0  0.74472  0.42500  0.70803  1.0000
  H   H1247     1.0  0.71191  0.44844  0.69217  1.0000
  H   H1248     1.0  0.83409  0.58480  0.74262  1.0000
  H   H1249     1.0  0.83336  0.55660  0.71132  1.0000
  H   H1250     1.0  0.79747  0.58047  0.71725  1.0000
  H   H1251     1.0  0.56898  0.45362  0.94617  1.0000
  S   S164      1.0  0.69576  0.35995  0.87496  1.0000
  H   H1252     1.0  0.95381  0.43220  0.74380  1.0000
  H   H1253     1.0  0.74824  0.60826  0.81406  1.0000
  C   C708      1.0  0.58320  0.48305  0.90773  1.0000
  H   H1254     1.0  0.93966  0.45553  0.69000  1.0000
  H   H1255     1.0  0.92407  0.49435  0.82960  1.0000
  S   S165      1.0  0.95533  0.47782  0.99543  1.0000
  H   H1256     1.0  0.77939  0.62031  0.76393  1.0000
  H   H1257     1.0  0.55197  0.48424  0.71167  1.0000
  H   H1258     1.0  0.51948  0.40166  0.82717  1.0000
  H   H1259     1.0  0.53586  0.49425  0.61338  1.0000
  C   C709      1.0  0.53015  0.51136  0.63230  1.0000
  H   H1260     1.0  0.56675  0.34938  0.82673  1.0000
  N   N38       1.0  0.76212  0.48404  0.97798  1.0000
  H   H1261     1.0  0.00023  0.48464  0.83563  1.0000
  C   C710      1.0  0.99488  0.46287  0.73251  1.0000
  C   C711      1.0  0.61190  0.65020  0.77661  1.0000
  H   H1262     1.0  0.59910  0.44830  0.70905  1.0000
  H   H1263     1.0  0.73801  0.42209  0.97586  1.0000
  H   H1264     1.0  0.56006  0.37124  0.77279  1.0000
  H   H1265     1.0  0.53141  0.66136  0.53946  1.0000
  S   S166      1.0  0.98716  0.44458  0.58640  1.0000
  C   C712      1.0  0.81402  0.64647  0.65542  1.0000
  C   C713      1.0  0.01385  0.46151  0.61552  1.0000
  H   H1266     1.0  0.58942  0.66350  0.56140  1.0000
  C   C714      1.0  0.51621  0.61339  0.61046  1.0000
  H   H1267     1.0  0.00974  0.57312  0.56601  1.0000
  H   H1268     1.0  0.72385  0.63265  0.78875  1.0000
  H   H1269     1.0  0.80023  0.63420  0.79977  1.0000
  C   C715      1.0  0.77807  0.63713  0.78359  1.0000
  C   C716      1.0  0.01104  0.52139  0.90275  1.0000
  C   C717      1.0  0.74677  0.63086  0.80416  1.0000
  C   C718      1.0  0.79958  0.65870  0.71492  1.0000
  H   H1270     1.0  0.84190  0.64540  0.76201  1.0000
  C   C719      1.0  0.01262  0.49170  0.62119  1.0000
  H   H1271     1.0  0.84953  0.66071  0.69135  1.0000
  H   H1272     1.0  0.87618  0.64739  0.81259  1.0000
  H   H1273     1.0  0.51620  0.54160  0.97513  1.0000
  C   C720      1.0  0.77689  0.66872  0.76966  1.0000
  C   C721      1.0  0.83879  0.66955  0.75939  1.0000
  C   C722      1.0  0.88002  0.67089  0.80682  1.0000
  H   H1274     1.0  0.62518  0.33894  0.92202  1.0000
  H   H1275     1.0  0.64715  0.69582  0.09736  1.0000
  H   H1276     1.0  0.94555  0.96024  0.39892  1.0000
  H   H1277     1.0  0.82106  0.93133  0.28722  1.0000
  S   S167      1.0  0.86216  0.93480  0.46933  1.0000
  C   C723      1.0  0.72447  0.94349  0.46874  1.0000
  H   H1278     1.0  0.79776  0.74575  0.19498  1.0000
  S   S168      1.0  0.65302  0.70806  0.20060  1.0000
  Fe  Fe85      1.0  0.71975  0.90984  0.33392  1.0000
  S   S169      1.0  0.72428  0.89694  0.28044  1.0000
  S   S170      1.0  0.75581  0.94428  0.35337  1.0000
  Fe  Fe86      1.0  0.65184  0.87871  0.34066  1.0000
  S   S171      1.0  0.65112  0.86488  0.28744  1.0000
  S   S172      1.0  0.61281  0.86373  0.37764  1.0000
  Fe  Fe87      1.0  0.70502  0.85269  0.29542  1.0000
  S   S173      1.0  0.72816  0.80886  0.27980  1.0000
  Fe  Fe88      1.0  0.67013  0.91031  0.27731  1.0000
  S   S174      1.0  0.65240  0.93810  0.23450  1.0000
  S   S175      1.0  0.70526  0.86449  0.34952  1.0000
  S   S176      1.0  0.66608  0.92508  0.32999  1.0000
  C   C724      1.0  0.56985  0.87089  0.37096  1.0000
  C   C725      1.0  0.55883  0.88695  0.34377  1.0000
  C   C726      1.0  0.54626  0.86042  0.39368  1.0000
  H   H1279     1.0  0.57683  0.89505  0.32608  1.0000
  H   H1280     1.0  0.55465  0.84812  0.41485  1.0000
  C   C727      1.0  0.67433  0.73568  0.22284  1.0000
  C   C728      1.0  0.70550  0.73050  0.23746  1.0000
  C   C729      1.0  0.72169  0.75317  0.25471  1.0000
  C   C730      1.0  0.70675  0.78109  0.25783  1.0000
  C   C731      1.0  0.67550  0.78620  0.24330  1.0000
  C   C732      1.0  0.65946  0.76362  0.22579  1.0000
  H   H1281     1.0  0.71712  0.70905  0.23551  1.0000
  H   H1282     1.0  0.74584  0.74904  0.26590  1.0000
  H   H1283     1.0  0.66392  0.80766  0.24522  1.0000
  H   H1284     1.0  0.63546  0.76787  0.21436  1.0000
  C   C733      1.0  0.65624  0.99421  0.21073  1.0000
  C   C734      1.0  0.65863  0.97614  0.23853  1.0000
  H   H1285     1.0  0.61908  0.94969  0.40722  1.0000
  H   H1286     1.0  0.66755  0.97516  0.29076  1.0000
  H   H1287     1.0  0.54683  0.92429  0.40417  1.0000
  H   H1288     1.0  0.55959  0.74272  0.37848  1.0000
  H   H1289     1.0  0.61689  0.96835  0.36823  1.0000
  N   N39       1.0  0.55514  0.69577  0.15089  1.0000
  H   H1290     1.0  0.83137  0.70782  0.08296  1.0000
  C   C735      1.0  0.88230  0.93626  0.34876  1.0000
  C   C736      1.0  0.83233  0.93775  0.43740  1.0000
  C   C737      1.0  0.81404  0.91294  0.42797  1.0000
  C   C738      1.0  0.79030  0.91452  0.40239  1.0000
  C   C739      1.0  0.78469  0.94100  0.38611  1.0000
  C   C740      1.0  0.80294  0.96581  0.39563  1.0000
  C   C741      1.0  0.82664  0.96420  0.42116  1.0000
  H   H1291     1.0  0.81834  0.89236  0.44042  1.0000
  H   H1292     1.0  0.77645  0.89527  0.39519  1.0000
  H   H1293     1.0  0.79873  0.98637  0.38311  1.0000
  H   H1294     1.0  0.84056  0.98341  0.42822  1.0000
  N   N40       1.0  0.91132  0.95569  0.35789  1.0000
  C   C742      1.0  0.78055  0.69110  0.17435  1.0000
  C   C743      1.0  0.72799  0.72998  0.15171  1.0000
  C   C744      1.0  0.86041  0.94693  0.31956  1.0000
  C   C745      1.0  0.54393  0.00048  0.24002  1.0000
  H   H1295     1.0  0.85305  0.90434  0.29608  1.0000
  C   C746      1.0  0.52701  0.68638  0.12830  1.0000
  C   C747      1.0  0.56329  0.97459  0.25467  1.0000
  H   H1296     1.0  0.71060  0.76660  0.12178  1.0000
  H   H1297     1.0  0.84376  0.96522  0.32788  1.0000
  H   H1298     1.0  0.54145  0.97649  0.47090  1.0000
  H   H1299     1.0  0.58727  0.68982  0.28531  1.0000
  C   C748      1.0  0.51775  0.91888  0.47729  1.0000
  C   C749      1.0  0.56739  0.83587  0.26549  1.0000
  H   H1300     1.0  0.55544  0.97005  0.37090  1.0000
  C   C750      1.0  0.52201  0.98226  0.45234  1.0000
  H   H1301     1.0  0.76120  0.73677  0.11003  1.0000
  H   H1302     1.0  0.57390  0.98775  0.40612  1.0000
  C   C751      1.0  0.81344  0.72975  0.14547  1.0000
  H   H1303     1.0  0.68856  0.73261  0.11469  1.0000
  H   H1304     1.0  0.99906  0.97029  0.42328  1.0000
  C   C752      1.0  0.99003  0.97885  0.14457  1.0000
  S   S177      1.0  0.87613  0.98492  0.02350  1.0000
  H   H1305     1.0  0.60646  0.71054  0.14571  1.0000
  H   H1306     1.0  0.73811  0.74462  0.17099  1.0000
  H   H1307     1.0  0.97664  0.94893  0.27480  1.0000
  C   C753      1.0  0.93975  0.91450  0.39232  1.0000
  H   H1308     1.0  0.65126  0.98458  0.18684  1.0000
  C   C754      1.0  0.83781  0.92258  0.30672  1.0000
  H   H1309     1.0  0.97997  0.90955  0.27572  1.0000
  C   C755      1.0  0.60096  0.67423  0.11185  1.0000
  H   H1310     1.0  0.80082  0.00223  0.21781  1.0000
  C   C756      1.0  0.66540  0.98874  0.26924  1.0000
  H   H1311     1.0  0.86505  0.93382  0.37025  1.0000
  C   C757      1.0  0.00944  0.96331  0.09069  1.0000
  H   H1312     1.0  0.54910  0.78588  0.34760  1.0000
  H   H1313     1.0  0.58325  0.80557  0.36456  1.0000
  C   C758      1.0  0.60347  0.95320  0.38494  1.0000
  H   H1314     1.0  0.78542  0.67845  0.24070  1.0000
  C   C759      1.0  0.75051  0.96570  0.48004  1.0000
  H   H1315     1.0  0.59945  0.75489  0.39309  1.0000
  H   H1316     1.0  0.97029  0.98747  0.16031  1.0000
  H   H1317     1.0  0.54218  0.78154  0.19114  1.0000
  C   C760      1.0  0.56378  0.67193  0.17516  1.0000
  C   C761      1.0  0.54975  0.94552  0.41749  1.0000
  H   H1318     1.0  0.61452  0.69650  0.06633  1.0000
  N   N41       1.0  0.59751  0.77458  0.32624  1.0000
  C   C762      1.0  0.59601  0.74187  0.32077  1.0000
  C   C763      1.0  0.52800  0.77680  0.16821  1.0000
  C   C764      1.0  0.58355  0.78908  0.29567  1.0000
  C   C765      1.0  0.63305  0.78505  0.33060  1.0000
  C   C766      1.0  0.65322  0.77153  0.35935  1.0000
  C   C767      1.0  0.61659  0.72964  0.29111  1.0000
  C   C768      1.0  0.57403  0.82207  0.29910  1.0000
  H   H1319     1.0  0.89085  0.91362  0.34316  1.0000
  H   H1320     1.0  0.56058  0.99509  0.19009  1.0000
  C   C769      1.0  0.69061  0.77782  0.35590  1.0000
  N   N42       1.0  0.78742  0.70623  0.14196  1.0000
  C   C770      1.0  0.89780  0.98652  0.36236  1.0000
  H   H1321     1.0  0.56943  0.73519  0.31730  1.0000
  H   H1322     1.0  0.60460  0.72963  0.34271  1.0000
  H   H1323     1.0  0.54233  0.90923  0.47004  1.0000
  H   H1324     1.0  0.58063  0.71789  0.11101  1.0000
  H   H1325     1.0  0.56044  0.77775  0.28724  1.0000
  H   H1326     1.0  0.60178  0.78711  0.27487  1.0000
  H   H1327     1.0  0.64771  0.78182  0.30747  1.0000
  H   H1328     1.0  0.63350  0.80912  0.33480  1.0000
  H   H1329     1.0  0.65080  0.74745  0.36053  1.0000
  H   H1330     1.0  0.64462  0.78147  0.38301  1.0000
  H   H1331     1.0  0.60731  0.73876  0.26753  1.0000
  H   H1332     1.0  0.64358  0.73482  0.29370  1.0000
  H   H1333     1.0  0.59401  0.83461  0.31133  1.0000
  H   H1334     1.0  0.81745  0.74096  0.12152  1.0000
  H   H1335     1.0  0.57029  0.75918  0.14186  1.0000
  C   C771      1.0  0.97694  0.92954  0.29123  1.0000
  H   H1336     1.0  0.68065  0.75380  0.15155  1.0000
  C   C772      1.0  0.83558  0.77408  0.17611  1.0000
  H   H1337     1.0  0.95993  0.88387  0.42802  1.0000
  H   H1338     1.0  0.70430  0.76928  0.37766  1.0000
  H   H1339     1.0  0.70101  0.76700  0.33343  1.0000
  C   C773      1.0  0.80069  0.68319  0.11821  1.0000
  C   C774      1.0  0.55712  0.77699  0.41483  1.0000
  H   H1340     1.0  0.76730  0.70579  0.19202  1.0000
  H   H1341     1.0  0.73623  0.96625  0.27012  1.0000
  H   H1342     1.0  0.55084  0.82495  0.31406  1.0000
  H   H1343     1.0  0.58805  0.98182  0.26401  1.0000
  H   H1344     1.0  0.96302  0.91310  0.37729  1.0000
  H   H1345     1.0  0.59025  0.83469  0.24978  1.0000
  H   H1346     1.0  0.84371  0.78412  0.15254  1.0000
  C   C775      1.0  0.77809  0.99740  0.20298  1.0000
  H   H1347     1.0  0.94568  0.90792  0.32637  1.0000
  C   C776      1.0  0.81703  0.99796  0.13812  1.0000
  H   H1348     1.0  0.53004  0.69613  0.10335  1.0000
  C   C777      1.0  0.54742  0.72356  0.16988  1.0000
  H   H1349     1.0  0.54898  0.96527  0.27561  1.0000
  C   C778      1.0  0.52441  0.89278  0.33961  1.0000
  C   C779      1.0  0.56930  0.96628  0.39420  1.0000
  H   H1350     1.0  0.74717  0.98827  0.14753  1.0000
  H   H1351     1.0  0.87605  0.98669  0.37961  1.0000
  H   H1352     1.0  0.85653  0.98586  0.10343  1.0000
  C   C780      1.0  0.61379  0.69633  0.28871  1.0000
  H   H1353     1.0  0.82184  0.91401  0.32693  1.0000
  H   H1354     1.0  0.96884  0.92165  0.43705  1.0000
  H   H1355     1.0  0.58615  0.67838  0.18985  1.0000
  H   H1356     1.0  0.69969  0.95429  0.46516  1.0000
  C   C781      1.0  0.57578  0.78353  0.35536  1.0000
  H   H1357     1.0  0.52173  0.93608  0.49627  1.0000
  H   H1358     1.0  0.90500  0.94798  0.41008  1.0000
  H   H1359     1.0  0.87613  0.95486  0.29890  1.0000
  H   H1360     1.0  0.53164  0.78499  0.40813  1.0000
  H   H1361     1.0  0.82878  0.79196  0.19368  1.0000
  H   H1362     1.0  0.56731  0.72752  0.18866  1.0000
  H   H1363     1.0  0.82840  0.69771  0.20032  1.0000
  H   H1364     1.0  0.92352  0.92505  0.29342  1.0000
  Fe  Fe89      1.0  0.89428  0.97265  0.48651  1.0000
  H   H1365     1.0  0.71628  0.71101  0.16411  1.0000
  S   S178      1.0  0.94310  0.98254  0.09512  1.0000
  C   C782      1.0  0.92491  0.94589  0.39078  1.0000
  C   C783      1.0  0.57435  0.76240  0.38518  1.0000
  C   C784      1.0  0.75537  0.71868  0.12738  1.0000
  H   H1366     1.0  0.57221  0.79575  0.42377  1.0000
  H   H1367     1.0  0.77462  0.95372  0.48268  1.0000
  H   H1368     1.0  0.53041  0.74797  0.12592  1.0000
  H   H1369     1.0  0.83826  0.71986  0.15158  1.0000
  H   H1370     1.0  0.52429  0.68172  0.21240  1.0000
  C   C785      1.0  0.54478  0.75180  0.14890  1.0000
  C   C786      1.0  0.80527  0.75446  0.17063  1.0000
  H   H1371     1.0  0.78356  0.97600  0.19075  1.0000
  H   H1372     1.0  0.96313  0.96196  0.34365  1.0000
  C   C787      1.0  0.58607  0.70124  0.13023  1.0000
  H   H1373     1.0  0.56038  0.85931  0.26891  1.0000
  C   C788      1.0  0.93877  0.95613  0.33202  1.0000
  H   H1374     1.0  0.00491  0.95978  0.06469  1.0000
  H   H1375     1.0  0.53266  0.00089  0.43842  1.0000
  H   H1376     1.0  0.74242  0.70182  0.11213  1.0000
  H   H1377     1.0  0.69492  0.80172  0.35429  1.0000
  C   C789      1.0  0.80885  0.69371  0.08277  1.0000
  C   C790      1.0  0.98376  0.97466  0.11074  1.0000
  C   C791      1.0  0.75818  0.97029  0.25388  1.0000
  C   C792      1.0  0.94439  0.92788  0.31114  1.0000
  H   H1378     1.0  0.75269  0.98204  0.46003  1.0000
  H   H1379     1.0  0.92720  0.90741  0.44408  1.0000
  H   H1380     1.0  0.56676  0.94093  0.43853  1.0000
  H   H1381     1.0  0.85677  0.76132  0.18672  1.0000
  C   C793      1.0  0.94948  0.90649  0.42757  1.0000
  H   H1382     1.0  0.54649  0.82459  0.25281  1.0000
  S   S179      1.0  0.95045  0.96822  0.49018  1.0000
  H   H1383     1.0  0.92165  0.89790  0.38371  1.0000
  Fe  Fe90      1.0  0.92927  0.99132  0.04140  1.0000
  H   H1384     1.0  0.78477  0.76858  0.16102  1.0000
  C   C794      1.0  0.70032  0.74675  0.13367  1.0000
  H   H1385     1.0  0.60043  0.93195  0.37193  1.0000
  H   H1386     1.0  0.82574  0.98044  0.15500  1.0000
  H   H1387     1.0  0.78772  0.70623  0.07186  1.0000
  C   C795      1.0  0.01095  0.98205  0.40345  1.0000
  C   C796      1.0  0.62663  0.68316  0.08583  1.0000
  H   H1388     1.0  0.55473  0.76098  0.43518  1.0000
  H   H1389     1.0  0.62393  0.68580  0.31124  1.0000
  H   H1390     1.0  0.72207  0.92561  0.48702  1.0000
  H   H1391     1.0  0.76651  0.94899  0.24314  1.0000
  H   H1392     1.0  0.56737  0.95709  0.23588  1.0000
  H   H1393     1.0  0.77855  0.97945  0.26931  1.0000
  H   H1394     1.0  0.62856  0.68814  0.26722  1.0000
  H   H1395     1.0  0.93409  0.97384  0.31375  1.0000
  H   H1396     1.0  0.73249  0.93363  0.44482  1.0000
  H   H1397     1.0  0.51604  0.90543  0.31867  1.0000
  H   H1398     1.0  0.79726  0.98886  0.12204  1.0000
  C   C797      1.0  0.74826  0.99170  0.22670  1.0000
  H   H1399     1.0  0.80066  0.00216  0.46866  1.0000
  N   N43       1.0  0.51596  0.95658  0.42958  1.0000
  H   H1400     1.0  0.99891  0.93100  0.30794  1.0000
  H   H1401     1.0  0.51862  0.99264  0.23319  1.0000
  H   H1402     1.0  0.88814  0.99511  0.33856  1.0000
  H   H1403     1.0  0.82412  0.67567  0.03525  1.0000
  H   H1404     1.0  0.72717  0.98186  0.21290  1.0000
  H   H1405     1.0  0.70944  0.99783  0.09736  1.0000
  H   H1406     1.0  0.52748  0.79689  0.15290  1.0000
  H   H1407     1.0  0.52393  0.72157  0.18432  1.0000
  C   C798      1.0  0.81172  0.67942  0.19328  1.0000
  H   H1408     1.0  0.82417  0.67293  0.12738  1.0000
  H   H1409     1.0  0.76313  0.67252  0.17026  1.0000
  H   H1410     1.0  0.54007  0.67347  0.49916  1.0000
  H   H1411     1.0  0.68850  0.68364  0.76612  1.0000
  H   H1412     1.0  0.88666  0.68249  0.83001  1.0000
  C   C799      1.0  0.97066  0.95926  0.86007  1.0000
  S   S180      1.0  0.88283  0.93746  0.93725  1.0000
  C   C800      1.0  0.56777  0.96000  0.88217  1.0000
  H   H1413     1.0  0.95300  0.92360  0.91429  1.0000
  S   S181      1.0  0.71421  0.69821  0.70061  1.0000
  Fe  Fe91      1.0  0.70077  0.87637  0.87810  1.0000
  S   S182      1.0  0.71173  0.86129  0.82610  1.0000
  S   S183      1.0  0.73299  0.89241  0.92084  1.0000
  Fe  Fe92      1.0  0.62447  0.86941  0.86930  1.0000
  S   S184      1.0  0.62914  0.85484  0.81649  1.0000
  S   S185      1.0  0.57878  0.87223  0.90256  1.0000
  Fe  Fe93      1.0  0.67235  0.82667  0.83359  1.0000
  S   S186      1.0  0.67350  0.77702  0.82495  1.0000
  Fe  Fe94      1.0  0.66779  0.89051  0.81285  1.0000
  S   S187      1.0  0.67187  0.92067  0.76896  1.0000
  S   S188      1.0  0.66519  0.83937  0.88693  1.0000
  S   S189      1.0  0.65923  0.90744  0.86405  1.0000
  C   C801      1.0  0.53715  0.87275  0.88841  1.0000
  H   H1414     1.0  0.61638  0.69278  0.54869  1.0000
  C   C802      1.0  0.56670  0.94384  0.78101  1.0000
  C   C803      1.0  0.80188  0.70879  0.73652  1.0000
  H   H1415     1.0  0.54908  0.87556  0.83675  1.0000
  C   C804      1.0  0.70172  0.71979  0.73504  1.0000
  C   C805      1.0  0.70460  0.75041  0.73334  1.0000
  C   C806      1.0  0.69634  0.76834  0.76066  1.0000
  C   C807      1.0  0.68495  0.75575  0.78992  1.0000
  C   C808      1.0  0.68209  0.72509  0.79158  1.0000
  C   C809      1.0  0.69047  0.70718  0.76433  1.0000
  H   H1416     1.0  0.71354  0.76035  0.71086  1.0000
  H   H1417     1.0  0.69880  0.79187  0.75912  1.0000
  H   H1418     1.0  0.67342  0.71518  0.81418  1.0000
  N   N44       1.0  0.80456  0.67676  0.74589  1.0000
  C   C810      1.0  0.65721  0.97275  0.80182  1.0000
  C   C811      1.0  0.67097  0.95910  0.77382  1.0000
  C   C812      1.0  0.68342  0.97644  0.74824  1.0000
  H   H1419     1.0  0.64723  0.95961  0.82157  1.0000
  H   H1420     1.0  0.69428  0.96607  0.72659  1.0000
  C   C813      1.0  0.57729  0.98632  0.74221  1.0000
  C   C814      1.0  0.52565  0.97334  0.92729  1.0000
  H   H1421     1.0  0.85316  0.70796  0.78826  1.0000
  C   C815      1.0  0.84809  0.68441  0.79244  1.0000
  H   H1422     1.0  0.01127  0.94662  0.63718  1.0000
  C   C816      1.0  0.84053  0.92686  0.93179  1.0000
  C   C817      1.0  0.83138  0.91153  0.90304  1.0000
  C   C818      1.0  0.79834  0.90142  0.89875  1.0000
  C   C819      1.0  0.77429  0.90626  0.92344  1.0000
  C   C820      1.0  0.78340  0.92192  0.95192  1.0000
  C   C821      1.0  0.81624  0.93235  0.95601  1.0000
  H   H1423     1.0  0.72957  0.96430  0.52956  1.0000
  H   H1424     1.0  0.79182  0.88897  0.87701  1.0000
  H   H1425     1.0  0.76502  0.92569  0.97121  1.0000
  C   C822      1.0  0.00741  0.95579  0.75223  1.0000
  C   C823      1.0  0.60452  0.79640  0.75705  1.0000
  S   S190      1.0  0.96842  0.96821  0.58605  1.0000
  H   H1426     1.0  0.62908  0.74226  0.74473  1.0000
  C   C824      1.0  0.60602  0.68970  0.73304  1.0000
  H   H1427     1.0  0.59408  0.94072  0.78482  1.0000
  H   H1428     1.0  0.54972  0.93056  0.91870  1.0000
  H   H1429     1.0  0.91294  0.98633  0.63638  1.0000
  H   H1430     1.0  0.63222  0.79668  0.75441  1.0000
  H   H1431     1.0  0.59467  0.81851  0.75081  1.0000
  H   H1432     1.0  0.59809  0.79178  0.78319  1.0000
  H   H1433     1.0  0.62459  0.99533  0.62920  1.0000
  C   C825      1.0  0.52922  0.87491  0.85496  1.0000
  H   H1434     1.0  0.83705  0.93220  0.54196  1.0000
  C   C826      1.0  0.56393  0.69940  0.53626  1.0000
  H   H1435     1.0  0.55037  0.78733  0.90321  1.0000
  H   H1436     1.0  0.00821  0.99626  0.70209  1.0000
  H   H1437     1.0  0.76255  0.72715  0.76885  1.0000
  C   C827      1.0  0.58934  0.77350  0.73401  1.0000
  C   C828      1.0  0.59837  0.68091  0.76918  1.0000
  H   H1438     1.0  0.63452  0.72437  0.62565  1.0000
  C   C829      1.0  0.60117  0.74215  0.74345  1.0000
  H   H1439     1.0  0.98446  0.96636  0.92553  1.0000
  C   C830      1.0  0.79661  0.98213  0.53796  1.0000
  C   C831      1.0  0.82435  0.93834  0.56548  1.0000
  C   C832      1.0  0.53528  0.69018  0.70501  1.0000
  H   H1440     1.0  0.54325  0.71685  0.74868  1.0000
  H   H1441     1.0  0.78199  0.77753  0.77071  1.0000
  C   C833      1.0  0.74665  0.95528  0.84431  1.0000
  H   H1442     1.0  0.94163  0.98347  0.89819  1.0000
  C   C834      1.0  0.70879  0.96897  0.90754  1.0000
  H   H1443     1.0  0.99478  0.93770  0.76539  1.0000
  C   C835      1.0  0.77570  0.94724  0.82009  1.0000
  C   C836      1.0  0.00527  0.95769  0.90987  1.0000
  H   H1444     1.0  0.89754  0.98518  0.67815  1.0000
  H   H1445     1.0  0.85865  0.67607  0.74168  1.0000
  C   C837      1.0  0.93723  0.97064  0.87535  1.0000
  C   C838      1.0  0.77002  0.91750  0.80380  1.0000
  C   C839      1.0  0.79116  0.95417  0.55881  1.0000
  H   H1446     1.0  0.55876  0.71098  0.55983  1.0000
  H   H1447     1.0  0.77476  0.93853  0.54562  1.0000
  H   H1448     1.0  0.91809  0.85928  0.86911  1.0000
  H   H1449     1.0  0.72259  0.95290  0.83062  1.0000
  H   H1450     1.0  0.74667  0.93779  0.86329  1.0000
  H   H1451     1.0  0.57103  0.68089  0.77412  1.0000
  C   C840      1.0  0.00218  0.98454  0.60698  1.0000
  C   C841      1.0  0.65548  0.00354  0.80383  1.0000
  H   H1452     1.0  0.58398  0.98536  0.67282  1.0000
  H   H1453     1.0  0.70645  0.94633  0.89820  1.0000
  H   H1454     1.0  0.69448  0.98929  0.86157  1.0000
  H   H1455     1.0  0.79997  0.94584  0.83329  1.0000
  H   H1456     1.0  0.77800  0.96345  0.80000  1.0000
  C   C842      1.0  0.91087  0.99889  0.65987  1.0000
  H   H1457     1.0  0.54078  0.73639  0.71138  1.0000
  H   H1458     1.0  0.91197  0.88368  0.90366  1.0000
  Fe  Fe95      1.0  0.94454  0.98843  0.54073  1.0000
  H   H1459     1.0  0.77776  0.96667  0.89979  1.0000
  H   H1460     1.0  0.62515  0.98791  0.68941  1.0000
  H   H1461     1.0  0.54405  0.80697  0.86545  1.0000
  C   C843      1.0  0.55848  0.97592  0.77354  1.0000
  H   H1462     1.0  0.52175  0.73906  0.50916  1.0000
  H   H1463     1.0  0.79064  0.91259  0.78610  1.0000
  H   H1464     1.0  0.76974  0.90002  0.82265  1.0000
  H   H1465     1.0  0.74593  0.91746  0.79011  1.0000
  C   C844      1.0  0.79263  0.76244  0.75170  1.0000
  H   H1466     1.0  0.98783  0.89976  0.90983  1.0000
  H   H1467     1.0  0.58314  0.73889  0.67364  1.0000
  H   H1468     1.0  0.54053  0.76763  0.86555  1.0000
  N   N45       1.0  0.58979  0.71765  0.72102  1.0000
  C   C845      1.0  0.91816  0.99032  0.85138  1.0000
  H   H1469     1.0  0.51738  0.87014  0.93773  1.0000
  H   H1470     1.0  0.77852  0.76577  0.72843  1.0000
  H   H1471     1.0  0.60467  0.98434  0.74749  1.0000
  H   H1472     1.0  0.59682  0.77911  0.70846  1.0000
  C   C846      1.0  0.93121  0.87289  0.88770  1.0000
  S   S191      1.0  0.95173  0.97350  0.99435  1.0000
  C   C847      1.0  0.67570  0.97665  0.92477  1.0000
  C   C848      1.0  0.78945  0.73083  0.76337  1.0000
  H   H1473     1.0  0.75208  0.67223  0.75768  1.0000
  H   H1474     1.0  0.83489  0.00074  0.91695  1.0000
  C   C849      1.0  0.53553  0.78790  0.88008  1.0000
  H   H1475     1.0  0.85007  0.90699  0.88428  1.0000
  H   H1476     1.0  0.54670  0.97864  0.94411  1.0000
  Fe  Fe96      1.0  0.89883  0.97208  0.97465  1.0000
  H   H1477     1.0  0.93554  0.90903  0.85473  1.0000
  H   H1478     1.0  0.74011  0.99204  0.57631  1.0000
  H   H1479     1.0  0.96006  0.98567  0.67523  1.0000
  H   H1480     1.0  0.96472  0.94814  0.83635  1.0000
  H   H1481     1.0  0.71727  0.99472  0.50586  1.0000
  H   H1482     1.0  0.92048  0.95225  0.88129  1.0000
  H   H1483     1.0  0.63374  0.69123  0.73049  1.0000
  C   C850      1.0  0.55200  0.71642  0.72259  1.0000
  H   H1484     1.0  0.81459  0.99641  0.55140  1.0000
  H   H1485     1.0  0.77982  0.95953  0.58312  1.0000
  H   H1486     1.0  0.01385  0.93882  0.52278  1.0000
  N   N46       1.0  0.99179  0.93966  0.88169  1.0000
  C   C851      1.0  0.60991  0.69809  0.66318  1.0000
  H   H1487     1.0  0.62539  0.73719  0.68706  1.0000
  H   H1488     1.0  0.56169  0.77557  0.73616  1.0000
  H   H1489     1.0  0.57766  0.94165  0.86670  1.0000
  H   H1490     1.0  0.82070  0.68870  0.67765  1.0000
  H   H1491     1.0  0.55347  0.93705  0.80383  1.0000
  C   C852      1.0  0.53933  0.94887  0.90396  1.0000
  C   C853      1.0  0.98229  0.98053  0.74565  1.0000
  C   C854      1.0  0.53336  0.68154  0.52424  1.0000
  H   H1492     1.0  0.52174  0.68298  0.59152  1.0000
  S   S192      1.0  0.88830  0.98868  0.53861  1.0000
  C   C855      1.0  0.60420  0.00088  0.67857  1.0000
  H   H1493     1.0  0.81964  0.91801  0.57956  1.0000
  H   H1494     1.0  0.61061  0.69618  0.78670  1.0000
  H   H1495     1.0  0.98504  0.97890  0.85292  1.0000
  C   C856      1.0  0.71600  0.99037  0.87893  1.0000
  H   H1496     1.0  0.96096  0.97109  0.73187  1.0000
  H   H1497     1.0  0.57089  0.71593  0.51753  1.0000
  H   H1498     1.0  0.82297  0.94394  0.97833  1.0000
  H   H1499     1.0  0.59223  0.73879  0.76914  1.0000
  H   H1500     1.0  0.81937  0.76803  0.74768  1.0000
  C   C857      1.0  0.60163  0.72445  0.68633  1.0000
  H   H1501     1.0  0.94712  0.85832  0.90309  1.0000
  H   H1502     1.0  0.57239  0.96985  0.72274  1.0000
  H   H1503     1.0  0.89437  0.99788  0.86313  1.0000
  C   C858      1.0  0.61443  0.70776  0.62749  1.0000
  H   H1504     1.0  0.55853  0.92942  0.76046  1.0000
  H   H1505     1.0  0.58864  0.96837  0.89752  1.0000
  H   H1506     1.0  0.80193  0.98225  0.86824  1.0000
  H   H1507     1.0  0.65459  0.97559  0.90703  1.0000
  H   H1508     1.0  0.82637  0.71665  0.72691  1.0000
  H   H1509     1.0  0.78384  0.71170  0.71580  1.0000
  H   H1510     1.0  0.84118  0.95246  0.58028  1.0000
  C   C859      1.0  0.95256  0.89580  0.87036  1.0000
  H   H1511     1.0  0.80332  0.72870  0.78676  1.0000
  H   H1512     1.0  0.90128  0.67290  0.78922  1.0000
  H   H1513     1.0  0.73822  0.00011  0.81037  1.0000
  H   H1514     1.0  0.59061  0.71694  0.61771  1.0000
  H   H1515     1.0  0.91202  0.97810  0.82847  1.0000
  H   H1516     1.0  0.59036  0.68111  0.66354  1.0000
  H   H1517     1.0  0.67102  0.96061  0.94472  1.0000
  H   H1518     1.0  0.80322  0.99365  0.94788  1.0000
  C   C860      1.0  0.77845  0.98558  0.88264  1.0000
  C   C861      1.0  0.73948  0.98115  0.51248  1.0000
  H   H1519     1.0  0.56612  0.98889  0.79545  1.0000
  H   H1520     1.0  0.77644  0.68324  0.79165  1.0000
  H   H1521     1.0  0.97061  0.88398  0.85407  1.0000
  H   H1522     1.0  0.00961  0.91629  0.83842  1.0000
  C   C862      1.0  0.52228  0.00180  0.68977  1.0000
  H   H1523     1.0  0.82802  0.68233  0.81121  1.0000
  H   H1524     1.0  0.63391  0.68777  0.67095  1.0000
  C   C863      1.0  0.59442  0.67946  0.54145  1.0000
  H   H1525     1.0  0.67675  0.99891  0.93588  1.0000
  H   H1526     1.0  0.51968  0.94008  0.88750  1.0000
  H   H1527     1.0  0.52139  0.99360  0.91269  1.0000
  H   H1528     1.0  0.53917  0.69150  0.67800  1.0000
  H   H1529     1.0  0.62184  0.68849  0.61218  1.0000
  H   H1530     1.0  0.81029  0.97481  0.51547  1.0000
  N   N47       1.0  0.74835  0.98530  0.86019  1.0000
  H   H1531     1.0  0.72889  0.96959  0.92637  1.0000
  C   C864      1.0  0.97143  0.91502  0.89579  1.0000
  H   H1532     1.0  0.52677  0.97812  0.69394  1.0000
  H   H1533     1.0  0.52573  0.94530  0.98413  1.0000
  N   N48       1.0  0.76542  0.99961  0.52965  1.0000
  H   H1534     1.0  0.97308  0.98847  0.76996  1.0000
  H   H1535     1.0  0.53096  0.97791  0.77046  1.0000
  H   H1536     1.0  0.55860  0.97763  0.86564  1.0000
