data_image0
_chemical_formula_structural       H2CH2FeSH2SHFeS2FeS2FeSFeS3CH3C6H6CHFeH4CHCH2C2HC2H7C5H4CHC2HNHC2H5C2H3CHSC2HC2HCHCH3SCH3CHCH14SCH2CH4CH4CH2NC12H17C3H4NC4HCH4CH4CH3C2HC2HFeH7SHCH4C2HCH2CHC4HCH2CHCSCHFeS2FeS2FeSFeS3FeS2FeS2FeHFeS3C6H4CH2C3H3CNC2H2CH3CH4C2H2C8H2C2H8SCHC2NHCNC12H17NH11CHCH2C2HCHC2H8CHSCH5CH4CH6C2HCH2C2H2CH2C2HCHCH2CH3CH2NH6CH3CH3C6HCH5C3H2CH2CH4CH2CH3CH2SHCH5CSH2FeNH3CH10C2H4CHCH3CFeS3H2SFeSCFeS2FeSFeS3C4H3CHC2HC3HC6H9CH2CNH2C2H2C2HCH2CHCH2C3HC3HC2H3SNHCH3SCHFeH2SH5C2H2C3H4CHCH7CH5CHCHCHCHFeHCH3FeCHC2H7CH5CHCH2NHCHNCH5CHCH3CH5CNH4CHC2SH3CH4SHC2FeSCFeSHFeSHFeS2FeSFeS3CH3C6H7C2HC2HCH3C2H3C2H3SH4CH2CH2C2H4CH2CH2CH3CHCHC2H6CH4CH2CH5CHSNHC4HFeC3NHCH7CHC4H5CH2C2HCH2NHCH5C2HCH7SHCH2CH7C3H4C3H3NH2C2HCHCNHCHCH2CH2CH2C2H6CHCH2CSH2FeS2FeS2FeSFeS3FeS2FeS2FeHFeS3C6H4C2HC3H2NH4C2H3C3H3C2H2CH2C3H4NC8HC3H2CH9C2H2C3H6C5H9CH2C2H2CH3C2H6CH2C2H3CH3CH5CH4CNH4CHC3NC6H15CHCHCH2CH3C3SH2CHCH3C2HC2H2CH3FeSFeS3H2SFeS2FeS2FeSFeHS2C2H4CH4CFeCH2C6H5CH2CH7CH2FeH7C3HCH6CH3CH4CSNH2CHCH2C2HC2H2C2HS2H3CH6C2H5CHNC6HC4H13CH4CH4C2H5CHCHSH2FeHCNHC3HCH2SCH2CH2CH2C3H2CFeHCH3CSHFeC2FeSH2CSHFeS2C2SCHFeSCHC2H3CHC3HCH3CHSC6H5N2HC2SCH2C2H3CHCHCHCSHCH2CHCHC2HSH4CNFeHCH3CH7CH4SHCH2CHC2H6CH3SH2CH3FeC2HNHCH3CHCH7CFeH5CH3CFeCFeHCH7NH4CHCFeH3CHSH2CHSH2SHSCH2FeH2FeSC3SHSCFeHSFeSCH2SCHCSCHCHCH4FeHSHC2H2C2SC3H3CH2SC2HCHC7S2H6CSCH4CH3CSH4CH3CH2CH3CH3C2H2CHCH4C3H4CHCNH2CSHCH2SH2FeH8CH2CFeHCHNC7HCHCH14CH4CH3CH2CHCNC2HNCHC2H2C3H2C3H2FeH2SH2CHCFeH7CFeSCFeSNS2HCHSHFeHSFeSH3SCHC2HC3H2C2HC9H11C2H2CHCHCSFeCH4CH2CH2NH4C4H3NC12H23CH3CH3SH3CHCHCH3CH3CH2CHCH2CH2CH3C2HC2SH2CH11FeH5CHCHCH2CH3C2H2SCFeHSFeSNH2SHCHSCFeSHSFeSHCH5C4H2NHC3H2C6H5CH2CHFeH2C2HCH2C2HC3HCH4C2HCHFeHCH2SH5SH2SH3CSCH6CHCH3CH2NC8H12CH3CH7FeH3SHSC2H4C3HCH2CHCH3C3SC3H2CH3CHCSH4CH2SH4CHSCFeH2FeSH3SHSHFeNSFeS2CHSC4H2CSCH2CHC3H5C2HC3H3CH3C2HCHC3HC3HCHCNCH2C2HC2H2CHCH2CNH5CH2SCH2C2FeH2CHCH6CH2SH2C2HSCH4C5H2CH8CH2CHCHSNC2HC2H2C2HSH2SH2FeH3SCHCH8CHSHC2H2CH3CHSHSH4CH2FeH2CH3FeCHCH2CH3C2H2FeSHCH2SHSHFeHSFeSFeSHSHC3HC2H3CHC2H2C6HCH3CHNHCHCNCHCH3CH3CH4CH2CH9SH2CSH4SH3C2HCSCH3CH2CH2C2H3SHSCH2C4H8CHNC4HC3FeHC2H3FeH15CH3CHCH2CH3FeHCHSHC2HCSH5CHCHC4
_chemical_formula_sum              "H1536 C864 Fe96 S192 N48"
_cell_length_a       29.8011
_cell_length_b       43.8537
_cell_length_c       63.38
_cell_angle_alpha    90.0769
_cell_angle_beta     90.0039
_cell_angle_gamma    89.9248

_space_group_name_H-M_alt    "P 1"
_space_group_IT_number       1

loop_
  _space_group_symop_operation_xyz
  'x, y, z'

loop_
  _atom_site_type_symbol
  _atom_site_label
  _atom_site_symmetry_multiplicity
  _atom_site_fract_x
  _atom_site_fract_y
  _atom_site_fract_z
  _atom_site_occupancy
  H   H1        1.0  0.44511  0.40635  0.09864  1.0000
  H   H2        1.0  0.07922  0.23620  0.98528  1.0000
  C   C1        1.0  0.37094  0.04123  0.98186  1.0000
  H   H3        1.0  0.19019  0.18503  0.02161  1.0000
  H   H4        1.0  0.45754  0.20891  0.26741  1.0000
  Fe  Fe1       1.0  0.02424  0.35814  0.10457  1.0000
  S   S1        1.0  0.07211  0.35178  0.07653  1.0000
  H   H5        1.0  0.35458  0.12647  0.26856  1.0000
  H   H6        1.0  0.09109  0.40590  0.17781  1.0000
  S   S2        1.0  0.04580  0.36308  0.13823  1.0000
  H   H7        1.0  0.31295  0.23221  0.27383  1.0000
  Fe  Fe2       1.0  0.37396  0.27624  0.02257  1.0000
  S   S3        1.0  0.36744  0.25858  0.05568  1.0000
  S   S4        1.0  0.41203  0.31727  0.01044  1.0000
  Fe  Fe3       1.0  0.31658  0.22612  0.00414  1.0000
  S   S5        1.0  0.30553  0.20446  0.03579  1.0000
  S   S6        1.0  0.28943  0.20312  0.97486  1.0000
  Fe  Fe4       1.0  0.29427  0.25235  0.04757  1.0000
  S   S7        1.0  0.24077  0.26169  0.07261  1.0000
  Fe  Fe5       1.0  0.37926  0.21197  0.04122  1.0000
  S   S8        1.0  0.41826  0.17374  0.05781  1.0000
  S   S9        1.0  0.29998  0.27337  0.01538  1.0000
  S   S10       1.0  0.39102  0.23036  0.00869  1.0000
  C   C2        1.0  0.42077  0.09461  0.00232  1.0000
  H   H8        1.0  0.48402  0.17638  0.02326  1.0000
  H   H9        1.0  0.26896  0.26757  0.97055  1.0000
  H   H10       1.0  0.17891  0.39105  0.10294  1.0000
  C   C3        1.0  0.11857  0.32633  0.07573  1.0000
  C   C4        1.0  0.12856  0.30659  0.09237  1.0000
  C   C5        1.0  0.16594  0.28691  0.09105  1.0000
  C   C6        1.0  0.19360  0.28654  0.07306  1.0000
  C   C7        1.0  0.18356  0.30623  0.05637  1.0000
  C   C8        1.0  0.14648  0.32617  0.05781  1.0000
  H   H11       1.0  0.10752  0.30650  0.10630  1.0000
  H   H12       1.0  0.17341  0.27182  0.10408  1.0000
  H   H13       1.0  0.20464  0.30636  0.04251  1.0000
  H   H14       1.0  0.13957  0.34199  0.04516  1.0000
  H   H15       1.0  0.06363  0.35671  0.22307  1.0000
  H   H16       1.0  0.43478  0.13366  0.98148  1.0000
  C   C9        1.0  0.04176  0.14432  0.17400  1.0000
  H   H17       1.0  0.18755  0.30587  0.98311  1.0000
  Fe  Fe6       1.0  0.99638  0.40177  0.14082  1.0000
  H   H18       1.0  0.36662  0.16282  0.98884  1.0000
  H   H19       1.0  0.02292  0.00448  0.12242  1.0000
  H   H20       1.0  0.26495  0.34742  0.00672  1.0000
  H   H21       1.0  0.13715  0.31657  0.01300  1.0000
  C   C10       1.0  0.46211  0.19187  0.28019  1.0000
  H   H22       1.0  0.04075  0.33446  0.20255  1.0000
  C   C11       1.0  0.08907  0.38709  0.18952  1.0000
  H   H23       1.0  0.14072  0.30568  0.96485  1.0000
  H   H24       1.0  0.35038  0.05918  0.98950  1.0000
  C   C12       1.0  0.46120  0.14843  0.04892  1.0000
  C   C13       1.0  0.07520  0.16206  0.18752  1.0000
  H   H25       1.0  0.09788  0.98894  0.11175  1.0000
  C   C14       1.0  0.44279  0.34305  0.02618  1.0000
  C   C15       1.0  0.44760  0.33907  0.04796  1.0000
  H   H26       1.0  0.44725  0.11536  0.07319  1.0000
  H   H27       1.0  0.43223  0.31970  0.05561  1.0000
  H   H28       1.0  0.10924  0.16028  0.18049  1.0000
  H   H29       1.0  0.34514  0.13300  0.00548  1.0000
  H   H30       1.0  0.02559  0.30272  0.01258  1.0000
  H   H31       1.0  0.04459  0.28075  0.27265  1.0000
  H   H32       1.0  0.20284  0.22094  0.03413  1.0000
  C   C16       1.0  0.25031  0.22306  0.95928  1.0000
  C   C17       1.0  0.04065  0.98707  0.13203  1.0000
  C   C18       1.0  0.43037  0.04136  0.02826  1.0000
  C   C19       1.0  0.28888  0.11273  0.24173  1.0000
  C   C20       1.0  0.03516  0.35576  0.21186  1.0000
  H   H33       1.0  0.11030  0.39316  0.20329  1.0000
  H   H34       1.0  0.10213  0.36593  0.18205  1.0000
  H   H35       1.0  0.09070  0.32122  0.99594  1.0000
  H   H36       1.0  0.46317  0.26732  0.98275  1.0000
  C   C21       1.0  0.12145  0.30741  0.99841  1.0000
  H   H37       1.0  0.43168  0.06225  0.03817  1.0000
  C   C22       1.0  0.99599  0.22733  0.21230  1.0000
  C   C23       1.0  0.14912  0.22287  0.01085  1.0000
  H   H38       1.0  0.25457  0.10623  0.23655  1.0000
  N   N1        1.0  0.11024  0.27415  0.00152  1.0000
  H   H39       1.0  0.35119  0.28373  0.95540  1.0000
  C   C24       1.0  0.24710  0.25483  0.96020  1.0000
  C   C25       1.0  0.44707  0.01491  0.04185  1.0000
  H   H40       1.0  0.04770  0.24454  0.19167  1.0000
  H   H41       1.0  0.42599  0.01288  0.05622  1.0000
  H   H42       1.0  0.38533  0.11229  0.97420  1.0000
  H   H43       1.0  0.07647  0.15262  0.20374  1.0000
  H   H44       1.0  0.14003  0.21004  0.99634  1.0000
  C   C26       1.0  0.02318  0.31766  0.25207  1.0000
  C   C27       1.0  0.04030  0.38280  0.19628  1.0000
  H   H45       1.0  0.99814  0.10925  0.14814  1.0000
  H   H46       1.0  0.10085  0.26748  0.03527  1.0000
  H   H47       1.0  0.12336  0.21833  0.02306  1.0000
  C   C28       1.0  0.15364  0.25740  0.00582  1.0000
  H   H48       1.0  0.30613  0.09194  0.24762  1.0000
  S   S11       1.0  0.02067  0.13968  0.24107  1.0000
  C   C29       1.0  0.46018  0.04536  0.00835  1.0000
  C   C30       1.0  0.01954  0.01617  0.21212  1.0000
  H   H49       1.0  0.06022  0.24888  0.01933  1.0000
  C   C31       1.0  0.03361  0.98764  0.20414  1.0000
  C   C32       1.0  0.29088  0.21238  0.27040  1.0000
  H   H50       1.0  0.04309  0.15356  0.15773  1.0000
  C   C33       1.0  0.46343  0.36808  0.01640  1.0000
  H   H51       1.0  0.32326  0.35279  0.01316  1.0000
  C   C34       1.0  0.02020  0.28461  0.25967  1.0000
  H   H52       1.0  0.06578  0.18655  0.18824  1.0000
  H   H53       1.0  0.39053  0.08667  0.01087  1.0000
  H   H54       1.0  0.18222  0.35422  0.96412  1.0000
  S   S12       1.0  0.00995  0.29309  0.16757  1.0000
  C   C35       1.0  0.08019  0.27025  0.02068  1.0000
  H   H55       1.0  0.03838  0.02720  0.22454  1.0000
  H   H56       1.0  0.02828  0.40444  0.20329  1.0000
  H   H57       1.0  0.44517  0.99308  0.03298  1.0000
  C   C36       1.0  0.49133  0.24197  0.06186  1.0000
  H   H58       1.0  0.22051  0.21377  0.00723  1.0000
  C   C37       1.0  0.15854  0.34949  0.97725  1.0000
  H   H59       1.0  0.17655  0.25856  0.99200  1.0000
  H   H60       1.0  0.40123  0.40453  0.11814  1.0000
  H   H61       1.0  0.05792  0.32128  0.24643  1.0000
  H   H62       1.0  0.41273  0.06897  0.96140  1.0000
  H   H63       1.0  0.34343  0.28433  0.12525  1.0000
  H   H64       1.0  0.17200  0.36000  0.99190  1.0000
  H   H65       1.0  0.39486  0.03703  0.02423  1.0000
  H   H66       1.0  0.39826  0.43212  0.09687  1.0000
  H   H67       1.0  0.37651  0.28959  0.10172  1.0000
  H   H68       1.0  0.42213  0.15744  0.26525  1.0000
  H   H69       1.0  0.39498  0.15379  0.01310  1.0000
  H   H70       1.0  0.01661  0.33248  0.26593  1.0000
  H   H71       1.0  0.32043  0.27388  0.10002  1.0000
  H   H72       1.0  0.04752  0.40575  0.23760  1.0000
  S   S13       1.0  0.01814  0.44767  0.15454  1.0000
  C   C38       1.0  0.04714  0.29657  0.02613  1.0000
  H   H73       1.0  0.44241  0.10481  0.01473  1.0000
  H   H74       1.0  0.00170  0.19775  0.15774  1.0000
  C   C39       1.0  0.47249  0.36034  0.05984  1.0000
  H   H75       1.0  0.05322  0.12019  0.17337  1.0000
  H   H76       1.0  0.04552  0.37692  0.25742  1.0000
  H   H77       1.0  0.47627  0.35723  0.07667  1.0000
  H   H78       1.0  0.43568  0.03331  0.96841  1.0000
  C   C40       1.0  0.01180  0.41870  0.26537  1.0000
  H   H79       1.0  0.37509  0.02172  0.99279  1.0000
  H   H80       1.0  0.16563  0.38341  0.07560  1.0000
  H   H81       1.0  0.01903  0.27418  0.98448  1.0000
  H   H82       1.0  0.28503  0.38494  0.01362  1.0000
  C   C41       1.0  0.19344  0.20995  0.01895  1.0000
  H   H83       1.0  0.16978  0.42203  0.08477  1.0000
  H   H84       1.0  0.17187  0.26846  0.01913  1.0000
  N   N2        1.0  0.30461  0.36472  0.07835  1.0000
  C   C42       1.0  0.25629  0.36778  0.08516  1.0000
  C   C43       1.0  0.31985  0.33244  0.08255  1.0000
  C   C44       1.0  0.33228  0.38752  0.09053  1.0000
  C   C45       1.0  0.31013  0.37108  0.05508  1.0000
  C   C46       1.0  0.27782  0.35364  0.04015  1.0000
  C   C47       1.0  0.23399  0.39917  0.08079  1.0000
  C   C48       1.0  0.38375  0.38527  0.08744  1.0000
  C   C49       1.0  0.32271  0.32286  0.10608  1.0000
  C   C50       1.0  0.34200  0.29071  0.10831  1.0000
  C   C51       1.0  0.28853  0.36021  0.01702  1.0000
  C   C52       1.0  0.18414  0.39877  0.08642  1.0000
  C   C53       1.0  0.40834  0.40853  0.10117  1.0000
  H   H85       1.0  0.25317  0.36400  0.10244  1.0000
  H   H86       1.0  0.23535  0.34955  0.07795  1.0000
  H   H87       1.0  0.29660  0.31593  0.07497  1.0000
  H   H88       1.0  0.35298  0.32795  0.07501  1.0000
  H   H89       1.0  0.32469  0.38624  0.10771  1.0000
  H   H90       1.0  0.32303  0.41116  0.08588  1.0000
  H   H91       1.0  0.30667  0.39588  0.05172  1.0000
  H   H92       1.0  0.34482  0.36515  0.04989  1.0000
  H   H93       1.0  0.24246  0.36049  0.04293  1.0000
  H   H94       1.0  0.28072  0.32870  0.04250  1.0000
  H   H95       1.0  0.24987  0.41719  0.09055  1.0000
  H   H96       1.0  0.23679  0.40576  0.06397  1.0000
  H   H97       1.0  0.39269  0.39008  0.07078  1.0000
  H   H98       1.0  0.39662  0.36237  0.09171  1.0000
  H   H99       1.0  0.34464  0.33833  0.11529  1.0000
  H   H100      1.0  0.28885  0.32276  0.11337  1.0000
  H   H101      1.0  0.48236  0.01880  0.04687  1.0000
  C   C54       1.0  0.01676  0.28804  0.04463  1.0000
  C   C55       1.0  0.28576  0.13676  0.25916  1.0000
  C   C56       1.0  0.15352  0.31504  0.97995  1.0000
  H   H102      1.0  0.37524  0.20332  0.27178  1.0000
  H   H103      1.0  0.30059  0.20317  0.25475  1.0000
  H   H104      1.0  0.34783  0.15928  0.25258  1.0000
  H   H105      1.0  0.30738  0.12184  0.22789  1.0000
  N   N3        1.0  0.44528  0.06840  0.99193  1.0000
  C   C57       1.0  0.40542  0.12094  0.98764  1.0000
  C   C58       1.0  0.08938  0.26016  0.98208  1.0000
  C   C59       1.0  0.33327  0.14715  0.26641  1.0000
  C   C60       1.0  0.48907  0.15535  0.03182  1.0000
  H   H106      1.0  0.26651  0.15629  0.25270  1.0000
  C   C61       1.0  0.41745  0.05331  0.97503  1.0000
  H   H107      1.0  0.11459  0.25836  0.96913  1.0000
  H   H108      1.0  0.36294  0.01103  0.95468  1.0000
  H   H109      1.0  0.45123  0.22338  0.08735  1.0000
  H   H110      1.0  0.04232  0.42853  0.27278  1.0000
  C   C62       1.0  0.37630  0.14393  0.99957  1.0000
  H   H111      1.0  0.05617  0.99854  0.14586  1.0000
  H   H112      1.0  0.46273  0.26353  0.08987  1.0000
  H   H113      1.0  0.01773  0.21086  0.21986  1.0000
  H   H114      1.0  0.03716  0.28276  0.05886  1.0000
  C   C63       1.0  0.24285  0.22441  0.26885  1.0000
  H   H115      1.0  0.24011  0.24050  0.25540  1.0000
  H   H116      1.0  0.46485  0.02246  0.00104  1.0000
  H   H117      1.0  0.26552  0.12703  0.27209  1.0000
  C   C64       1.0  0.04723  0.27623  0.97319  1.0000
  C   C65       1.0  0.47719  0.24123  0.08504  1.0000
  H   H118      1.0  0.25432  0.98653  0.10356  1.0000
  C   C66       1.0  0.49196  0.38591  0.05012  1.0000
  C   C67       1.0  0.01289  0.24648  0.19633  1.0000
  H   H119      1.0  0.99448  0.30759  0.04855  1.0000
  Fe  Fe7       1.0  0.03487  0.12975  0.27552  1.0000
  H   H120      1.0  0.06324  0.97688  0.21063  1.0000
  H   H121      1.0  0.02429  0.23682  0.95498  1.0000
  H   H122      1.0  0.02138  0.01780  0.26348  1.0000
  H   H123      1.0  0.48361  0.22838  0.98391  1.0000
  H   H124      1.0  0.12567  0.36005  0.97333  1.0000
  H   H125      1.0  0.02033  0.37846  0.18183  1.0000
  H   H126      1.0  0.06598  0.31726  0.03099  1.0000
  S   S14       1.0  0.99688  0.08492  0.27467  1.0000
  H   H127      1.0  0.31153  0.02052  0.96819  1.0000
  C   C68       1.0  0.46835  0.12088  0.05984  1.0000
  H   H128      1.0  0.46019  0.37115  0.99953  1.0000
  H   H129      1.0  0.02830  0.26859  0.24660  1.0000
  H   H130      1.0  0.21868  0.20547  0.26630  1.0000
  H   H131      1.0  0.05364  0.30060  0.96975  1.0000
  C   C69       1.0  0.02532  0.39442  0.24922  1.0000
  C   C70       1.0  0.34439  0.02961  0.96284  1.0000
  H   H132      1.0  0.46078  0.24634  0.05236  1.0000
  C   C71       1.0  0.00159  0.46640  0.17814  1.0000
  H   H133      1.0  0.48362  0.27531  0.02101  1.0000
  H   H134      1.0  0.99556  0.26806  0.04059  1.0000
  C   C72       1.0  0.00669  0.00275  0.27575  1.0000
  H   H135      1.0  0.03295  0.98643  0.28098  1.0000
  C   C73       1.0  0.48787  0.38945  0.02830  1.0000
  C   C74       1.0  0.03216  0.26133  0.95254  1.0000
  C   C75       1.0  0.42285  0.16947  0.28066  1.0000
  C   C76       1.0  0.49321  0.25249  0.98098  1.0000
  H   H136      1.0  0.47805  0.09763  0.96890  1.0000
  C   C77       1.0  0.48690  0.08119  0.98157  1.0000
  H   H137      1.0  0.23370  0.23690  0.28345  1.0000
  H   H138      1.0  0.33796  0.04846  0.95152  1.0000
  C   C78       1.0  0.99344  0.14571  0.18319  1.0000
  H   H139      1.0  0.40829  0.27190  0.95114  1.0000
  C   C79       1.0  0.48268  0.33507  0.35957  1.0000
  S   S15       1.0  0.36163  0.09667  0.58936  1.0000
  C   C80       1.0  0.30283  0.12386  0.30951  1.0000
  H   H140      1.0  0.11480  0.24622  0.38007  1.0000
  Fe  Fe8       1.0  0.32946  0.21866  0.39237  1.0000
  S   S16       1.0  0.30161  0.26111  0.37787  1.0000
  S   S17       1.0  0.30477  0.19658  0.42252  1.0000
  Fe  Fe9       1.0  0.38743  0.20482  0.35416  1.0000
  S   S18       1.0  0.36291  0.24657  0.33661  1.0000
  S   S19       1.0  0.43292  0.17087  0.33729  1.0000
  Fe  Fe10      1.0  0.37290  0.27140  0.36760  1.0000
  S   S20       1.0  0.39516  0.32141  0.37312  1.0000
  Fe  Fe11      1.0  0.29417  0.23298  0.34834  1.0000
  S   S21       1.0  0.22847  0.23565  0.32959  1.0000
  S   S22       1.0  0.40130  0.23013  0.38444  1.0000
  S   S23       1.0  0.31820  0.19002  0.36344  1.0000
  Fe  Fe12      1.0  0.15556  0.20825  0.55627  1.0000
  S   S24       1.0  0.15543  0.18975  0.52324  1.0000
  S   S25       1.0  0.20866  0.19863  0.58142  1.0000
  Fe  Fe13      1.0  0.07283  0.25053  0.54784  1.0000
  S   S26       1.0  0.06732  0.23447  0.51435  1.0000
  S   S27       1.0  0.03232  0.28879  0.56371  1.0000
  Fe  Fe14      1.0  0.08029  0.18751  0.52752  1.0000
  H   H141      1.0  0.16238  0.12468  0.60850  1.0000
  Fe  Fe15      1.0  0.14240  0.23799  0.51315  1.0000
  S   S28       1.0  0.17655  0.26451  0.48714  1.0000
  S   S29       1.0  0.08091  0.20307  0.56129  1.0000
  S   S30       1.0  0.14743  0.25697  0.54591  1.0000
  C   C81       1.0  0.26656  0.21567  0.43913  1.0000
  C   C82       1.0  0.26117  0.24731  0.43839  1.0000
  C   C83       1.0  0.23307  0.26200  0.45307  1.0000
  C   C84       1.0  0.21024  0.24517  0.46853  1.0000
  C   C85       1.0  0.21460  0.21342  0.46885  1.0000
  C   C86       1.0  0.24265  0.19876  0.45416  1.0000
  H   H142      1.0  0.27959  0.26056  0.42690  1.0000
  H   H143      1.0  0.22962  0.28655  0.45265  1.0000
  H   H144      1.0  0.19662  0.20019  0.48046  1.0000
  H   H145      1.0  0.24634  0.17423  0.45457  1.0000
  C   C87       1.0  0.13744  0.15963  0.30244  1.0000
  H   H146      1.0  0.17130  0.40917  0.47854  1.0000
  H   H147      1.0  0.02779  0.28727  0.49185  1.0000
  C   C88       1.0  0.19348  0.20582  0.31985  1.0000
  C   C89       1.0  0.20324  0.17504  0.32331  1.0000
  C   C90       1.0  0.17564  0.15213  0.31449  1.0000
  H   H148      1.0  0.23225  0.16889  0.33263  1.0000
  H   H149      1.0  0.18375  0.12838  0.31709  1.0000
  H   H150      1.0  0.43070  0.15249  0.29300  1.0000
  C   C91       1.0  0.32340  0.43208  0.30953  1.0000
  N   N4        1.0  0.44668  0.46104  0.31866  1.0000
  C   C92       1.0  0.07106  0.03710  0.59491  1.0000
  C   C93       1.0  0.00916  0.12245  0.55107  1.0000
  H   H151      1.0  0.99989  0.33933  0.49830  1.0000
  H   H152      1.0  0.43344  0.43721  0.34801  1.0000
  C   C94       1.0  0.11234  0.38763  0.50906  1.0000
  H   H153      1.0  0.15088  0.13985  0.58249  1.0000
  H   H154      1.0  0.33092  0.41987  0.29456  1.0000
  H   H155      1.0  0.30225  0.12742  0.34384  1.0000
  C   C95       1.0  0.45556  0.13746  0.37277  1.0000
  H   H156      1.0  0.07579  0.20198  0.38470  1.0000
  H   H157      1.0  0.20069  0.28233  0.36358  1.0000
  H   H158      1.0  0.43864  0.15495  0.38185  1.0000
  H   H159      1.0  0.34067  0.09911  0.33355  1.0000
  C   C96       1.0  0.44244  0.37544  0.37726  1.0000
  C   C97       1.0  0.44363  0.34514  0.36973  1.0000
  H   H160      1.0  0.21845  0.20061  0.39578  1.0000
  H   H161      1.0  0.41269  0.38352  0.38531  1.0000
  C   C98       1.0  0.31943  0.12529  0.58730  1.0000
  C   C99       1.0  0.18461  0.28827  0.37887  1.0000
  C   C100      1.0  0.28243  0.17157  0.59961  1.0000
  C   C101      1.0  0.25120  0.17021  0.58300  1.0000
  C   C102      1.0  0.25431  0.14627  0.56848  1.0000
  C   C103      1.0  0.28815  0.12389  0.57065  1.0000
  C   C104      1.0  0.14019  0.20825  0.41584  1.0000
  C   C105      1.0  0.13792  0.42051  0.47851  1.0000
  H   H162      1.0  0.23032  0.14487  0.55576  1.0000
  H   H163      1.0  0.29013  0.10533  0.55944  1.0000
  C   C106      1.0  0.12440  0.09969  0.54430  1.0000
  C   C107      1.0  0.15195  0.10704  0.52463  1.0000
  H   H164      1.0  0.34015  0.15078  0.61463  1.0000
  H   H165      1.0  0.09940  0.38568  0.55065  1.0000
  H   H166      1.0  0.09689  0.08447  0.53911  1.0000
  H   H167      1.0  0.10970  0.12135  0.55020  1.0000
  H   H168      1.0  0.07132  0.15574  0.33564  1.0000
  H   H169      1.0  0.17967  0.12292  0.52857  1.0000
  H   H170      1.0  0.16604  0.08584  0.51767  1.0000
  H   H171      1.0  0.13021  0.11805  0.51262  1.0000
  S   S31       1.0  0.10465  0.12961  0.29127  1.0000
  C   C108      1.0  0.12706  0.19046  0.29945  1.0000
  H   H172      1.0  0.43356  0.39783  0.30407  1.0000
  C   C109      1.0  0.09693  0.05138  0.57607  1.0000
  C   C110      1.0  0.09676  0.22504  0.42286  1.0000
  N   N5        1.0  0.13144  0.07534  0.58164  1.0000
  H   H173      1.0  0.19815  0.18887  0.37098  1.0000
  C   C111      1.0  0.37770  0.00478  0.39437  1.0000
  N   N6        1.0  0.33211  0.19437  0.51499  1.0000
  C   C112      1.0  0.36532  0.21228  0.50196  1.0000
  C   C113      1.0  0.35659  0.17914  0.53302  1.0000
  C   C114      1.0  0.31369  0.16940  0.50098  1.0000
  C   C115      1.0  0.29351  0.21368  0.52296  1.0000
  C   C116      1.0  0.30402  0.24758  0.52819  1.0000
  C   C117      1.0  0.34702  0.22454  0.48060  1.0000
  C   C118      1.0  0.28240  0.14583  0.51169  1.0000
  C   C119      1.0  0.37884  0.20027  0.54956  1.0000
  C   C120      1.0  0.40909  0.18211  0.56447  1.0000
  C   C121      1.0  0.26371  0.26330  0.53828  1.0000
  C   C122      1.0  0.37681  0.24962  0.47154  1.0000
  C   C123      1.0  0.25912  0.12576  0.49527  1.0000
  H   H174      1.0  0.39514  0.19788  0.49818  1.0000
  H   H175      1.0  0.37914  0.23181  0.51095  1.0000
  H   H176      1.0  0.33330  0.16479  0.54240  1.0000
  H   H177      1.0  0.38272  0.16334  0.52670  1.0000
  H   H178      1.0  0.34164  0.15646  0.49338  1.0000
  H   H179      1.0  0.29392  0.17943  0.48786  1.0000
  H   H180      1.0  0.26569  0.21432  0.51119  1.0000
  H   H181      1.0  0.27845  0.20309  0.53730  1.0000
  H   H182      1.0  0.31206  0.26045  0.51362  1.0000
  H   H183      1.0  0.33275  0.25000  0.53906  1.0000
  H   H184      1.0  0.34602  0.20576  0.46881  1.0000
  H   H185      1.0  0.31249  0.23372  0.48226  1.0000
  H   H186      1.0  0.25610  0.15737  0.52116  1.0000
  H   H187      1.0  0.30206  0.13042  0.52208  1.0000
  H   H188      1.0  0.39992  0.21809  0.54220  1.0000
  H   H189      1.0  0.35248  0.21118  0.55941  1.0000
  H   H190      1.0  0.47982  0.11780  0.32217  1.0000
  N   N7        1.0  0.07632  0.36949  0.52008  1.0000
  H   H191      1.0  0.13008  0.42758  0.46209  1.0000
  H   H192      1.0  0.27237  0.28722  0.54234  1.0000
  H   H193      1.0  0.23528  0.26369  0.52697  1.0000
  H   H194      1.0  0.25344  0.25134  0.55296  1.0000
  H   H195      1.0  0.37715  0.26978  0.48217  1.0000
  H   H196      1.0  0.41161  0.24113  0.46927  1.0000
  H   H197      1.0  0.36340  0.25683  0.45595  1.0000
  H   H198      1.0  0.28406  0.11539  0.48437  1.0000
  H   H199      1.0  0.24085  0.10705  0.50330  1.0000
  H   H200      1.0  0.23460  0.13939  0.48603  1.0000
  H   H201      1.0  0.39214  0.45756  0.37828  1.0000
  C   C124      1.0  0.15438  0.08469  0.56142  1.0000
  H   H202      1.0  0.14930  0.35881  0.57715  1.0000
  C   C125      1.0  0.04336  0.00967  0.58770  1.0000
  H   H203      1.0  0.30671  0.45414  0.30590  1.0000
  H   H204      1.0  0.23043  0.06479  0.58087  1.0000
  C   C126      1.0  0.14874  0.23586  0.38170  1.0000
  C   C127      1.0  0.31638  0.14934  0.60175  1.0000
  H   H205      1.0  0.38732  0.05401  0.39715  1.0000
  C   C128      1.0  0.10166  0.39873  0.48646  1.0000
  H   H206      1.0  0.06436  0.35298  0.55174  1.0000
  C   C129      1.0  0.21438  0.07256  0.59578  1.0000
  C   C130      1.0  0.09176  0.36385  0.54247  1.0000
  H   H207      1.0  0.16334  0.14137  0.39060  1.0000
  H   H208      1.0  0.29800  0.20088  0.30335  1.0000
  H   H209      1.0  0.12403  0.25117  0.44896  1.0000
  H   H210      1.0  0.18160  0.10128  0.56454  1.0000
  H   H211      1.0  0.07035  0.06090  0.56567  1.0000
  H   H212      1.0  0.26512  0.15079  0.39376  1.0000
  H   H213      1.0  0.13875  0.16213  0.35753  1.0000
  H   H214      1.0  0.44937  0.99981  0.30246  1.0000
  C   C131      1.0  0.15501  0.21335  0.30804  1.0000
  H   H215      1.0  0.20635  0.30505  0.38709  1.0000
  S   S32       1.0  0.04117  0.14783  0.51392  1.0000
  C   C132      1.0  0.46062  0.00016  0.33651  1.0000
  H   H216      1.0  0.06977  0.30157  0.47373  1.0000
  H   H217      1.0  0.34978  0.98862  0.39714  1.0000
  H   H218      1.0  0.10628  0.21304  0.45606  1.0000
  H   H219      1.0  0.04737  0.05404  0.60172  1.0000
  H   H220      1.0  0.11602  0.19850  0.34975  1.0000
  C   C133      1.0  0.36018  0.03686  0.39916  1.0000
  H   H221      1.0  0.38082  0.41477  0.32596  1.0000
  H   H222      1.0  0.26883  0.13370  0.30824  1.0000
  H   H223      1.0  0.13874  0.18545  0.42345  1.0000
  H   H224      1.0  0.17474  0.32304  0.56968  1.0000
  C   C134      1.0  0.10679  0.18788  0.38343  1.0000
  H   H225      1.0  0.02693  0.14033  0.55931  1.0000
  H   H226      1.0  0.42294  0.19744  0.57682  1.0000
  H   H227      1.0  0.04021  0.41518  0.54967  1.0000
  H   H228      1.0  0.23536  0.11516  0.39363  1.0000
  H   H229      1.0  0.10119  0.37903  0.47547  1.0000
  H   H230      1.0  0.01207  0.24177  0.59706  1.0000
  C   C135      1.0  0.14400  0.33725  0.56828  1.0000
  C   C136      1.0  0.46427  0.40338  0.31321  1.0000
  H   H231      1.0  0.13081  0.32159  0.53689  1.0000
  C   C137      1.0  0.10678  0.15503  0.60710  1.0000
  H   H232      1.0  0.16434  0.35555  0.53851  1.0000
  H   H233      1.0  0.10219  0.33005  0.50316  1.0000
  C   C138      1.0  0.13569  0.13019  0.59698  1.0000
  C   C139      1.0  0.17927  0.25985  0.39256  1.0000
  H   H234      1.0  0.28034  0.18995  0.61099  1.0000
  H   H235      1.0  0.12209  0.40773  0.51877  1.0000
  C   C140      1.0  0.33964  0.14806  0.30575  1.0000
  H   H236      1.0  0.43753  0.17169  0.55572  1.0000
  H   H237      1.0  0.34821  0.03797  0.41574  1.0000
  C   C141      1.0  0.30710  0.10977  0.33147  1.0000
  C   C142      1.0  0.11060  0.17831  0.35994  1.0000
  H   H238      1.0  0.09122  0.24638  0.41389  1.0000
  C   C143      1.0  0.29615  0.18813  0.28812  1.0000
  H   H239      1.0  0.02028  0.01621  0.57470  1.0000
  C   C144      1.0  0.45680  0.13946  0.35077  1.0000
  H   H240      1.0  0.14693  0.23708  0.30532  1.0000
  H   H241      1.0  0.13933  0.44130  0.48853  1.0000
  C   C145      1.0  0.13446  0.34381  0.54503  1.0000
  H   H242      1.0  0.17109  0.06446  0.55417  1.0000
  H   H243      1.0  0.07829  0.10891  0.58209  1.0000
  H   H244      1.0  0.11305  0.03255  0.56694  1.0000
  C   C146      1.0  0.39968  0.45808  0.30986  1.0000
  H   H245      1.0  0.06134  0.14157  0.36184  1.0000
  H   H246      1.0  0.11569  0.32451  0.57549  1.0000
  N   N8        1.0  0.14637  0.20507  0.39232  1.0000
  H   H247      1.0  0.45825  0.39844  0.33007  1.0000
  H   H248      1.0  0.03847  0.17808  0.35376  1.0000
  H   H249      1.0  0.05880  0.43322  0.52559  1.0000
  H   H250      1.0  0.34082  0.16333  0.31982  1.0000
  H   H251      1.0  0.16092  0.23330  0.36517  1.0000
  H   H252      1.0  0.28100  0.09198  0.33358  1.0000
  C   C147      1.0  0.39572  0.00280  0.37152  1.0000
  H   H253      1.0  0.16472  0.26726  0.40786  1.0000
  H   H254      1.0  0.48442  0.31192  0.35372  1.0000
  H   H255      1.0  0.14355  0.37384  0.50761  1.0000
  C   C148      1.0  0.23461  0.13905  0.38788  1.0000
  H   H256      1.0  0.23503  0.13874  0.37035  1.0000
  H   H257      1.0  0.36950  0.01202  0.36070  1.0000
  H   H258      1.0  0.05888  0.32138  0.52133  1.0000
  C   C149      1.0  0.03231  0.38657  0.52125  1.0000
  C   C150      1.0  0.16501  0.06111  0.59676  1.0000
  C   C151      1.0  0.06775  0.16249  0.35245  1.0000
  C   C152      1.0  0.03594  0.30575  0.48055  1.0000
  C   C153      1.0  0.06972  0.33875  0.50953  1.0000
  C   C154      1.0  0.47754  0.43706  0.30952  1.0000
  H   H259      1.0  0.19355  0.15437  0.41351  1.0000
  C   C155      1.0  0.47707  0.11310  0.38312  1.0000
  H   H260      1.0  0.47969  0.43919  0.29210  1.0000
  H   H261      1.0  0.16989  0.21949  0.42314  1.0000
  H   H262      1.0  0.33174  0.04272  0.38858  1.0000
  H   H263      1.0  0.44576  0.02324  0.33836  1.0000
  H   H264      1.0  0.06723  0.21002  0.42035  1.0000
  C   C156      1.0  0.18995  0.18850  0.38814  1.0000
  C   C157      1.0  0.03416  0.33671  0.49164  1.0000
  C   C158      1.0  0.19240  0.15501  0.39600  1.0000
  H   H265      1.0  0.06562  0.99097  0.58217  1.0000
  H   H266      1.0  0.37146  0.13501  0.30614  1.0000
  C   C159      1.0  0.47888  0.11650  0.33921  1.0000
  H   H267      1.0  0.21309  0.25047  0.39569  1.0000
  H   H268      1.0  0.15147  0.29900  0.37580  1.0000
  C   C160      1.0  0.10724  0.10163  0.59195  1.0000
  H   H269      1.0  0.38142  0.20013  0.29957  1.0000
  H   H270      1.0  0.09955  0.16717  0.39297  1.0000
  H   H271      1.0  0.06531  0.24256  0.45133  1.0000
  H   H272      1.0  0.26443  0.17507  0.28921  1.0000
  C   C161      1.0  0.09831  0.23333  0.44625  1.0000
  H   H273      1.0  0.49105  0.35782  0.30863  1.0000
  H   H274      1.0  0.01799  0.39057  0.50535  1.0000
  C   C162      1.0  0.44827  0.45888  0.34242  1.0000
  H   H275      1.0  0.38989  0.16377  0.57244  1.0000
  H   H276      1.0  0.16758  0.03603  0.59402  1.0000
  H   H277      1.0  0.40526  0.00025  0.40571  1.0000
  C   C163      1.0  0.03320  0.41796  0.53259  1.0000
  H   H278      1.0  0.07757  0.16054  0.59695  1.0000
  H   H279      1.0  0.06925  0.41105  0.48562  1.0000
  S   S33       1.0  0.47119  0.05914  0.61377  1.0000
  H   H280      1.0  0.03861  0.35459  0.47957  1.0000
  C   C164      1.0  0.36641  0.43734  0.32214  1.0000
  H   H281      1.0  0.47766  0.41847  0.38046  1.0000
  H   H282      1.0  0.42407  0.01931  0.37115  1.0000
  H   H283      1.0  0.29985  0.41790  0.31890  1.0000
  H   H284      1.0  0.01086  0.30517  0.46760  1.0000
  H   H285      1.0  0.48956  0.99800  0.34740  1.0000
  C   C165      1.0  0.47923  0.39543  0.37446  1.0000
  S   S34       1.0  0.47125  0.13329  0.61427  1.0000
  H   H286      1.0  0.21677  0.09768  0.59640  1.0000
  H   H287      1.0  0.00695  0.37228  0.52946  1.0000
  Fe  Fe16      1.0  0.41890  0.09658  0.61368  1.0000
  N   N9        1.0  0.33594  0.16698  0.28590  1.0000
  H   H288      1.0  0.48380  0.45799  0.34796  1.0000
  H   H289      1.0  0.47135  0.98036  0.38194  1.0000
  H   H290      1.0  0.46501  0.20392  0.29558  1.0000
  C   C166      1.0  0.37777  0.18648  0.28479  1.0000
  H   H291      1.0  0.12710  0.17605  0.60927  1.0000
  H   H292      1.0  0.40115  0.44989  0.29322  1.0000
  H   H293      1.0  0.99632  0.01675  0.28955  1.0000
  H   H294      1.0  0.09780  0.19666  0.29029  1.0000
  H   H295      1.0  0.30639  0.10507  0.29786  1.0000
  H   H296      1.0  0.09225  0.09431  0.60720  1.0000
  H   H297      1.0  0.47639  0.11197  0.40017  1.0000
  H   H298      1.0  0.02280  0.00109  0.60105  1.0000
  H   H299      1.0  0.35667  0.44821  0.33729  1.0000
  H   H300      1.0  0.01731  0.20068  0.59866  1.0000
  C   C167      1.0  0.01007  0.12138  0.52901  1.0000
  C   C168      1.0  0.47766  0.99803  0.31380  1.0000
  H   H301      1.0  0.09389  0.02921  0.60760  1.0000
  H   H302      1.0  0.44737  0.47105  0.38568  1.0000
  H   H303      1.0  0.27752  0.06799  0.61252  1.0000
  H   H304      1.0  0.24243  0.03461  0.61378  1.0000
  C   C169      1.0  0.24230  0.05993  0.61402  1.0000
  H   H305      1.0  0.15322  0.06358  0.61337  1.0000
  C   C170      1.0  0.99552  0.22047  0.60244  1.0000
  H   H306      1.0  0.39563  0.97990  0.33091  1.0000
  H   H307      1.0  0.99457  0.34256  0.58260  1.0000
  H   H308      1.0  0.37955  0.46915  0.70416  1.0000
  C   C171      1.0  0.27496  0.21607  0.87887  1.0000
  Fe  Fe17      1.0  0.43312  0.33670  0.78012  1.0000
  S   S35       1.0  0.36326  0.33802  0.79554  1.0000
  S   S36       1.0  0.44776  0.17700  0.66516  1.0000
  S   S37       1.0  0.44403  0.32882  0.74518  1.0000
  H   H309      1.0  0.05067  0.45790  0.82723  1.0000
  H   H310      1.0  0.47943  0.43921  0.64878  1.0000
  S   S38       1.0  0.40998  0.09488  0.64896  1.0000
  Fe  Fe18      1.0  0.06469  0.26475  0.85036  1.0000
  S   S39       1.0  0.09056  0.22315  0.83278  1.0000
  C   C172      1.0  0.42096  0.18612  0.76800  1.0000
  Fe  Fe19      1.0  0.12267  0.25190  0.88864  1.0000
  S   S40       1.0  0.15107  0.20945  0.87435  1.0000
  S   S41       1.0  0.14762  0.27399  0.91881  1.0000
  Fe  Fe20      1.0  0.15920  0.23740  0.84476  1.0000
  S   S42       1.0  0.22825  0.23434  0.82840  1.0000
  Fe  Fe21      1.0  0.08027  0.19849  0.86378  1.0000
  S   S43       1.0  0.05723  0.14895  0.87056  1.0000
  S   S44       1.0  0.13368  0.28028  0.85968  1.0000
  S   S45       1.0  0.05130  0.23961  0.88065  1.0000
  C   C173      1.0  0.18780  0.25397  0.93370  1.0000
  C   C174      1.0  0.31633  0.19420  0.77621  1.0000
  C   C175      1.0  0.47766  0.35959  0.65345  1.0000
  C   C176      1.0  0.19127  0.22224  0.93263  1.0000
  H   H311      1.0  0.39315  0.98980  0.72832  1.0000
  H   H312      1.0  0.16939  0.20949  0.92224  1.0000
  H   H313      1.0  0.32140  0.27640  0.71506  1.0000
  C   C177      1.0  0.06265  0.99114  0.81287  1.0000
  H   H314      1.0  0.27171  0.15578  0.78257  1.0000
  C   C178      1.0  0.08221  0.46286  0.86523  1.0000
  C   C179      1.0  0.46952  0.30494  0.66056  1.0000
  H   H315      1.0  0.36764  0.33570  0.71137  1.0000
  C   C180      1.0  0.32378  0.28120  0.91327  1.0000
  C   C181      1.0  0.43606  0.44056  0.71229  1.0000
  C   C182      1.0  0.39697  0.34578  0.68058  1.0000
  H   H316      1.0  0.37842  0.37574  0.70670  1.0000
  C   C183      1.0  0.32667  0.30882  0.80503  1.0000
  C   C184      1.0  0.33898  0.27801  0.80526  1.0000
  C   C185      1.0  0.30891  0.25581  0.81304  1.0000
  C   C186      1.0  0.26571  0.26383  0.82019  1.0000
  C   C187      1.0  0.25362  0.29467  0.82024  1.0000
  C   C188      1.0  0.28397  0.31696  0.81279  1.0000
  H   H317      1.0  0.37186  0.27144  0.79965  1.0000
  H   H318      1.0  0.31909  0.23221  0.81357  1.0000
  H   H319      1.0  0.22059  0.30130  0.82566  1.0000
  H   H320      1.0  0.27400  0.34069  0.81274  1.0000
  H   H321      1.0  0.40835  0.32181  0.84849  1.0000
  H   H322      1.0  0.11545  0.35038  0.88067  1.0000
  H   H323      1.0  0.32998  0.25803  0.86097  1.0000
  H   H324      1.0  0.41448  0.16408  0.77617  1.0000
  H   H325      1.0  0.44294  0.23181  0.77796  1.0000
  C   C189      1.0  0.22265  0.20684  0.94532  1.0000
  H   H326      1.0  0.45639  0.36168  0.69719  1.0000
  H   H327      1.0  0.25548  0.32069  0.90798  1.0000
  C   C190      1.0  0.36705  0.35406  0.69933  1.0000
  N   N10       1.0  0.30763  0.26730  0.89280  1.0000
  H   H328      1.0  0.41190  0.02169  0.69705  1.0000
  H   H329      1.0  0.33175  0.31215  0.85968  1.0000
  C   C191      1.0  0.34283  0.26869  0.87571  1.0000
  C   C192      1.0  0.04729  0.04436  0.82493  1.0000
  H   H330      1.0  0.29381  0.17106  0.89063  1.0000
  H   H331      1.0  0.00155  0.27292  0.94655  1.0000
  C   C193      1.0  0.45235  0.22713  0.69099  1.0000
  C   C194      1.0  0.39996  0.29878  0.85463  1.0000
  H   H332      1.0  0.44411  0.41286  0.63475  1.0000
  C   C195      1.0  0.29761  0.23408  0.89707  1.0000
  H   H333      1.0  0.01783  0.05945  0.82815  1.0000
  H   H334      1.0  0.10946  0.46046  0.85328  1.0000
  C   C196      1.0  0.46661  0.99305  0.68711  1.0000
  H   H335      1.0  0.43213  0.13529  0.74576  1.0000
  C   C197      1.0  0.11236  0.98746  0.81942  1.0000
  H   H336      1.0  0.45377  0.39880  0.67249  1.0000
  H   H337      1.0  0.07206  0.10390  0.83207  1.0000
  C   C198      1.0  0.45989  0.20030  0.80240  1.0000
  C   C199      1.0  0.10065  0.08778  0.83367  1.0000
  C   C200      1.0  0.44641  0.34145  0.68769  1.0000
  H   H338      1.0  0.45727  0.26147  0.62902  1.0000
  C   C201      1.0  0.01085  0.12449  0.86418  1.0000
  C   C202      1.0  0.02371  0.45453  0.83921  1.0000
  C   C203      1.0  0.46871  0.24473  0.70794  1.0000
  H   H339      1.0  0.31180  0.21899  0.77357  1.0000
  C   C204      1.0  0.08412  0.05619  0.84022  1.0000
  C   C205      1.0  0.41509  0.46522  0.70192  1.0000
  H   H340      1.0  0.99689  0.01197  0.78447  1.0000
  H   H341      1.0  0.08482  0.41092  0.84189  1.0000
  H   H342      1.0  0.05393  0.43261  0.90309  1.0000
  S   S46       1.0  0.47625  0.37935  0.78072  1.0000
  N   N11       1.0  0.04329  0.44240  0.85957  1.0000
  H   H343      1.0  0.00527  0.30735  0.88067  1.0000
  C   C206      1.0  0.40806  0.14102  0.73301  1.0000
  H   H344      1.0  0.33523  0.19026  0.79100  1.0000
  H   H345      1.0  0.38371  0.32443  0.67355  1.0000
  H   H346      1.0  0.07639  0.34861  0.85911  1.0000
  S   S47       1.0  0.48994  0.30644  0.79036  1.0000
  C   C207      1.0  0.02286  0.44542  0.89965  1.0000
  H   H347      1.0  0.39345  0.28361  0.84094  1.0000
  Fe  Fe22      1.0  0.49147  0.36897  0.74668  1.0000
  H   H348      1.0  0.39593  0.21778  0.79274  1.0000
  H   H349      1.0  0.07011  0.05818  0.85641  1.0000
  S   S48       1.0  0.01665  0.29895  0.83528  1.0000
  H   H350      1.0  0.05658  0.38814  0.88604  1.0000
  H   H351      1.0  0.44623  0.32217  0.69905  1.0000
  H   H352      1.0  0.37773  0.28066  0.72497  1.0000
  H   H353      1.0  0.40414  0.13336  0.69896  1.0000
  H   H354      1.0  0.46054  0.13696  0.70920  1.0000
  C   C208      1.0  0.35870  0.30079  0.86891  1.0000
  C   C209      1.0  0.49105  0.26104  0.63643  1.0000
  H   H355      1.0  0.23495  0.27175  0.89344  1.0000
  H   H356      1.0  0.02958  0.46978  0.90319  1.0000
  C   C210      1.0  0.42657  0.12781  0.71244  1.0000
  C   C211      1.0  0.25943  0.31722  0.89070  1.0000
  C   C212      1.0  0.43150  0.00155  0.70054  1.0000
  H   H357      1.0  0.37264  0.25484  0.88015  1.0000
  H   H358      1.0  0.13081  0.00890  0.81622  1.0000
  H   H359      1.0  0.21601  0.35553  0.88339  1.0000
  H   H360      1.0  0.32888  0.22131  0.90075  1.0000
  C   C213      1.0  0.21781  0.33067  0.88019  1.0000
  H   H361      1.0  0.29608  0.28064  0.92506  1.0000
  C   C214      1.0  0.26455  0.28264  0.88574  1.0000
  H   H362      1.0  0.09448  0.14753  0.62280  1.0000
  H   H363      1.0  0.43226  0.18638  0.72551  1.0000
  H   H364      1.0  0.09814  0.45592  0.88025  1.0000
  H   H365      1.0  0.13035  0.36669  0.85551  1.0000
  H   H366      1.0  0.18718  0.31988  0.88676  1.0000
  H   H367      1.0  0.38872  0.30717  0.93984  1.0000
  H   H368      1.0  0.28875  0.33059  0.88542  1.0000
  C   C215      1.0  0.36509  0.26600  0.92385  1.0000
  H   H369      1.0  0.24357  0.22726  0.87372  1.0000
  H   H370      1.0  0.29755  0.21410  0.86503  1.0000
  H   H371      1.0  0.42367  0.23509  0.68208  1.0000
  H   H372      1.0  0.36793  0.31526  0.88255  1.0000
  H   H373      1.0  0.41668  0.42570  0.72239  1.0000
  C   C216      1.0  0.26317  0.18369  0.88581  1.0000
  H   H374      1.0  0.25937  0.27924  0.86846  1.0000
  C   C217      1.0  0.42783  0.21109  0.78514  1.0000
  H   H375      1.0  0.39424  0.26557  0.91297  1.0000
  C   C218      1.0  0.00712  0.44196  0.87633  1.0000
  H   H376      1.0  0.41608  0.23455  0.74232  1.0000
  C   C219      1.0  0.34088  0.17861  0.75763  1.0000
  H   H377      1.0  0.06803  0.00422  0.85663  1.0000
  Fe  Fe23      1.0  0.46438  0.13097  0.64966  1.0000
  H   H378      1.0  0.33205  0.30565  0.91135  1.0000
  C   C220      1.0  0.26959  0.18064  0.77936  1.0000
  H   H379      1.0  0.44591  0.18015  0.81071  1.0000
  H   H380      1.0  0.36122  0.22753  0.71335  1.0000
  H   H381      1.0  0.01182  0.01635  0.85893  1.0000
  Fe  Fe24      1.0  0.46678  0.06056  0.64933  1.0000
  C   C221      1.0  0.10236  0.36301  0.86679  1.0000
  H   H382      1.0  0.24836  0.18459  0.76521  1.0000
  C   C222      1.0  0.21618  0.27022  0.94729  1.0000
  C   C223      1.0  0.48178  0.43499  0.70925  1.0000
  H   H383      1.0  0.11890  0.08654  0.81842  1.0000
  H   H384      1.0  0.27566  0.23204  0.91123  1.0000
  H   H385      1.0  0.21889  0.32714  0.86284  1.0000
  H   H386      1.0  0.47053  0.42684  0.81624  1.0000
  H   H387      1.0  0.25308  0.19181  0.79306  1.0000
  H   H388      1.0  0.39355  0.36435  0.66885  1.0000
  H   H389      1.0  0.31520  0.22580  0.73184  1.0000
  C   C224      1.0  0.08242  0.39346  0.87396  1.0000
  H   H390      1.0  0.42919  0.10261  0.71369  1.0000
  H   H391      1.0  0.33088  0.27909  0.74309  1.0000
  H   H392      1.0  0.24716  0.17134  0.87247  1.0000
  H   H393      1.0  0.37280  0.23877  0.76094  1.0000
  H   H394      1.0  0.11353  0.04092  0.84109  1.0000
  C   C225      1.0  0.06049  0.41054  0.85527  1.0000
  H   H395      1.0  0.23909  0.18421  0.89918  1.0000
  C   C226      1.0  0.47702  0.41544  0.64279  1.0000
  H   H396      1.0  0.49309  0.19434  0.79554  1.0000
  H   H397      1.0  0.37560  0.17918  0.71840  1.0000
  N   N12       1.0  0.03371  0.01118  0.82668  1.0000
  H   H398      1.0  0.34495  0.15438  0.76242  1.0000
  C   C227      1.0  0.40050  0.17604  0.73128  1.0000
  H   H399      1.0  0.31763  0.17799  0.74387  1.0000
  N   N13       1.0  0.38554  0.19194  0.75127  1.0000
  C   C228      1.0  0.34462  0.26999  0.72803  1.0000
  H   H400      1.0  0.05791  0.04967  0.80849  1.0000
  H   H401      1.0  0.33190  0.35713  0.69390  1.0000
  H   H402      1.0  0.45280  0.26610  0.71200  1.0000
  H   H403      1.0  0.46489  0.28730  0.67295  1.0000
  H   H404      1.0  0.10991  0.40680  0.88124  1.0000
  C   C229      1.0  0.34914  0.23528  0.72902  1.0000
  H   H405      1.0  0.03258  0.39533  0.85029  1.0000
  C   C230      1.0  0.38235  0.22566  0.74665  1.0000
  H   H406      1.0  0.99856  0.43899  0.93162  1.0000
  H   H407      1.0  0.37592  0.12915  0.73619  1.0000
  H   H408      1.0  0.42929  0.28993  0.86355  1.0000
  C   C231      1.0  0.00602  0.09665  0.87509  1.0000
  H   H409      1.0  0.22893  0.06810  0.62938  1.0000
  H   H410      1.0  0.43676  0.30587  0.65216  1.0000
  H   H411      1.0  0.45476  0.18356  0.76057  1.0000
  H   H412      1.0  0.12373  0.09695  0.84590  1.0000
  H   H413      1.0  0.00091  0.41345  0.82219  1.0000
  C   C232      1.0  0.47224  0.19901  0.68567  1.0000
  N   N14       1.0  0.48001  0.33547  0.67037  1.0000
  H   H414      1.0  0.35728  0.24237  0.92891  1.0000
  H   H415      1.0  0.02937  0.09117  0.88759  1.0000
  H   H416      1.0  0.44637  0.35720  0.64399  1.0000
  H   H417      1.0  0.06333  0.00002  0.79647  1.0000
  C   C233      1.0  0.48094  0.39313  0.66120  1.0000
  H   H418      1.0  0.46485  0.21890  0.81409  1.0000
  C   C234      1.0  0.42089  0.98337  0.71824  1.0000
  C   C235      1.0  0.03438  0.00129  0.84949  1.0000
  S   S49       1.0  0.47926  0.01314  0.66347  1.0000
  H   H419      1.0  0.05875  0.26332  0.94032  1.0000
  H   H420      1.0  0.22513  0.18225  0.94447  1.0000
  H   H421      1.0  0.21466  0.29484  0.94758  1.0000
  C   C236      1.0  0.37904  0.28337  0.94373  1.0000
  H   H422      1.0  0.49093  0.24441  0.64965  1.0000
  H   H423      1.0  0.11603  0.98124  0.83626  1.0000
  H   H424      1.0  0.49325  0.45492  0.83430  1.0000
  H   H425      1.0  0.48179  0.85704  0.95729  1.0000
  S   S50       1.0  0.02339  0.60149  0.24228  1.0000
  H   H426      1.0  0.26744  0.66013  0.07619  1.0000
  C   C237      1.0  0.12272  0.92796  0.08044  1.0000
  C   C238      1.0  0.07617  0.97103  0.11859  1.0000
  Fe  Fe25      1.0  0.02586  0.85184  0.12440  1.0000
  S   S51       1.0  0.08004  0.83992  0.09954  1.0000
  C   C239      1.0  0.07146  0.72898  0.24810  1.0000
  Fe  Fe26      1.0  0.99712  0.90099  0.15713  1.0000
  S   S52       1.0  0.03009  0.85471  0.15987  1.0000
  H   H427      1.0  0.48222  0.66729  0.03671  1.0000
  Fe  Fe27      1.0  0.40276  0.77200  0.04455  1.0000
  S   S53       1.0  0.37899  0.73658  0.06767  1.0000
  H   H428      1.0  0.05781  0.62061  0.19348  1.0000
  Fe  Fe28      1.0  0.32682  0.75830  0.01394  1.0000
  S   S54       1.0  0.29742  0.72171  0.03458  1.0000
  S   S55       1.0  0.30663  0.77553  0.98153  1.0000
  Fe  Fe29      1.0  0.30912  0.75502  0.06123  1.0000
  S   S56       1.0  0.26113  0.76111  0.08934  1.0000
  Fe  Fe30      1.0  0.36922  0.70583  0.03952  1.0000
  S   S57       1.0  0.38497  0.65422  0.03748  1.0000
  S   S58       1.0  0.33429  0.79262  0.04018  1.0000
  S   S59       1.0  0.39692  0.74013  0.01689  1.0000
  C   C240      1.0  0.47885  0.83528  0.04737  1.0000
  H   H429      1.0  0.03981  0.83183  0.96466  1.0000
  H   H430      1.0  0.48077  0.78640  0.96450  1.0000
  H   H431      1.0  0.24864  0.72356  0.98987  1.0000
  C   C241      1.0  0.13051  0.81796  0.09735  1.0000
  C   C242      1.0  0.14837  0.80119  0.11417  1.0000
  C   C243      1.0  0.18832  0.78411  0.11144  1.0000
  C   C244      1.0  0.21114  0.78356  0.09194  1.0000
  C   C245      1.0  0.19346  0.80056  0.07519  1.0000
  C   C246      1.0  0.15351  0.81756  0.07790  1.0000
  H   H432      1.0  0.13119  0.80113  0.12920  1.0000
  H   H433      1.0  0.20150  0.77108  0.12452  1.0000
  H   H434      1.0  0.21036  0.80040  0.06009  1.0000
  H   H435      1.0  0.14003  0.83026  0.06473  1.0000
  H   H436      1.0  0.05529  0.68244  0.23989  1.0000
  H   H437      1.0  0.01540  0.97034  0.13765  1.0000
  H   H438      1.0  0.16390  0.77253  0.19348  1.0000
  C   C247      1.0  0.46152  0.60066  0.09164  1.0000
  C   C248      1.0  0.33289  0.65635  0.09093  1.0000
  H   H439      1.0  0.15696  0.93105  0.07395  1.0000
  C   C249      1.0  0.24663  0.65123  0.01075  1.0000
  C   C250      1.0  0.19500  0.67364  0.24111  1.0000
  H   H440      1.0  0.38053  0.62396  0.07897  1.0000
  C   C251      1.0  0.38903  0.69514  0.95403  1.0000
  H   H441      1.0  0.08136  0.85636  0.97678  1.0000
  H   H442      1.0  0.27835  0.62420  0.97330  1.0000
  H   H443      1.0  0.18297  0.87277  0.17066  1.0000
  C   C252      1.0  0.42929  0.59877  0.03718  1.0000
  C   C253      1.0  0.43421  0.63074  0.03704  1.0000
  H   H444      1.0  0.18045  0.84944  0.14701  1.0000
  H   H445      1.0  0.39596  0.58902  0.03729  1.0000
  H   H446      1.0  0.33344  0.64146  0.17242  1.0000
  C   C254      1.0  0.44525  0.85484  0.05470  1.0000
  C   C255      1.0  0.45270  0.88653  0.05529  1.0000
  H   H447      1.0  0.41352  0.84557  0.05994  1.0000
  H   H448      1.0  0.42645  0.90153  0.06095  1.0000
  H   H449      1.0  0.43594  0.88226  0.95864  1.0000
  S   S60       1.0  0.47089  0.79530  0.04615  1.0000
  H   H450      1.0  0.38750  0.74096  0.96737  1.0000
  H   H451      1.0  0.31979  0.66593  0.10591  1.0000
  H   H452      1.0  0.10650  0.95063  0.08082  1.0000
  H   H453      1.0  0.41355  0.68819  0.09277  1.0000
  C   C256      1.0  0.17602  0.95537  0.11411  1.0000
  H   H454      1.0  0.24234  0.93521  0.11979  1.0000
  H   H455      1.0  0.35523  0.61218  0.10272  1.0000
  C   C257      1.0  0.45502  0.86534  0.96811  1.0000
  H   H456      1.0  0.11216  0.89889  0.15970  1.0000
  H   H457      1.0  0.11089  0.87623  0.13594  1.0000
  C   C258      1.0  0.27020  0.75408  0.96538  1.0000
  C   C259      1.0  0.47757  0.88395  0.98602  1.0000
  H   H458      1.0  0.43797  0.65951  0.07711  1.0000
  H   H459      1.0  0.02428  0.76146  0.26143  1.0000
  H   H460      1.0  0.39365  0.80070  0.95911  1.0000
  H   H461      1.0  0.30947  0.62789  0.00910  1.0000
  C   C260      1.0  0.29430  0.64863  0.00201  1.0000
  H   H462      1.0  0.07844  0.93101  0.13748  1.0000
  H   H463      1.0  0.07978  0.72074  0.26418  1.0000
  C   C261      1.0  0.48129  0.67762  0.10159  1.0000
  H   H464      1.0  0.06151  0.90488  0.07033  1.0000
  H   H465      1.0  0.19948  0.79595  0.00256  1.0000
  C   C262      1.0  0.12492  0.91276  0.10255  1.0000
  H   H466      1.0  0.24787  0.65220  0.02826  1.0000
  H   H467      1.0  0.42426  0.57432  0.97308  1.0000
  H   H468      1.0  0.48673  0.53504  0.26717  1.0000
  C   C263      1.0  0.16417  0.91114  0.13667  1.0000
  H   H469      1.0  0.04097  0.50635  0.17116  1.0000
  C   C264      1.0  0.16033  0.86262  0.15864  1.0000
  H   H470      1.0  0.11280  0.88532  0.06330  1.0000
  C   C265      1.0  0.09666  0.90806  0.06487  1.0000
  C   C266      1.0  0.46708  0.57915  0.03742  1.0000
  H   H471      1.0  0.38055  0.68024  0.12489  1.0000
  H   H472      1.0  0.14587  0.89187  0.10044  1.0000
  H   H473      1.0  0.42799  0.66362  0.13698  1.0000
  H   H474      1.0  0.27099  0.66431  0.97196  1.0000
  H   H475      1.0  0.15246  0.79859  0.02035  1.0000
  H   H476      1.0  0.33541  0.63205  0.13422  1.0000
  C   C267      1.0  0.44300  0.59582  0.97593  1.0000
  H   H477      1.0  0.47929  0.68712  0.11778  1.0000
  H   H478      1.0  0.01192  0.88419  0.96850  1.0000
  H   H479      1.0  0.43734  0.64381  0.97101  1.0000
  H   H480      1.0  0.35379  0.60261  0.97476  1.0000
  C   C268      1.0  0.35771  0.68120  0.97112  1.0000
  H   H481      1.0  0.18501  0.79968  0.96329  1.0000
  H   H482      1.0  0.01617  0.75393  0.23377  1.0000
  C   C269      1.0  0.24597  0.72941  0.97336  1.0000
  H   H483      1.0  0.22625  0.63117  0.00598  1.0000
  H   H484      1.0  0.16168  0.74375  0.17292  1.0000
  H   H485      1.0  0.13710  0.84659  0.16666  1.0000
  H   H486      1.0  0.30426  0.63307  0.06361  1.0000
  H   H487      1.0  0.21643  0.92195  0.09594  1.0000
  C   C270      1.0  0.15443  0.81388  0.96604  1.0000
  H   H488      1.0  0.25643  0.66517  0.25865  1.0000
  S   S61       1.0  0.99759  0.89956  0.12155  1.0000
  N   N15       1.0  0.11926  0.69241  0.22512  1.0000
  H   H489      1.0  0.17314  0.83251  0.00766  1.0000
  C   C271      1.0  0.11544  0.66296  0.21285  1.0000
  C   C272      1.0  0.47765  0.64283  0.03691  1.0000
  C   C273      1.0  0.14270  0.71682  0.21237  1.0000
  C   C274      1.0  0.11279  0.73758  0.19820  1.0000
  H   H490      1.0  0.33587  0.67697  0.15820  1.0000
  Fe  Fe31      1.0  0.02058  0.61385  0.27681  1.0000
  C   C275      1.0  0.09152  0.66458  0.19123  1.0000
  C   C276      1.0  0.08123  0.63271  0.18272  1.0000
  C   C277      1.0  0.14133  0.75785  0.18393  1.0000
  N   N16       1.0  0.14187  0.93191  0.12076  1.0000
  H   H491      1.0  0.38470  0.61720  0.14703  1.0000
  C   C278      1.0  0.01838  0.49578  0.18233  1.0000
  H   H492      1.0  0.21335  0.68786  0.22952  1.0000
  H   H493      1.0  0.14903  0.65352  0.20909  1.0000
  H   H494      1.0  0.09828  0.64539  0.22270  1.0000
  H   H495      1.0  0.12875  0.66867  0.25479  1.0000
  H   H496      1.0  0.09594  0.91909  0.04912  1.0000
  H   H497      1.0  0.16135  0.73266  0.22297  1.0000
  H   H498      1.0  0.16881  0.70625  0.20212  1.0000
  C   C279      1.0  0.00612  0.51168  0.20081  1.0000
  H   H499      1.0  0.08993  0.72441  0.18795  1.0000
  C   C280      1.0  0.13321  0.88749  0.14754  1.0000
  C   C281      1.0  0.36994  0.62547  0.97613  1.0000
  C   C282      1.0  0.16699  0.80773  0.00549  1.0000
  C   C283      1.0  0.44919  0.81632  0.98825  1.0000
  H   H500      1.0  0.05946  0.67698  0.19218  1.0000
  H   H501      1.0  0.11343  0.67623  0.17958  1.0000
  H   H502      1.0  0.11252  0.61915  0.18098  1.0000
  H   H503      1.0  0.37583  0.68164  0.98652  1.0000
  H   H504      1.0  0.06482  0.63463  0.16704  1.0000
  C   C284      1.0  0.14652  0.68568  0.24472  1.0000
  H   H505      1.0  0.09085  0.90393  0.10624  1.0000
  H   H506      1.0  0.06920  0.73230  0.96831  1.0000
  C   C285      1.0  0.39760  0.65793  0.12757  1.0000
  C   C286      1.0  0.13449  0.80220  0.98720  1.0000
  H   H507      1.0  0.22417  0.69696  0.26840  1.0000
  C   C287      1.0  0.44119  0.61667  0.11130  1.0000
  H   H508      1.0  0.19152  0.89781  0.12901  1.0000
  H   H509      1.0  0.16729  0.83739  0.96874  1.0000
  N   N17       1.0  0.42490  0.83930  0.97465  1.0000
  H   H510      1.0  0.38554  0.66220  0.17117  1.0000
  C   C288      1.0  0.38340  0.85086  0.98588  1.0000
  H   H511      1.0  0.09164  0.75287  0.20800  1.0000
  H   H512      1.0  0.34565  0.67538  0.08116  1.0000
  H   H513      1.0  0.46906  0.62343  0.12203  1.0000
  H   H514      1.0  0.31342  0.66887  0.00730  1.0000
  H   H515      1.0  0.05144  0.70787  0.21861  1.0000
  C   C289      1.0  0.38669  0.85578  0.01005  1.0000
  C   C290      1.0  0.34439  0.87097  0.01876  1.0000
  H   H516      1.0  0.01909  0.53432  0.20375  1.0000
  C   C291      1.0  0.22142  0.94228  0.10612  1.0000
  H   H517      1.0  0.15008  0.70660  0.25453  1.0000
  H   H518      1.0  0.42547  0.79794  0.99306  1.0000
  H   H519      1.0  0.42256  0.59866  0.11997  1.0000
  H   H520      1.0  0.37160  0.87254  0.97860  1.0000
  H   H521      1.0  0.35534  0.83425  0.98398  1.0000
  H   H522      1.0  0.23012  0.67236  0.00499  1.0000
  H   H523      1.0  0.37517  0.62946  0.99330  1.0000
  S   S62       1.0  0.03027  0.93748  0.17802  1.0000
  H   H524      1.0  0.11907  0.77283  0.17439  1.0000
  C   C292      1.0  0.22187  0.67360  0.26166  1.0000
  H   H525      1.0  0.07023  0.78765  0.96150  1.0000
  H   H526      1.0  0.10225  0.81331  0.99112  1.0000
  C   C293      1.0  0.07296  0.70195  0.23224  1.0000
  H   H527      1.0  0.18039  0.92477  0.14942  1.0000
  H   H528      1.0  0.32989  0.69795  0.97314  1.0000
  H   H529      1.0  0.39057  0.83352  0.01810  1.0000
  H   H530      1.0  0.41558  0.86997  0.01453  1.0000
  H   H531      1.0  0.34729  0.87323  0.03617  1.0000
  H   H532      1.0  0.34012  0.89410  0.01192  1.0000
  H   H533      1.0  0.31430  0.85693  0.01517  1.0000
  C   C294      1.0  0.41254  0.72383  0.96205  1.0000
  C   C295      1.0  0.02486  0.74337  0.24916  1.0000
  C   C296      1.0  0.36723  0.63839  0.14214  1.0000
  H   H534      1.0  0.27781  0.62376  0.08855  1.0000
  H   H535      1.0  0.46256  0.55467  0.03767  1.0000
  H   H536      1.0  0.44131  0.49171  0.27958  1.0000
  H   H537      1.0  0.12836  0.77728  0.98649  1.0000
  C   C297      1.0  0.29431  0.64635  0.97760  1.0000
  C   C298      1.0  0.43442  0.66726  0.09371  1.0000
  C   C299      1.0  0.21817  0.71226  0.95990  1.0000
  H   H538      1.0  0.43475  0.58937  0.08233  1.0000
  H   H539      1.0  0.43541  0.71815  0.97532  1.0000
  H   H540      1.0  0.19942  0.69316  0.96611  1.0000
  N   N18       1.0  0.41089  0.64350  0.10686  1.0000
  H   H541      1.0  0.19443  0.64970  0.23542  1.0000
  H   H542      1.0  0.44823  0.59881  0.99315  1.0000
  C   C300      1.0  0.41780  0.62317  0.96680  1.0000
  C   C301      1.0  0.35489  0.65592  0.16218  1.0000
  H   H543      1.0  0.46058  0.82659  0.00329  1.0000
  C   C302      1.0  0.37036  0.63236  0.09484  1.0000
  H   H544      1.0  0.09597  0.74700  0.24395  1.0000
  C   C303      1.0  0.29325  0.64231  0.07911  1.0000
  N   N19       1.0  0.33943  0.64954  0.96691  1.0000
  H   H545      1.0  0.20583  0.65827  0.27335  1.0000
  C   C304      1.0  0.10349  0.94785  0.13182  1.0000
  H   H546      1.0  0.45238  0.89887  0.99376  1.0000
  C   C305      1.0  0.06380  0.85066  0.96186  1.0000
  H   H547      1.0  0.47627  0.59381  0.96826  1.0000
  H   H548      1.0  0.05785  0.95900  0.10583  1.0000
  C   C306      1.0  0.49076  0.80074  0.97814  1.0000
  H   H549      1.0  0.47896  0.55847  0.10799  1.0000
  H   H550      1.0  0.49079  0.76241  0.00012  1.0000
  C   C307      1.0  0.03602  0.87861  0.95568  1.0000
  H   H551      1.0  0.14217  0.75280  0.95557  1.0000
  H   H552      1.0  0.99931  0.72591  0.25325  1.0000
  C   C308      1.0  0.00979  0.97292  0.18787  1.0000
  C   C309      1.0  0.40986  0.82281  0.95488  1.0000
  H   H553      1.0  0.47836  0.72283  0.08716  1.0000
  H   H554      1.0  0.47933  0.61694  0.08126  1.0000
  H   H555      1.0  0.11590  0.95969  0.14628  1.0000
  H   H556      1.0  0.28081  0.95622  0.08885  1.0000
  H   H557      1.0  0.16237  0.97061  0.10173  1.0000
  H   H558      1.0  0.18387  0.97085  0.12759  1.0000
  C   C310      1.0  0.24798  0.96602  0.09369  1.0000
  H   H559      1.0  0.05801  0.89870  0.95310  1.0000
  C   C311      1.0  0.07878  0.73014  0.95144  1.0000
  H   H560      1.0  0.99900  0.70248  0.17346  1.0000
  H   H561      1.0  0.22939  0.97281  0.07924  1.0000
  C   C312      1.0  0.32233  0.69516  0.49132  1.0000
  S   S63       1.0  0.35504  0.61515  0.59839  1.0000
  H   H562      1.0  0.46696  0.67353  0.45194  1.0000
  H   H563      1.0  0.44284  0.51043  0.31846  1.0000
  Fe  Fe32      1.0  0.29150  0.74995  0.38875  1.0000
  S   S64       1.0  0.28632  0.77429  0.35778  1.0000
  S   S65       1.0  0.25325  0.76913  0.41671  1.0000
  Fe  Fe33      1.0  0.35861  0.70412  0.37122  1.0000
  S   S66       1.0  0.35727  0.72500  0.33865  1.0000
  S   S67       1.0  0.40274  0.66678  0.38529  1.0000
  Fe  Fe34      1.0  0.36150  0.77043  0.35576  1.0000
  S   S68       1.0  0.40408  0.81118  0.34426  1.0000
  Fe  Fe35      1.0  0.28178  0.72726  0.34342  1.0000
  S   S69       1.0  0.22450  0.72256  0.31923  1.0000
  S   S70       1.0  0.36681  0.74924  0.38790  1.0000
  S   S71       1.0  0.28317  0.70334  0.37481  1.0000
  Fe  Fe36      1.0  0.13294  0.70809  0.55692  1.0000
  S   S72       1.0  0.10484  0.67185  0.53569  1.0000
  S   S73       1.0  0.18010  0.69902  0.58499  1.0000
  Fe  Fe37      1.0  0.07180  0.75866  0.53701  1.0000
  S   S74       1.0  0.04047  0.72542  0.51419  1.0000
  S   S75       1.0  0.05660  0.81005  0.54129  1.0000
  Fe  Fe38      1.0  0.03720  0.69265  0.54153  1.0000
  H   H564      1.0  0.36046  0.94540  0.38068  1.0000
  Fe  Fe39      1.0  0.11070  0.70708  0.50994  1.0000
  S   S76       1.0  0.13714  0.68817  0.47895  1.0000
  S   S77       1.0  0.06429  0.72691  0.56467  1.0000
  S   S78       1.0  0.14304  0.74239  0.53082  1.0000
  C   C313      1.0  0.21854  0.74657  0.43290  1.0000
  C   C314      1.0  0.19739  0.76016  0.45034  1.0000
  C   C315      1.0  0.17241  0.74250  0.46461  1.0000
  C   C316      1.0  0.16793  0.71115  0.46136  1.0000
  C   C317      1.0  0.18838  0.69760  0.44371  1.0000
  C   C318      1.0  0.21380  0.71523  0.42956  1.0000
  H   H565      1.0  0.20093  0.78442  0.45301  1.0000
  H   H566      1.0  0.15664  0.75316  0.47813  1.0000
  H   H567      1.0  0.18495  0.67333  0.44112  1.0000
  H   H568      1.0  0.23016  0.70456  0.41625  1.0000
  C   C319      1.0  0.12274  0.64640  0.30324  1.0000
  C   C320      1.0  0.48036  0.59268  0.37293  1.0000
  H   H569      1.0  0.47149  0.64324  0.47101  1.0000
  C   C321      1.0  0.18530  0.69282  0.31408  1.0000
  C   C322      1.0  0.19420  0.66237  0.31910  1.0000
  C   C323      1.0  0.16309  0.63936  0.31373  1.0000
  H   H570      1.0  0.22542  0.65645  0.32680  1.0000
  H   H571      1.0  0.17059  0.61585  0.31752  1.0000
  N   N20       1.0  0.11987  0.59343  0.58588  1.0000
  H   H572      1.0  0.47386  0.92113  0.42360  1.0000
  H   H573      1.0  0.48002  0.89508  0.30806  1.0000
  H   H574      1.0  0.45483  0.69324  0.34633  1.0000
  H   H575      1.0  0.03030  0.61853  0.53515  1.0000
  C   C324      1.0  0.41575  0.47711  0.37743  1.0000
  C   C325      1.0  0.45049  0.96066  0.37677  1.0000
  H   H576      1.0  0.27100  0.67035  0.52385  1.0000
  H   H577      1.0  0.03051  0.66087  0.32274  1.0000
  H   H578      1.0  0.04031  0.87228  0.55370  1.0000
  C   C326      1.0  0.14407  0.58713  0.60632  1.0000
  C   C327      1.0  0.42384  0.63182  0.35003  1.0000
  C   C328      1.0  0.09986  0.62510  0.58568  1.0000
  H   H579      1.0  0.20867  0.60980  0.60037  1.0000
  H   H580      1.0  0.40206  0.64679  0.34111  1.0000
  H   H581      1.0  0.16075  0.56442  0.60566  1.0000
  C   C329      1.0  0.07038  0.63381  0.60498  1.0000
  C   C330      1.0  0.44226  0.84279  0.34377  1.0000
  H   H582      1.0  0.06177  0.72067  0.44781  1.0000
  H   H583      1.0  0.12657  0.64269  0.58411  1.0000
  C   C331      1.0  0.30697  0.63921  0.59502  1.0000
  H   H584      1.0  0.02356  0.91524  0.47824  1.0000
  H   H585      1.0  0.05855  0.57228  0.59683  1.0000
  C   C332      1.0  0.22942  0.67616  0.58810  1.0000
  C   C333      1.0  0.24566  0.65715  0.57207  1.0000
  C   C334      1.0  0.28407  0.63883  0.57553  1.0000
  H   H586      1.0  0.44225  0.60439  0.32307  1.0000
  H   H587      1.0  0.01005  0.70043  0.36173  1.0000
  H   H588      1.0  0.22845  0.65640  0.55707  1.0000
  H   H589      1.0  0.29621  0.62419  0.56302  1.0000
  N   N21       1.0  0.09967  0.69356  0.37692  1.0000
  C   C335      1.0  0.13517  0.67298  0.38623  1.0000
  C   C336      1.0  0.06616  0.70281  0.39381  1.0000
  C   C337      1.0  0.07499  0.67553  0.36019  1.0000
  C   C338      1.0  0.11971  0.72125  0.36644  1.0000
  C   C339      1.0  0.15025  0.74155  0.38028  1.0000
  C   C340      1.0  0.17058  0.66018  0.37068  1.0000
  C   C341      1.0  0.14473  0.69991  0.30376  1.0000
  C   C342      1.0  0.08365  0.70559  0.41690  1.0000
  H   H590      1.0  0.41345  0.95053  0.40646  1.0000
  C   C343      1.0  0.16811  0.76858  0.36766  1.0000
  C   C344      1.0  0.20590  0.64133  0.38228  1.0000
  C   C345      1.0  0.08232  0.57068  0.58337  1.0000
  H   H591      1.0  0.11889  0.65309  0.39403  1.0000
  H   H592      1.0  0.15422  0.68483  0.39882  1.0000
  C   C346      1.0  0.00036  0.90312  0.48907  1.0000
  H   H593      1.0  0.04969  0.72478  0.38954  1.0000
  H   H594      1.0  0.06333  0.65335  0.36682  1.0000
  H   H595      1.0  0.09767  0.66968  0.34683  1.0000
  H   H596      1.0  0.13908  0.71457  0.35213  1.0000
  H   H597      1.0  0.09268  0.73647  0.36048  1.0000
  H   H598      1.0  0.17961  0.72864  0.38625  1.0000
  H   H599      1.0  0.13112  0.75131  0.39365  1.0000
  H   H600      1.0  0.15487  0.64479  0.35894  1.0000
  H   H601      1.0  0.18815  0.67895  0.36241  1.0000
  C   C347      1.0  0.01030  0.86446  0.54575  1.0000
  C   C348      1.0  0.47184  0.49784  0.28865  1.0000
  H   H602      1.0  0.09170  0.68262  0.42328  1.0000
  H   H603      1.0  0.11430  0.71962  0.41808  1.0000
  C   C349      1.0  0.05507  0.78817  0.60633  1.0000
  C   C350      1.0  0.29072  0.65827  0.61104  1.0000
  C   C351      1.0  0.38585  0.69765  0.46675  1.0000
  H   H604      1.0  0.19048  0.78256  0.37782  1.0000
  H   H605      1.0  0.18766  0.76053  0.35383  1.0000
  H   H606      1.0  0.14013  0.78325  0.36209  1.0000
  H   H607      1.0  0.23151  0.63310  0.37086  1.0000
  H   H608      1.0  0.22292  0.65548  0.39435  1.0000
  H   H609      1.0  0.19025  0.62128  0.39002  1.0000
  C   C352      1.0  0.25222  0.67653  0.60758  1.0000
  C   C353      1.0  0.46677  0.85302  0.36146  1.0000
  C   C354      1.0  0.37159  0.95010  0.36432  1.0000
  C   C355      1.0  0.37960  0.91902  0.35314  1.0000
  C   C356      1.0  0.34493  0.89519  0.35966  1.0000
  H   H610      1.0  0.43988  0.95330  0.33521  1.0000
  H   H611      1.0  0.38303  0.48083  0.30896  1.0000
  H   H612      1.0  0.37724  0.92186  0.33575  1.0000
  H   H613      1.0  0.41336  0.90992  0.35672  1.0000
  H   H614      1.0  0.34804  0.88993  0.37674  1.0000
  H   H615      1.0  0.31041  0.90333  0.35621  1.0000
  H   H616      1.0  0.35082  0.87375  0.35069  1.0000
  H   H617      1.0  0.04540  0.71100  0.33990  1.0000
  H   H618      1.0  0.32972  0.67133  0.49625  1.0000
  C   C357      1.0  0.44013  0.94069  0.39643  1.0000
  H   H619      1.0  0.48960  0.72631  0.34198  1.0000
  H   H620      1.0  0.39370  0.64867  0.45897  1.0000
  C   C358      1.0  0.15325  0.59112  0.56802  1.0000
  C   C359      1.0  0.26281  0.69444  0.52005  1.0000
  H   H621      1.0  0.46207  0.62013  0.39987  1.0000
  H   H622      1.0  0.08163  0.68277  0.60243  1.0000
  C   C360      1.0  0.13306  0.58941  0.54548  1.0000
  H   H623      1.0  0.03228  0.66905  0.58864  1.0000
  H   H624      1.0  0.49318  0.95872  0.41659  1.0000
  H   H625      1.0  0.03842  0.68582  0.39480  1.0000
  C   C361      1.0  0.47706  0.70481  0.33481  1.0000
  C   C362      1.0  0.16929  0.59365  0.52867  1.0000
  H   H626      1.0  0.44780  0.50573  0.35461  1.0000
  H   H627      1.0  0.45693  0.71073  0.32065  1.0000
  H   H628      1.0  0.02849  0.51941  0.58670  1.0000
  H   H629      1.0  0.40205  0.71315  0.47838  1.0000
  H   H630      1.0  0.17572  0.57102  0.57005  1.0000
  H   H631      1.0  0.17627  0.61110  0.56833  1.0000
  C   C363      1.0  0.45764  0.61673  0.38309  1.0000
  H   H632      1.0  0.07831  0.62825  0.57152  1.0000
  H   H633      1.0  0.47352  0.94666  0.36692  1.0000
  C   C364      1.0  0.03405  0.69164  0.34982  1.0000
  C   C365      1.0  0.42533  0.48552  0.35449  1.0000
  H   H634      1.0  0.32950  0.79092  0.44763  1.0000
  H   H635      1.0  0.10735  0.60719  0.54304  1.0000
  H   H636      1.0  0.11693  0.56696  0.54273  1.0000
  C   C366      1.0  0.40648  0.66559  0.47052  1.0000
  H   H637      1.0  0.04593  0.52225  0.55947  1.0000
  H   H638      1.0  0.99655  0.79538  0.57315  1.0000
  H   H639      1.0  0.42890  0.91765  0.39147  1.0000
  C   C367      1.0  0.44757  0.85845  0.32468  1.0000
  H   H640      1.0  0.07097  0.79752  0.59184  1.0000
  H   H641      1.0  0.28279  0.70977  0.53037  1.0000
  H   H642      1.0  0.24967  0.68619  0.48740  1.0000
  H   H643      1.0  0.46313  0.84124  0.37633  1.0000
  H   H644      1.0  0.04059  0.74345  0.42637  1.0000
  C   C368      1.0  0.27217  0.70106  0.49679  1.0000
  H   H645      1.0  0.19568  0.57587  0.53022  1.0000
  H   H646      1.0  0.15402  0.59185  0.51273  1.0000
  H   H647      1.0  0.18492  0.61656  0.53013  1.0000
  H   H648      1.0  0.33298  0.80785  0.47352  1.0000
  C   C369      1.0  0.09665  0.53668  0.58225  1.0000
  N   N22       1.0  0.41091  0.97179  0.36392  1.0000
  H   H649      1.0  0.26260  0.72514  0.49384  1.0000
  H   H650      1.0  0.01819  0.56253  0.53282  1.0000
  H   H651      1.0  0.45490  0.54632  0.29011  1.0000
  H   H652      1.0  0.06173  0.57619  0.56922  1.0000
  C   C370      1.0  0.05310  0.66649  0.60307  1.0000
  H   H653      1.0  0.12421  0.53284  0.57083  1.0000
  C   C371      1.0  0.11348  0.67691  0.29853  1.0000
  C   C372      1.0  0.48178  0.93644  0.41017  1.0000
  C   C373      1.0  0.05721  0.51648  0.57569  1.0000
  N   N23       1.0  0.33545  0.69977  0.46853  1.0000
  C   C374      1.0  0.31269  0.67560  0.45542  1.0000
  C   C375      1.0  0.32074  0.73062  0.46067  1.0000
  C   C376      1.0  0.32567  0.67462  0.43170  1.0000
  C   C377      1.0  0.33814  0.75844  0.47340  1.0000
  C   C378      1.0  0.30582  0.64641  0.42106  1.0000
  C   C379      1.0  0.31957  0.78822  0.46443  1.0000
  H   H654      1.0  0.27574  0.67880  0.45575  1.0000
  H   H655      1.0  0.31826  0.65259  0.46235  1.0000
  H   H656      1.0  0.34315  0.70963  0.50193  1.0000
  H   H657      1.0  0.28361  0.73194  0.46009  1.0000
  H   H658      1.0  0.33185  0.73413  0.44408  1.0000
  H   H659      1.0  0.31250  0.69503  0.42341  1.0000
  H   H660      1.0  0.36245  0.67380  0.42929  1.0000
  H   H661      1.0  0.04070  0.61871  0.60618  1.0000
  H   H662      1.0  0.32785  0.75719  0.49018  1.0000
  H   H663      1.0  0.31211  0.64738  0.40380  1.0000
  H   H664      1.0  0.32189  0.62542  0.42732  1.0000
  H   H665      1.0  0.26909  0.64522  0.42381  1.0000
  H   H666      1.0  0.22666  0.69826  0.52345  1.0000
  H   H667      1.0  0.10821  0.52884  0.59800  1.0000
  H   H668      1.0  0.39737  0.70598  0.45105  1.0000
  C   C380      1.0  0.47500  0.58817  0.35125  1.0000
  H   H669      1.0  0.28238  0.78860  0.46553  1.0000
  C   C381      1.0  0.44661  0.60777  0.33986  1.0000
  H   H670      1.0  0.39871  0.65733  0.48664  1.0000
  C   C382      1.0  0.04845  0.71980  0.43143  1.0000
  H   H671      1.0  0.42905  0.85102  0.31092  1.0000
  H   H672      1.0  0.47259  0.68234  0.47979  1.0000
  C   C383      1.0  0.00897  0.83448  0.53770  1.0000
  H   H673      1.0  0.06758  0.49216  0.57588  1.0000
  H   H674      1.0  0.40040  0.49691  0.38567  1.0000
  H   H675      1.0  0.37527  0.75980  0.47263  1.0000
  C   C384      1.0  0.42943  0.63648  0.37171  1.0000
  C   C385      1.0  0.45751  0.66637  0.46816  1.0000
  C   C386      1.0  0.48249  0.53137  0.28439  1.0000
  S   S79       1.0  0.08522  0.61626  0.29664  1.0000
  H   H676      1.0  0.13749  0.72338  0.29975  1.0000
  H   H677      1.0  0.01728  0.70596  0.43145  1.0000
  C   C387      1.0  0.46520  0.49190  0.31260  1.0000
  H   H678      1.0  0.39332  0.49238  0.34692  1.0000
  C   C388      1.0  0.99839  0.60886  0.53965  1.0000
  H   H679      1.0  0.01650  0.88147  0.49413  1.0000
  H   H680      1.0  0.06009  0.76307  0.60671  1.0000
  H   H681      1.0  0.16822  0.63385  0.61335  1.0000
  C   C389      1.0  0.47663  0.88358  0.32307  1.0000
  C   C390      1.0  0.18140  0.61025  0.61227  1.0000
  H   H682      1.0  0.34187  0.96075  0.35658  1.0000
  C   C391      1.0  0.00507  0.79601  0.60691  1.0000
  C   C392      1.0  0.42526  0.97512  0.34113  1.0000
  H   H683      1.0  0.08225  0.68267  0.29083  1.0000
  H   H684      1.0  0.00252  0.82122  0.60792  1.0000
  C   C393      1.0  0.00837  0.66973  0.33544  1.0000
  H   H685      1.0  0.99491  0.65018  0.34458  1.0000
  H   H686      1.0  0.03204  0.67223  0.61697  1.0000
  H   H687      1.0  0.99457  0.91734  0.50334  1.0000
  Fe  Fe40      1.0  0.45653  0.88645  0.75339  1.0000
  S   S80       1.0  0.42889  0.93348  0.74447  1.0000
  Fe  Fe41      1.0  0.43492  0.83129  0.78218  1.0000
  S   S81       1.0  0.39349  0.80973  0.80897  1.0000
  S   S82       1.0  0.00786  0.67050  0.85729  1.0000
  S   S83       1.0  0.41416  0.84419  0.74926  1.0000
  H   H688      1.0  0.13190  0.80692  0.91308  1.0000
  H   H689      1.0  0.17371  0.78877  0.92841  1.0000
  S   S84       1.0  0.40242  0.60010  0.65913  1.0000
  Fe  Fe42      1.0  0.08860  0.76605  0.87593  1.0000
  S   S85       1.0  0.08181  0.74376  0.84423  1.0000
  S   S86       1.0  0.05190  0.80722  0.88971  1.0000
  Fe  Fe43      1.0  0.15018  0.71516  0.89196  1.0000
  S   S87       1.0  0.14764  0.68923  0.86116  1.0000
  S   S88       1.0  0.18203  0.69615  0.92178  1.0000
  Fe  Fe44      1.0  0.15686  0.73612  0.84657  1.0000
  S   S89       1.0  0.19911  0.74798  0.81734  1.0000
  Fe  Fe45      1.0  0.07292  0.69888  0.86144  1.0000
  H   H690      1.0  0.22922  0.61917  0.63730  1.0000
  S   S90       1.0  0.16375  0.76098  0.87752  1.0000
  S   S91       1.0  0.07573  0.72214  0.89299  1.0000
  C   C394      1.0  0.02350  0.60745  0.85288  1.0000
  C   C395      1.0  0.23826  0.74456  0.93052  1.0000
  H   H691      1.0  0.10817  0.50725  0.89542  1.0000
  H   H692      1.0  0.35083  0.84051  0.64198  1.0000
  H   H693      1.0  0.23599  0.75015  0.91393  1.0000
  H   H694      1.0  0.26176  0.65340  0.93693  1.0000
  C   C396      1.0  0.33120  0.90014  0.71630  1.0000
  H   H695      1.0  0.42652  0.96419  0.64003  1.0000
  H   H696      1.0  0.04760  0.96797  0.81145  1.0000
  H   H697      1.0  0.11989  0.58546  0.61965  1.0000
  H   H698      1.0  0.36928  0.70180  0.93992  1.0000
  C   C397      1.0  0.10646  0.51516  0.87880  1.0000
  Fe  Fe46      1.0  0.43859  0.55491  0.65613  1.0000
  C   C398      1.0  0.36906  0.79302  0.64229  1.0000
  H   H699      1.0  0.08067  0.84306  0.92899  1.0000
  H   H700      1.0  0.05436  0.82421  0.84509  1.0000
  C   C399      1.0  0.33840  0.79399  0.81102  1.0000
  C   C400      1.0  0.30906  0.79230  0.79382  1.0000
  C   C401      1.0  0.26653  0.77839  0.79608  1.0000
  C   C402      1.0  0.25227  0.76661  0.81565  1.0000
  C   C403      1.0  0.28130  0.76885  0.83294  1.0000
  C   C404      1.0  0.32411  0.78225  0.83057  1.0000
  H   H701      1.0  0.31917  0.80175  0.77881  1.0000
  H   H702      1.0  0.24434  0.77690  0.78261  1.0000
  H   H703      1.0  0.27103  0.75983  0.84806  1.0000
  H   H704      1.0  0.34640  0.78349  0.84401  1.0000
  H   H705      1.0  0.38890  0.86288  0.93596  1.0000
  C   C405      1.0  0.36569  0.90118  0.69848  1.0000
  H   H706      1.0  0.41655  0.87862  0.63906  1.0000
  H   H707      1.0  0.36651  0.79313  0.70331  1.0000
  C   C406      1.0  0.36728  0.82228  0.92014  1.0000
  H   H708      1.0  0.37002  0.63533  0.72742  1.0000
  H   H709      1.0  0.32756  0.92327  0.72329  1.0000
  H   H710      1.0  0.32546  0.76304  0.70279  1.0000
  H   H711      1.0  0.11904  0.93995  0.80955  1.0000
  H   H712      1.0  0.08961  0.63244  0.61992  1.0000
  H   H713      1.0  0.06879  0.50723  0.85053  1.0000
  H   H714      1.0  0.29758  0.63782  0.90291  1.0000
  C   C407      1.0  0.40274  0.88847  0.65393  1.0000
  H   H715      1.0  0.29798  0.89263  0.71031  1.0000
  H   H716      1.0  0.48549  0.72005  0.80691  1.0000
  Fe  Fe47      1.0  0.47165  0.62082  0.66064  1.0000
  H   H717      1.0  0.39745  0.90937  0.70531  1.0000
  H   H718      1.0  0.39839  0.82054  0.91055  1.0000
  H   H719      1.0  0.03779  0.50139  0.87440  1.0000
  H   H720      1.0  0.33187  0.67200  0.90370  1.0000
  H   H721      1.0  0.01379  0.93625  0.87990  1.0000
  H   H722      1.0  0.39390  0.79495  0.62929  1.0000
  H   H723      1.0  0.41578  0.65475  0.71444  1.0000
  C   C408      1.0  0.40803  0.83421  0.66377  1.0000
  C   C409      1.0  0.03056  0.83880  0.85314  1.0000
  C   C410      1.0  0.46506  0.74252  0.68323  1.0000
  H   H724      1.0  0.13982  0.51232  0.87121  1.0000
  C   C411      1.0  0.02386  0.83560  0.87485  1.0000
  H   H725      1.0  0.12279  0.75067  0.92883  1.0000
  H   H726      1.0  0.23829  0.80751  0.90850  1.0000
  H   H727      1.0  0.47835  0.49243  0.76196  1.0000
  H   H728      1.0  0.24747  0.70293  0.79249  1.0000
  H   H729      1.0  0.29994  0.66950  0.75778  1.0000
  H   H730      1.0  0.37606  0.85231  0.70081  1.0000
  C   C412      1.0  0.43958  0.48482  0.68863  1.0000
  H   H731      1.0  0.30773  0.65887  0.62610  1.0000
  H   H732      1.0  0.41816  0.93208  0.62270  1.0000
  H   H733      1.0  0.46173  0.91884  0.65509  1.0000
  C   C413      1.0  0.37161  0.86958  0.68804  1.0000
  H   H734      1.0  0.34249  0.88447  0.72899  1.0000
  H   H735      1.0  0.12179  0.86262  0.94426  1.0000
  H   H736      1.0  0.43274  0.73406  0.94916  1.0000
  H   H737      1.0  0.41611  0.81779  0.67660  1.0000
  C   C414      1.0  0.44540  0.95670  0.72281  1.0000
  S   S92       1.0  0.41098  0.51508  0.67563  1.0000
  N   N24       1.0  0.40910  0.86655  0.67212  1.0000
  H   H738      1.0  0.24179  0.84734  0.90188  1.0000
  H   H739      1.0  0.17111  0.96066  0.81109  1.0000
  C   C415      1.0  0.36329  0.82360  0.65360  1.0000
  H   H740      1.0  0.21795  0.57934  0.63308  1.0000
  C   C416      1.0  0.02015  0.96790  0.85382  1.0000
  H   H741      1.0  0.36366  0.64881  0.70072  1.0000
  H   H742      1.0  0.09768  0.53980  0.87881  1.0000
  C   C417      1.0  0.48121  0.94868  0.70967  1.0000
  C   C418      1.0  0.00904  0.57673  0.85143  1.0000
  H   H743      1.0  0.27062  0.70555  0.75491  1.0000
  C   C419      1.0  0.15317  0.80983  0.92737  1.0000
  C   C420      1.0  0.07070  0.49741  0.86667  1.0000
  H   H744      1.0  0.35332  0.91794  0.68672  1.0000
  H   H745      1.0  0.27623  0.66682  0.79523  1.0000
  C   C421      1.0  0.45343  0.87085  0.68329  1.0000
  C   C422      1.0  0.26573  0.76188  0.94401  1.0000
  H   H746      1.0  0.45914  0.70271  0.66308  1.0000
  S   S93       1.0  0.47264  0.79389  0.70801  1.0000
  S   S94       1.0  0.44017  0.55700  0.62054  1.0000
  H   H747      1.0  0.45175  0.75791  0.67149  1.0000
  H   H748      1.0  0.34332  0.84311  0.94855  1.0000
  H   H749      1.0  0.41728  0.62028  0.94944  1.0000
  C   C423      1.0  0.40942  0.94180  0.63836  1.0000
  H   H750      1.0  0.31911  0.79483  0.72096  1.0000
  H   H751      1.0  0.00838  0.47740  0.84184  1.0000
  H   H752      1.0  0.28408  0.78110  0.93780  1.0000
  H   H753      1.0  0.34135  0.83420  0.91061  1.0000
  H   H754      1.0  0.43446  0.83087  0.65159  1.0000
  H   H755      1.0  0.05829  0.61314  0.85008  1.0000
  C   C424      1.0  0.20246  0.60239  0.63356  1.0000
  C   C425      1.0  0.21453  0.71961  0.93841  1.0000
  H   H756      1.0  0.37264  0.94574  0.63924  1.0000
  H   H757      1.0  0.22895  0.67034  0.77763  1.0000
  H   H758      1.0  0.04039  0.95147  0.84451  1.0000
  H   H759      1.0  0.29685  0.68658  0.93801  1.0000
  H   H760      1.0  0.06199  0.96090  0.88166  1.0000
  C   C426      1.0  0.37611  0.84009  0.94048  1.0000
  H   H761      1.0  0.33724  0.82011  0.66589  1.0000
  N   N25       1.0  0.36477  0.71979  0.75793  1.0000
  C   C427      1.0  0.34060  0.74298  0.74449  1.0000
  C   C428      1.0  0.33250  0.70750  0.77421  1.0000
  C   C429      1.0  0.40174  0.73629  0.76968  1.0000
  C   C430      1.0  0.38547  0.69416  0.74518  1.0000
  C   C431      1.0  0.36112  0.68455  0.72451  1.0000
  C   C432      1.0  0.37095  0.76212  0.72974  1.0000
  H   H762      1.0  0.36389  0.64603  0.93464  1.0000
  C   C433      1.0  0.29022  0.69099  0.76582  1.0000
  C   C434      1.0  0.25897  0.68224  0.78395  1.0000
  C   C435      1.0  0.37878  0.65399  0.71635  1.0000
  C   C436      1.0  0.34356  0.77930  0.71320  1.0000
  H   H763      1.0  0.19898  0.82406  0.88998  1.0000
  H   H764      1.0  0.32198  0.75936  0.75469  1.0000
  H   H765      1.0  0.31435  0.73218  0.73464  1.0000
  H   H766      1.0  0.34938  0.69052  0.78453  1.0000
  H   H767      1.0  0.32125  0.72631  0.78486  1.0000
  H   H768      1.0  0.38833  0.75721  0.77750  1.0000
  H   H769      1.0  0.42791  0.74440  0.75846  1.0000
  H   H770      1.0  0.42030  0.70006  0.74025  1.0000
  H   H771      1.0  0.38943  0.67348  0.75519  1.0000
  H   H772      1.0  0.36705  0.70172  0.71196  1.0000
  H   H773      1.0  0.32443  0.68238  0.72649  1.0000
  H   H774      1.0  0.38975  0.77933  0.73907  1.0000
  H   H775      1.0  0.39563  0.74748  0.72152  1.0000
  C   C437      1.0  0.47836  0.75408  0.70301  1.0000
  H   H776      1.0  0.40471  0.71457  0.80089  1.0000
  H   H777      1.0  0.33858  0.86484  0.68065  1.0000
  H   H778      1.0  0.01219  0.86362  0.82504  1.0000
  H   H779      1.0  0.13335  0.96753  0.78938  1.0000
  C   C438      1.0  0.46920  0.71119  0.67840  1.0000
  H   H780      1.0  0.03314  0.55919  0.84754  1.0000
  H   H781      1.0  0.41655  0.93177  0.67122  1.0000
  H   H782      1.0  0.41525  0.67902  0.94873  1.0000
  H   H783      1.0  0.36629  0.89177  0.65076  1.0000
  C   C439      1.0  0.42658  0.71751  0.78684  1.0000
  C   C440      1.0  0.21829  0.82815  0.90471  1.0000
  H   H784      1.0  0.20721  0.84142  0.93694  1.0000
  H   H785      1.0  0.23999  0.69102  0.62016  1.0000
  H   H786      1.0  0.00638  0.97562  0.88725  1.0000
  H   H787      1.0  0.35498  0.79896  0.92374  1.0000
  H   H788      1.0  0.06701  0.78948  0.93376  1.0000
  C   C441      1.0  0.18654  0.83621  0.92283  1.0000
  H   H789      1.0  0.16824  0.85711  0.91797  1.0000
  C   C442      1.0  0.00661  0.86113  0.84182  1.0000
  H   H790      1.0  0.49219  0.87030  0.65346  1.0000
  S   S95       1.0  0.47228  0.87550  0.78744  1.0000
  H   H791      1.0  0.38037  0.77519  0.65355  1.0000
  H   H792      1.0  0.46888  0.51624  0.72749  1.0000
  Fe  Fe48      1.0  0.47834  0.82148  0.73870  1.0000
  H   H793      1.0  0.27177  0.67494  0.90167  1.0000
  C   C443      1.0  0.42464  0.92055  0.65606  1.0000
  N   N26       1.0  0.12421  0.81332  0.94684  1.0000
  H   H794      1.0  0.45723  0.89445  0.68916  1.0000
  C   C444      1.0  0.46902  0.73371  0.79436  1.0000
  C   C445      1.0  0.13520  0.96236  0.80651  1.0000
  C   C446      1.0  0.29968  0.66164  0.90881  1.0000
  H   H795      1.0  0.07213  0.79822  0.62028  1.0000
  C   C447      1.0  0.09852  0.84285  0.94450  1.0000
  H   H796      1.0  0.43640  0.69470  0.78080  1.0000
  H   H797      1.0  0.43922  0.81697  0.94479  1.0000
  S   S96       1.0  0.47623  0.62734  0.62541  1.0000
  C   C448      1.0  0.29547  0.66246  0.93283  1.0000
  H   H798      1.0  0.45470  0.85670  0.69787  1.0000
  H   H799      1.0  0.99687  0.75908  0.91351  1.0000
  C   C449      1.0  0.11223  0.75499  0.94535  1.0000
  H   H800      1.0  0.33648  0.78575  0.63542  1.0000
  H   H801      1.0  0.00222  0.77820  0.84336  1.0000
  C   C450      1.0  0.33245  0.64308  0.94372  1.0000
  H   H802      1.0  0.32315  0.61869  0.94134  1.0000
  H   H803      1.0  0.09444  0.70739  0.94900  1.0000
  C   C451      1.0  0.02605  0.95981  0.87711  1.0000
  C   C452      1.0  0.09124  0.78721  0.94709  1.0000
  C   C453      1.0  0.48740  0.69105  0.69322  1.0000
  H   H804      1.0  0.17688  0.60327  0.64629  1.0000
  H   H805      1.0  0.01935  0.77823  0.80564  1.0000
  C   C454      1.0  0.49152  0.96664  0.69189  1.0000
  Fe  Fe49      1.0  0.40869  0.60385  0.62368  1.0000
  H   H806      1.0  0.04825  0.73155  0.94144  1.0000
  C   C455      1.0  0.48552  0.47953  0.68591  1.0000
  H   H807      1.0  0.46052  0.75647  0.80101  1.0000
  H   H808      1.0  0.01657  0.87402  0.94105  1.0000
  H   H809      1.0  0.49311  0.73651  0.78113  1.0000
  C   C456      1.0  0.92978  0.00735  0.25856  1.0000
  S   S97       1.0  0.66407  0.01732  0.02533  1.0000
  H   H810      1.0  0.97384  0.15570  0.13661  1.0000
  Fe  Fe50      1.0  0.56455  0.44901  0.05023  1.0000
  C   C457      1.0  0.72863  0.40991  0.99981  1.0000
  C   C458      1.0  0.95799  0.01596  0.18732  1.0000
  Fe  Fe51      1.0  0.59360  0.03201  0.03393  1.0000
  S   S98       1.0  0.57415  0.08231  0.02798  1.0000
  H   H811      1.0  0.85216  0.44153  0.04787  1.0000
  H   H812      1.0  0.77999  0.45066  0.97833  1.0000
  C   C459      1.0  0.58847  0.31761  0.05002  1.0000
  S   S99       1.0  0.63207  0.43402  0.03835  1.0000
  H   H813      1.0  0.92866  0.02685  0.18065  1.0000
  Fe  Fe52      1.0  0.95916  0.16377  0.25313  1.0000
  S   S100      1.0  0.92955  0.20811  0.24003  1.0000
  S   S101      1.0  0.91548  0.12195  0.25149  1.0000
  C   C460      1.0  0.56174  0.30155  0.03208  1.0000
  C   C461      1.0  0.85281  0.15645  0.20386  1.0000
  S   S102      1.0  0.93910  0.37184  0.15112  1.0000
  C   C462      1.0  0.95224  0.16187  0.15032  1.0000
  H   H814      1.0  0.84244  0.17696  0.21296  1.0000
  Fe  Fe53      1.0  0.92449  0.36766  0.11614  1.0000
  S   S103      1.0  0.85409  0.36741  0.10142  1.0000
  C   C463      1.0  0.95149  0.23026  0.21896  1.0000
  H   H815      1.0  0.82093  0.04529  0.25187  1.0000
  C   C464      1.0  0.94052  0.27082  0.19279  1.0000
  C   C465      1.0  0.92384  0.25204  0.20907  1.0000
  H   H816      1.0  0.91886  0.28739  0.18531  1.0000
  H   H817      1.0  0.88929  0.25441  0.21407  1.0000
  H   H818      1.0  0.97538  0.09076  0.17061  1.0000
  C   C466      1.0  0.95412  0.35445  0.20683  1.0000
  H   H819      1.0  0.76872  0.40297  0.02758  1.0000
  C   C467      1.0  0.50243  0.10029  0.05364  1.0000
  C   C468      1.0  0.53064  0.10734  0.03671  1.0000
  C   C469      1.0  0.89576  0.16347  0.19163  1.0000
  H   H820      1.0  0.98976  0.30498  0.22306  1.0000
  C   C470      1.0  0.81191  0.44085  0.98432  1.0000
  H   H821      1.0  0.50322  0.04813  0.95651  1.0000
  H   H822      1.0  0.58521  0.05478  0.95715  1.0000
  H   H823      1.0  0.53177  0.31608  0.02887  1.0000
  C   C471      1.0  0.86387  0.01225  0.23536  1.0000
  H   H824      1.0  0.81892  0.98736  0.26645  1.0000
  S   S104      1.0  0.59162  0.00087  0.06217  1.0000
  C   C472      1.0  0.76178  0.44645  0.07983  1.0000
  C   C473      1.0  0.80376  0.45272  0.08908  1.0000
  C   C474      1.0  0.83254  0.42892  0.09568  1.0000
  C   C475      1.0  0.81952  0.39846  0.09322  1.0000
  C   C476      1.0  0.77769  0.39222  0.08381  1.0000
  C   C477      1.0  0.74908  0.41599  0.07706  1.0000
  H   H825      1.0  0.62383  0.36007  0.05598  1.0000
  H   H826      1.0  0.86473  0.43411  0.10268  1.0000
  H   H827      1.0  0.76728  0.36877  0.08180  1.0000
  H   H828      1.0  0.71699  0.41075  0.06998  1.0000
  H   H829      1.0  0.82526  0.15013  0.19290  1.0000
  N   N27       1.0  0.80757  0.43253  0.00731  1.0000
  N   N28       1.0  0.54768  0.26891  0.03616  1.0000
  H   H830      1.0  0.92098  0.17139  0.20316  1.0000
  C   C478      1.0  0.96063  0.46870  0.21133  1.0000
  C   C479      1.0  0.95021  0.21744  0.13859  1.0000
  S   S105      1.0  0.56174  0.99681  0.01307  1.0000
  C   C480      1.0  0.85325  0.99445  0.27148  1.0000
  H   H831      1.0  0.55780  0.09116  0.95349  1.0000
  H   H832      1.0  0.91744  0.16185  0.14389  1.0000
  C   C481      1.0  0.85696  0.41931  0.03978  1.0000
  C   C482      1.0  0.90318  0.40727  0.04614  1.0000
  H   H833      1.0  0.87297  0.38026  0.19297  1.0000
  H   H834      1.0  0.89808  0.36346  0.22885  1.0000
  H   H835      1.0  0.92999  0.42309  0.04087  1.0000
  C   C483      1.0  0.58247  0.21436  0.03716  1.0000
  H   H836      1.0  0.63049  0.34545  0.02955  1.0000
  C   C484      1.0  0.60636  0.34849  0.04272  1.0000
  H   H837      1.0  0.81411  0.47615  0.09120  1.0000
  C   C485      1.0  0.56332  0.07215  0.96476  1.0000
  H   H838      1.0  0.96593  0.21120  0.12329  1.0000
  C   C486      1.0  0.53004  0.26249  0.99626  1.0000
  S   S106      1.0  0.51991  0.41340  0.06572  1.0000
  H   H839      1.0  0.96151  0.04811  0.14322  1.0000
  C   C487      1.0  0.91272  0.13509  0.17954  1.0000
  H   H840      1.0  0.87963  0.43893  0.01019  1.0000
  H   H841      1.0  0.50724  0.07917  0.06215  1.0000
  C   C488      1.0  0.85303  0.42286  0.01547  1.0000
  H   H842      1.0  0.87622  0.34110  0.18390  1.0000
  C   C489      1.0  0.51875  0.05754  0.97104  1.0000
  H   H843      1.0  0.80795  0.05253  0.21361  1.0000
  C   C490      1.0  0.52635  0.26752  0.05782  1.0000
  C   C491      1.0  0.87088  0.35598  0.19788  1.0000
  H   H844      1.0  0.58109  0.08091  0.97895  1.0000
  S   S107      1.0  0.63149  0.44885  0.97823  1.0000
  H   H845      1.0  0.56665  0.32188  0.06392  1.0000
  H   H846      1.0  0.95501  0.32154  0.24281  1.0000
  H   H847      1.0  0.86277  0.40050  0.00850  1.0000
  H   H848      1.0  0.96103  0.33708  0.19439  1.0000
  C   C492      1.0  0.98333  0.38066  0.23824  1.0000
  N   N29       1.0  0.88484  0.99353  0.25283  1.0000
  Fe  Fe54      1.0  0.65974  0.98304  0.05197  1.0000
  H   H849      1.0  0.69442  0.37976  0.02182  1.0000
  C   C493      1.0  0.52398  0.13517  0.02600  1.0000
  H   H850      1.0  0.60793  0.25364  0.02019  1.0000
  H   H851      1.0  0.61758  0.30382  0.05522  1.0000
  H   H852      1.0  0.86521  0.06542  0.21044  1.0000
  C   C494      1.0  0.98789  0.32398  0.23472  1.0000
  H   H853      1.0  0.61313  0.25553  0.04781  1.0000
  H   H854      1.0  0.78250  0.45370  0.03588  1.0000
  H   H855      1.0  0.88498  0.12914  0.16857  1.0000
  H   H856      1.0  0.90499  0.40526  0.06360  1.0000
  H   H857      1.0  0.50635  0.23568  0.09526  1.0000
  H   H858      1.0  0.88741  0.18208  0.18049  1.0000
  H   H859      1.0  0.71397  0.36126  0.99791  1.0000
  C   C495      1.0  0.78988  0.45983  0.01921  1.0000
  H   H860      1.0  0.57851  0.36345  0.03738  1.0000
  H   H861      1.0  0.91311  0.21737  0.13690  1.0000
  H   H862      1.0  0.55272  0.26600  0.07024  1.0000
  H   H863      1.0  0.85846  0.13754  0.21515  1.0000
  S   S108      1.0  0.96824  0.32570  0.11217  1.0000
  H   H864      1.0  0.91522  0.11592  0.19103  1.0000
  C   C496      1.0  0.85045  0.04537  0.24120  1.0000
  H   H865      1.0  0.86123  0.44122  0.14507  1.0000
  H   H866      1.0  0.99236  0.12945  0.19668  1.0000
  C   C497      1.0  0.58926  0.24922  0.03508  1.0000
  H   H867      1.0  0.50096  0.23691  0.02172  1.0000
  C   C498      1.0  0.83678  0.06357  0.22167  1.0000
  C   C499      1.0  0.97163  0.98718  0.17959  1.0000
  H   H868      1.0  0.90104  0.32465  0.21938  1.0000
  H   H869      1.0  0.66539  0.38584  0.99723  1.0000
  H   H870      1.0  0.98597  0.27941  0.26563  1.0000
  H   H871      1.0  0.55614  0.20575  0.02640  1.0000
  H   H872      1.0  0.65335  0.20415  0.04247  1.0000
  H   H873      1.0  0.83664  0.35167  0.20410  1.0000
  C   C500      1.0  0.67535  0.46511  0.96342  1.0000
  H   H874      1.0  0.83166  0.40306  0.04586  1.0000
  H   H875      1.0  0.50547  0.25444  0.96449  1.0000
  H   H876      1.0  0.58285  0.30297  0.01763  1.0000
  S   S109      1.0  0.96305  0.06699  0.21249  1.0000
  H   H877      1.0  0.87861  0.05738  0.24908  1.0000
  H   H878      1.0  0.63542  0.20088  0.01522  1.0000
  C   C501      1.0  0.51377  0.26041  0.01946  1.0000
  H   H879      1.0  0.83314  0.00076  0.22922  1.0000
  H   H880      1.0  0.50681  0.09432  0.99333  1.0000
  H   H881      1.0  0.73152  0.41173  0.98241  1.0000
  Fe  Fe55      1.0  0.61767  0.46558  0.01136  1.0000
  C   C502      1.0  0.69893  0.38240  0.00453  1.0000
  C   C503      1.0  0.96483  0.19539  0.15594  1.0000
  H   H882      1.0  0.86111  0.40705  0.97312  1.0000
  N   N30       1.0  0.99081  0.35415  0.22332  1.0000
  H   H883      1.0  0.71088  0.43039  0.00575  1.0000
  C   C504      1.0  0.88067  0.46248  0.14777  1.0000
  H   H884      1.0  0.83710  0.45932  0.98226  1.0000
  H   H885      1.0  0.75701  0.46722  0.01270  1.0000
  H   H886      1.0  0.82663  0.08693  0.22649  1.0000
  C   C505      1.0  0.97220  0.45306  0.19264  1.0000
  H   H887      1.0  0.90912  0.38430  0.03927  1.0000
  C   C506      1.0  0.62555  0.19697  0.03190  1.0000
  H   H888      1.0  0.92113  0.05499  0.12259  1.0000
  H   H889      1.0  0.92521  0.02592  0.27041  1.0000
  H   H890      1.0  0.93798  0.45821  0.22250  1.0000
  H   H891      1.0  0.85877  0.46564  0.17981  1.0000
  H   H892      1.0  0.96716  0.40012  0.22984  1.0000
  H   H893      1.0  0.55954  0.24754  0.99357  1.0000
  H   H894      1.0  0.90214  0.08513  0.15377  1.0000
  C   C507      1.0  0.90563  0.34894  0.21495  1.0000
  Fe  Fe56      1.0  0.63156  0.98077  0.00566  1.0000
  H   H895      1.0  0.57381  0.20853  0.05369  1.0000
  H   H896      1.0  0.95349  0.37678  0.19856  1.0000
  H   H897      1.0  0.54569  0.14096  0.01293  1.0000
  H   H898      1.0  0.61993  0.17211  0.03410  1.0000
  H   H899      1.0  0.50361  0.21905  0.05753  1.0000
  C   C508      1.0  0.77527  0.40643  0.01044  1.0000
  H   H900      1.0  0.79023  0.38456  0.00492  1.0000
  H   H901      1.0  0.94503  0.01897  0.24472  1.0000
  H   H902      1.0  0.94957  0.20323  0.17087  1.0000
  C   C509      1.0  0.82653  0.41469  0.96930  1.0000
  Fe  Fe57      1.0  0.65896  0.47531  0.05486  1.0000
  C   C510      1.0  0.96739  0.10769  0.15804  1.0000
  Fe  Fe58      1.0  0.97807  0.09703  0.24134  1.0000
  H   H903      1.0  0.80374  0.39481  0.97045  1.0000
  C   C511      1.0  0.93054  0.09327  0.14392  1.0000
  H   H904      1.0  0.74930  0.05587  0.28363  1.0000
  H   H905      1.0  0.97588  0.07224  0.12103  1.0000
  H   H906      1.0  0.96091  0.24096  0.14276  1.0000
  H   H907      1.0  0.52665  0.03833  0.98170  1.0000
  H   H908      1.0  0.98848  0.16841  0.19054  1.0000
  H   H909      1.0  0.88730  0.01404  0.22172  1.0000
  H   H910      1.0  0.82336  0.08186  0.28074  1.0000
  N   N31       1.0  0.95646  0.13839  0.16771  1.0000
  H   H911      1.0  0.95834  0.43080  0.18940  1.0000
  H   H912      1.0  0.91770  0.10996  0.13223  1.0000
  H   H913      1.0  0.49388  0.17928  0.27731  1.0000
  H   H914      1.0  0.99305  0.43753  0.25757  1.0000
  C   C512      1.0  0.94856  0.06549  0.13199  1.0000
  H   H915      1.0  0.53898  0.28628  0.99206  1.0000
  C   C513      1.0  0.98177  0.03060  0.20364  1.0000
  Fe  Fe59      1.0  0.98734  0.33250  0.14627  1.0000
  H   H916      1.0  0.95901  0.37411  0.25078  1.0000
  H   H917      1.0  0.91575  0.45608  0.15171  1.0000
  H   H918      1.0  0.84995  0.01812  0.27762  1.0000
  C   C514      1.0  0.98543  0.26846  0.18657  1.0000
  H   H919      1.0  0.88055  0.47591  0.13292  1.0000
  S   S110      1.0  0.97923  0.39960  0.10616  1.0000
  H   H920      1.0  0.50305  0.40889  0.02061  1.0000
  H   H921      1.0  0.50759  0.28904  0.06106  1.0000
  C   C515      1.0  0.96662  0.98526  0.26687  1.0000
  H   H922      1.0  0.99061  0.40863  0.27797  1.0000
  S   S111      1.0  0.71009  0.97686  0.07922  1.0000
  H   H923      1.0  0.49379  0.05155  0.01475  1.0000
  H   H924      1.0  0.57932  0.08432  0.28379  1.0000
  S   S112      1.0  0.64930  0.47471  0.37349  1.0000
  H   H925      1.0  0.57845  0.38356  0.40490  1.0000
  S   S113      1.0  0.58987  0.09729  0.59926  1.0000
  C   C516      1.0  0.72037  0.14343  0.34349  1.0000
  H   H926      1.0  0.85289  0.98811  0.41791  1.0000
  H   H927      1.0  0.61416  0.09023  0.39736  1.0000
  Fe  Fe60      1.0  0.57706  0.02623  0.37229  1.0000
  H   H928      1.0  0.88413  0.11855  0.54214  1.0000
  H   H929      1.0  0.98555  0.10057  0.57953  1.0000
  Fe  Fe61      1.0  0.58100  0.46158  0.36108  1.0000
  S   S114      1.0  0.56388  0.41041  0.35808  1.0000
  C   C517      1.0  0.95182  0.19765  0.52077  1.0000
  C   C518      1.0  0.95346  0.21683  0.56759  1.0000
  C   C519      1.0  0.96239  0.07663  0.55189  1.0000
  S   S115      1.0  0.65171  0.02926  0.37774  1.0000
  H   H930      1.0  0.63378  0.98949  0.58792  1.0000
  S   S116      1.0  0.81988  0.03314  0.53938  1.0000
  C   C520      1.0  0.58404  0.06997  0.29805  1.0000
  Fe  Fe62      1.0  0.85106  0.42846  0.54094  1.0000
  H   H931      1.0  0.66179  0.01299  0.47888  1.0000
  S   S117      1.0  0.87387  0.37878  0.53494  1.0000
  Fe  Fe63      1.0  0.88682  0.01542  0.55007  1.0000
  S   S118      1.0  0.93462  0.04813  0.56662  1.0000
  C   C521      1.0  0.71236  0.97821  0.43505  1.0000
  H   H932      1.0  0.55901  0.02148  0.51008  1.0000
  H   H933      1.0  0.50776  0.45685  0.44522  1.0000
  S   S119      1.0  0.77893  0.44106  0.53386  1.0000
  C   C522      1.0  0.76367  0.01967  0.44303  1.0000
  H   H934      1.0  0.60928  0.14255  0.38163  1.0000
  C   C523      1.0  0.85895  0.16513  0.54526  1.0000
  S   S120      1.0  0.87723  0.46195  0.51740  1.0000
  C   C524      1.0  0.61701  0.05019  0.47166  1.0000
  H   H935      1.0  0.94443  0.05835  0.52153  1.0000
  C   C525      1.0  0.91887  0.35462  0.54307  1.0000
  H   H936      1.0  0.55098  0.16452  0.32943  1.0000
  C   C526      1.0  0.93018  0.32922  0.53047  1.0000
  H   H937      1.0  0.96822  0.23905  0.56277  1.0000
  H   H938      1.0  0.91188  0.32524  0.51598  1.0000
  H   H939      1.0  0.71013  0.39270  0.48846  1.0000
  H   H940      1.0  0.72516  0.12859  0.35750  1.0000
  Fe  Fe64      1.0  0.83129  0.00358  0.51090  1.0000
  H   H941      1.0  0.54204  0.34288  0.42615  1.0000
  S   S121      1.0  0.57107  0.97910  0.38573  1.0000
  H   H942      1.0  0.64020  0.17394  0.35264  1.0000
  C   C527      1.0  0.94272  0.35938  0.56181  1.0000
  C   C528      1.0  0.95637  0.20762  0.49776  1.0000
  H   H943      1.0  0.84128  0.27607  0.59115  1.0000
  H   H944      1.0  0.54893  0.34710  0.34846  1.0000
  C   C529      1.0  0.75458  0.04731  0.31704  1.0000
  C   C530      1.0  0.77008  0.05847  0.29751  1.0000
  S   S122      1.0  0.70154  0.02855  0.31806  1.0000
  C   C531      1.0  0.83979  0.07620  0.31347  1.0000
  C   C532      1.0  0.82410  0.06529  0.33303  1.0000
  C   C533      1.0  0.78173  0.05109  0.33486  1.0000
  H   H945      1.0  0.56309  0.32901  0.40133  1.0000
  H   H946      1.0  0.84496  0.06783  0.34690  1.0000
  H   H947      1.0  0.77042  0.04267  0.34998  1.0000
  C   C534      1.0  0.62003  0.08362  0.31240  1.0000
  H   H948      1.0  0.71259  0.04561  0.48814  1.0000
  H   H949      1.0  0.62919  0.17615  0.32544  1.0000
  S   S123      1.0  0.58387  0.00921  0.33915  1.0000
  C   C535      1.0  0.96238  0.07612  0.52984  1.0000
  C   C536      1.0  0.62335  0.04392  0.44810  1.0000
  H   H950      1.0  0.73051  0.02785  0.51247  1.0000
  C   C537      1.0  0.57309  0.33826  0.41697  1.0000
  H   H951      1.0  0.77918  0.04100  0.43858  1.0000
  C   C538      1.0  0.76562  0.14522  0.33220  1.0000
  C   C539      1.0  0.62587  0.06700  0.59111  1.0000
  C   C540      1.0  0.61368  0.03632  0.59301  1.0000
  C   C541      1.0  0.64364  0.01313  0.58654  1.0000
  C   C542      1.0  0.68623  0.02018  0.57831  1.0000
  C   C543      1.0  0.69810  0.05084  0.57602  1.0000
  C   C544      1.0  0.66801  0.07406  0.58231  1.0000
  S   S124      1.0  0.85649  0.46262  0.56758  1.0000
  S   S125      1.0  0.52766  0.06101  0.38553  1.0000
  H   H952      1.0  0.73068  0.05668  0.56968  1.0000
  H   H953      1.0  0.67773  0.09770  0.58066  1.0000
  H   H954      1.0  0.50703  0.38460  0.28839  1.0000
  H   H955      1.0  0.86346  0.22316  0.58020  1.0000
  H   H956      1.0  0.86377  0.01471  0.43916  1.0000
  H   H957      1.0  0.92865  0.16255  0.55519  1.0000
  C   C545      1.0  0.64372  0.10557  0.39646  1.0000
  S   S126      1.0  0.89347  0.09408  0.31221  1.0000
  C   C546      1.0  0.57957  0.04138  0.54001  1.0000
  H   H958      1.0  0.62938  0.43463  0.48000  1.0000
  H   H959      1.0  0.59473  0.04681  0.29294  1.0000
  H   H960      1.0  0.64613  0.11835  0.41156  1.0000
  H   H961      1.0  0.57884  0.43049  0.45495  1.0000
  C   C547      1.0  0.50118  0.38178  0.30558  1.0000
  H   H962      1.0  0.63826  0.07004  0.47586  1.0000
  H   H963      1.0  0.60439  0.00367  0.48119  1.0000
  H   H964      1.0  0.98666  0.09742  0.50142  1.0000
  C   C548      1.0  0.85375  0.13065  0.54797  1.0000
  S   S127      1.0  0.90106  0.98913  0.52021  1.0000
  H   H965      1.0  0.61166  0.06383  0.43877  1.0000
  H   H966      1.0  0.74287  0.07925  0.52822  1.0000
  H   H967      1.0  0.72531  0.09669  0.50364  1.0000
  H   H968      1.0  0.68685  0.39936  0.37641  1.0000
  C   C549      1.0  0.56019  0.19849  0.35331  1.0000
  H   H969      1.0  0.65586  0.09143  0.35620  1.0000
  H   H970      1.0  0.74457  0.39395  0.38408  1.0000
  H   H971      1.0  0.69571  0.10572  0.32609  1.0000
  C   C550      1.0  0.68414  0.12955  0.32888  1.0000
  H   H972      1.0  0.76375  0.16100  0.31853  1.0000
  H   H973      1.0  0.84151  0.22559  0.55441  1.0000
  C   C551      1.0  0.97689  0.33883  0.56791  1.0000
  H   H974      1.0  0.57751  0.06002  0.50879  1.0000
  H   H975      1.0  0.98155  0.19299  0.48969  1.0000
  H   H976      1.0  0.90369  0.01039  0.41813  1.0000
  C   C552      1.0  0.88023  0.26488  0.56304  1.0000
  H   H977      1.0  0.55163  0.06786  0.30653  1.0000
  H   H978      1.0  0.53756  0.41412  0.42392  1.0000
  H   H979      1.0  0.77503  0.07347  0.50445  1.0000
  C   C553      1.0  0.50032  0.09206  0.34960  1.0000
  C   C554      1.0  0.62130  0.16255  0.33983  1.0000
  H   H980      1.0  0.56786  0.44063  0.40727  1.0000
  H   H981      1.0  0.60849  0.45920  0.44095  1.0000
  C   C555      1.0  0.81222  0.07298  0.29575  1.0000
  H   H982      1.0  0.88560  0.21804  0.52390  1.0000
  C   C556      1.0  0.73239  0.00584  0.42941  1.0000
  H   H983      1.0  0.65507  0.00058  0.53572  1.0000
  H   H984      1.0  0.94125  0.17341  0.52073  1.0000
  H   H985      1.0  0.82423  0.00003  0.31324  1.0000
  H   H986      1.0  0.77605  0.12234  0.32651  1.0000
  C   C557      1.0  0.77532  0.00584  0.46224  1.0000
  C   C558      1.0  0.98854  0.31367  0.55518  1.0000
  C   C559      1.0  0.62934  0.02177  0.48504  1.0000
  H   H987      1.0  0.97930  0.43857  0.51405  1.0000
  H   H988      1.0  0.82446  0.12246  0.53873  1.0000
  H   H989      1.0  0.57695  0.20160  0.36882  1.0000
  H   H990      1.0  0.67471  0.09173  0.39458  1.0000
  C   C560      1.0  0.96516  0.30912  0.53630  1.0000
  H   H991      1.0  0.84863  0.30711  0.57286  1.0000
  C   C561      1.0  0.63201  0.11102  0.35676  1.0000
  N   N32       1.0  0.63128  0.02648  0.50865  1.0000
  H   H992      1.0  0.58116  0.03048  0.59942  1.0000
  H   H993      1.0  0.57185  0.11480  0.32518  1.0000
  C   C562      1.0  0.66509  0.05048  0.51491  1.0000
  S   S128      1.0  0.72326  0.98977  0.57154  1.0000
  H   H994      1.0  0.62447  0.06828  0.32612  1.0000
  C   C563      1.0  0.71286  0.04770  0.50556  1.0000
  H   H995      1.0  0.92382  0.20520  0.48940  1.0000
  H   H996      1.0  0.52338  0.20092  0.35567  1.0000
  S   S129      1.0  0.81564  0.02321  0.47870  1.0000
  H   H997      1.0  0.65219  0.07363  0.51097  1.0000
  H   H998      1.0  0.66961  0.05077  0.53234  1.0000
  Fe  Fe65      1.0  0.65871  0.00915  0.34512  1.0000
  H   H999      1.0  0.86355  0.16950  0.52818  1.0000
  H   H1000     1.0  0.66872  0.14271  0.37813  1.0000
  H   H1001     1.0  0.60255  0.05917  0.54616  1.0000
  H   H1002     1.0  0.55779  0.14961  0.35559  1.0000
  H   H1003     1.0  0.52900  0.05441  0.56293  1.0000
  H   H1004     1.0  0.98896  0.45626  0.53929  1.0000
  H   H1005     1.0  0.97946  0.19961  0.56339  1.0000
  H   H1006     1.0  0.96778  0.23169  0.49678  1.0000
  C   C564      1.0  0.55592  0.43609  0.42352  1.0000
  H   H1007     1.0  0.71170  0.16682  0.34867  1.0000
  H   H1008     1.0  0.93424  0.37858  0.57179  1.0000
  C   C565      1.0  0.50001  0.09053  0.37162  1.0000
  Fe  Fe66      1.0  0.79102  0.99129  0.55431  1.0000
  H   H1009     1.0  0.49377  0.46049  0.41770  1.0000
  C   C566      1.0  0.51768  0.38561  0.36373  1.0000
  H   H1010     1.0  0.58630  0.01980  0.54855  1.0000
  N   N33       1.0  0.63290  0.41352  0.43528  1.0000
  C   C567      1.0  0.65550  0.42209  0.41483  1.0000
  C   C568      1.0  0.59503  0.43559  0.43957  1.0000
  C   C569      1.0  0.66728  0.41754  0.45265  1.0000
  C   C570      1.0  0.61610  0.38097  0.43539  1.0000
  C   C571      1.0  0.59984  0.36761  0.41390  1.0000
  C   C572      1.0  0.70013  0.40499  0.41012  1.0000
  C   C573      1.0  0.64998  0.41445  0.47563  1.0000
  H   H1011     1.0  0.68604  0.14128  0.31329  1.0000
  C   C574      1.0  0.63875  0.12790  0.37814  1.0000
  H   H1012     1.0  0.60700  0.13107  0.30554  1.0000
  C   C575      1.0  0.71392  0.40776  0.38699  1.0000
  H   H1013     1.0  0.91219  0.27157  0.57069  1.0000
  H   H1014     1.0  0.66340  0.44689  0.41483  1.0000
  H   H1015     1.0  0.63274  0.41897  0.40116  1.0000
  H   H1016     1.0  0.59362  0.32085  0.42527  1.0000
  H   H1017     1.0  0.84836  0.12469  0.56481  1.0000
  H   H1018     1.0  0.68346  0.44038  0.45142  1.0000
  H   H1019     1.0  0.69490  0.40062  0.45088  1.0000
  H   H1020     1.0  0.64271  0.36511  0.44107  1.0000
  H   H1021     1.0  0.58837  0.37855  0.44705  1.0000
  H   H1022     1.0  0.62900  0.36212  0.40369  1.0000
  H   H1023     1.0  0.92856  0.98446  0.45101  1.0000
  H   H1024     1.0  0.72769  0.41490  0.41977  1.0000
  H   H1025     1.0  0.69757  0.38043  0.41407  1.0000
  H   H1026     1.0  0.62950  0.39352  0.47756  1.0000
  C   C576      1.0  0.98631  0.09831  0.51848  1.0000
  H   H1027     1.0  0.59821  0.10024  0.35775  1.0000
  H   H1028     1.0  0.51235  0.44046  0.31564  1.0000
  H   H1029     1.0  0.58125  0.05642  0.47403  1.0000
  H   H1030     1.0  0.89038  0.17255  0.57526  1.0000
  C   C577      1.0  0.68899  0.41318  0.49129  1.0000
  H   H1031     1.0  0.93076  0.24186  0.53115  1.0000
  H   H1032     1.0  0.96086  0.41999  0.53800  1.0000
  H   H1033     1.0  0.67581  0.41210  0.50767  1.0000
  C   C578      1.0  0.57041  0.16690  0.34432  1.0000
  H   H1034     1.0  0.79173  0.15372  0.34324  1.0000
  H   H1035     1.0  0.72172  0.43185  0.38309  1.0000
  C   C579      1.0  0.91793  0.21816  0.53270  1.0000
  H   H1036     1.0  0.72391  0.01647  0.41454  1.0000
  C   C580      1.0  0.84249  0.28217  0.57415  1.0000
  N   N34       1.0  0.63636  0.12991  0.33688  1.0000
  C   C581      1.0  0.53186  0.05137  0.54556  1.0000
  C   C582      1.0  0.58555  0.03741  0.51578  1.0000
  H   H1037     1.0  0.57148  0.21655  0.34225  1.0000
  N   N35       1.0  0.91061  0.21052  0.55564  1.0000
  C   C583      1.0  0.74054  0.07606  0.51085  1.0000
  H   H1038     1.0  0.88102  0.27292  0.54645  1.0000
  C   C584      1.0  0.60722  0.11618  0.31979  1.0000
  C   C585      1.0  0.94959  0.21684  0.59203  1.0000
  H   H1039     1.0  0.92837  0.23605  0.59757  1.0000
  H   H1040     1.0  0.82712  0.17600  0.55039  1.0000
  C   C586      1.0  0.87243  0.22983  0.56379  1.0000
  C   C587      1.0  0.89895  0.17727  0.55851  1.0000
  C   C588      1.0  0.75540  0.97820  0.46779  1.0000
  H   H1041     1.0  0.60383  0.02357  0.44309  1.0000
  H   H1042     1.0  0.65160  0.08406  0.30311  1.0000
  C   C589      1.0  0.51933  0.35513  0.35665  1.0000
  C   C590      1.0  0.52179  0.46083  0.42923  1.0000
  C   C591      1.0  0.87931  0.99801  0.42822  1.0000
  H   H1043     1.0  0.65935  0.04005  0.44450  1.0000
  H   H1044     1.0  0.71025  0.43390  0.48990  1.0000
  Fe  Fe67      1.0  0.93636  0.11210  0.28475  1.0000
  H   H1045     1.0  0.80961  0.27702  0.56670  1.0000
  H   H1046     1.0  0.97373  0.29003  0.52627  1.0000
  S   S130      1.0  0.97538  0.15619  0.28759  1.0000
  H   H1047     1.0  0.51725  0.07449  0.34065  1.0000
  H   H1048     1.0  0.50148  0.01693  0.31065  1.0000
  C   C592      1.0  0.98569  0.09996  0.56247  1.0000
  H   H1049     1.0  0.53302  0.38620  0.31419  1.0000
  C   C593      1.0  0.64066  0.99649  0.51974  1.0000
  Fe  Fe68      1.0  0.64619  0.98054  0.38844  1.0000
  H   H1050     1.0  0.93483  0.19527  0.59789  1.0000
  H   H1051     1.0  0.50716  0.03387  0.54051  1.0000
  H   H1052     1.0  0.98539  0.19917  0.52820  1.0000
  H   H1053     1.0  0.89709  0.98490  0.29840  1.0000
  H   H1054     1.0  0.70457  0.98333  0.50482  1.0000
  H   H1055     1.0  0.60877  0.98383  0.52251  1.0000
  H   H1056     1.0  0.52371  0.07350  0.53794  1.0000
  C   C594      1.0  0.98782  0.43406  0.53082  1.0000
  Fe  Fe69      1.0  0.52293  0.09574  0.61725  1.0000
  S   S131      1.0  0.55171  0.33994  0.75477  1.0000
  C   C595      1.0  0.68968  0.29472  0.80749  1.0000
  Fe  Fe70      1.0  0.53424  0.34834  0.78866  1.0000
  S   S132      1.0  0.58410  0.35905  0.81554  1.0000
  N   N36       1.0  0.63714  0.02195  0.66234  1.0000
  S   S133      1.0  0.50975  0.40338  0.72089  1.0000
  S   S134      1.0  0.52056  0.09657  0.65280  1.0000
  H   H1057     1.0  0.60078  0.40159  0.73482  1.0000
  C   C596      1.0  0.73769  0.05644  0.63039  1.0000
  H   H1058     1.0  0.54826  0.41741  0.80244  1.0000
  S   S135      1.0  0.79292  0.44264  0.88040  1.0000
  H   H1059     1.0  0.73157  0.99278  0.71969  1.0000
  Fe  Fe71      1.0  0.87206  0.00832  0.85499  1.0000
  H   H1060     1.0  0.74076  0.98439  0.90957  1.0000
  S   S136      1.0  0.89633  0.05696  0.84650  1.0000
  Fe  Fe72      1.0  0.86750  0.43630  0.87700  1.0000
  S   S137      1.0  0.90126  0.39332  0.88924  1.0000
  H   H1061     1.0  0.69040  0.27585  0.81917  1.0000
  H   H1062     1.0  0.51572  0.25306  0.62450  1.0000
  H   H1063     1.0  0.95958  0.34434  0.90126  1.0000
  S   S138      1.0  0.80162  0.99843  0.86657  1.0000
  C   C597      1.0  0.94064  0.08249  0.85397  1.0000
  H   H1064     1.0  0.70934  0.06517  0.66077  1.0000
  C   C598      1.0  0.94543  0.11031  0.84306  1.0000
  C   C599      1.0  0.62629  0.41974  0.73693  1.0000
  H   H1065     1.0  0.71800  0.07469  0.62251  1.0000
  C   C600      1.0  0.93344  0.36755  0.87393  1.0000
  C   C601      1.0  0.93351  0.36863  0.85190  1.0000
  C   C602      1.0  0.58596  0.31184  0.70318  1.0000
  H   H1066     1.0  0.91351  0.38559  0.84391  1.0000
  H   H1067     1.0  0.95890  0.34836  0.82318  1.0000
  C   C603      1.0  0.71329  0.04528  0.65015  1.0000
  C   C604      1.0  0.98745  0.43425  0.91523  1.0000
  H   H1068     1.0  0.59224  0.29390  0.71519  1.0000
  C   C605      1.0  0.98010  0.13116  0.84812  1.0000
  C   C606      1.0  0.58593  0.04658  0.69073  1.0000
  C   C607      1.0  0.69705  0.98157  0.93684  1.0000
  C   C608      1.0  0.63160  0.38384  0.81675  1.0000
  C   C609      1.0  0.65284  0.39482  0.79862  1.0000
  C   C610      1.0  0.68908  0.41544  0.80028  1.0000
  C   C611      1.0  0.70538  0.42489  0.82011  1.0000
  C   C612      1.0  0.68546  0.41284  0.83828  1.0000
  C   C613      1.0  0.64876  0.39256  0.83658  1.0000
  H   H1069     1.0  0.64138  0.38724  0.78331  1.0000
  H   H1070     1.0  0.70462  0.42415  0.78609  1.0000
  H   H1071     1.0  0.69762  0.41968  0.85366  1.0000
  H   H1072     1.0  0.63309  0.38393  0.85076  1.0000
  H   H1073     1.0  0.95501  0.44601  0.91257  1.0000
  H   H1074     1.0  0.53819  0.29078  0.65134  1.0000
  H   H1075     1.0  0.92052  0.02835  0.77499  1.0000
  H   H1076     1.0  0.93877  0.43735  0.80303  1.0000
  H   H1077     1.0  0.50968  0.41542  0.83637  1.0000
  H   H1078     1.0  0.96783  0.05489  0.87891  1.0000
  H   H1079     1.0  0.57917  0.09519  0.69736  1.0000
  C   C614      1.0  0.96513  0.45186  0.81024  1.0000
  C   C615      1.0  0.60104  0.97953  0.63901  1.0000
  H   H1080     1.0  0.54335  0.43305  0.75917  1.0000
  H   H1081     1.0  0.61484  0.98330  0.88039  1.0000
  C   C616      1.0  0.52870  0.46384  0.79341  1.0000
  H   H1082     1.0  0.90410  0.02854  0.80231  1.0000
  C   C617      1.0  0.67145  0.99026  0.86012  1.0000
  H   H1083     1.0  0.56942  0.44608  0.82006  1.0000
  C   C618      1.0  0.68705  0.01001  0.69533  1.0000
  S   S139      1.0  0.87126  0.45626  0.84459  1.0000
  Fe  Fe73      1.0  0.79692  0.46496  0.84858  1.0000
  C   C619      1.0  0.98540  0.32437  0.87258  1.0000
  H   H1084     1.0  0.54176  0.45051  0.69354  1.0000
  H   H1085     1.0  0.58999  0.02524  0.69992  1.0000
  H   H1086     1.0  0.77095  0.06589  0.63480  1.0000
  H   H1087     1.0  0.55255  0.33575  0.66729  1.0000
  C   C620      1.0  0.66955  0.02489  0.86266  1.0000
  H   H1088     1.0  0.72002  0.46244  0.91378  1.0000
  H   H1089     1.0  0.55313  0.19796  0.72371  1.0000
  C   C621      1.0  0.52511  0.20630  0.71450  1.0000
  H   H1090     1.0  0.59289  0.33443  0.71044  1.0000
  H   H1091     1.0  0.50975  0.47198  0.74240  1.0000
  N   N37       1.0  0.56583  0.47153  0.77814  1.0000
  H   H1092     1.0  0.83890  0.40667  0.93591  1.0000
  H   H1093     1.0  0.61560  0.07480  0.71543  1.0000
  H   H1094     1.0  0.57138  0.00174  0.66546  1.0000
  H   H1095     1.0  0.58377  0.45875  0.73182  1.0000
  C   C622      1.0  0.95917  0.34751  0.84024  1.0000
  C   C623      1.0  0.92688  0.01771  0.79060  1.0000
  C   C624      1.0  0.52647  0.33590  0.67986  1.0000
  C   C625      1.0  0.98674  0.43491  0.82870  1.0000
  H   H1096     1.0  0.68603  0.03582  0.84888  1.0000
  H   H1097     1.0  0.63422  0.03291  0.86345  1.0000
  H   H1098     1.0  0.68768  0.03206  0.87716  1.0000
  N   N38       1.0  0.79252  0.34066  0.82962  1.0000
  C   C626      1.0  0.74732  0.32518  0.82809  1.0000
  C   C627      1.0  0.79651  0.35725  0.85053  1.0000
  C   C628      1.0  0.79495  0.36379  0.81198  1.0000
  C   C629      1.0  0.83089  0.31854  0.82662  1.0000
  C   C630      1.0  0.83581  0.29293  0.84319  1.0000
  C   C631      1.0  0.73519  0.31072  0.80647  1.0000
  C   C632      1.0  0.83393  0.38718  0.81299  1.0000
  C   C633      1.0  0.77354  0.34211  0.86997  1.0000
  C   C634      1.0  0.79202  0.35434  0.89078  1.0000
  C   C635      1.0  0.87404  0.27120  0.83732  1.0000
  C   C636      1.0  0.57509  0.44387  0.76460  1.0000
  C   C637      1.0  0.83489  0.40700  0.79316  1.0000
  H   H1099     1.0  0.72030  0.34200  0.83184  1.0000
  H   H1100     1.0  0.74388  0.30683  0.83997  1.0000
  H   H1101     1.0  0.83250  0.36155  0.85434  1.0000
  H   H1102     1.0  0.78068  0.38028  0.84951  1.0000
  H   H1103     1.0  0.76327  0.37723  0.81132  1.0000
  H   H1104     1.0  0.79801  0.35211  0.79644  1.0000
  H   H1105     1.0  0.82946  0.30789  0.81071  1.0000
  H   H1106     1.0  0.86345  0.33080  0.82700  1.0000
  H   H1107     1.0  0.80472  0.27922  0.84452  1.0000
  H   H1108     1.0  0.84455  0.30288  0.85877  1.0000
  H   H1109     1.0  0.73242  0.32843  0.79404  1.0000
  H   H1110     1.0  0.76062  0.29361  0.80164  1.0000
  H   H1111     1.0  0.86702  0.37587  0.81415  1.0000
  H   H1112     1.0  0.82974  0.40250  0.82676  1.0000
  H   H1113     1.0  0.73689  0.34694  0.86953  1.0000
  H   H1114     1.0  0.77763  0.31708  0.87034  1.0000
  H   H1115     1.0  0.77329  0.34418  0.90418  1.0000
  H   H1116     1.0  0.82800  0.34816  0.89247  1.0000
  H   H1117     1.0  0.78840  0.37945  0.89163  1.0000
  H   H1118     1.0  0.87745  0.25329  0.84960  1.0000
  H   H1119     1.0  0.86728  0.25990  0.82195  1.0000
  H   H1120     1.0  0.90644  0.28369  0.83634  1.0000
  H   H1121     1.0  0.52510  0.16746  0.69332  1.0000
  C   C638      1.0  0.95947  0.34536  0.88420  1.0000
  H   H1122     1.0  0.80168  0.41776  0.79034  1.0000
  H   H1123     1.0  0.86001  0.42546  0.79512  1.0000
  H   H1124     1.0  0.84417  0.39311  0.77916  1.0000
  C   C639      1.0  0.65872  0.99825  0.67640  1.0000
  H   H1125     1.0  0.66020  0.43875  0.93560  1.0000
  H   H1126     1.0  0.66746  0.98197  0.89350  1.0000
  H   H1127     1.0  0.92205  0.11584  0.83058  1.0000
  S   S140      1.0  0.52386  0.25391  0.74278  1.0000
  H   H1128     1.0  0.55556  0.07042  0.71712  1.0000
  H   H1129     1.0  0.63270  0.98315  0.68350  1.0000
  H   H1130     1.0  0.57707  0.02609  0.64315  1.0000
  C   C640      1.0  0.53728  0.30998  0.69573  1.0000
  H   H1131     1.0  0.65196  0.41170  0.74834  1.0000
  C   C641      1.0  0.50638  0.45465  0.69606  1.0000
  H   H1132     1.0  0.55292  0.04554  0.68268  1.0000
  C   C642      1.0  0.68180  0.45597  0.94242  1.0000
  H   H1133     1.0  0.64979  0.04669  0.63353  1.0000
  H   H1134     1.0  0.96031  0.42927  0.84030  1.0000
  H   H1135     1.0  0.64295  0.42378  0.72151  1.0000
  C   C643      1.0  0.50471  0.23414  0.72004  1.0000
  H   H1136     1.0  0.98716  0.42064  0.87497  1.0000
  H   H1137     1.0  0.68129  0.28501  0.79178  1.0000
  H   H1138     1.0  0.53206  0.35760  0.68858  1.0000
  C   C644      1.0  0.54030  0.43937  0.81022  1.0000
  H   H1139     1.0  0.66501  0.02039  0.70749  1.0000
  H   H1140     1.0  0.65437  0.98436  0.84512  1.0000
  C   C645      1.0  0.97124  0.07586  0.87011  1.0000
  H   H1141     1.0  0.61205  0.06828  0.66276  1.0000
  C   C646      1.0  0.66770  0.03070  0.64432  1.0000
  H   H1142     1.0  0.73528  0.02802  0.65770  1.0000
  H   H1143     1.0  0.53261  0.28711  0.68861  1.0000
  C   C647      1.0  0.71569  0.46929  0.93006  1.0000
  H   H1144     1.0  0.99150  0.22169  0.61984  1.0000
  H   H1145     1.0  0.59136  0.42586  0.77418  1.0000
  C   C648      1.0  0.58415  0.07347  0.70607  1.0000
  H   H1146     1.0  0.65300  0.06104  0.68211  1.0000
  H   H1147     1.0  0.66283  0.31117  0.81191  1.0000
  H   H1148     1.0  0.51363  0.39739  0.66904  1.0000
  C   C649      1.0  0.62379  0.05054  0.67411  1.0000
  C   C650      1.0  0.50927  0.18893  0.69729  1.0000
  H   H1149     1.0  0.60930  0.30812  0.68976  1.0000
  C   C651      1.0  0.98518  0.32525  0.85052  1.0000
  C   C652      1.0  0.59501  0.00858  0.65279  1.0000
  S   S141      1.0  0.74987  0.45210  0.82116  1.0000
  H   H1150     1.0  0.51555  0.31174  0.70988  1.0000
  H   H1151     1.0  0.96246  0.01903  0.83039  1.0000
  C   C653      1.0  0.60472  0.44931  0.74477  1.0000
  H   H1152     1.0  0.66998  0.99419  0.92960  1.0000
  H   H1153     1.0  0.71174  0.02750  0.69063  1.0000
  H   H1154     1.0  0.67678  0.01048  0.63466  1.0000
  H   H1155     1.0  0.74304  0.03736  0.61909  1.0000
  H   H1156     1.0  0.63226  0.46564  0.74779  1.0000
  H   H1157     1.0  0.98256  0.40925  0.91352  1.0000
  H   H1158     1.0  0.98215  0.46056  0.87369  1.0000
  H   H1159     1.0  0.49896  0.45498  0.78471  1.0000
  H   H1160     1.0  0.62327  0.45926  0.79733  1.0000
  H   H1161     1.0  0.53724  0.98512  0.62253  1.0000
  H   H1162     1.0  0.70730  0.98401  0.85884  1.0000
  Fe  Fe74      1.0  0.50315  0.30066  0.75550  1.0000
  H   H1163     1.0  0.84840  0.44546  0.94416  1.0000
  H   H1164     1.0  0.99059  0.45719  0.79799  1.0000
  H   H1165     1.0  0.79182  0.43123  0.94125  1.0000
  H   H1166     1.0  0.97558  0.98393  0.81797  1.0000
  H   H1167     1.0  0.62078  0.98438  0.62468  1.0000
  C   C654      1.0  0.82640  0.42526  0.94630  1.0000
  H   H1168     1.0  0.98185  0.04747  0.79693  1.0000
  C   C655      1.0  0.50422  0.29276  0.64434  1.0000
  H   H1169     1.0  0.50613  0.30807  0.63045  1.0000
  C   C656      1.0  0.50088  0.43394  0.82515  1.0000
  H   H1170     1.0  0.98321  0.15229  0.83946  1.0000
  H   H1171     1.0  0.91912  0.99300  0.78943  1.0000
  C   C657      1.0  0.97583  0.02250  0.79691  1.0000
  H   H1172     1.0  0.50452  0.41170  0.63124  1.0000
  H   H1173     1.0  0.50541  0.35639  0.64191  1.0000
  H   H1174     1.0  0.68022  0.98276  0.66677  1.0000
  C   C658      1.0  0.71254  0.98391  0.70591  1.0000
  C   C659      1.0  0.98589  0.00831  0.81890  1.0000
  H   H1175     1.0  0.94936  0.47346  0.81570  1.0000
  H   H1176     1.0  0.79418  0.93706  0.96317  1.0000
  S   S142      1.0  0.64889  0.50620  0.02686  1.0000
  C   C660      1.0  0.57853  0.60201  0.98160  1.0000
  Fe  Fe75      1.0  0.56446  0.96462  0.04042  1.0000
  H   H1177     1.0  0.53410  0.70947  0.09316  1.0000
  S   S143      1.0  0.95984  0.51729  0.23876  1.0000
  Fe  Fe76      1.0  0.57946  0.51671  0.03946  1.0000
  S   S144      1.0  0.55993  0.56790  0.03806  1.0000
  N   N39       1.0  0.86426  0.53339  0.18475  1.0000
  H   H1178     1.0  0.80944  0.50350  0.05126  1.0000
  H   H1179     1.0  0.83518  0.59595  0.17264  1.0000
  S   S145      1.0  0.63170  0.94526  0.03151  1.0000
  H   H1180     1.0  0.65717  0.92520  0.10973  1.0000
  C   C661      1.0  0.60512  0.54972  0.97835  1.0000
  H   H1181     1.0  0.97941  0.97067  0.25387  1.0000
  S   S146      1.0  0.91316  0.60056  0.24258  1.0000
  C   C662      1.0  0.80998  0.57951  0.17869  1.0000
  Fe  Fe77      1.0  0.96906  0.56720  0.24882  1.0000
  S   S147      1.0  0.92676  0.88263  0.15950  1.0000
  H   H1182     1.0  0.50438  0.69382  0.07090  1.0000
  S   S148      1.0  0.93533  0.80489  0.18698  1.0000
  Fe  Fe78      1.0  0.92894  0.87824  0.12397  1.0000
  S   S149      1.0  0.87484  0.88675  0.09855  1.0000
  H   H1183     1.0  0.76757  0.51701  0.03288  1.0000
  C   C663      1.0  0.94709  0.76595  0.19271  1.0000
  H   H1184     1.0  0.85436  0.95098  0.24311  1.0000
  H   H1185     1.0  0.91001  0.76714  0.22191  1.0000
  H   H1186     1.0  0.75628  0.61168  0.17237  1.0000
  H   H1187     1.0  0.91922  0.50263  0.17776  1.0000
  H   H1188     1.0  0.79441  0.53130  0.17552  1.0000
  C   C664      1.0  0.82695  0.53706  0.22187  1.0000
  C   C665      1.0  0.92455  0.57126  0.17136  1.0000
  C   C666      1.0  0.63433  0.90655  0.10434  1.0000
  C   C667      1.0  0.72746  0.95543  0.96719  1.0000
  H   H1189     1.0  0.61550  0.93776  0.07886  1.0000
  H   H1190     1.0  0.54882  0.67908  0.98642  1.0000
  N   N40       1.0  0.61987  0.58267  0.97789  1.0000
  H   H1191     1.0  0.54876  0.63296  0.03731  1.0000
  C   C668      1.0  0.56575  0.54176  0.96323  1.0000
  C   C669      1.0  0.52759  0.87938  0.04149  1.0000
  C   C670      1.0  0.52015  0.84766  0.04093  1.0000
  H   H1192     1.0  0.55935  0.88869  0.03634  1.0000
  H   H1193     1.0  0.54650  0.83266  0.03542  1.0000
  C   C671      1.0  0.75860  0.95361  0.08338  1.0000
  C   C672      1.0  0.78143  0.95555  0.10282  1.0000
  C   C673      1.0  0.81789  0.93601  0.10754  1.0000
  C   C674      1.0  0.83159  0.91385  0.09298  1.0000
  C   C675      1.0  0.80918  0.91224  0.07342  1.0000
  C   C676      1.0  0.77334  0.93216  0.06854  1.0000
  H   H1194     1.0  0.90555  0.94623  0.25654  1.0000
  H   H1195     1.0  0.83471  0.93764  0.12261  1.0000
  H   H1196     1.0  0.81968  0.89541  0.06194  1.0000
  H   H1197     1.0  0.75678  0.93065  0.05340  1.0000
  H   H1198     1.0  0.66061  0.61285  0.99712  1.0000
  C   C677      1.0  0.92985  0.75312  0.21139  1.0000
  H   H1199     1.0  0.69323  0.54682  0.99316  1.0000
  H   H1200     1.0  0.68501  0.89134  0.13696  1.0000
  C   C678      1.0  0.70686  0.87478  0.12859  1.0000
  H   H1201     1.0  0.71796  0.58075  0.98193  1.0000
  Fe  Fe79      1.0  0.91690  0.61137  0.27727  1.0000
  H   H1202     1.0  0.82450  0.48641  0.16120  1.0000
  H   H1203     1.0  0.49951  0.92151  0.96601  1.0000
  C   C679      1.0  0.82165  0.51933  0.24248  1.0000
  C   C680      1.0  0.58640  0.63665  0.98497  1.0000
  H   H1204     1.0  0.89679  0.90882  0.21990  1.0000
  C   C681      1.0  0.56881  0.94386  0.10417  1.0000
  H   H1205     1.0  0.63345  0.53401  0.97505  1.0000
  H   H1206     1.0  0.51561  0.81790  0.97285  1.0000
  C   C682      1.0  0.92649  0.92408  0.21945  1.0000
  C   C683      1.0  0.69200  0.97106  0.95762  1.0000
  H   H1207     1.0  0.69128  0.55449  0.95495  1.0000
  C   C684      1.0  0.97247  0.74750  0.17920  1.0000
  C   C685      1.0  0.69745  0.57167  0.99512  1.0000
  C   C686      1.0  0.94945  0.60022  0.17783  1.0000
  H   H1208     1.0  0.50862  0.56469  0.08361  1.0000
  C   C687      1.0  0.88685  0.51004  0.17071  1.0000
  H   H1209     1.0  0.90150  0.57685  0.15817  1.0000
  H   H1210     1.0  0.60203  0.79602  0.08170  1.0000
  H   H1211     1.0  0.92450  0.71284  0.23101  1.0000
  H   H1212     1.0  0.68410  0.91109  0.06925  1.0000
  C   C688      1.0  0.59850  0.92314  0.09070  1.0000
  C   C689      1.0  0.56264  0.50758  0.95903  1.0000
  H   H1213     1.0  0.55960  0.59357  0.99560  1.0000
  C   C690      1.0  0.65174  0.58832  0.99601  1.0000
  H   H1214     1.0  0.76584  0.90201  0.13612  1.0000
  Fe  Fe80      1.0  0.95980  0.83607  0.16034  1.0000
  H   H1215     1.0  0.84632  0.55783  0.22564  1.0000
  C   C691      1.0  0.76712  0.94958  0.95578  1.0000
  H   H1216     1.0  0.80209  0.49811  0.23991  1.0000
  H   H1217     1.0  0.54387  0.95551  0.09393  1.0000
  S   S150      1.0  0.59216  0.48885  0.06892  1.0000
  H   H1218     1.0  0.50552  0.65840  0.10160  1.0000
  H   H1219     1.0  0.82999  0.54625  0.15580  1.0000
  H   H1220     1.0  0.82302  0.53368  0.03312  1.0000
  H   H1221     1.0  0.61102  0.64576  0.97346  1.0000
  H   H1222     1.0  0.69942  0.49377  0.98843  1.0000
  S   S151      1.0  0.63932  0.97525  0.97017  1.0000
  H   H1223     1.0  0.63517  0.58243  0.01124  1.0000
  H   H1224     1.0  0.58942  0.96152  0.11218  1.0000
  S   S152      1.0  0.50086  0.93901  0.04937  1.0000
  H   H1225     1.0  0.95002  0.55475  0.16549  1.0000
  H   H1226     1.0  0.80363  0.53364  0.25423  1.0000
  H   H1227     1.0  0.55522  0.59991  0.96800  1.0000
  C   C692      1.0  0.80390  0.51214  0.03499  1.0000
  S   S153      1.0  0.97498  0.66488  0.20873  1.0000
  C   C693      1.0  0.51055  0.59124  0.03755  1.0000
  H   H1228     1.0  0.75774  0.56600  0.01383  1.0000
  H   H1229     1.0  0.76671  0.58512  0.15118  1.0000
  H   H1230     1.0  0.57279  0.80750  0.10553  1.0000
  H   H1231     1.0  0.79280  0.54364  0.21656  1.0000
  H   H1232     1.0  0.96923  0.60904  0.16431  1.0000
  H   H1233     1.0  0.70670  0.56670  0.02911  1.0000
  C   C694      1.0  0.85002  0.51733  0.20474  1.0000
  H   H1234     1.0  0.97282  0.59546  0.19110  1.0000
  C   C695      1.0  0.76494  0.58763  0.16861  1.0000
  H   H1235     1.0  0.53350  0.54903  0.97049  1.0000
  H   H1236     1.0  0.87958  0.50592  0.21206  1.0000
  H   H1237     1.0  0.85509  0.51343  0.24912  1.0000
  C   C696      1.0  0.51541  0.62323  0.03720  1.0000
  H   H1238     1.0  0.85548  0.48338  0.02258  1.0000
  H   H1239     1.0  0.54269  0.76786  0.98599  1.0000
  N   N41       1.0  0.66106  0.88119  0.09394  1.0000
  C   C697      1.0  0.66826  0.88822  0.07087  1.0000
  C   C698      1.0  0.70667  0.88008  0.10437  1.0000
  C   C699      1.0  0.63878  0.85068  0.09725  1.0000
  C   C700      1.0  0.59409  0.84523  0.08542  1.0000
  C   C701      1.0  0.69743  0.86520  0.05827  1.0000
  C   C702      1.0  0.89878  0.55730  0.19028  1.0000
  C   C703      1.0  0.57768  0.81251  0.08851  1.0000
  C   C704      1.0  0.69663  0.87238  0.03467  1.0000
  H   H1240     1.0  0.55029  0.93034  0.11613  1.0000
  H   H1241     1.0  0.63589  0.89020  0.06237  1.0000
  H   H1242     1.0  0.61753  0.89806  0.11888  1.0000
  H   H1243     1.0  0.72514  0.90161  0.10123  1.0000
  H   H1244     1.0  0.72773  0.86154  0.09761  1.0000
  H   H1245     1.0  0.66227  0.83184  0.09310  1.0000
  H   H1246     1.0  0.63112  0.84725  0.11426  1.0000
  H   H1247     1.0  0.59783  0.84884  0.06824  1.0000
  H   H1248     1.0  0.56757  0.86044  0.09172  1.0000
  H   H1249     1.0  0.73301  0.86637  0.06340  1.0000
  H   H1250     1.0  0.68517  0.84154  0.06028  1.0000
  H   H1251     1.0  0.69520  0.85137  0.13231  1.0000
  C   C705      1.0  0.82000  0.48865  0.01886  1.0000
  H   H1252     1.0  0.57639  0.90722  0.08207  1.0000
  H   H1253     1.0  0.54499  0.80946  0.08034  1.0000
  H   H1254     1.0  0.80694  0.58328  0.19588  1.0000
  C   C706      1.0  0.72427  0.57690  0.01536  1.0000
  H   H1255     1.0  0.66195  0.87062  0.02834  1.0000
  H   H1256     1.0  0.70963  0.89573  0.03170  1.0000
  H   H1257     1.0  0.71830  0.85591  0.02607  1.0000
  H   H1258     1.0  0.54118  0.89176  0.96978  1.0000
  H   H1259     1.0  0.73794  0.57271  0.17486  1.0000
  H   H1260     1.0  0.92527  0.61817  0.18277  1.0000
  H   H1261     1.0  0.77821  0.86285  0.12926  1.0000
  Fe  Fe81      1.0  0.96737  0.63591  0.23851  1.0000
  H   H1262     1.0  0.72395  0.94720  0.98319  1.0000
  H   H1263     1.0  0.94306  0.97160  0.22256  1.0000
  H   H1264     1.0  0.89578  0.52034  0.15522  1.0000
  S   S154      1.0  0.96727  0.64988  0.27278  1.0000
  H   H1265     1.0  0.92450  0.54760  0.20108  1.0000
  S   S155      1.0  0.95706  0.83024  0.12498  1.0000
  C   C707      1.0  0.73716  0.50070  0.95978  1.0000
  C   C708      1.0  0.93798  0.72230  0.21660  1.0000
  H   H1266     1.0  0.75420  0.87197  0.15462  1.0000
  H   H1267     1.0  0.59914  0.64084  0.00120  1.0000
  H   H1268     1.0  0.75865  0.51800  0.96656  1.0000
  H   H1269     1.0  0.82557  0.49890  0.20123  1.0000
  C   C709      1.0  0.75420  0.87808  0.13762  1.0000
  C   C710      1.0  0.88846  0.96110  0.24492  1.0000
  C   C711      1.0  0.70351  0.48721  0.97215  1.0000
  H   H1270     1.0  0.55840  0.49493  0.97406  1.0000
  C   C712      1.0  0.82413  0.54632  0.17317  1.0000
  H   H1271     1.0  0.81862  0.49946  0.00303  1.0000
  H   H1272     1.0  0.88382  0.57627  0.19945  1.0000
  C   C713      1.0  0.51399  0.90509  0.97747  1.0000
  H   H1273     1.0  0.52391  0.58626  0.10668  1.0000
  C   C714      1.0  0.64086  0.59172  0.95705  1.0000
  H   H1274     1.0  0.59394  0.54335  0.99455  1.0000
  H   H1275     1.0  0.72930  0.60165  0.01825  1.0000
  H   H1276     1.0  0.52897  0.91830  0.99070  1.0000
  C   C715      1.0  0.85948  0.48077  0.16577  1.0000
  C   C716      1.0  0.91267  0.95717  0.22339  1.0000
  C   C717      1.0  0.54270  0.65469  0.98264  1.0000
  S   S156      1.0  0.72694  0.47741  0.07172  1.0000
  C   C718      1.0  0.51438  0.77978  0.99387  1.0000
  C   C719      1.0  0.49377  0.89896  0.04864  1.0000
  C   C720      1.0  0.96318  0.70384  0.20304  1.0000
  H   H1277     1.0  0.98563  0.75695  0.16471  1.0000
  H   H1278     1.0  0.95138  0.91652  0.23140  1.0000
  C   C721      1.0  0.98006  0.71659  0.18426  1.0000
  H   H1279     1.0  0.95411  0.96997  0.27939  1.0000
  H   H1280     1.0  0.52810  0.79324  0.00725  1.0000
  H   H1281     1.0  0.94229  0.92209  0.20362  1.0000
  C   C722      1.0  0.97733  0.49814  0.21547  1.0000
  H   H1282     1.0  0.88998  0.96407  0.21031  1.0000
  C   C723      1.0  0.50055  0.70243  0.08729  1.0000
  S   S157      1.0  0.97033  0.57658  0.28381  1.0000
  H   H1283     1.0  0.51678  0.64588  0.99364  1.0000
  H   H1284     1.0  0.77050  0.97206  0.11443  1.0000
  H   H1285     1.0  0.52992  0.65311  0.96621  1.0000
  H   H1286     1.0  0.66394  0.61140  0.95941  1.0000
  C   C724      1.0  0.49524  0.57605  0.09799  1.0000
  H   H1287     1.0  0.49370  0.86919  0.99796  1.0000
  H   H1288     1.0  0.50071  0.48446  0.28253  1.0000
  S   S158      1.0  0.54753  0.47762  0.02179  1.0000
  H   H1289     1.0  0.59333  0.49935  0.95085  1.0000
  H   H1290     1.0  0.95293  0.97620  0.16707  1.0000
  H   H1291     1.0  0.83956  0.96223  0.32152  1.0000
  H   H1292     1.0  0.77291  0.53893  0.49818  1.0000
  C   C725      1.0  0.86600  0.60580  0.47630  1.0000
  H   H1293     1.0  0.73111  0.58113  0.59403  1.0000
  S   S159      1.0  0.65769  0.96008  0.35615  1.0000
  C   C726      1.0  0.61931  0.71480  0.34189  1.0000
  Fe  Fe82      1.0  0.55692  0.52903  0.35325  1.0000
  H   H1294     1.0  0.74260  0.88478  0.47865  1.0000
  H   H1295     1.0  0.77460  0.61705  0.32401  1.0000
  Fe  Fe83      1.0  0.58221  0.96169  0.35297  1.0000
  S   S160      1.0  0.53649  0.92661  0.33656  1.0000
  H   H1296     1.0  0.52025  0.65570  0.35574  1.0000
  H   H1297     1.0  0.74060  0.56406  0.48203  1.0000
  H   H1298     1.0  0.63930  0.51791  0.47032  1.0000
  S   S161      1.0  0.62269  0.54680  0.36557  1.0000
  H   H1299     1.0  0.88973  0.60236  0.46293  1.0000
  S   S162      1.0  0.80915  0.51411  0.53589  1.0000
  H   H1300     1.0  0.93087  0.72086  0.52667  1.0000
  Fe  Fe84      1.0  0.86784  0.94938  0.53654  1.0000
  N   N42       1.0  0.93066  0.78823  0.58602  1.0000
  S   S163      1.0  0.88582  0.89878  0.53033  1.0000
  Fe  Fe85      1.0  0.87859  0.49697  0.54314  1.0000
  S   S164      1.0  0.94411  0.52402  0.54345  1.0000
  S   S165      1.0  0.73255  0.48398  0.58486  1.0000
  C   C727      1.0  0.70749  0.49970  0.42920  1.0000
  H   H1301     1.0  0.78767  0.60847  0.49346  1.0000
  S   S166      1.0  0.58895  0.49269  0.33299  1.0000
  C   C728      1.0  0.66893  0.51016  0.46200  1.0000
  C   C729      1.0  0.94983  0.56426  0.54388  1.0000
  C   C730      1.0  0.92237  0.61517  0.55218  1.0000
  C   C731      1.0  0.91507  0.58348  0.55052  1.0000
  H   H1302     1.0  0.89563  0.62981  0.55775  1.0000
  H   H1303     1.0  0.88303  0.57383  0.55494  1.0000
  C   C732      1.0  0.93405  0.87477  0.53354  1.0000
  S   S167      1.0  0.71704  0.51079  0.32596  1.0000
  C   C733      1.0  0.93274  0.84481  0.52546  1.0000
  H   H1304     1.0  0.58599  0.72597  0.34053  1.0000
  H   H1305     1.0  0.90280  0.83698  0.51749  1.0000
  C   C734      1.0  0.49631  0.87847  0.35981  1.0000
  H   H1306     1.0  0.59207  0.56999  0.31893  1.0000
  C   C735      1.0  0.96996  0.82492  0.52735  1.0000
  C   C736      1.0  0.67916  0.94480  0.52180  1.0000
  C   C737      1.0  0.97324  0.88448  0.54369  1.0000
  H   H1307     1.0  0.70082  0.92846  0.51312  1.0000
  H   H1308     1.0  0.63405  0.57233  0.56870  1.0000
  H   H1309     1.0  0.70247  0.55320  0.51566  1.0000
  H   H1310     1.0  0.87217  0.95100  0.28691  1.0000
  H   H1311     1.0  0.97505  0.90739  0.54997  1.0000
  C   C738      1.0  0.75449  0.54076  0.31853  1.0000
  C   C739      1.0  0.79125  0.53381  0.30538  1.0000
  H   H1312     1.0  0.92801  0.90492  0.43459  1.0000
  C   C740      1.0  0.81621  0.58678  0.30564  1.0000
  C   C741      1.0  0.77935  0.59380  0.31875  1.0000
  C   C742      1.0  0.74875  0.57099  0.32521  1.0000
  H   H1313     1.0  0.86169  0.82734  0.56726  1.0000
  H   H1314     1.0  0.90542  0.75783  0.52349  1.0000
  H   H1315     1.0  0.72088  0.57674  0.33537  1.0000
  C   C743      1.0  0.95588  0.89616  0.47806  1.0000
  H   H1316     1.0  0.90143  0.66309  0.48584  1.0000
  H   H1317     1.0  0.99027  0.75959  0.58530  1.0000
  H   H1318     1.0  0.82558  0.90762  0.42700  1.0000
  C   C744      1.0  0.54239  0.67293  0.34818  1.0000
  C   C745      1.0  0.82193  0.55656  0.29902  1.0000
  H   H1319     1.0  0.70611  0.50052  0.49058  1.0000
  C   C746      1.0  0.80154  0.58510  0.49563  1.0000
  H   H1320     1.0  0.96336  0.88179  0.46407  1.0000
  C   C747      1.0  0.67158  0.97324  0.50835  1.0000
  C   C748      1.0  0.61024  0.54777  0.59593  1.0000
  C   C749      1.0  0.91536  0.73779  0.60617  1.0000
  H   H1321     1.0  0.92659  0.94014  0.48615  1.0000
  C   C750      1.0  0.68500  0.50852  0.58820  1.0000
  C   C751      1.0  0.67653  0.53335  0.57492  1.0000
  C   C752      1.0  0.63967  0.55292  0.57887  1.0000
  H   H1322     1.0  0.65279  0.75810  0.33677  1.0000
  C   C753      1.0  0.86412  0.55113  0.48663  1.0000
  H   H1323     1.0  0.69876  0.53775  0.56179  1.0000
  C   C754      1.0  0.73019  0.57010  0.51510  1.0000
  N   N43       1.0  0.58817  0.65955  0.34393  1.0000
  C   C755      1.0  0.58277  0.63174  0.33011  1.0000
  H   H1324     1.0  0.84872  0.82144  0.59467  1.0000
  H   H1325     1.0  0.90111  0.87949  0.40021  1.0000
  C   C756      1.0  0.60971  0.65158  0.36478  1.0000
  C   C757      1.0  0.58530  0.62699  0.37808  1.0000
  H   H1326     1.0  0.95587  0.93859  0.46172  1.0000
  C   C758      1.0  0.99131  0.57717  0.53825  1.0000
  C   C759      1.0  0.74536  0.49024  0.44068  1.0000
  H   H1327     1.0  0.68741  0.72525  0.33145  1.0000
  H   H1328     1.0  0.53754  0.69728  0.31746  1.0000
  C   C760      1.0  0.87241  0.83256  0.58364  1.0000
  H   H1329     1.0  0.65251  0.62678  0.31879  1.0000
  C   C761      1.0  0.92240  0.64355  0.49105  1.0000
  H   H1330     1.0  0.55645  0.61632  0.33645  1.0000
  H   H1331     1.0  0.87050  0.77550  0.60290  1.0000
  C   C762      1.0  0.91122  0.73891  0.53482  1.0000
  N   N44       1.0  0.83680  0.57808  0.47918  1.0000
  H   H1332     1.0  0.94324  0.83481  0.57635  1.0000
  H   H1333     1.0  0.64517  0.64429  0.36245  1.0000
  H   H1334     1.0  0.61182  0.67209  0.37504  1.0000
  H   H1335     1.0  0.57836  0.60618  0.36877  1.0000
  H   H1336     1.0  0.55299  0.63605  0.38415  1.0000
  C   C763      1.0  0.65551  0.50334  0.60523  1.0000
  H   H1337     1.0  0.63944  0.60357  0.34132  1.0000
  H   H1338     1.0  0.62919  0.71469  0.35875  1.0000
  S   S168      1.0  0.79395  0.47869  0.47625  1.0000
  C   C764      1.0  0.87076  0.95392  0.45430  1.0000
  H   H1339     1.0  0.97976  0.68181  0.32792  1.0000
  H   H1340     1.0  0.69611  0.95080  0.53683  1.0000
  C   C765      1.0  0.61819  0.52258  0.60896  1.0000
  C   C766      1.0  0.65293  0.73471  0.33002  1.0000
  Fe  Fe86      1.0  0.65433  0.50878  0.34694  1.0000
  H   H1341     1.0  0.64377  0.73627  0.31305  1.0000
  H   H1342     1.0  0.86392  0.96752  0.46882  1.0000
  C   C767      1.0  0.61708  0.58559  0.31177  1.0000
  H   H1343     1.0  0.95154  0.73202  0.60686  1.0000
  C   C768      1.0  0.51620  0.68417  0.32849  1.0000
  H   H1344     1.0  0.50944  0.92597  0.40090  1.0000
  H   H1345     1.0  0.51419  0.53798  0.29242  1.0000
  H   H1346     1.0  0.71536  0.59319  0.51324  1.0000
  H   H1347     1.0  0.51528  0.88593  0.37339  1.0000
  H   H1348     1.0  0.87031  0.62230  0.50913  1.0000
  H   H1349     1.0  0.65355  0.67358  0.33270  1.0000
  C   C769      1.0  0.81562  0.57005  0.45826  1.0000
  H   H1350     1.0  0.83299  0.87428  0.58274  1.0000
  H   H1351     1.0  0.78395  0.59747  0.60186  1.0000
  S   S169      1.0  0.62104  0.52188  0.42594  1.0000
  H   H1352     1.0  0.94724  0.63790  0.47857  1.0000
  H   H1353     1.0  0.64592  0.60756  0.39203  1.0000
  C   C770      1.0  0.78430  0.59469  0.44859  1.0000
  C   C771      1.0  0.75640  0.58147  0.43053  1.0000
  H   H1354     1.0  0.97064  0.75797  0.54844  1.0000
  S   S170      1.0  0.56685  0.57501  0.60116  1.0000
  C   C772      1.0  0.61826  0.68198  0.33269  1.0000
  H   H1355     1.0  0.84514  0.62577  0.47168  1.0000
  H   H1356     1.0  0.53764  0.48373  0.42881  1.0000
  H   H1357     1.0  0.84164  0.56578  0.44609  1.0000
  H   H1358     1.0  0.79709  0.54805  0.45943  1.0000
  C   C773      1.0  0.93722  0.75023  0.55408  1.0000
  C   C774      1.0  0.92155  0.82211  0.58770  1.0000
  C   C775      1.0  0.91227  0.77703  0.56510  1.0000
  C   C776      1.0  0.61340  0.61752  0.39717  1.0000
  C   C777      1.0  0.62605  0.61274  0.32631  1.0000
  H   H1359     1.0  0.90543  0.49448  0.47815  1.0000
  H   H1360     1.0  0.84308  0.53030  0.48680  1.0000
  C   C778      1.0  0.76122  0.56274  0.49657  1.0000
  H   H1361     1.0  0.66154  0.48419  0.61559  1.0000
  H   H1362     1.0  0.59506  0.59991  0.40636  1.0000
  H   H1363     1.0  0.76069  0.60439  0.46031  1.0000
  H   H1364     1.0  0.80469  0.61370  0.44213  1.0000
  H   H1365     1.0  0.77843  0.57134  0.41822  1.0000
  H   H1366     1.0  0.73328  0.56364  0.43656  1.0000
  H   H1367     1.0  0.73587  0.59975  0.42318  1.0000
  H   H1368     1.0  0.93734  0.51525  0.49784  1.0000
  C   C779      1.0  0.89316  0.61587  0.49603  1.0000
  H   H1369     1.0  0.64866  0.57254  0.30930  1.0000
  H   H1370     1.0  0.91568  0.59749  0.50172  1.0000
  C   C780      1.0  0.90681  0.54361  0.47351  1.0000
  H   H1371     1.0  0.74867  0.56903  0.53030  1.0000
  C   C781      1.0  0.50136  0.89392  0.34047  1.0000
  H   H1372     1.0  0.81693  0.58541  0.51166  1.0000
  S   S171      1.0  0.54444  0.49692  0.38018  1.0000
  N   N45       1.0  0.88706  0.92243  0.46018  1.0000
  C   C782      1.0  0.93132  0.92606  0.47163  1.0000
  C   C783      1.0  0.85431  0.90876  0.47572  1.0000
  H   H1373     1.0  0.61978  0.63740  0.40762  1.0000
  C   C784      1.0  0.89364  0.90195  0.44122  1.0000
  C   C785      1.0  0.86119  0.90656  0.42223  1.0000
  H   H1374     1.0  0.49809  0.49579  0.32042  1.0000
  H   H1375     1.0  0.87478  0.55404  0.50337  1.0000
  C   C786      1.0  0.80726  0.90042  0.46722  1.0000
  C   C787      1.0  0.77600  0.89091  0.48516  1.0000
  H   H1376     1.0  0.91293  0.79561  0.55321  1.0000
  S   S172      1.0  0.97239  0.66780  0.54997  1.0000
  H   H1377     1.0  0.85668  0.85860  0.41334  1.0000
  H   H1378     1.0  0.96847  0.80217  0.52078  1.0000
  S   S173      1.0  0.79860  0.96259  0.52502  1.0000
  H   H1379     1.0  0.86732  0.88716  0.48239  1.0000
  H   H1380     1.0  0.84998  0.92441  0.48947  1.0000
  Fe  Fe87      1.0  0.61317  0.51167  0.39107  1.0000
  H   H1381     1.0  0.94108  0.65059  0.50540  1.0000
  H   H1382     1.0  0.94259  0.73064  0.56476  1.0000
  H   H1383     1.0  0.89195  0.87761  0.44620  1.0000
  S   S174      1.0  0.50362  0.55866  0.33775  1.0000
  C   C788      1.0  0.86607  0.88079  0.40615  1.0000
  H   H1384     1.0  0.60929  0.68369  0.31568  1.0000
  C   C789      1.0  0.92858  0.51394  0.48084  1.0000
  H   H1385     1.0  0.50235  0.66427  0.31979  1.0000
  H   H1386     1.0  0.93588  0.88243  0.48919  1.0000
  H   H1387     1.0  0.79130  0.91976  0.45897  1.0000
  H   H1388     1.0  0.80980  0.88075  0.45624  1.0000
  H   H1389     1.0  0.77152  0.90997  0.49649  1.0000
  H   H1390     1.0  0.78986  0.87087  0.49368  1.0000
  H   H1391     1.0  0.54464  0.69177  0.35994  1.0000
  H   H1392     1.0  0.70860  0.94309  0.45871  1.0000
  C   C790      1.0  0.70670  0.50038  0.47351  1.0000
  H   H1393     1.0  0.84342  0.88508  0.39254  1.0000
  S   S175      1.0  0.85395  0.61645  0.29797  1.0000
  H   H1394     1.0  0.89904  0.54072  0.45655  1.0000
  C   C791      1.0  0.86772  0.86702  0.58670  1.0000
  C   C792      1.0  0.96421  0.62797  0.54698  1.0000
  H   H1395     1.0  0.79618  0.51056  0.30013  1.0000
  H   H1396     1.0  0.64677  0.93342  0.52538  1.0000
  C   C793      1.0  0.66916  0.50977  0.43983  1.0000
  H   H1397     1.0  0.93220  0.56194  0.47513  1.0000
  H   H1398     1.0  0.56995  0.63845  0.31428  1.0000
  H   H1399     1.0  0.76476  0.96709  0.48230  1.0000
  C   C794      1.0  0.75454  0.58427  0.60749  1.0000
  H   H1400     1.0  0.85010  0.55070  0.28903  1.0000
  S   S176      1.0  0.67346  0.95960  0.41854  1.0000
  H   H1401     1.0  0.77504  0.48268  0.43233  1.0000
  S   S177      1.0  0.85751  0.97478  0.56727  1.0000
  H   H1402     1.0  0.87852  0.72905  0.53970  1.0000
  H   H1403     1.0  0.87618  0.77080  0.56666  1.0000
  H   H1404     1.0  0.89118  0.87948  0.57618  1.0000
  H   H1405     1.0  0.49553  0.97610  0.31117  1.0000
  C   C795      1.0  0.74514  0.49055  0.46284  1.0000
  H   H1406     1.0  0.87477  0.87346  0.60333  1.0000
  H   H1407     1.0  0.86877  0.92820  0.41394  1.0000
  Fe  Fe88      1.0  0.78584  0.47789  0.55876  1.0000
  H   H1408     1.0  0.83790  0.95291  0.44612  1.0000
  H   H1409     1.0  0.76638  0.56150  0.61285  1.0000
  C   C796      1.0  0.86651  0.97527  0.29099  1.0000
  H   H1410     1.0  0.95981  0.50973  0.47174  1.0000
  H   H1411     1.0  0.79751  0.96722  0.30136  1.0000
  H   H1412     1.0  0.89966  0.72571  0.59267  1.0000
  Fe  Fe89      1.0  0.80616  0.47633  0.51167  1.0000
  C   C797      1.0  0.90744  0.77257  0.60416  1.0000
  H   H1413     1.0  0.50201  0.57767  0.38188  1.0000
  C   C798      1.0  0.72385  0.96455  0.45431  1.0000
  H   H1414     1.0  0.65615  0.96538  0.49334  1.0000
  H   H1415     1.0  0.93052  0.83071  0.60367  1.0000
  C   C799      1.0  0.98090  0.78391  0.58691  1.0000
  H   H1416     1.0  0.70817  0.49952  0.41213  1.0000
  H   H1417     1.0  0.60458  0.59341  0.29618  1.0000
  H   H1418     1.0  0.92235  0.95869  0.42924  1.0000
  C   C800      1.0  0.90359  0.97308  0.44061  1.0000
  C   C801      1.0  0.82959  0.97627  0.30773  1.0000
  H   H1419     1.0  0.60825  0.64212  0.66931  1.0000
  H   H1420     1.0  0.67870  0.87931  0.88018  1.0000
  Fe  Fe90      1.0  0.53332  0.85174  0.77455  1.0000
  S   S178      1.0  0.60160  0.85187  0.79163  1.0000
  H   H1421     1.0  0.98665  0.81156  0.81204  1.0000
  C   C802      1.0  0.73383  0.89137  0.90054  1.0000
  H   H1422     1.0  0.72088  0.64036  0.70404  1.0000
  H   H1423     1.0  0.76812  0.62747  0.68835  1.0000
  S   S179      1.0  0.88417  0.48079  0.89260  1.0000
  H   H1424     1.0  0.89820  0.58622  0.86196  1.0000
  S   S180      1.0  0.82461  0.92469  0.86181  1.0000
  H   H1425     1.0  0.59594  0.51813  0.62206  1.0000
  Fe  Fe91      1.0  0.88357  0.50194  0.86039  1.0000
  H   H1426     1.0  0.56024  0.93301  0.89483  1.0000
  S   S181      1.0  0.94725  0.52937  0.85158  1.0000
  Fe  Fe92      1.0  0.89284  0.93945  0.85063  1.0000
  S   S182      1.0  0.94562  0.90743  0.83692  1.0000
  Fe  Fe93      1.0  0.80994  0.48904  0.89315  1.0000
  S   S183      1.0  0.78429  0.51047  0.92344  1.0000
  H   H1427     1.0  0.56912  0.55355  0.94784  1.0000
  S   S184      1.0  0.80927  0.51265  0.86148  1.0000
  H   H1428     1.0  0.92311  0.64028  0.86391  1.0000
  C   C803      1.0  0.69217  0.58246  0.63461  1.0000
  C   C804      1.0  0.63327  0.92867  0.89989  1.0000
  C   C805      1.0  0.60611  0.89584  0.85891  1.0000
  H   H1429     1.0  0.55781  0.67984  0.65245  1.0000
  C   C806      1.0  0.60369  0.52583  0.67467  1.0000
  C   C807      1.0  0.49569  0.86270  0.67006  1.0000
  H   H1430     1.0  0.91387  0.68097  0.83362  1.0000
  H   H1431     1.0  0.68213  0.65735  0.67117  1.0000
  H   H1432     1.0  0.64630  0.52762  0.83015  1.0000
  C   C808      1.0  0.94742  0.62264  0.86053  1.0000
  H   H1433     1.0  0.56166  0.86608  0.84112  1.0000
  C   C809      1.0  0.68738  0.60729  0.66996  1.0000
  C   C810      1.0  0.64906  0.50869  0.81856  1.0000
  H   H1434     1.0  0.59709  0.88547  0.87424  1.0000
  H   H1435     1.0  0.76634  0.90360  0.89958  1.0000
  C   C811      1.0  0.63853  0.88222  0.79893  1.0000
  C   C812      1.0  0.63021  0.91265  0.79351  1.0000
  C   C813      1.0  0.66027  0.93584  0.79984  1.0000
  C   C814      1.0  0.69900  0.92909  0.81171  1.0000
  C   C815      1.0  0.70723  0.89869  0.81722  1.0000
  C   C816      1.0  0.67727  0.87547  0.81082  1.0000
  H   H1436     1.0  0.60064  0.91830  0.78441  1.0000
  C   C817      1.0  0.57231  0.92458  0.92767  1.0000
  H   H1437     1.0  0.73694  0.89302  0.82620  1.0000
  H   H1438     1.0  0.68417  0.85206  0.81508  1.0000
  H   H1439     1.0  0.72833  0.64428  0.65568  1.0000
  C   C818      1.0  0.56625  0.89086  0.84409  1.0000
  H   H1440     1.0  0.54373  0.86902  0.69558  1.0000
  N   N46       1.0  0.64878  0.93945  0.87851  1.0000
  H   H1441     1.0  0.75346  0.66735  0.68909  1.0000
  C   C819      1.0  0.69616  0.92847  0.87443  1.0000
  H   H1442     1.0  0.51645  0.48470  0.80162  1.0000
  C   C820      1.0  0.50829  0.49342  0.75156  1.0000
  N   N47       1.0  0.66177  0.59801  0.65038  1.0000
  C   C821      1.0  0.60485  0.50524  0.80653  1.0000
  H   H1443     1.0  0.51458  0.68727  0.72464  1.0000
  C   C822      1.0  0.59964  0.63936  0.65239  1.0000
  H   H1444     1.0  0.61491  0.60020  0.94584  1.0000
  H   H1445     1.0  0.63517  0.88348  0.85204  1.0000
  H   H1446     1.0  0.57846  0.50026  0.81834  1.0000
  C   C823      1.0  0.64258  0.54434  0.66555  1.0000
  H   H1447     1.0  0.85709  0.72975  0.62629  1.0000
  H   H1448     1.0  0.57022  0.89941  0.92600  1.0000
  H   H1449     1.0  0.63379  0.90354  0.90114  1.0000
  C   C824      1.0  0.97540  0.88016  0.85200  1.0000
  H   H1450     1.0  0.57826  0.52113  0.66226  1.0000
  H   H1451     1.0  0.65345  0.95923  0.79547  1.0000
  H   H1452     1.0  0.58741  0.53828  0.68790  1.0000
  H   H1453     1.0  0.50059  0.83754  0.67000  1.0000
  C   C825      1.0  0.64946  0.97396  0.87919  1.0000
  H   H1454     1.0  0.94490  0.89163  0.88174  1.0000
  H   H1455     1.0  0.54436  0.51844  0.77509  1.0000
  C   C826      1.0  0.96374  0.56859  0.85467  1.0000
  H   H1456     1.0  0.71443  0.59039  0.67326  1.0000
  H   H1457     1.0  0.71872  0.59620  0.93181  1.0000
  H   H1458     1.0  0.57901  0.50566  0.75425  1.0000
  H   H1459     1.0  0.74106  0.86692  0.90353  1.0000
  H   H1460     1.0  0.58538  0.94305  0.86198  1.0000
  H   H1461     1.0  0.66778  0.54780  0.67821  1.0000
  H   H1462     1.0  0.65778  0.53023  0.65286  1.0000
  H   H1463     1.0  0.58506  0.96433  0.90926  1.0000
  H   H1464     1.0  0.65722  0.93658  0.91223  1.0000
  S   S185      1.0  0.73527  0.95955  0.81942  1.0000
  H   H1465     1.0  0.80144  0.81359  0.88910  1.0000
  H   H1466     1.0  0.50599  0.74235  0.73328  1.0000
  C   C827      1.0  0.66698  0.56653  0.94483  1.0000
  S   S186      1.0  0.82131  0.95026  0.92076  1.0000
  H   H1467     1.0  0.72088  0.94321  0.88286  1.0000
  H   H1468     1.0  0.66518  0.60656  0.68412  1.0000
  H   H1469     1.0  0.96053  0.77941  0.79899  1.0000
  H   H1470     1.0  0.63179  0.93672  0.84535  1.0000
  S   S187      1.0  0.86495  0.97453  0.82828  1.0000
  H   H1471     1.0  0.79840  0.82638  0.86191  1.0000
  H   H1472     1.0  0.53495  0.95988  0.64501  1.0000
  H   H1473     1.0  0.75689  0.60543  0.63789  1.0000
  C   C828      1.0  0.50115  0.51955  0.73597  1.0000
  C   C829      1.0  0.96876  0.87702  0.87373  1.0000
  H   H1474     1.0  0.72999  0.88562  0.86709  1.0000
  C   C830      1.0  0.62595  0.57531  0.65658  1.0000
  S   S188      1.0  0.51942  0.86483  0.74067  1.0000
  C   C831      1.0  0.69295  0.57980  0.92621  1.0000
  H   H1475     1.0  0.53561  0.90230  0.67909  1.0000
  H   H1476     1.0  0.61816  0.96118  0.64799  1.0000
  H   H1477     1.0  0.95234  0.75979  0.93273  1.0000
  C   C832      1.0  0.50037  0.70260  0.71306  1.0000
  H   H1478     1.0  0.95205  0.79827  0.88028  1.0000
  H   H1479     1.0  0.57196  0.90219  0.82867  1.0000
  C   C833      1.0  0.55136  0.49833  0.76490  1.0000
  H   H1480     1.0  0.65705  0.48740  0.82732  1.0000
  H   H1481     1.0  0.81922  0.85155  0.88212  1.0000
  C   C834      1.0  0.70864  0.63963  0.67009  1.0000
  C   C835      1.0  0.58583  0.93927  0.90678  1.0000
  H   H1482     1.0  0.59702  0.93029  0.94021  1.0000
  H   H1483     1.0  0.60392  0.57013  0.64284  1.0000
  H   H1484     1.0  0.62408  0.61703  0.62431  1.0000
  S   S189      1.0  0.49603  0.65161  0.68768  1.0000
  H   H1485     1.0  0.61635  0.50366  0.68070  1.0000
  S   S190      1.0  0.50722  0.57522  0.65967  1.0000
  C   C836      1.0  0.53816  0.87704  0.67919  1.0000
  H   H1486     1.0  0.66264  0.64267  0.63546  1.0000
  H   H1487     1.0  0.53495  0.90008  0.85117  1.0000
  C   C837      1.0  0.70792  0.89469  0.87979  1.0000
  C   C838      1.0  0.61748  0.93014  0.86090  1.0000
  C   C839      1.0  0.74317  0.49192  0.93867  1.0000
  C   C840      1.0  0.93312  0.59186  0.85948  1.0000
  H   H1488     1.0  0.56760  0.87023  0.66953  1.0000
  H   H1489     1.0  0.60362  0.58531  0.66886  1.0000
  H   H1490     1.0  0.91656  0.78356  0.61940  1.0000
  H   H1491     1.0  0.94044  0.72355  0.85683  1.0000
  H   H1492     1.0  0.59720  0.52748  0.79902  1.0000
  H   H1493     1.0  0.67713  0.51380  0.80758  1.0000
  H   H1494     1.0  0.70457  0.93155  0.85750  1.0000
  H   H1495     1.0  0.56937  0.62476  0.65140  1.0000
  C   C841      1.0  0.96359  0.76909  0.91733  1.0000
  H   H1496     1.0  0.73673  0.97339  0.69471  1.0000
  N   N48       1.0  0.91193  0.76889  0.86049  1.0000
  C   C842      1.0  0.90701  0.73502  0.85690  1.0000
  C   C843      1.0  0.94437  0.77368  0.87843  1.0000
  C   C844      1.0  0.86641  0.78222  0.86550  1.0000
  C   C845      1.0  0.92993  0.78476  0.84115  1.0000
  H   H1497     1.0  0.70848  0.56207  0.64164  1.0000
  C   C846      1.0  0.88155  0.72543  0.83662  1.0000
  C   C847      1.0  0.86610  0.81604  0.87298  1.0000
  C   C848      1.0  0.92951  0.76102  0.90019  1.0000
  Fe  Fe94      1.0  0.83352  0.96167  0.88626  1.0000
  H   H1498     1.0  0.51898  0.95994  0.68179  1.0000
  C   C849      1.0  0.87946  0.69071  0.83469  1.0000
  C   C850      1.0  0.81825  0.82742  0.87674  1.0000
  H   H1499     1.0  0.88880  0.72436  0.87032  1.0000
  H   H1500     1.0  0.86084  0.68428  0.82018  1.0000
  H   H1501     1.0  0.53899  0.93340  0.93257  1.0000
  Fe  Fe95      1.0  0.79710  0.96203  0.84122  1.0000
  H   H1502     1.0  0.84889  0.76833  0.87765  1.0000
  H   H1503     1.0  0.84438  0.78106  0.85134  1.0000
  H   H1504     1.0  0.90452  0.78482  0.82827  1.0000
  H   H1505     1.0  0.93635  0.80927  0.84455  1.0000
  H   H1506     1.0  0.66986  0.59138  0.91503  1.0000
  H   H1507     1.0  0.64363  0.54913  0.93842  1.0000
  H   H1508     1.0  0.84665  0.73425  0.83684  1.0000
  H   H1509     1.0  0.89849  0.73403  0.82223  1.0000
  H   H1510     1.0  0.88144  0.83130  0.86107  1.0000
  H   H1511     1.0  0.88473  0.81883  0.88802  1.0000
  H   H1512     1.0  0.89667  0.77053  0.90512  1.0000
  H   H1513     1.0  0.92691  0.73579  0.89965  1.0000
  H   H1514     1.0  0.63480  0.48735  0.77836  1.0000
  H   H1515     1.0  0.98430  0.96468  0.84988  1.0000
  H   H1516     1.0  0.71459  0.90050  0.91412  1.0000
  C   C851      1.0  0.97477  0.77221  0.83235  1.0000
  H   H1517     1.0  0.96704  0.79423  0.91881  1.0000
  H   H1518     1.0  0.71043  0.56109  0.91765  1.0000
  H   H1519     1.0  0.50077  0.92853  0.71319  1.0000
  C   C852      1.0  0.89381  0.72532  0.62626  1.0000
  H   H1520     1.0  0.86202  0.68061  0.84850  1.0000
  C   C853      1.0  0.73965  0.64383  0.68908  1.0000
  H   H1521     1.0  0.90917  0.73594  0.64045  1.0000
  H   H1522     1.0  0.56114  0.94739  0.62091  1.0000
  C   C854      1.0  0.63856  0.62448  0.63971  1.0000
  H   H1523     1.0  0.97722  0.76270  0.87484  1.0000
  H   H1524     1.0  0.61518  0.68673  0.64485  1.0000
  H   H1525     1.0  0.98786  0.85274  0.90192  1.0000
  Fe  Fe96      1.0  0.50722  0.58016  0.62424  1.0000
  H   H1526     1.0  0.89927  0.70028  0.62710  1.0000
  C   C855      1.0  0.77181  0.95952  0.93481  1.0000
  H   H1527     1.0  0.53330  0.50268  0.94878  1.0000
  S   S191      1.0  0.49718  0.80646  0.77137  1.0000
  H   H1528     1.0  0.52855  0.51999  0.72409  1.0000
  C   C856      1.0  0.55577  0.96729  0.63145  1.0000
  C   C857      1.0  0.58676  0.67051  0.64346  1.0000
  H   H1529     1.0  0.97444  0.74713  0.83028  1.0000
  C   C858      1.0  0.98584  0.78630  0.81094  1.0000
  S   S192      1.0  0.90424  0.97377  0.87648  1.0000
  H   H1530     1.0  0.57671  0.66834  0.62663  1.0000
  H   H1531     1.0  0.49974  0.54181  0.74433  1.0000
  H   H1532     1.0  0.99085  0.78583  0.62144  1.0000
  H   H1533     1.0  0.68885  0.96620  0.71162  1.0000
  H   H1534     1.0  0.50471  0.49433  0.67569  1.0000
  C   C859      1.0  0.99268  0.63080  0.85720  1.0000
  H   H1535     1.0  0.71980  0.62356  0.61901  1.0000
  C   C860      1.0  0.60858  0.47973  0.78963  1.0000
  H   H1536     1.0  0.67191  0.57392  0.62111  1.0000
  C   C861      1.0  0.73130  0.60144  0.62548  1.0000
  C   C862      1.0  0.49554  0.73384  0.71802  1.0000
  C   C863      1.0  0.73687  0.97596  0.92548  1.0000
  C   C864      1.0  0.99326  0.85503  0.88512  1.0000
