data_image0
_chemical_formula_structural       CHSH3CHNH2CHCH6C2SH4CHCH2CH3CHC2H4CH2CH4CHC3SCHCHFeH2CH3CFeS2FeSHFeSFeS3C2FeS2H3C7H4C3HC2FeCHC6H7C3H2NC10H7CH18CHC3H4CH5C2H8CSHCH3CH3C4H3CHCHNC2H2FeHSHNSCH8CH2C2H2SCH7SCH2C2SH2FeS2FeSHFeS2FeSFeS3H2C4H5C6H5NC6H5C4SHCH2SNC11H23SC2HCH2CHC2HCHC2HCHCH4CSC2HFeH2FeH2C5H4C2SHCHCHSCHCHNHCH3CH2NH15CHCH2CHCH3CHCHCH3FeHC3HCHSH6C2H4SH3FeHCHCHC2H5CH2CHC2SHC2H12C2HCH3CNC2H4CHCSC2H2CSHC2H4SCSH2FeH3C3HCH4C3SHSH3CFeCH6C2H2CHCH2C2H2CHCHNC2HFeSH2CHCH2CHCH4CFeH4C2HCH3CHC2H4CH2C2H3CH2CH5FeH2CH5CHSCH3SH2NHC2H2CH2C2H3CHCH2NHSCS2CH4NSHCHC2HC2H2C2H9CSH4NCH8CSHCHCH6NCH3CHC3H6C2H3CH2CFeCSCH2CFeHSH2FeHCH2SFeCHSHCSHSH3FeH2CH2CHCH2FeCHCHC2H4CH4CH5SH2FeSHSHC7H4CSFeH4FeHC3H4SH4C2H4CH2FeC3HNCH2C3HCNH2CH2SCHCH4CH2FeH3CHCH4SHCH2CHFeSFeS2FeS2FeSFeHS3H2CNCH2C3H4C6H4C6H4C3HCHCHCHSHCHCH3NC3HC3H6CH12CHCH2CH3C2HC3H3S2HC3H2C2H3SHCH2FeHSHCHC2H5FeS2FeS2FeHFeS3H3FeSH2C6HCH2C3HC2H2CH4C6H3C2HC2HSH5NHC7H2C2HCH5CH4CHCH3C2HC2H2C2HCHC2H2SH6NHCHCH7CH2CH4C2H2CHCH9NCHCH3CH5CSH2SCHSHFeS2H2FeSHC6H4FeH2SHCHCHCH3C2H3CH7C4HC3HC2HCSH7C3H2CH7CNH3FeNH3C2H3C2HCH7CH3
_chemical_formula_sum              "C432 H768 S96 N24 Fe48"
_cell_length_a       47.609
_cell_length_b       38.0789
_cell_length_c       30.3693
_cell_angle_alpha    89.8189
_cell_angle_beta     104.054
_cell_angle_gamma    89.5784

_space_group_name_H-M_alt    "P 1"
_space_group_IT_number       1

loop_
  _space_group_symop_operation_xyz
  'x, y, z'

loop_
  _atom_site_type_symbol
  _atom_site_label
  _atom_site_symmetry_multiplicity
  _atom_site_fract_x
  _atom_site_fract_y
  _atom_site_fract_z
  _atom_site_occupancy
  C   C1        1.0  0.28634  0.47040  0.14879  1.0000
  H   H1        1.0  0.14583  0.23080  0.47814  1.0000
  S   S1        1.0  0.12259  0.01423  0.04944  1.0000
  H   H2        1.0  0.21728  0.47723  0.22622  1.0000
  H   H3        1.0  0.21474  0.00815  0.02893  1.0000
  H   H4        1.0  0.15751  0.08263  0.11351  1.0000
  C   C2        1.0  0.19673  0.06879  0.09291  1.0000
  H   H5        1.0  0.20100  0.48189  0.34058  1.0000
  N   N1        1.0  0.23863  0.05497  0.05385  1.0000
  H   H6        1.0  0.27776  0.09415  0.18267  1.0000
  H   H7        1.0  0.26842  0.05060  0.01025  1.0000
  C   C3        1.0  0.27943  0.48185  0.19327  1.0000
  H   H8        1.0  0.97864  0.41465  0.24513  1.0000
  C   C4        1.0  0.28729  0.06828  0.17726  1.0000
  H   H9        1.0  0.21259  0.10251  0.04854  1.0000
  H   H10       1.0  0.25837  0.09654  0.09916  1.0000
  H   H11       1.0  0.19266  0.12673  0.45298  1.0000
  H   H12       1.0  0.19242  0.04075  0.09853  1.0000
  H   H13       1.0  0.27675  0.02217  0.13689  1.0000
  H   H14       1.0  0.21457  0.07477  0.42447  1.0000
  C   C5        1.0  0.00817  0.45013  0.46982  1.0000
  C   C6        1.0  0.26690  0.04839  0.13901  1.0000
  S   S2        1.0  0.17056  0.99837  0.17727  1.0000
  H   H15       1.0  0.02646  0.44212  0.45690  1.0000
  H   H16       1.0  0.27511  0.45789  0.21136  1.0000
  H   H17       1.0  0.25173  0.47398  0.26416  1.0000
  H   H18       1.0  0.06909  0.45778  0.38556  1.0000
  C   C7        1.0  0.24289  0.00160  0.28117  1.0000
  H   H19       1.0  0.23835  0.11194  0.42995  1.0000
  C   C8        1.0  0.16795  0.08875  0.08543  1.0000
  H   H20       1.0  0.21101  0.07985  0.12401  1.0000
  H   H21       1.0  0.15301  0.08107  0.05286  1.0000
  C   C9        1.0  0.20981  0.47289  0.31179  1.0000
  H   H22       1.0  0.19714  0.01212  0.27059  1.0000
  H   H23       1.0  0.24647  0.04418  0.14926  1.0000
  H   H24       1.0  0.28365  0.06763  0.08421  1.0000
  C   C10       1.0  0.21025  0.07367  0.05184  1.0000
  H   H25       1.0  0.24580  0.07696  0.47176  1.0000
  C   C11       1.0  0.20714  0.99453  0.20872  1.0000
  C   C12       1.0  0.26223  0.06829  0.09294  1.0000
  H   H26       1.0  0.17457  0.24777  0.45449  1.0000
  H   H27       1.0  0.24790  0.00906  0.31654  1.0000
  H   H28       1.0  0.26757  0.45679  0.12668  1.0000
  H   H29       1.0  0.20574  0.19163  0.47508  1.0000
  C   C13       1.0  0.20998  0.11168  0.47678  1.0000
  H   H30       1.0  0.17154  0.11752  0.08489  1.0000
  H   H31       1.0  0.19383  0.06523  0.02101  1.0000
  C   C14       1.0  0.24694  0.06254  0.00974  1.0000
  H   H32       1.0  0.29074  0.05289  0.20934  1.0000
  H   H33       1.0  0.22746  0.45356  0.32501  1.0000
  H   H34       1.0  0.98782  0.99192  0.05355  1.0000
  H   H35       1.0  0.26053  0.11730  0.02684  1.0000
  C   C15       1.0  0.22837  0.09278  0.44912  1.0000
  H   H36       1.0  0.19212  0.45995  0.28658  1.0000
  C   C16       1.0  0.23399  0.01593  0.05599  1.0000
  C   C17       1.0  0.21411  0.00342  0.25496  1.0000
  C   C18       1.0  0.97983  0.44931  0.44141  1.0000
  S   S3        1.0  0.30209  0.99250  0.29202  1.0000
  C   C19       1.0  0.26524  0.99166  0.26114  1.0000
  H   H37       1.0  0.22848  0.00839  0.08810  1.0000
  C   C20       1.0  0.24871  0.10190  0.99725  1.0000
  H   H38       1.0  0.97671  0.44115  0.40650  1.0000
  Fe  Fe1       1.0  0.14552  0.98751  0.00143  1.0000
  H   H39       1.0  0.28078  0.00337  0.06775  1.0000
  H   H40       1.0  0.30864  0.07225  0.16937  1.0000
  C   C21       1.0  0.25956  0.99243  0.04988  1.0000
  H   H41       1.0  0.25921  0.99072  0.01320  1.0000
  H   H42       1.0  0.30517  0.45206  0.15604  1.0000
  H   H43       1.0  0.17376  0.17491  0.48662  1.0000
  C   C22       1.0  0.16705  0.24431  0.48610  1.0000
  Fe  Fe2       1.0  0.24572  0.14367  0.71074  1.0000
  S   S4        1.0  0.20055  0.15066  0.72082  1.0000
  S   S5        1.0  0.24872  0.09586  0.66575  1.0000
  Fe  Fe3       1.0  0.26639  0.20881  0.76858  1.0000
  S   S6        1.0  0.22281  0.21976  0.78118  1.0000
  H   H44       1.0  0.10555  0.04422  0.77161  1.0000
  Fe  Fe4       1.0  0.22116  0.16138  0.79422  1.0000
  S   S7        1.0  0.20135  0.14792  0.85427  1.0000
  Fe  Fe5       1.0  0.20584  0.20789  0.70729  1.0000
  S   S8        1.0  0.16767  0.23797  0.66385  1.0000
  S   S9        1.0  0.26636  0.15092  0.78584  1.0000
  S   S10       1.0  0.24943  0.20063  0.69307  1.0000
  C   C23       1.0  0.28824  0.30616  0.68695  1.0000
  C   C24       1.0  0.22784  0.42300  0.63764  1.0000
  Fe  Fe6       1.0  0.15140  0.42213  0.54304  1.0000
  S   S11       1.0  0.12922  0.43044  0.59923  1.0000
  S   S12       1.0  0.17478  0.37030  0.53790  1.0000
  H   H45       1.0  0.28764  0.28726  0.65901  1.0000
  H   H46       1.0  0.27550  0.35572  0.73821  1.0000
  H   H47       1.0  0.28638  0.20815  0.62634  1.0000
  C   C25       1.0  0.21860  0.37665  0.69213  1.0000
  C   C26       1.0  0.17561  0.04730  0.92031  1.0000
  C   C27       1.0  0.19222  0.04493  0.88784  1.0000
  C   C28       1.0  0.20004  0.07526  0.86689  1.0000
  C   C29       1.0  0.19137  0.10851  0.87821  1.0000
  C   C30       1.0  0.17445  0.11088  0.91027  1.0000
  C   C31       1.0  0.16646  0.08052  0.93102  1.0000
  H   H48       1.0  0.19935  0.01939  0.87912  1.0000
  H   H49       1.0  0.21323  0.07291  0.84261  1.0000
  H   H50       1.0  0.16752  0.13643  0.91923  1.0000
  H   H51       1.0  0.24888  0.37257  0.89327  1.0000
  C   C32       1.0  0.26824  0.08440  0.62435  1.0000
  C   C33       1.0  0.28946  0.10600  0.61396  1.0000
  C   C34       1.0  0.29668  0.06453  0.55554  1.0000
  H   H52       1.0  0.18130  0.22197  0.55256  1.0000
  C   C35       1.0  0.27573  0.04277  0.56632  1.0000
  C   C36       1.0  0.26160  0.05271  0.60034  1.0000
  Fe  Fe7       1.0  0.15576  0.47952  0.61274  1.0000
  C   C37       1.0  0.21833  0.47574  0.76390  1.0000
  H   H53       1.0  0.24533  0.03568  0.60806  1.0000
  C   C38       1.0  0.17353  0.33494  0.57554  1.0000
  C   C39       1.0  0.19617  0.30998  0.58498  1.0000
  C   C40       1.0  0.19523  0.28085  0.61340  1.0000
  C   C41       1.0  0.17108  0.27573  0.63124  1.0000
  C   C42       1.0  0.14847  0.30062  0.62173  1.0000
  C   C43       1.0  0.14989  0.33037  0.59471  1.0000
  H   H54       1.0  0.21451  0.31326  0.57021  1.0000
  H   H55       1.0  0.21276  0.26189  0.62044  1.0000
  H   H56       1.0  0.12966  0.29689  0.63524  1.0000
  H   H57       1.0  0.13219  0.34915  0.58741  1.0000
  H   H58       1.0  0.23162  0.40803  0.85682  1.0000
  H   H59       1.0  0.20705  0.45764  0.89891  1.0000
  H   H60       1.0  0.27023  0.01837  0.54821  1.0000
  C   C44       1.0  0.19507  0.18655  0.50331  1.0000
  C   C45       1.0  0.25753  0.31299  0.69211  1.0000
  C   C46       1.0  0.30341  0.09619  0.57964  1.0000
  H   H61       1.0  0.27597  0.17634  0.55339  1.0000
  H   H62       1.0  0.13616  0.32324  0.74936  1.0000
  N   N2        1.0  0.11698  0.11351  0.74838  1.0000
  C   C47       1.0  0.13300  0.08822  0.72461  1.0000
  C   C48       1.0  0.08744  0.12295  0.71853  1.0000
  C   C49       1.0  0.13444  0.14690  0.75654  1.0000
  C   C50       1.0  0.11440  0.09931  0.79363  1.0000
  C   C51       1.0  0.16227  0.07344  0.75337  1.0000
  C   C52       1.0  0.12148  0.17762  0.77902  1.0000
  C   C53       1.0  0.07133  0.09436  0.68579  1.0000
  C   C54       1.0  0.25765  0.33633  0.73401  1.0000
  C   C55       1.0  0.17790  0.05163  0.72432  1.0000
  C   C56       1.0  0.13916  0.21106  0.77949  1.0000
  H   H63       1.0  0.13693  0.10088  0.69352  1.0000
  H   H64       1.0  0.11998  0.06464  0.71241  1.0000
  H   H65       1.0  0.07278  0.13207  0.73982  1.0000
  H   H66       1.0  0.08901  0.14568  0.69596  1.0000
  H   H67       1.0  0.13822  0.15690  0.72389  1.0000
  H   H68       1.0  0.15614  0.14193  0.77886  1.0000
  H   H69       1.0  0.13621  0.09633  0.81718  1.0000
  C   C57       1.0  0.10150  0.04900  0.83991  1.0000
  H   H70       1.0  0.17725  0.09438  0.76924  1.0000
  H   H71       1.0  0.15854  0.05605  0.78079  1.0000
  H   H72       1.0  0.12198  0.17111  0.81487  1.0000
  H   H73       1.0  0.09884  0.18375  0.76077  1.0000
  H   H74       1.0  0.08244  0.09007  0.65797  1.0000
  H   H75       1.0  0.27809  0.25042  0.86932  1.0000
  H   H76       1.0  0.18341  0.06817  0.69744  1.0000
  H   H77       1.0  0.25983  0.38694  0.67319  1.0000
  H   H78       1.0  0.25224  0.46736  0.82489  1.0000
  H   H79       1.0  0.12966  0.23264  0.79584  1.0000
  H   H80       1.0  0.16186  0.20668  0.79909  1.0000
  H   H81       1.0  0.13916  0.21937  0.74437  1.0000
  H   H82       1.0  0.20389  0.30966  0.70595  1.0000
  H   H83       1.0  0.26440  0.31869  0.76396  1.0000
  H   H84       1.0  0.24392  0.11892  0.53748  1.0000
  H   H85       1.0  0.08766  0.02547  0.83846  1.0000
  H   H86       1.0  0.16783  0.30199  0.78437  1.0000
  H   H87       1.0  0.12432  0.04073  0.85399  1.0000
  C   C58       1.0  0.23497  0.17846  0.57429  1.0000
  H   H88       1.0  0.14365  0.11672  0.58431  1.0000
  C   C59       1.0  0.26011  0.19650  0.55869  1.0000
  C   C60       1.0  0.17604  0.15765  0.58833  1.0000
  C   C61       1.0  0.15951  0.13140  0.61052  1.0000
  H   H89       1.0  0.20951  0.23901  0.52961  1.0000
  H   H90       1.0  0.24498  0.15903  0.60114  1.0000
  H   H91       1.0  0.22474  0.19821  0.59225  1.0000
  H   H92       1.0  0.26914  0.39655  0.86034  1.0000
  C   C62       1.0  0.24711  0.47656  0.79020  1.0000
  H   H93       1.0  0.17693  0.12493  0.53211  1.0000
  H   H94       1.0  0.19027  0.17280  0.61593  1.0000
  H   H95       1.0  0.15959  0.17538  0.56712  1.0000
  H   H96       1.0  0.26155  0.24309  0.60080  1.0000
  H   H97       1.0  0.14758  0.14575  0.63221  1.0000
  C   C63       1.0  0.23442  0.37840  0.77492  1.0000
  C   C64       1.0  0.04017  0.10564  0.66389  1.0000
  H   H98       1.0  0.28246  0.29460  0.93065  1.0000
  H   H99       1.0  0.19991  0.09099  0.49361  1.0000
  H   H100      1.0  0.24383  0.44206  0.63082  1.0000
  H   H101      1.0  0.09519  0.06846  0.86303  1.0000
  H   H102      1.0  0.15531  0.29057  0.72514  1.0000
  H   H103      1.0  0.99151  0.47817  0.56641  1.0000
  H   H104      1.0  0.07058  0.06895  0.70322  1.0000
  H   H105      1.0  0.23434  0.46675  0.95048  1.0000
  C   C65       1.0  0.26409  0.10662  0.95893  1.0000
  S   S13       1.0  0.28906  0.45738  0.91720  1.0000
  H   H106      1.0  0.25205  0.21097  0.52627  1.0000
  C   C66       1.0  0.15795  0.31241  0.74983  1.0000
  H   H107      1.0  0.24944  0.42030  0.70824  1.0000
  H   H108      1.0  0.24748  0.28729  0.69609  1.0000
  H   H109      1.0  0.10281  0.11835  0.81072  1.0000
  C   C67       1.0  0.23820  0.35993  0.82158  1.0000
  H   H110      1.0  0.29801  0.33098  0.67873  1.0000
  H   H111      1.0  0.21522  0.30886  0.76543  1.0000
  H   H112      1.0  0.20942  0.36005  0.66208  1.0000
  C   C68       1.0  0.24122  0.40167  0.68014  1.0000
  C   C69       1.0  0.19346  0.13848  0.55861  1.0000
  C   C70       1.0  0.21184  0.47268  0.93113  1.0000
  C   C71       1.0  0.24745  0.38602  0.86028  1.0000
  H   H113      1.0  0.24536  0.32507  0.65993  1.0000
  H   H114      1.0  0.16557  0.35169  0.70316  1.0000
  H   H115      1.0  0.25482  0.33888  0.82634  1.0000
  C   C72       1.0  0.22884  0.13615  0.51269  1.0000
  H   H116      1.0  0.20661  0.11734  0.57978  1.0000
  C   C73       1.0  0.28989  0.27443  0.86804  1.0000
  H   H117      1.0  0.02944  0.08515  0.63976  1.0000
  N   N3        1.0  0.21275  0.16075  0.53722  1.0000
  C   C74       1.0  0.20718  0.32696  0.73611  1.0000
  C   C75       1.0  0.17675  0.34127  0.73720  1.0000
  H   H118      1.0  0.21755  0.34808  0.82472  1.0000
  H   H119      1.0  0.25403  0.39467  0.77676  1.0000
  Fe  Fe8       1.0  0.09569  0.46165  0.54845  1.0000
  H   H120      1.0  0.17793  0.36275  0.76205  1.0000
  S   S14       1.0  0.04793  0.46301  0.55269  1.0000
  H   H121      1.0  0.15331  0.08284  0.95535  1.0000
  N   N4        1.0  0.22940  0.35451  0.73420  1.0000
  S   S15       1.0  0.17931  0.47054  0.55779  1.0000
  C   C76       1.0  0.09786  0.06435  0.79228  1.0000
  H   H122      1.0  0.20864  0.43776  0.64244  1.0000
  H   H123      1.0  0.19994  0.39337  0.69561  1.0000
  H   H124      1.0  0.26292  0.13464  0.94824  1.0000
  H   H125      1.0  0.17477  0.11247  0.63211  1.0000
  H   H126      1.0  0.21649  0.39792  0.77160  1.0000
  H   H127      1.0  0.22115  0.40548  0.60782  1.0000
  H   H128      1.0  0.29504  0.13031  0.63221  1.0000
  H   H129      1.0  0.02770  0.10904  0.69015  1.0000
  C   C77       1.0  0.18931  0.22344  0.52140  1.0000
  H   H130      1.0  0.07436  0.06912  0.77813  1.0000
  H   H131      1.0  0.03977  0.13069  0.64486  1.0000
  C   C78       1.0  0.29241  0.29951  0.90278  1.0000
  C   C79       1.0  0.27641  0.22221  0.59417  1.0000
  H   H132      1.0  0.29395  0.23484  0.58163  1.0000
  H   H133      1.0  0.25356  0.09068  0.92901  1.0000
  S   S16       1.0  0.16739  0.00791  0.94641  1.0000
  C   C80       1.0  0.01269  0.46082  0.51505  1.0000
  H   H134      1.0  0.24265  0.15124  0.49471  1.0000
  H   H135      1.0  0.20138  0.46619  0.77882  1.0000
  H   H136      1.0  0.16430  0.02931  0.70841  1.0000
  H   H137      1.0  0.28722  0.09870  0.97039  1.0000
  H   H138      1.0  0.19689  0.46395  0.95183  1.0000
  H   H139      1.0  0.30213  0.29497  0.71860  1.0000
  H   H140      1.0  0.23135  0.04995  0.98079  1.0000
  S   S17       1.0  0.11594  0.44946  0.49027  1.0000
  C   C81       1.0  0.98838  0.47009  0.53144  1.0000
  H   H141      1.0  0.19842  0.04090  0.74600  1.0000
  H   H142      1.0  0.16397  0.27074  0.49976  1.0000
  C   C82       1.0  0.30777  0.33076  0.90179  1.0000
  C   C83       1.0  0.30358  0.27986  0.83276  1.0000
  S   S18       1.0  0.30313  0.24767  0.79054  1.0000
  H   H143      1.0  0.22658  0.11318  0.98512  1.0000
  H   H144      1.0  0.23437  0.83195  0.38392  1.0000
  Fe  Fe9       1.0  0.14225  0.91519  0.04564  1.0000
  S   S19       1.0  0.11902  0.93679  0.09539  1.0000
  S   S20       1.0  0.16102  0.86008  0.04595  1.0000
  Fe  Fe10      1.0  0.25975  0.71049  0.28492  1.0000
  S   S21       1.0  0.21563  0.70068  0.29572  1.0000
  H   H145      1.0  0.20121  0.63224  0.99349  1.0000
  Fe  Fe11      1.0  0.25074  0.65953  0.20299  1.0000
  S   S22       1.0  0.20531  0.64687  0.20772  1.0000
  S   S23       1.0  0.27901  0.63835  0.15711  1.0000
  Fe  Fe12      1.0  0.20123  0.70530  0.21941  1.0000
  S   S24       1.0  0.16192  0.74061  0.19375  1.0000
  Fe  Fe13      1.0  0.22320  0.64341  0.28384  1.0000
  S   S25       1.0  0.22155  0.59552  0.32965  1.0000
  S   S26       1.0  0.24522  0.71818  0.20956  1.0000
  S   S27       1.0  0.26878  0.65319  0.27819  1.0000
  H   H146      1.0  0.20305  0.52329  0.27962  1.0000
  H   H147      1.0  0.24169  0.77788  0.34173  1.0000
  C   C84       1.0  0.27809  0.60357  0.11745  1.0000
  C   C85       1.0  0.25340  0.58331  0.10068  1.0000
  C   C86       1.0  0.25390  0.55632  0.06896  1.0000
  C   C87       1.0  0.27891  0.54939  0.05321  1.0000
  H   H148      1.0  0.19476  0.52424  0.14907  1.0000
  H   H149      1.0  0.22605  0.72607  0.44502  1.0000
  H   H150      1.0  0.23384  0.58878  0.11159  1.0000
  H   H151      1.0  0.23462  0.54104  0.05599  1.0000
  H   H152      1.0  0.17885  0.72022  0.36412  1.0000
  C   C88       1.0  0.19892  0.58225  0.36581  1.0000
  C   C89       1.0  0.20699  0.55254  0.39397  1.0000
  C   C90       1.0  0.18968  0.54059  0.42273  1.0000
  C   C91       1.0  0.16397  0.55827  0.42383  1.0000
  C   C92       1.0  0.15597  0.58807  0.39576  1.0000
  C   C93       1.0  0.17323  0.59994  0.36689  1.0000
  H   H153      1.0  0.22679  0.53858  0.39362  1.0000
  H   H154      1.0  0.19622  0.51769  0.44404  1.0000
  H   H155      1.0  0.13612  0.60195  0.39611  1.0000
  H   H156      1.0  0.16645  0.62251  0.34510  1.0000
  H   H157      1.0  0.28968  0.84079  0.29446  1.0000
  N   N5        1.0  0.26108  0.68911  0.44635  1.0000
  C   C94       1.0  0.16095  0.82756  0.08777  1.0000
  C   C95       1.0  0.14079  0.82797  0.11448  1.0000
  C   C96       1.0  0.14133  0.80124  0.14696  1.0000
  C   C97       1.0  0.16220  0.77416  0.15331  1.0000
  C   C98       1.0  0.18235  0.77386  0.12666  1.0000
  C   C99       1.0  0.18159  0.80029  0.09387  1.0000
  H   H158      1.0  0.12449  0.84850  0.10949  1.0000
  H   H159      1.0  0.12536  0.80132  0.16690  1.0000
  H   H160      1.0  0.19810  0.75276  0.13053  1.0000
  H   H161      1.0  0.19705  0.79955  0.07300  1.0000
  H   H162      1.0  0.17370  0.71726  0.42121  1.0000
  C   C100      1.0  0.27976  0.84449  0.40415  1.0000
  C   C101      1.0  0.28802  0.78256  0.35752  1.0000
  C   C102      1.0  0.26005  0.79337  0.35861  1.0000
  C   C103      1.0  0.25598  0.82397  0.38248  1.0000
  S   S28       1.0  0.27430  0.88244  0.43460  1.0000
  H   H163      1.0  0.29379  0.55631  0.20572  1.0000
  C   C104      1.0  0.29682  0.64100  0.43174  1.0000
  H   H164      1.0  0.20440  0.66324  0.43520  1.0000
  H   H165      1.0  0.05286  0.67128  0.45782  1.0000
  S   S29       1.0  0.14098  0.54452  0.45922  1.0000
  N   N6        1.0  0.16151  0.89565  0.24748  1.0000
  C   C105      1.0  0.18326  0.91413  0.28441  1.0000
  C   C106      1.0  0.17143  0.89599  0.20362  1.0000
  C   C107      1.0  0.13345  0.91623  0.23943  1.0000
  C   C108      1.0  0.15590  0.85864  0.26074  1.0000
  C   C109      1.0  0.18231  0.83340  0.27207  1.0000
  C   C110      1.0  0.17637  0.91671  0.33164  1.0000
  C   C111      1.0  0.10791  0.90163  0.20214  1.0000
  C   C112      1.0  0.20455  0.89444  0.20740  1.0000
  C   C113      1.0  0.21105  0.89102  0.16080  1.0000
  C   C114      1.0  0.17457  0.79891  0.29199  1.0000
  C   C115      1.0  0.20182  0.93272  0.36628  1.0000
  H   H166      1.0  0.28699  0.86747  0.19185  1.0000
  H   H167      1.0  0.18658  0.94136  0.27315  1.0000
  H   H168      1.0  0.20458  0.90110  0.29049  1.0000
  H   H169      1.0  0.16143  0.87410  0.18135  1.0000
  H   H170      1.0  0.16384  0.92038  0.18373  1.0000
  H   H171      1.0  0.13722  0.94408  0.23076  1.0000
  H   H172      1.0  0.12525  0.91728  0.27064  1.0000
  H   H173      1.0  0.14529  0.85876  0.28958  1.0000
  H   H174      1.0  0.14006  0.84574  0.23254  1.0000
  H   H175      1.0  0.20091  0.84465  0.29708  1.0000
  H   H176      1.0  0.18900  0.82679  0.24047  1.0000
  H   H177      1.0  0.15728  0.93390  0.33035  1.0000
  H   H178      1.0  0.17236  0.89043  0.34461  1.0000
  H   H179      1.0  0.09891  0.87791  0.21493  1.0000
  H   H180      1.0  0.11472  0.89407  0.17114  1.0000
  H   H181      1.0  0.21479  0.91903  0.22269  1.0000
  H   H182      1.0  0.21518  0.87217  0.22862  1.0000
  H   H183      1.0  0.19967  0.91190  0.13749  1.0000
  H   H184      1.0  0.23464  0.89355  0.16391  1.0000
  H   H185      1.0  0.20402  0.86502  0.14601  1.0000
  H   H186      1.0  0.19267  0.77980  0.29515  1.0000
  H   H187      1.0  0.17063  0.80329  0.32613  1.0000
  H   H188      1.0  0.15497  0.78724  0.26943  1.0000
  S   S30       1.0  0.17575  0.95749  0.05789  1.0000
  C   C116      1.0  0.08335  0.92864  0.18879  1.0000
  C   C117      1.0  0.01292  0.84918  0.05566  1.0000
  H   H189      1.0  0.25129  0.87788  0.31134  1.0000
  C   C118      1.0  0.17804  0.70200  0.39242  1.0000
  H   H190      1.0  0.20687  0.95927  0.35511  1.0000
  H   H191      1.0  0.23693  0.94272  0.04853  1.0000
  C   C119      1.0  0.03968  0.60063  0.43911  1.0000
  H   H192      1.0  0.22418  0.97588  0.15368  1.0000
  C   C120      1.0  0.22128  0.50439  0.29043  1.0000
  C   C121      1.0  0.06979  0.61810  0.45536  1.0000
  H   H193      1.0  0.14971  0.55703  0.14687  1.0000
  C   C122      1.0  0.17071  0.56723  0.16695  1.0000
  H   H194      1.0  0.07472  0.93554  0.21852  1.0000
  C   C123      1.0  0.05531  0.54304  0.41804  1.0000
  C   C124      1.0  0.06837  0.65695  0.44218  1.0000
  H   H195      1.0  0.25824  0.95514  0.10414  1.0000
  C   C125      1.0  0.30392  0.61880  0.39396  1.0000
  H   H196      1.0  0.00107  0.54121  0.36379  1.0000
  C   C126      1.0  0.27689  0.75060  0.47924  1.0000
  H   H197      1.0  0.26928  0.67521  0.38157  1.0000
  H   H198      1.0  0.25129  0.64205  0.40548  1.0000
  H   H199      1.0  0.08611  0.60531  0.43999  1.0000
  H   H200      1.0  0.25142  0.92492  0.30190  1.0000
  C   C127      1.0  0.26516  0.90107  0.31082  1.0000
  S   S31       1.0  0.27780  0.51577  0.01198  1.0000
  C   C128      1.0  0.23391  0.49294  0.25002  1.0000
  C   C129      1.0  0.25973  0.80704  0.16014  1.0000
  H   H201      1.0  0.17888  0.58655  0.14563  1.0000
  Fe  Fe14      1.0  0.30411  0.92913  0.43545  1.0000
  H   H202      1.0  0.03285  0.86213  0.05094  1.0000
  H   H203      1.0  0.21801  0.56524  0.23867  1.0000
  Fe  Fe15      1.0  0.09179  0.96813  0.03688  1.0000
  H   H204      1.0  0.06552  0.91763  0.16189  1.0000
  H   H205      1.0  0.98984  0.89796  0.05039  1.0000
  C   C130      1.0  0.28342  0.89600  0.27649  1.0000
  C   C131      1.0  0.23267  0.70626  0.42256  1.0000
  C   C132      1.0  0.00766  0.55022  0.43768  1.0000
  C   C133      1.0  0.22188  0.55012  0.20936  1.0000
  C   C134      1.0  0.19227  0.53693  0.18074  1.0000
  H   H206      1.0  0.26852  0.89444  0.24241  1.0000
  H   H207      1.0  0.30520  0.70679  0.47386  1.0000
  H   H208      1.0  0.25670  0.52833  0.16103  1.0000
  H   H209      1.0  0.27921  0.90497  0.34520  1.0000
  C   C135      1.0  0.30310  0.59645  0.10188  1.0000
  C   C136      1.0  0.98652  0.87184  0.03402  1.0000
  S   S32       1.0  0.28250  0.98101  0.41135  1.0000
  H   H210      1.0  0.22141  0.91573  0.37081  1.0000
  C   C137      1.0  0.30299  0.86314  0.28773  1.0000
  H   H211      1.0  0.26362  0.55251  0.28503  1.0000
  C   C138      1.0  0.27053  0.53872  0.25708  1.0000
  H   H212      1.0  0.15986  0.68352  0.38042  1.0000
  S   S33       1.0  0.29470  0.74382  0.32958  1.0000
  C   C139      1.0  0.26843  0.66226  0.41427  1.0000
  H   H213      1.0  0.27539  0.97458  0.19916  1.0000
  C   C140      1.0  0.28697  0.56643  0.23572  1.0000
  H   H214      1.0  0.29429  0.62260  0.45891  1.0000
  N   N7        1.0  0.03884  0.56167  0.44787  1.0000
  H   H215      1.0  0.24904  0.83096  0.14255  1.0000
  C   C141      1.0  0.25286  0.50702  0.18392  1.0000
  H   H216      1.0  0.04894  0.55330  0.38262  1.0000
  H   H217      1.0  0.03002  0.49425  0.40223  1.0000
  H   H218      1.0  0.29191  0.49351  0.13018  1.0000
  C   C142      1.0  0.27681  0.81538  0.20839  1.0000
  H   H219      1.0  0.01488  0.84599  0.09266  1.0000
  H   H220      1.0  0.22955  0.57004  0.18816  1.0000
  N   N8        1.0  0.24481  0.52219  0.22511  1.0000
  H   H221      1.0  0.26157  0.76772  0.45476  1.0000
  H   H222      1.0  0.01136  0.82293  0.03943  1.0000
  H   H223      1.0  0.06164  0.66010  0.40469  1.0000
  H   H224      1.0  0.23520  0.72111  0.39206  1.0000
  H   H225      1.0  0.27420  0.79553  0.14017  1.0000
  H   H226      1.0  0.27288  0.58968  0.22502  1.0000
  H   H227      1.0  0.29712  0.91954  0.27852  1.0000
  H   H228      1.0  0.24271  0.78766  0.16147  1.0000
  H   H229      1.0  0.18242  0.51784  0.20008  1.0000
  H   H230      1.0  0.20870  0.66524  0.37809  1.0000
  H   H231      1.0  0.16688  0.58056  0.19750  1.0000
  H   H232      1.0  0.03222  0.60617  0.40208  1.0000
  H   H233      1.0  0.07882  0.54865  0.42970  1.0000
  H   H234      1.0  0.99555  0.56551  0.45834  1.0000
  H   H235      1.0  0.00614  0.52246  0.44837  1.0000
  C   C143      1.0  0.05273  0.50248  0.41613  1.0000
  H   H236      1.0  0.06061  0.49071  0.45036  1.0000
  C   C144      1.0  0.20643  0.68130  0.40742  1.0000
  H   H237      1.0  0.19638  0.93512  0.39969  1.0000
  H   H238      1.0  0.24836  0.64502  0.48207  1.0000
  C   C145      1.0  0.28397  0.71722  0.45462  1.0000
  H   H239      1.0  0.23816  0.51685  0.31740  1.0000
  C   C146      1.0  0.00869  0.97376  0.00219  1.0000
  H   H240      1.0  0.26106  0.82431  0.22772  1.0000
  H   H241      1.0  0.28800  0.72621  0.42175  1.0000
  H   H242      1.0  0.09011  0.66879  0.45445  1.0000
  C   C147      1.0  0.99028  0.55463  0.38763  1.0000
  H   H243      1.0  0.02406  0.61500  0.45461  1.0000
  C   C148      1.0  0.07086  0.48685  0.38570  1.0000
  H   H244      1.0  0.28552  0.60144  0.37850  1.0000
  C   C149      1.0  0.30357  0.56957  0.07007  1.0000
  H   H245      1.0  0.06311  0.49670  0.35034  1.0000
  H   H246      1.0  0.23528  0.60903  0.00393  1.0000
  H   H247      1.0  0.09107  0.95288  0.17513  1.0000
  Fe  Fe16      1.0  0.15100  0.98076  0.10448  1.0000
  H   H248      1.0  0.23449  0.49189  0.16311  1.0000
  C   C150      1.0  0.30761  0.83385  0.40245  1.0000
  C   C151      1.0  0.25828  0.98233  0.21496  1.0000
  C   C152      1.0  0.25741  0.95507  0.06727  1.0000
  H   H249      1.0  0.27580  0.93895  0.06183  1.0000
  C   C153      1.0  0.22933  0.98332  0.18900  1.0000
  H   H250      1.0  0.98776  0.58288  0.37828  1.0000
  S   S34       1.0  0.04401  0.97510  0.03993  1.0000
  H   H251      1.0  0.29911  0.49455  0.21394  1.0000
  H   H252      1.0  0.09405  0.49375  0.39861  1.0000
  H   H253      1.0  0.28626  0.51826  0.27429  1.0000
  H   H254      1.0  0.28699  0.79048  0.22360  1.0000
  H   H255      1.0  0.30887  0.63605  0.36731  1.0000
  H   H256      1.0  0.30670  0.92070  0.21181  1.0000
  C   C154      1.0  0.29958  0.84424  0.20786  1.0000
  C   C155      1.0  0.98449  0.98332  0.01877  1.0000
  H   H257      1.0  0.30886  0.58883  0.30103  1.0000
  H   H258      1.0  0.98643  0.87523  0.99768  1.0000
  H   H259      1.0  0.18477  0.51662  0.90465  1.0000
  H   H260      1.0  0.28252  0.53704  0.87247  1.0000
  S   S35       1.0  0.12066  0.51170  0.56659  1.0000
  H   H261      1.0  0.24904  0.57643  0.94302  1.0000
  H   H262      1.0  0.21313  0.52553  0.95494  1.0000
  H   H263      1.0  0.14354  0.53553  0.75319  1.0000
  Fe  Fe17      1.0  0.14225  0.49880  0.50993  1.0000
  H   H264      1.0  0.29862  0.64445  0.59624  1.0000
  C   C156      1.0  0.29486  0.58097  0.83706  1.0000
  H   H265      1.0  0.08086  0.57485  0.58464  1.0000
  C   C157      1.0  0.20708  0.60117  0.93639  1.0000
  H   H266      1.0  0.23977  0.55041  0.81604  1.0000
  C   C158      1.0  0.25746  0.67186  0.48957  1.0000
  C   C159      1.0  0.04018  0.57156  0.53288  1.0000
  H   H267      1.0  0.19118  0.59689  0.83514  1.0000
  H   H268      1.0  0.27374  0.61840  0.55524  1.0000
  H   H269      1.0  0.19147  0.61775  0.91163  1.0000
  H   H270      1.0  0.24128  0.61237  0.90462  1.0000
  H   H271      1.0  0.29113  0.69504  0.54430  1.0000
  C   C160      1.0  0.22816  0.52512  0.89234  1.0000
  H   H272      1.0  0.04872  0.57753  0.60599  1.0000
  H   H273      1.0  0.22654  0.50686  0.86340  1.0000
  C   C161      1.0  0.26213  0.50080  0.72608  1.0000
  H   H274      1.0  0.28871  0.56946  0.80250  1.0000
  C   C162      1.0  0.24387  0.56910  0.84491  1.0000
  C   C163      1.0  0.05865  0.56445  0.58077  1.0000
  S   S36       1.0  0.30523  0.49405  0.80466  1.0000
  H   H275      1.0  0.22948  0.64780  0.96840  1.0000
  C   C164      1.0  0.28479  0.66878  0.52962  1.0000
  C   C165      1.0  0.21907  0.62391  0.97805  1.0000
  H   H276      1.0  0.24109  0.68633  0.50346  1.0000
  H   H277      1.0  0.18315  0.51693  0.81724  1.0000
  H   H278      1.0  0.01811  0.56167  0.53154  1.0000
  H   H279      1.0  0.23978  0.59583  0.82944  1.0000
  H   H280      1.0  0.22823  0.50879  0.66477  1.0000
  H   H281      1.0  0.25056  0.52127  0.91353  1.0000
  H   H282      1.0  0.19490  0.54810  0.78070  1.0000
  H   H283      1.0  0.30362  0.65757  0.51911  1.0000
  H   H284      1.0  0.19508  0.57918  0.94692  1.0000
  H   H285      1.0  0.14841  0.58077  0.77030  1.0000
  H   H286      1.0  0.28316  0.57844  0.90075  1.0000
  H   H287      1.0  0.06000  0.53582  0.58819  1.0000
  C   C166      1.0  0.18218  0.54486  0.80653  1.0000
  C   C167      1.0  0.15068  0.55320  0.78283  1.0000
  H   H288      1.0  0.03895  0.60040  0.52787  1.0000
  C   C168      1.0  0.27673  0.56530  0.86734  1.0000
  H   H289      1.0  0.07767  0.61653  0.49284  1.0000
  H   H290      1.0  0.05127  0.52433  0.50295  1.0000
  H   H291      1.0  0.17736  0.56700  0.86911  1.0000
  C   C169      1.0  0.26910  0.48979  0.77171  1.0000
  N   N9        1.0  0.22376  0.56254  0.87563  1.0000
  C   C170      1.0  0.19323  0.56928  0.84794  1.0000
  C   C171      1.0  0.23172  0.58797  0.91505  1.0000
  H   H292      1.0  0.13636  0.54899  0.80627  1.0000
  H   H293      1.0  0.26667  0.74389  0.50731  1.0000
  H   H294      1.0  0.07670  0.55775  0.50427  1.0000
  H   H295      1.0  0.02217  0.95556  0.94354  1.0000
  C   C172      1.0  0.27902  0.64558  0.56760  1.0000
  H   H296      1.0  0.26078  0.65640  0.58042  1.0000
  C   C173      1.0  0.20787  0.51209  0.92162  1.0000
  S   S37       1.0  0.17429  0.48960  0.68859  1.0000
  C   C174      1.0  0.00393  0.96303  0.95695  1.0000
  C   C175      1.0  0.23339  0.49949  0.69953  1.0000
  H   H297      1.0  0.29182  0.60991  0.83442  1.0000
  H   H298      1.0  0.27899  0.51094  0.71136  1.0000
  C   C176      1.0  0.05299  0.55283  0.49670  1.0000
  S   S38       1.0  0.11318  0.94309  0.98568  1.0000
  H   H299      1.0  0.29788  0.79726  0.51233  1.0000
  C   C177      1.0  0.21125  0.48736  0.71851  1.0000
  C   C178      1.0  0.30403  0.77210  0.49861  1.0000
  H   H300      1.0  0.44508  0.36952  0.07859  1.0000
  H   H301      1.0  0.48709  0.13798  0.42194  1.0000
  H   H302      1.0  0.59362  0.10115  0.41865  1.0000
  H   H303      1.0  0.40787  0.36432  0.08239  1.0000
  S   S39       1.0  0.34813  0.01187  0.42198  1.0000
  C   C179      1.0  0.35575  0.27055  0.00056  1.0000
  S   S40       1.0  0.62874  0.41170  0.03841  1.0000
  H   H304      1.0  0.36831  0.26055  0.03399  1.0000
  H   H305      1.0  0.40185  0.43005  0.07667  1.0000
  Fe  Fe18      1.0  0.59337  0.45283  0.01565  1.0000
  H   H306      1.0  0.49198  0.31126  0.05748  1.0000
  H   H307      1.0  0.33698  0.28638  0.00527  1.0000
  H   H308      1.0  0.47998  0.11907  0.47260  1.0000
  C   C180      1.0  0.42338  0.41700  0.08763  1.0000
  C   C181      1.0  0.42274  0.38017  0.06757  1.0000
  C   C182      1.0  0.49470  0.11822  0.44929  1.0000
  H   H309      1.0  0.39261  0.39693  0.00523  1.0000
  C   C183      1.0  0.47707  0.28865  0.04853  1.0000
  H   H310      1.0  0.49360  0.09180  0.43348  1.0000
  H   H311      1.0  0.40418  0.05884  0.44428  1.0000
  H   H312      1.0  0.44246  0.31288  0.07145  1.0000
  H   H313      1.0  0.42931  0.41535  0.12527  1.0000
  C   C184      1.0  0.50720  0.46621  0.02469  1.0000
  C   C185      1.0  0.60532  0.08074  0.44250  1.0000
  C   C186      1.0  0.48397  0.99764  0.46671  1.0000
  S   S41       1.0  0.41959  0.48217  0.99935  1.0000
  H   H314      1.0  0.52552  0.46905  0.05350  1.0000
  S   S42       1.0  0.34370  0.44928  0.00482  1.0000
  H   H315      1.0  0.48191  0.26965  0.07727  1.0000
  H   H316      1.0  0.53916  0.12577  0.44962  1.0000
  H   H317      1.0  0.56692  0.06421  0.46135  1.0000
  C   C187      1.0  0.47898  0.47487  0.02868  1.0000
  Fe  Fe19      1.0  0.31685  0.00567  0.46717  1.0000
  C   C188      1.0  0.41310  0.38128  0.01509  1.0000
  H   H318      1.0  0.43978  0.43332  0.07685  1.0000
  H   H319      1.0  0.63981  0.38866  0.33614  1.0000
  H   H320      1.0  0.43732  0.00331  0.44351  1.0000
  H   H321      1.0  0.43178  0.27729  0.03323  1.0000
  H   H322      1.0  0.60706  0.05657  0.42292  1.0000
  H   H323      1.0  0.39326  0.31774  0.04216  1.0000
  C   C189      1.0  0.44557  0.30098  0.03982  1.0000
  C   C190      1.0  0.58903  0.07263  0.47889  1.0000
  H   H324      1.0  0.48826  0.02258  0.45266  1.0000
  H   H325      1.0  0.42608  0.09297  0.47684  1.0000
  C   C191      1.0  0.45464  0.47065  0.99197  1.0000
  H   H326      1.0  0.48108  0.27544  0.01802  1.0000
  C   C192      1.0  0.52579  0.12639  0.47484  1.0000
  H   H327      1.0  0.62754  0.09002  0.45825  1.0000
  H   H328      1.0  0.36687  0.34315  0.00495  1.0000
  C   C193      1.0  0.38605  0.32590  0.00612  1.0000
  C   C194      1.0  0.45499  0.98679  0.46152  1.0000
  H   H329      1.0  0.45583  0.34554  0.00175  1.0000
  H   H330      1.0  0.47597  0.48468  0.06063  1.0000
  C   C195      1.0  0.43770  0.32660  0.99862  1.0000
  H   H331      1.0  0.38791  0.10028  0.45303  1.0000
  C   C196      1.0  0.40448  0.08038  0.46900  1.0000
  H   H332      1.0  0.42979  0.39724  0.00433  1.0000
  N   N10       1.0  0.40918  0.34629  0.99104  1.0000
  C   C197      1.0  0.48722  0.44938  0.94689  1.0000
  C   C198      1.0  0.41918  0.03667  0.53414  1.0000
  H   H333      1.0  0.59858  0.07177  0.58877  1.0000
  Fe  Fe20      1.0  0.37181  0.47308  0.96223  1.0000
  S   S43       1.0  0.35408  0.43822  0.90221  1.0000
  H   H334      1.0  0.64169  0.11159  0.64986  1.0000
  H   H335      1.0  0.59921  0.44510  0.88161  1.0000
  C   C199      1.0  0.42528  0.05626  0.61306  1.0000
  H   H336      1.0  0.44031  0.07448  0.60157  1.0000
  C   C200      1.0  0.56547  0.41160  0.80493  1.0000
  H   H337      1.0  0.44105  0.04647  0.53368  1.0000
  H   H338      1.0  0.41740  0.09015  0.69155  1.0000
  C   C201      1.0  0.40808  0.37761  0.86775  1.0000
  H   H339      1.0  0.60038  0.05028  0.49941  1.0000
  C   C202      1.0  0.58858  0.10483  0.50989  1.0000
  H   H340      1.0  0.41509  0.01384  0.51065  1.0000
  H   H341      1.0  0.57313  0.04681  0.54920  1.0000
  H   H342      1.0  0.59323  0.19468  0.61944  1.0000
  H   H343      1.0  0.61174  0.39662  0.93416  1.0000
  C   C203      1.0  0.41679  0.37885  0.91960  1.0000
  Fe  Fe21      1.0  0.31971  0.48000  0.87980  1.0000
  H   H344      1.0  0.31956  0.11329  0.57169  1.0000
  H   H345      1.0  0.44019  0.37229  0.93088  1.0000
  H   H346      1.0  0.57384  0.40526  0.91350  1.0000
  H   H347      1.0  0.47249  0.00231  0.55590  1.0000
  C   C204      1.0  0.43986  0.08118  0.69288  1.0000
  C   C205      1.0  0.55712  0.06480  0.60524  1.0000
  H   H348      1.0  0.55337  0.45044  0.85154  1.0000
  C   C206      1.0  0.39752  0.06618  0.51227  1.0000
  H   H349      1.0  0.37581  0.36493  0.93359  1.0000
  H   H350      1.0  0.55779  0.08785  0.62772  1.0000
  H   H351      1.0  0.55117  0.14019  0.58241  1.0000
  C   C207      1.0  0.39818  0.35368  0.94081  1.0000
  H   H352      1.0  0.53423  0.05947  0.58785  1.0000
  C   C208      1.0  0.58101  0.16982  0.55293  1.0000
  C   C209      1.0  0.59346  0.37355  0.86727  1.0000
  H   H353      1.0  0.61107  0.10813  0.53078  1.0000
  H   H354      1.0  0.58267  0.36332  0.97672  1.0000
  H   H355      1.0  0.41345  0.40621  0.92975  1.0000
  H   H356      1.0  0.60390  0.16749  0.55050  1.0000
  C   C210      1.0  0.56832  0.03290  0.63520  1.0000
  H   H357      1.0  0.37175  0.03239  0.56605  1.0000
  H   H358      1.0  0.47851  0.02910  0.60541  1.0000
  C   C211      1.0  0.53678  0.09955  0.51360  1.0000
  C   C212      1.0  0.57545  0.07094  0.57004  1.0000
  H   H359      1.0  0.60181  0.33402  0.94740  1.0000
  H   H360      1.0  0.38467  0.38378  0.85488  1.0000
  H   H361      1.0  0.34727  0.24781  0.97863  1.0000
  C   C213      1.0  0.37486  0.29274  0.97778  1.0000
  H   H362      1.0  0.41264  0.35120  0.85554  1.0000
  H   H363      1.0  0.58834  0.12974  0.60320  1.0000
  C   C214      1.0  0.57953  0.20033  0.58490  1.0000
  H   H364      1.0  0.59124  0.03665  0.65392  1.0000
  H   H365      1.0  0.39298  0.27619  0.97240  1.0000
  H   H366      1.0  0.55687  0.20517  0.58701  1.0000
  H   H367      1.0  0.43849  0.31036  0.96845  1.0000
  H   H368      1.0  0.42067  0.39733  0.85371  1.0000
  Fe  Fe22      1.0  0.32409  0.41757  0.94264  1.0000
  H   H369      1.0  0.39790  0.08851  0.53576  1.0000
  H   H370      1.0  0.56750  0.17682  0.51897  1.0000
  C   C215      1.0  0.51153  0.45340  0.98366  1.0000
  H   H371      1.0  0.56675  0.00879  0.61420  1.0000
  H   H372      1.0  0.56703  0.42976  0.77689  1.0000
  H   H373      1.0  0.39642  0.32884  0.92114  1.0000
  H   H374      1.0  0.52183  0.10188  0.53646  1.0000
  H   H375      1.0  0.57538  0.35534  0.85286  1.0000
  C   C216      1.0  0.32063  0.33678  0.86566  1.0000
  H   H376      1.0  0.32964  0.31555  0.80461  1.0000
  S   S44       1.0  0.54347  0.99259  0.49720  1.0000
  C   C217      1.0  0.38827  0.01172  0.57907  1.0000
  H   H377      1.0  0.38141  0.02243  0.64642  1.0000
  H   H378      1.0  0.61329  0.35690  0.87423  1.0000
  H   H379      1.0  0.49024  0.43964  0.91492  1.0000
  S   S45       1.0  0.31452  0.05420  0.51169  1.0000
  H   H380      1.0  0.53295  0.07269  0.49894  1.0000
  H   H381      1.0  0.55460  0.38795  0.78759  1.0000
  N   N11       1.0  0.56779  0.10316  0.54033  1.0000
  H   H382      1.0  0.40522  0.07206  0.61134  1.0000
  C   C218      1.0  0.59091  0.38521  0.91512  1.0000
  C   C219      1.0  0.57140  0.13491  0.57124  1.0000
  H   H383      1.0  0.33243  0.36075  0.86437  1.0000
  H   H384      1.0  0.55507  0.02911  0.66029  1.0000
  C   C220      1.0  0.51624  0.44028  0.79766  1.0000
  H   H385      1.0  0.36138  0.30045  0.94392  1.0000
  H   H386      1.0  0.56329  0.34209  0.92562  1.0000
  C   C221      1.0  0.45904  0.45815  0.95085  1.0000
  C   C222      1.0  0.58427  0.35410  0.94274  1.0000
  H   H387      1.0  0.37517  0.05587  0.50243  1.0000
  H   H388      1.0  0.58780  0.22455  0.57208  1.0000
  H   H389      1.0  0.53779  0.40736  0.85275  1.0000
  C   C223      1.0  0.43971  0.99514  0.59485  1.0000
  H   H390      1.0  0.46231  0.03960  0.66828  1.0000
  C   C224      1.0  0.31898  0.31113  0.83178  1.0000
  H   H391      1.0  0.42830  0.02749  0.67810  1.0000
  H   H392      1.0  0.50112  0.45093  0.81711  1.0000
  N   N12       1.0  0.41838  0.02517  0.58154  1.0000
  H   H393      1.0  0.45180  0.10271  0.68085  1.0000
  S   S46       1.0  0.54645  0.44124  0.97648  1.0000
  C   C225      1.0  0.43953  0.04837  0.66390  1.0000
  S   S47       1.0  0.31206  0.36034  0.94783  1.0000
  S   S48       1.0  0.62167  0.99492  0.57674  1.0000
  C   C226      1.0  0.47120  0.00286  0.59182  1.0000
  H   H394      1.0  0.44081  0.45581  0.92183  1.0000
  H   H395      1.0  0.45080  0.07510  0.72878  1.0000
  H   H396      1.0  0.33481  0.00075  0.59661  1.0000
  H   H397      1.0  0.38337  0.98970  0.55437  1.0000
  N   N13       1.0  0.59522  0.40215  0.83327  1.0000
  S   S49       1.0  0.61862  0.48107  0.97282  1.0000
  H   H398      1.0  0.61000  0.33070  0.80742  1.0000
  C   C227      1.0  0.38173  0.99945  0.62415  1.0000
  H   H399      1.0  0.58169  0.34992  0.76360  1.0000
  C   C228      1.0  0.61064  0.43383  0.85717  1.0000
  C   C229      1.0  0.60496  0.35153  0.78093  1.0000
  H   H400      1.0  0.61780  0.31552  0.73382  1.0000
  C   C230      1.0  0.54407  0.42761  0.83065  1.0000
  C   C231      1.0  0.61304  0.38840  0.80188  1.0000
  H   H401      1.0  0.50544  0.41822  0.77642  1.0000
  H   H402      1.0  0.63215  0.42557  0.87813  1.0000
  C   C232      1.0  0.62230  0.34287  0.74598  1.0000
  C   C233      1.0  0.61585  0.46455  0.82653  1.0000
  H   H403      1.0  0.61631  0.36099  0.71640  1.0000
  H   H404      1.0  0.61176  0.40680  0.77291  1.0000
  H   H405      1.0  0.63640  0.38692  0.82017  1.0000
  H   H406      1.0  0.63023  0.45621  0.80463  1.0000
  H   H407      1.0  0.59514  0.47460  0.80488  1.0000
  H   H408      1.0  0.52097  0.46147  0.77535  1.0000
  H   H409      1.0  0.52573  0.15320  0.48882  1.0000
  H   H410      1.0  0.58442  0.12840  0.48768  1.0000
  H   H411      1.0  0.37971  0.84364  0.30387  1.0000
  C   C234      1.0  0.32849  0.91094  0.21118  1.0000
  S   S50       1.0  0.33542  0.93032  0.39108  1.0000
  H   H412      1.0  0.31543  0.77829  0.47172  1.0000
  H   H413      1.0  0.55984  0.68274  0.03108  1.0000
  H   H414      1.0  0.33342  0.79389  0.38071  1.0000
  H   H415      1.0  0.32343  0.80015  0.28080  1.0000
  N   N14       1.0  0.31957  0.85315  0.25314  1.0000
  C   C235      1.0  0.31425  0.57859  0.26986  1.0000
  H   H416      1.0  0.63000  0.61704  0.17303  1.0000
  H   H417      1.0  0.49547  0.56939  0.02828  1.0000
  H   H418      1.0  0.54301  0.58140  0.10974  1.0000
  H   H419      1.0  0.32230  0.61199  0.11440  1.0000
  H   H420      1.0  0.35667  0.83596  0.34150  1.0000
  H   H421      1.0  0.62484  0.57172  0.11273  1.0000
  H   H422      1.0  0.37075  0.93454  0.21561  1.0000
  H   H423      1.0  0.31565  0.65817  0.44477  1.0000
  C   C236      1.0  0.56878  0.62816  0.05233  1.0000
  S   S51       1.0  0.41294  0.94061  0.47805  1.0000
  H   H424      1.0  0.52384  0.61842  0.05181  1.0000
  C   C237      1.0  0.63629  0.59574  0.11021  1.0000
  H   H425      1.0  0.34013  0.96235  0.19046  1.0000
  C   C238      1.0  0.50646  0.56431  0.00047  1.0000
  H   H426      1.0  0.34898  0.89517  0.28081  1.0000
  H   H427      1.0  0.39712  0.79420  0.35642  1.0000
  H   H428      1.0  0.34965  0.95517  0.25086  1.0000
  H   H429      1.0  0.31265  0.83600  0.18371  1.0000
  H   H430      1.0  0.32297  0.56469  0.05839  1.0000
  H   H431      1.0  0.55459  0.53407  0.16605  1.0000
  N   N15       1.0  0.53760  0.57583  0.01428  1.0000
  C   C239      1.0  0.55355  0.55241  0.05248  1.0000
  H   H432      1.0  0.52968  0.63103  0.99880  1.0000
  H   H433      1.0  0.32449  0.60000  0.25444  1.0000
  H   H434      1.0  0.33003  0.55658  0.27910  1.0000
  C   C240      1.0  0.36353  0.82541  0.31178  1.0000
  H   H435      1.0  0.58510  0.54163  0.14201  1.0000
  C   C241      1.0  0.54301  0.55418  0.09699  1.0000
  C   C242      1.0  0.34015  0.88206  0.24754  1.0000
  C   C243      1.0  0.37910  0.79038  0.32587  1.0000
  H   H436      1.0  0.58945  0.67641  0.08031  1.0000
  H   H437      1.0  0.34577  0.80853  0.24274  1.0000
  H   H438      1.0  0.36400  0.77070  0.33414  1.0000
  H   H439      1.0  0.55157  0.52446  0.04181  1.0000
  H   H440      1.0  0.57721  0.55776  0.06051  1.0000
  H   H441      1.0  0.62680  0.52469  0.21522  1.0000
  C   C244      1.0  0.34860  0.94259  0.21750  1.0000
  C   C245      1.0  0.53842  0.61379  0.02873  1.0000
  H   H442      1.0  0.38825  0.77997  0.29813  1.0000
  H   H443      1.0  0.35926  0.87078  0.23726  1.0000
  H   H444      1.0  0.32611  0.84907  0.41969  1.0000
  C   C246      1.0  0.56744  0.66725  0.06285  1.0000
  H   H445      1.0  0.57763  0.61447  0.08505  1.0000
  H   H446      1.0  0.52073  0.54369  0.09142  1.0000
  C   C247      1.0  0.33723  0.82052  0.27039  1.0000
  Fe  Fe23      1.0  0.36582  0.95883  0.44817  1.0000
  C   C248      1.0  0.44900  0.95476  0.48001  1.0000
  S   S52       1.0  0.61777  0.97940  0.46923  1.0000
  C   C249      1.0  0.56244  0.53209  0.13456  1.0000
  H   H447      1.0  0.58431  0.62483  0.03070  1.0000
  H   H448      1.0  0.55276  0.67203  0.08563  1.0000
  C   C250      1.0  0.63936  0.62135  0.14442  1.0000
  Fe  Fe24      1.0  0.31489  0.98295  0.36873  1.0000
  H   H449      1.0  0.56197  0.50403  0.12451  1.0000
  S   S53       1.0  0.60999  0.48762  0.07603  1.0000
  H   H450      1.0  0.32710  0.90012  0.17675  1.0000
  H   H451      1.0  0.31808  0.86861  0.32103  1.0000
  Fe  Fe25      1.0  0.63716  0.51333  0.03465  1.0000
  H   H452      1.0  0.32324  0.60209  0.40805  1.0000
  C   C251      1.0  0.31171  0.80266  0.38007  1.0000
  H   H453      1.0  0.64144  0.82140  0.38572  1.0000
  H   H454      1.0  0.50515  0.53541  0.99543  1.0000
  S   S54       1.0  0.64086  0.57228  0.02591  1.0000
  Fe  Fe26      1.0  0.63912  0.92703  0.49104  1.0000
  C   C252      1.0  0.45681  0.56709  0.94616  1.0000
  H   H455      1.0  0.52755  0.52752  0.93979  1.0000
  S   S55       1.0  0.33566  0.95337  0.49495  1.0000
  H   H456      1.0  0.61663  0.50627  0.87594  1.0000
  C   C253      1.0  0.63076  0.49516  0.85517  1.0000
  S   S56       1.0  0.60958  0.91562  0.53779  1.0000
  H   H457      1.0  0.55098  0.55589  0.88466  1.0000
  S   S57       1.0  0.33966  0.51728  0.93659  1.0000
  H   H458      1.0  0.44051  0.98562  0.62964  1.0000
  H   H459      1.0  0.49384  0.97612  0.65414  1.0000
  H   H460      1.0  0.51913  0.92750  0.52512  1.0000
  Fe  Fe27      1.0  0.31082  0.49146  0.97614  1.0000
  H   H461      1.0  0.58635  0.54631  0.92127  1.0000
  H   H462      1.0  0.48558  0.61086  0.96289  1.0000
  C   C254      1.0  0.56344  0.53763  0.91095  1.0000
  H   H463      1.0  0.48573  0.94850  0.60418  1.0000
  H   H464      1.0  0.56293  0.51097  0.89604  1.0000
  C   C255      1.0  0.55020  0.53646  0.95199  1.0000
  H   H465      1.0  0.49637  0.57812  0.92744  1.0000
  C   C256      1.0  0.35186  0.98260  0.61583  1.0000
  H   H466      1.0  0.54363  0.59313  0.94905  1.0000
  H   H467      1.0  0.43235  0.97197  0.57269  1.0000
  Fe  Fe28      1.0  0.58991  0.96937  0.51849  1.0000
  C   C257      1.0  0.49251  0.97517  0.61715  1.0000
  H   H468      1.0  0.39773  0.97978  0.64214  1.0000
  C   C258      1.0  0.47247  0.93354  0.50275  1.0000
  H   H469      1.0  0.56234  0.51647  0.97591  1.0000
  C   C259      1.0  0.55213  0.57281  0.97544  1.0000
  C   C260      1.0  0.50744  0.97641  0.48961  1.0000
  H   H470      1.0  0.44647  0.57066  0.97497  1.0000
  H   H471      1.0  0.46822  0.90870  0.51716  1.0000
  H   H472      1.0  0.45742  0.53860  0.93851  1.0000
  H   H473      1.0  0.31814  0.57510  0.85184  1.0000
  C   C261      1.0  0.50145  0.94413  0.50732  1.0000
  H   H474      1.0  0.34681  0.97637  0.64881  1.0000
  H   H475      1.0  0.44326  0.58067  0.91589  1.0000
  H   H476      1.0  0.35142  0.95779  0.59658  1.0000
  H   H477      1.0  0.51437  0.98013  0.61161  1.0000
  C   C262      1.0  0.48739  0.58221  0.95749  1.0000
  H   H478      1.0  0.63541  0.51625  0.83268  1.0000
  H   H479      1.0  0.31901  0.75744  0.52644  1.0000
  H   H480      1.0  0.57566  0.57844  0.98731  1.0000
  H   H481      1.0  0.78703  0.31562  0.32755  1.0000
  H   H482      1.0  0.94520  0.38132  0.38690  1.0000
  S   S58       1.0  0.84464  0.41441  0.40500  1.0000
  H   H483      1.0  0.82741  0.34038  0.19896  1.0000
  H   H484      1.0  0.91740  0.42452  0.33446  1.0000
  Fe  Fe29      1.0  0.81371  0.44858  0.35499  1.0000
  S   S59       1.0  0.79547  0.43346  0.28124  1.0000
  H   H485      1.0  0.73780  0.33100  0.33914  1.0000
  S   S60       1.0  0.66314  0.43681  0.17118  1.0000
  H   H486      1.0  0.74631  0.29137  0.39646  1.0000
  C   C263      1.0  0.90449  0.37026  0.33771  1.0000
  C   C264      1.0  0.75868  0.43730  0.25112  1.0000
  C   C265      1.0  0.73649  0.44306  0.27323  1.0000
  C   C266      1.0  0.70735  0.44346  0.24821  1.0000
  C   C267      1.0  0.70014  0.43895  0.20082  1.0000
  C   C268      1.0  0.72243  0.43458  0.17859  1.0000
  C   C269      1.0  0.75150  0.43336  0.20371  1.0000
  H   H487      1.0  0.88255  0.41924  0.34300  1.0000
  H   H488      1.0  0.90359  0.37895  0.23271  1.0000
  H   H489      1.0  0.71721  0.43100  0.14218  1.0000
  H   H490      1.0  0.74192  0.37644  0.33110  1.0000
  C   C270      1.0  0.83905  0.39558  0.21060  1.0000
  S   S61       1.0  0.78772  0.46320  0.40428  1.0000
  Fe  Fe30      1.0  0.87275  0.46200  0.42431  1.0000
  H   H491      1.0  0.78852  0.36120  0.31130  1.0000
  H   H492      1.0  0.82675  0.42069  0.20789  1.0000
  H   H493      1.0  0.75787  0.40085  0.43018  1.0000
  H   H494      1.0  0.78727  0.37892  0.39029  1.0000
  Fe  Fe31      1.0  0.65473  0.44233  0.99853  1.0000
  H   H495      1.0  0.80258  0.37115  0.16416  1.0000
  C   C271      1.0  0.68448  0.38809  0.32974  1.0000
  C   C272      1.0  0.74532  0.35565  0.35777  1.0000
  C   C273      1.0  0.79375  0.34235  0.34016  1.0000
  H   H496      1.0  0.74173  0.44654  0.30960  1.0000
  H   H497      1.0  0.88420  0.35626  0.33848  1.0000
  H   H498      1.0  0.94649  0.39315  0.29095  1.0000
  H   H499      1.0  0.85536  0.45610  0.28395  1.0000
  S   S62       1.0  0.92041  0.45830  0.41955  1.0000
  H   H500      1.0  0.81757  0.34223  0.35431  1.0000
  H   H501      1.0  0.91378  0.38006  0.41049  1.0000
  H   H502      1.0  0.89862  0.42222  0.21113  1.0000
  H   H503      1.0  0.73752  0.24766  0.45203  1.0000
  C   C274      1.0  0.90502  0.40697  0.24346  1.0000
  C   C275      1.0  0.73509  0.40019  0.40987  1.0000
  H   H504      1.0  0.69028  0.44716  0.26562  1.0000
  H   H505      1.0  0.69328  0.41646  0.42342  1.0000
  H   H506      1.0  0.85217  0.39561  0.18498  1.0000
  H   H507      1.0  0.86595  0.36257  0.26149  1.0000
  C   C276      1.0  0.71654  0.41506  0.44117  1.0000
  H   H508      1.0  0.69528  0.38433  0.30156  1.0000
  H   H509      1.0  0.91496  0.35623  0.31392  1.0000
  Fe  Fe32      1.0  0.82028  0.43192  0.45657  1.0000
  C   C277      1.0  0.95552  0.45870  0.45781  1.0000
  C   C278      1.0  0.77858  0.35309  0.37707  1.0000
  C   C279      1.0  0.89741  0.40901  0.32275  1.0000
  H   H510      1.0  0.84450  0.39278  0.28356  1.0000
  N   N16       1.0  0.88419  0.41474  0.27280  1.0000
  C   C280      1.0  0.92437  0.36784  0.38542  1.0000
  H   H511      1.0  0.80267  0.36605  0.22314  1.0000
  H   H512      1.0  0.76848  0.42906  0.18622  1.0000
  C   C281      1.0  0.85856  0.39046  0.25924  1.0000
  C   C282      1.0  0.81664  0.36638  0.19865  1.0000
  C   C283      1.0  0.73446  0.33825  0.43115  1.0000
  H   H513      1.0  0.69142  0.33464  0.35242  1.0000
  C   C284      1.0  0.93774  0.41335  0.26469  1.0000
  N   N17       1.0  0.72770  0.36372  0.39174  1.0000
  H   H514      1.0  0.76371  0.27977  0.47864  1.0000
  H   H515      1.0  0.78463  0.33350  0.40489  1.0000
  C   C285      1.0  0.73195  0.29871  0.41879  1.0000
  H   H516      1.0  0.92906  0.33987  0.39507  1.0000
  H   H517      1.0  0.70935  0.29209  0.40133  1.0000
  S   S63       1.0  0.67556  0.47735  0.05733  1.0000
  C   C286      1.0  0.69602  0.36093  0.36825  1.0000
  H   H518      1.0  0.68241  0.36264  0.39327  1.0000
  C   C287      1.0  0.87280  0.45203  0.26564  1.0000
  H   H519      1.0  0.73417  0.41918  0.38164  1.0000
  H   H520      1.0  0.68805  0.41544  0.34210  1.0000
  H   H521      1.0  0.94192  0.43923  0.28126  1.0000
  H   H522      1.0  0.93787  0.99017  0.00392  1.0000
  C   C288      1.0  0.74057  0.27578  0.46144  1.0000
  H   H523      1.0  0.71971  0.34287  0.45394  1.0000
  H   H524      1.0  0.86263  0.45710  0.22918  1.0000
  Fe  Fe33      1.0  0.64755  0.44931  0.09559  1.0000
  H   H525      1.0  0.94837  0.43184  0.20267  1.0000
  H   H526      1.0  0.75652  0.34289  0.45288  1.0000
  H   H527      1.0  0.72702  0.28216  0.48549  1.0000
  C   C289      1.0  0.95531  0.41100  0.22882  1.0000
  H   H528      1.0  0.95259  0.38487  0.21220  1.0000
  C   C290      1.0  0.72603  0.45219  0.45674  1.0000
  H   H529      1.0  0.72325  0.47026  0.42716  1.0000
  H   H530      1.0  0.74911  0.45218  0.47592  1.0000
  H   H531      1.0  0.71271  0.46219  0.47944  1.0000
  H   H532      1.0  0.71901  0.39863  0.47214  1.0000
  S   S64       1.0  0.85002  0.47843  0.47848  1.0000
  H   H533      1.0  0.64454  0.40328  0.28185  1.0000
  C   C291      1.0  0.65199  0.38390  0.30980  1.0000
  H   H534      1.0  0.64717  0.35715  0.29559  1.0000
  H   H535      1.0  0.91096  0.48124  0.25860  1.0000
  C   C292      1.0  0.89512  0.48176  0.27994  1.0000
  H   H536      1.0  0.90659  0.47969  0.31631  1.0000
  Fe  Fe34      1.0  0.81265  0.01128  0.91215  1.0000
  S   S65       1.0  0.78976  0.06445  0.90837  1.0000
  Fe  Fe35      1.0  0.75290  0.22673  0.74592  1.0000
  S   S66       1.0  0.70965  0.21512  0.75870  1.0000
  S   S67       1.0  0.79256  0.19155  0.77111  1.0000
  Fe  Fe36      1.0  0.72962  0.28911  0.68266  1.0000
  S   S68       1.0  0.68406  0.28080  0.69099  1.0000
  S   S69       1.0  0.73856  0.33760  0.64208  1.0000
  Fe  Fe37      1.0  0.70435  0.27373  0.76577  1.0000
  S   S70       1.0  0.68186  0.29046  0.82169  1.0000
  Fe  Fe38      1.0  0.69277  0.22301  0.68370  1.0000
  H   H537      1.0  0.88201  0.30107  0.74524  1.0000
  S   S71       1.0  0.74944  0.28491  0.75847  1.0000
  S   S72       1.0  0.73644  0.23170  0.66991  1.0000
  S   S73       1.0  0.65894  0.18339  0.64921  1.0000
  H   H538      1.0  0.74621  0.16469  0.61775  1.0000
  H   H539      1.0  0.86636  0.33390  0.77283  1.0000
  C   C293      1.0  0.83300  0.27437  0.76143  1.0000
  N   N18       1.0  0.75235  0.07853  0.70519  1.0000
  C   C294      1.0  0.68239  0.38671  0.91497  1.0000
  H   H540      1.0  0.84332  0.24912  0.75495  1.0000
  H   H541      1.0  0.70811  0.41177  0.87463  1.0000
  C   C295      1.0  0.68346  0.32772  0.85780  1.0000
  C   C296      1.0  0.69770  0.35870  0.85157  1.0000
  C   C297      1.0  0.69714  0.38793  0.87997  1.0000
  H   H542      1.0  0.72388  0.01429  0.71066  1.0000
  H   H543      1.0  0.69864  0.10186  0.71112  1.0000
  H   H544      1.0  0.70896  0.36022  0.82469  1.0000
  H   H545      1.0  0.75905  0.09283  0.77563  1.0000
  C   C298      1.0  0.75829  0.34982  0.60117  1.0000
  C   C299      1.0  0.77210  0.32518  0.57936  1.0000
  C   C300      1.0  0.78802  0.33626  0.54819  1.0000
  C   C301      1.0  0.78981  0.37205  0.53724  1.0000
  C   C302      1.0  0.77556  0.39669  0.55839  1.0000
  C   C303      1.0  0.76006  0.38562  0.59023  1.0000
  H   H546      1.0  0.77013  0.29758  0.58595  1.0000
  H   H547      1.0  0.65797  0.30259  0.89841  1.0000
  H   H548      1.0  0.77672  0.42431  0.55067  1.0000
  H   H549      1.0  0.74940  0.40503  0.60661  1.0000
  C   C304      1.0  0.79115  0.09924  0.86972  1.0000
  C   C305      1.0  0.81191  0.10037  0.84398  1.0000
  C   C306      1.0  0.81238  0.12900  0.81442  1.0000
  C   C307      1.0  0.79171  0.15630  0.80938  1.0000
  C   C308      1.0  0.77083  0.15491  0.83473  1.0000
  C   C309      1.0  0.77082  0.12682  0.86509  1.0000
  H   H550      1.0  0.82786  0.07952  0.84746  1.0000
  H   H551      1.0  0.82875  0.12987  0.79523  1.0000
  H   H552      1.0  0.75496  0.17579  0.83165  1.0000
  H   H553      1.0  0.75485  0.12641  0.88506  1.0000
  C   C310      1.0  0.66710  0.14638  0.61935  1.0000
  C   C311      1.0  0.68588  0.12045  0.55897  1.0000
  C   C312      1.0  0.68341  0.14927  0.58691  1.0000
  H   H554      1.0  0.75908  0.10116  0.61965  1.0000
  C   C313      1.0  0.86386  0.32055  0.73973  1.0000
  H   H555      1.0  0.73535  0.12957  0.67917  1.0000
  C   C314      1.0  0.71224  0.03087  0.68195  1.0000
  H   H556      1.0  0.69298  0.17420  0.58192  1.0000
  C   C315      1.0  0.86945  0.34872  0.70582  1.0000
  H   H557      1.0  0.71605  0.07826  0.64603  1.0000
  S   S74       1.0  0.68147  0.42500  0.94847  1.0000
  H   H558      1.0  0.90145  0.38760  0.69995  1.0000
  C   C316      1.0  0.78161  0.06057  0.71627  1.0000
  H   H559      1.0  0.73767  0.05564  0.76142  1.0000
  C   C317      1.0  0.71456  0.10534  0.74411  1.0000
  H   H560      1.0  0.87122  0.33654  0.67345  1.0000
  H   H561      1.0  0.87131  0.28101  0.81776  1.0000
  H   H562      1.0  0.65746  0.35397  0.94869  1.0000
  N   N19       1.0  0.83529  0.30170  0.72606  1.0000
  C   C318      1.0  0.83463  0.28277  0.68212  1.0000
  C   C319      1.0  0.80987  0.32687  0.71754  1.0000
  C   C320      1.0  0.80815  0.35211  0.75666  1.0000
  H   H563      1.0  0.71687  0.98818  0.63672  1.0000
  C   C321      1.0  0.80878  0.25760  0.66498  1.0000
  C   C322      1.0  0.78335  0.37863  0.74183  1.0000
  C   C323      1.0  0.81107  0.23950  0.62110  1.0000
  H   H564      1.0  0.80990  0.26779  0.75873  1.0000
  H   H565      1.0  0.83373  0.30191  0.65401  1.0000
  H   H566      1.0  0.80883  0.34284  0.68639  1.0000
  H   H567      1.0  0.78925  0.31219  0.70978  1.0000
  H   H568      1.0  0.82831  0.36732  0.76830  1.0000
  H   H569      1.0  0.80364  0.33712  0.78548  1.0000
  C   C324      1.0  0.83834  0.25611  0.84368  1.0000
  H   H570      1.0  0.85186  0.36874  0.69836  1.0000
  H   H571      1.0  0.78801  0.27231  0.65785  1.0000
  H   H572      1.0  0.80789  0.23670  0.69015  1.0000
  H   H573      1.0  0.78568  0.39378  0.71160  1.0000
  H   H574      1.0  0.76219  0.36499  0.73361  1.0000
  H   H575      1.0  0.78336  0.39730  0.76985  1.0000
  H   H576      1.0  0.79887  0.31691  0.53207  1.0000
  H   H577      1.0  0.79106  0.22439  0.60717  1.0000
  H   H578      1.0  0.81352  0.25908  0.59513  1.0000
  H   H579      1.0  0.82988  0.22113  0.62780  1.0000
  H   H580      1.0  0.85491  0.26709  0.68532  1.0000
  H   H581      1.0  0.84925  0.26216  0.87947  1.0000
  C   C325      1.0  0.96002  0.46901  0.50315  1.0000
  H   H582      1.0  0.77975  0.15733  0.60166  1.0000
  C   C326      1.0  0.65730  0.08517  0.59758  1.0000
  H   H583      1.0  0.91637  0.34917  0.73233  1.0000
  H   H584      1.0  0.79016  0.05860  0.68544  1.0000
  C   C327      1.0  0.78299  0.02259  0.73493  1.0000
  H   H585      1.0  0.69775  0.12324  0.53298  1.0000
  H   H586      1.0  0.84181  0.30915  0.82196  1.0000
  H   H587      1.0  0.89696  0.38199  0.75675  1.0000
  C   C328      1.0  0.76904  0.15586  0.63025  1.0000
  C   C329      1.0  0.77035  0.11820  0.64795  1.0000
  H   H588      1.0  0.72106  0.13340  0.74667  1.0000
  C   C330      1.0  0.84736  0.28264  0.81189  1.0000
  C   C331      1.0  0.74178  0.08169  0.74800  1.0000
  C   C332      1.0  0.69951  0.09778  0.78213  1.0000
  H   H589      1.0  0.79361  0.11068  0.65800  1.0000
  H   H590      1.0  0.77014  0.13080  0.71731  1.0000
  H   H591      1.0  0.78038  0.17370  0.65763  1.0000
  S   S75       1.0  0.67397  0.05349  0.52571  1.0000
  S   S76       1.0  0.80971  0.38386  0.49643  1.0000
  H   H592      1.0  0.82928  0.02434  0.76694  1.0000
  C   C333      1.0  0.73147  0.05944  0.66764  1.0000
  C   C334      1.0  0.67233  0.08844  0.56355  1.0000
  C   C335      1.0  0.89782  0.36794  0.72509  1.0000
  H   H593      1.0  0.84453  0.22900  0.83610  1.0000
  H   H594      1.0  0.69089  0.02137  0.61101  1.0000
  C   C336      1.0  0.75650  0.11534  0.68912  1.0000
  C   C337      1.0  0.65422  0.11413  0.62470  1.0000
  H   H595      1.0  0.79747  0.07653  0.74121  1.0000
  H   H596      1.0  0.69380  0.04350  0.69237  1.0000
  H   H597      1.0  0.81453  0.25724  0.83997  1.0000
  S   S77       1.0  0.83442  0.99318  0.85868  1.0000
  H   H598      1.0  0.74331  0.04734  0.64396  1.0000
  C   C338      1.0  0.66852  0.35559  0.92159  1.0000
  H   H599      1.0  0.68198  0.99111  0.65029  1.0000
  H   H600      1.0  0.71480  0.10119  0.81581  1.0000
  Fe  Fe39      1.0  0.65026  0.00201  0.52896  1.0000
  H   H601      1.0  0.68108  0.11636  0.77951  1.0000
  S   S78       1.0  0.84807  0.98987  0.97000  1.0000
  H   H602      1.0  0.69107  0.07055  0.77941  1.0000
  C   C339      1.0  0.66894  0.32643  0.89305  1.0000
  H   H603      1.0  0.64772  0.06044  0.60265  1.0000
  C   C340      1.0  0.81375  0.00779  0.74262  1.0000
  C   C341      1.0  0.69984  0.00641  0.64253  1.0000
  H   H604      1.0  0.76894  0.00505  0.71009  1.0000
  H   H605      1.0  0.77666  0.02153  0.76777  1.0000
  H   H606      1.0  0.82050  0.00651  0.71013  1.0000
  H   H607      1.0  0.94169  0.47638  0.51640  1.0000
  H   H608      1.0  0.64592  0.34496  0.76136  1.0000
  Fe  Fe40      1.0  0.73526  0.77479  0.16714  1.0000
  S   S79       1.0  0.69397  0.78147  0.19087  1.0000
  S   S80       1.0  0.73663  0.80579  0.10188  1.0000
  Fe  Fe41      1.0  0.75915  0.72094  0.24472  1.0000
  S   S81       1.0  0.72041  0.72617  0.27398  1.0000
  S   S82       1.0  0.79532  0.68056  0.26969  1.0000
  Fe  Fe42      1.0  0.69535  0.72267  0.20081  1.0000
  H   H609      1.0  0.68494  0.77141  0.42837  1.0000
  Fe  Fe43      1.0  0.72249  0.78452  0.26181  1.0000
  S   S83       1.0  0.72191  0.83190  0.30894  1.0000
  S   S84       1.0  0.73401  0.71555  0.17195  1.0000
  S   S85       1.0  0.76382  0.77968  0.23766  1.0000
  H   H610      1.0  0.82961  0.61786  0.29379  1.0000
  H   H611      1.0  0.71822  0.85327  0.20007  1.0000
  H   H612      1.0  0.94736  0.54448  0.34516  1.0000
  Fe  Fe44      1.0  0.81896  0.50819  0.42142  1.0000
  S   S86       1.0  0.79839  0.56252  0.42149  1.0000
  H   H613      1.0  0.72323  0.89325  0.36415  1.0000
  H   H614      1.0  0.76050  0.89258  0.99576  1.0000
  C   C342      1.0  0.76097  0.83434  0.08267  1.0000
  C   C343      1.0  0.75047  0.85442  0.04288  1.0000
  C   C344      1.0  0.76886  0.87696  0.02580  1.0000
  C   C345      1.0  0.79817  0.87949  0.04784  1.0000
  C   C346      1.0  0.80859  0.85991  0.08804  1.0000
  C   C347      1.0  0.79022  0.83739  0.10525  1.0000
  H   H615      1.0  0.72788  0.85257  0.02524  1.0000
  C   C348      1.0  0.78670  0.87065  0.21539  1.0000
  H   H616      1.0  0.83113  0.86186  0.10581  1.0000
  H   H617      1.0  0.79883  0.82197  0.13556  1.0000
  C   C349      1.0  0.69932  0.84555  0.34504  1.0000
  C   C350      1.0  0.67606  0.82555  0.35136  1.0000
  C   C351      1.0  0.71789  0.57935  0.18029  1.0000
  H   H618      1.0  0.89682  0.53873  0.28289  1.0000
  C   C352      1.0  0.70522  0.87760  0.36849  1.0000
  C   C353      1.0  0.76482  0.88817  0.23886  1.0000
  H   H619      1.0  0.87893  0.79349  0.05050  1.0000
  H   H620      1.0  0.69314  0.86723  0.08561  1.0000
  C   C354      1.0  0.66592  0.65832  0.10423  1.0000
  H   H621      1.0  0.67897  0.83654  0.12011  1.0000
  H   H622      1.0  0.75165  0.98033  0.11143  1.0000
  H   H623      1.0  0.67739  0.68238  0.10166  1.0000
  H   H624      1.0  0.72278  0.55480  0.16365  1.0000
  C   C355      1.0  0.79542  0.64775  0.31161  1.0000
  C   C356      1.0  0.77696  0.64959  0.34102  1.0000
  C   C357      1.0  0.77807  0.62334  0.37437  1.0000
  C   C358      1.0  0.79738  0.59468  0.37838  1.0000
  C   C359      1.0  0.81582  0.59286  0.34890  1.0000
  C   C360      1.0  0.81499  0.61935  0.31599  1.0000
  H   H625      1.0  0.76238  0.67175  0.33886  1.0000
  H   H626      1.0  0.76397  0.62533  0.39733  1.0000
  H   H627      1.0  0.83120  0.57144  0.35208  1.0000
  C   C361      1.0  0.71936  0.91830  0.23827  1.0000
  C   C362      1.0  0.93126  0.90764  0.05058  1.0000
  H   H628      1.0  0.89568  0.86749  0.08762  1.0000
  C   C363      1.0  0.65918  0.83735  0.38091  1.0000
  C   C364      1.0  0.73412  0.94400  0.27626  1.0000
  H   H629      1.0  0.95657  0.82813  0.02385  1.0000
  S   S87       1.0  0.65809  0.68384  0.18589  1.0000
  H   H630      1.0  0.77747  0.90821  0.26173  1.0000
  H   H631      1.0  0.86921  0.52192  0.23633  1.0000
  H   H632      1.0  0.70448  0.53443  0.27089  1.0000
  H   H633      1.0  0.90667  0.82728  0.00515  1.0000
  H   H634      1.0  0.69859  0.94284  0.31015  1.0000
  N   N20       1.0  0.71995  0.57310  0.22999  1.0000
  H   H635      1.0  0.66039  0.57415  0.22070  1.0000
  C   C365      1.0  0.70097  0.54240  0.23463  1.0000
  C   C366      1.0  0.71063  0.60624  0.24990  1.0000
  C   C367      1.0  0.75059  0.56430  0.25541  1.0000
  C   C368      1.0  0.76636  0.53611  0.23317  1.0000
  C   C369      1.0  0.73673  0.60977  0.16949  1.0000
  C   C370      1.0  0.70514  0.60241  0.29796  1.0000
  C   C371      1.0  0.79610  0.52716  0.26343  1.0000
  H   H636      1.0  0.69296  0.91432  0.41516  1.0000
  H   H637      1.0  0.71723  0.60810  0.09665  1.0000
  C   C372      1.0  0.90534  0.95974  0.07515  1.0000
  C   C373      1.0  0.90370  0.93117  0.03939  1.0000
  H   H638      1.0  0.70723  0.51877  0.21770  1.0000
  C   C374      1.0  0.67919  0.86451  0.10989  1.0000
  H   H639      1.0  0.69084  0.61778  0.22699  1.0000
  H   H640      1.0  0.72725  0.62709  0.25207  1.0000
  H   H641      1.0  0.76433  0.58814  0.26074  1.0000
  H   H642      1.0  0.75106  0.55503  0.29042  1.0000
  H   H643      1.0  0.76980  0.54568  0.20035  1.0000
  C   C375      1.0  0.74601  0.93458  0.18100  1.0000
  H   H644      1.0  0.72673  0.63536  0.17490  1.0000
  H   H645      1.0  0.75906  0.60910  0.19129  1.0000
  H   H646      1.0  0.72509  0.59339  0.32266  1.0000
  H   H647      1.0  0.68770  0.58337  0.29821  1.0000
  C   C376      1.0  0.76504  0.95605  0.11408  1.0000
  H   H648      1.0  0.69526  0.58602  0.16220  1.0000
  C   C377      1.0  0.87481  0.81879  0.06601  1.0000
  H   H649      1.0  0.74913  0.92932  0.30410  1.0000
  H   H650      1.0  0.71258  0.65737  0.31651  1.0000
  H   H651      1.0  0.67483  0.88560  0.17346  1.0000
  C   C378      1.0  0.72034  0.79957  0.47321  1.0000
  C   C379      1.0  0.81243  0.85497  0.25038  1.0000
  H   H652      1.0  0.71076  0.89611  0.25510  1.0000
  C   C380      1.0  0.68812  0.88960  0.39762  1.0000
  C   C381      1.0  0.66807  0.54777  0.21377  1.0000
  H   H653      1.0  0.86432  0.52065  0.29347  1.0000
  H   H654      1.0  0.81022  0.55059  0.26818  1.0000
  C   C382      1.0  0.75071  0.92574  0.13321  1.0000
  C   C383      1.0  0.69029  0.88766  0.15137  1.0000
  H   H655      1.0  0.75848  0.86807  0.26135  1.0000
  C   C384      1.0  0.73903  0.60844  0.12023  1.0000
  H   H656      1.0  0.66957  0.63880  0.03918  1.0000
  C   C385      1.0  0.88037  0.51787  0.27263  1.0000
  C   C386      1.0  0.66505  0.86937  0.40437  1.0000
  H   H657      1.0  0.93606  0.90018  0.08714  1.0000
  H   H658      1.0  0.69722  0.97942  0.27146  1.0000
  S   S88       1.0  0.82276  0.90616  0.02647  1.0000
  H   H659      1.0  0.65678  0.87254  0.09244  1.0000
  H   H660      1.0  0.75382  0.51149  0.22697  1.0000
  H   H661      1.0  0.68088  0.82300  0.48320  1.0000
  H   H662      1.0  0.68990  0.91527  0.13950  1.0000
  H   H663      1.0  0.94813  0.55122  0.40417  1.0000
  H   H664      1.0  0.94929  0.92510  0.04757  1.0000
  N   N21       1.0  0.73805  0.90448  0.20825  1.0000
  H   H665      1.0  0.75121  0.58459  0.11448  1.0000
  C   C387      1.0  0.90487  0.85272  0.02221  1.0000
  H   H666      1.0  0.90136  0.94431  0.00603  1.0000
  C   C388      1.0  0.64707  0.60194  0.07200  1.0000
  H   H667      1.0  0.65666  0.49414  0.22693  1.0000
  H   H668      1.0  0.72899  0.95548  0.17507  1.0000
  H   H669      1.0  0.69996  0.93220  0.21754  1.0000
  H   H670      1.0  0.88564  0.97662  0.06598  1.0000
  H   H671      1.0  0.79576  0.89031  0.19582  1.0000
  H   H672      1.0  0.76434  0.90214  0.13342  1.0000
  H   H673      1.0  0.70835  0.74426  0.47135  1.0000
  C   C389      1.0  0.95994  0.53927  0.38047  1.0000
  H   H674      1.0  0.69163  0.63391  0.34872  1.0000
  H   H675      1.0  0.87147  0.81332  0.10032  1.0000
  C   C390      1.0  0.95803  0.85460  0.03965  1.0000
  H   H676      1.0  0.73305  0.86559  0.15493  1.0000
  H   H677      1.0  0.77645  0.84913  0.19280  1.0000
  H   H678      1.0  0.80506  0.83602  0.27300  1.0000
  H   H679      1.0  0.72304  0.97911  0.32581  1.0000
  C   C391      1.0  0.69556  0.63734  0.31441  1.0000
  C   C392      1.0  0.72101  0.87630  0.17882  1.0000
  H   H680      1.0  0.82499  0.87602  0.27145  1.0000
  H   H681      1.0  0.72966  0.92068  0.10890  1.0000
  C   C393      1.0  0.95605  0.98224  0.99072  1.0000
  H   H682      1.0  0.82694  0.84085  0.23262  1.0000
  C   C394      1.0  0.66147  0.63358  0.06887  1.0000
  H   H683      1.0  0.90645  0.94782  0.10896  1.0000
  H   H684      1.0  0.67118  0.80087  0.33372  1.0000
  H   H685      1.0  0.76588  0.94774  0.20088  1.0000
  H   H686      1.0  0.67526  0.64697  0.29089  1.0000
  H   H687      1.0  0.80650  0.50623  0.24737  1.0000
  H   H688      1.0  0.66344  0.54421  0.17642  1.0000
  H   H689      1.0  0.72054  0.75934  0.42281  1.0000
  H   H690      1.0  0.75068  0.63197  0.11257  1.0000
  H   H691      1.0  0.88388  0.91594  0.03819  1.0000
  N   N22       1.0  0.93056  0.87550  0.02141  1.0000
  C   C395      1.0  0.70768  0.76660  0.44751  1.0000
  H   H692      1.0  0.72103  0.81995  0.44723  1.0000
  C   C396      1.0  0.90041  0.84357  0.06983  1.0000
  H   H693      1.0  0.91989  0.83046  0.09119  1.0000
  H   H694      1.0  0.85467  0.83098  0.04502  1.0000
  H   H695      1.0  0.79390  0.51749  0.29695  1.0000
  C   C397      1.0  0.65464  0.65246  0.14201  1.0000
  H   H696      1.0  0.65262  0.52539  0.26962  1.0000
  H   H697      1.0  0.76745  0.94914  0.07963  1.0000
  H   H698      1.0  0.74650  0.96439  0.26302  1.0000
  H   H699      1.0  0.88443  0.86500  0.00198  1.0000
  H   H700      1.0  0.92459  0.97653  0.07714  1.0000
  C   C398      1.0  0.71180  0.96242  0.29708  1.0000
  S   S89       1.0  0.84347  0.49465  0.36962  1.0000
  H   H701      1.0  0.96122  0.51042  0.38595  1.0000
  H   H702      1.0  0.78697  0.96102  0.13597  1.0000
  S   S90       1.0  0.64388  0.88147  0.44336  1.0000
  C   C399      1.0  0.65002  0.52131  0.23266  1.0000
  H   H703      1.0  0.96095  0.84945  0.07657  1.0000
  S   S91       1.0  0.67417  0.95050  0.54671  1.0000
  H   H704      1.0  0.75774  0.92332  0.49117  1.0000
  Fe  Fe45      1.0  0.80812  0.94439  0.85790  1.0000
  S   S92       1.0  0.78462  0.96319  0.90929  1.0000
  S   S93       1.0  0.78788  0.91903  0.78954  1.0000
  H   H705      1.0  0.67471  0.95685  0.86897  1.0000
  H   H706      1.0  0.94541  0.90624  0.97188  1.0000
  Fe  Fe46      1.0  0.86824  0.96823  0.91568  1.0000
  S   S94       1.0  0.84355  0.91746  0.91041  1.0000
  H   H707      1.0  0.69769  0.94429  0.92326  1.0000
  C   C400      1.0  0.69518  0.92873  0.69913  1.0000
  C   C401      1.0  0.70092  0.93798  0.74526  1.0000
  C   C402      1.0  0.72949  0.93749  0.77278  1.0000
  C   C403      1.0  0.75247  0.92640  0.75481  1.0000
  C   C404      1.0  0.74679  0.91783  0.70850  1.0000
  C   C405      1.0  0.71842  0.91959  0.68067  1.0000
  H   H708      1.0  0.68314  0.94542  0.75978  1.0000
  H   H709      1.0  0.73360  0.94442  0.80825  1.0000
  H   H710      1.0  0.76442  0.90938  0.69423  1.0000
  H   H711      1.0  0.71440  0.91298  0.64524  1.0000
  Fe  Fe47      1.0  0.82174  0.93983  0.96248  1.0000
  H   H712      1.0  0.75203  0.80265  0.74419  1.0000
  H   H713      1.0  0.75021  0.87469  0.82711  1.0000
  S   S95       1.0  0.91567  0.96619  0.90957  1.0000
  H   H714      1.0  0.72363  0.94208  0.49621  1.0000
  C   C406      1.0  0.92848  0.87279  0.89181  1.0000
  H   H715      1.0  0.76340  0.80952  0.82772  1.0000
  C   C407      1.0  0.78489  0.85256  0.91040  1.0000
  H   H716      1.0  0.68442  0.83785  0.84777  1.0000
  C   C408      1.0  0.97545  0.96175  0.92898  1.0000
  H   H717      1.0  0.78995  0.85426  0.87669  1.0000
  H   H718      1.0  0.64821  0.81726  0.88935  1.0000
  H   H719      1.0  0.72630  0.88712  0.92959  1.0000
  C   C409      1.0  0.72447  0.87011  0.51562  1.0000
  C   C410      1.0  0.74264  0.82034  0.80712  1.0000
  H   H720      1.0  0.72857  0.91009  0.56956  1.0000
  H   H721      1.0  0.67728  0.89257  0.87603  1.0000
  H   H722      1.0  0.80570  0.82991  0.97655  1.0000
  C   C411      1.0  0.73375  0.85439  0.82834  1.0000
  H   H723      1.0  0.66914  0.77682  0.90041  1.0000
  H   H724      1.0  0.79536  0.83112  0.63373  1.0000
  H   H725      1.0  0.73954  0.86141  0.49501  1.0000
  H   H726      1.0  0.69328  0.90760  0.83174  1.0000
  H   H727      1.0  0.76472  0.84617  0.76100  1.0000
  H   H728      1.0  0.72574  0.80001  0.80403  1.0000
  H   H729      1.0  0.92922  0.85126  0.86755  1.0000
  C   C412      1.0  0.75540  0.83451  0.90771  1.0000
  C   C413      1.0  0.74074  0.82287  0.57344  1.0000
  C   C414      1.0  0.74860  0.83763  0.62264  1.0000
  C   C415      1.0  0.74486  0.93139  0.51550  1.0000
  H   H730      1.0  0.75742  0.80630  0.89937  1.0000
  C   C416      1.0  0.72495  0.88750  0.89258  1.0000
  C   C417      1.0  0.70342  0.82832  0.87439  1.0000
  C   C418      1.0  0.77772  0.82318  0.64974  1.0000
  H   H731      1.0  0.71114  0.81013  0.94544  1.0000
  C   C419      1.0  0.67626  0.82293  0.58324  1.0000
  C   C420      1.0  0.80954  0.83209  0.94199  1.0000
  H   H732      1.0  0.69049  0.85025  0.93434  1.0000
  C   C421      1.0  0.69186  0.85214  0.56274  1.0000
  S   S96       1.0  0.65870  0.92594  0.66664  1.0000
  H   H733      1.0  0.67468  0.86684  0.53785  1.0000
  H   H734      1.0  0.70761  0.80117  0.86407  1.0000
  H   H735      1.0  0.78482  0.87951  0.92418  1.0000
  H   H736      1.0  0.76035  0.82448  0.55964  1.0000
  H   H737      1.0  0.73206  0.83011  0.64104  1.0000
  H   H738      1.0  0.74991  0.86657  0.62341  1.0000
  H   H739      1.0  0.78258  0.83391  0.68474  1.0000
  C   C422      1.0  0.69425  0.82444  0.91992  1.0000
  C   C423      1.0  0.69618  0.90634  0.86898  1.0000
  C   C424      1.0  0.74055  0.90028  0.54508  1.0000
  H   H740      1.0  0.71359  0.86406  0.80448  1.0000
  H   H741      1.0  0.70040  0.87156  0.58951  1.0000
  C   C425      1.0  0.66629  0.80352  0.91342  1.0000
  H   H742      1.0  0.81155  0.80536  0.92853  1.0000
  H   H743      1.0  0.77718  0.79406  0.65186  1.0000
  H   H744      1.0  0.73727  0.79420  0.57709  1.0000
  H   H745      1.0  0.75259  0.83446  0.94301  1.0000
  H   H746      1.0  0.69153  0.80205  0.60000  1.0000
  H   H747      1.0  0.74279  0.90494  0.88847  1.0000
  H   H748      1.0  0.76239  0.89116  0.56388  1.0000
  C   C426      1.0  0.74667  0.82752  0.75944  1.0000
  N   N23       1.0  0.72938  0.85112  0.87577  1.0000
  H   H749      1.0  0.71343  0.95952  0.87811  1.0000
  H   H750      1.0  0.94937  0.84146  0.94926  1.0000
  H   H751      1.0  0.91038  0.83994  0.93495  1.0000
  Fe  Fe48      1.0  0.64381  0.94237  0.59190  1.0000
  N   N24       1.0  0.71512  0.83954  0.54034  1.0000
  H   H752      1.0  0.90750  0.90151  0.95969  1.0000
  H   H753      1.0  0.90823  0.88826  0.87889  1.0000
  H   H754      1.0  0.65959  0.81052  0.55573  1.0000
  C   C427      1.0  0.92931  0.85747  0.93869  1.0000
  C   C428      1.0  0.69556  0.94401  0.88601  1.0000
  H   H755      1.0  0.72657  0.83879  0.73715  1.0000
  H   H756      1.0  0.74281  0.79343  0.49235  1.0000
  H   H757      1.0  0.83030  0.84600  0.94483  1.0000
  C   C429      1.0  0.66092  0.83780  0.61793  1.0000
  C   C430      1.0  0.92822  0.88709  0.97320  1.0000
  H   H758      1.0  0.94734  0.89017  0.89336  1.0000
  C   C431      1.0  0.95125  0.97114  0.94565  1.0000
  H   H759      1.0  0.69534  0.78885  0.52203  1.0000
  H   H760      1.0  0.64507  0.85850  0.60212  1.0000
  H   H761      1.0  0.97214  0.95313  0.89421  1.0000
  H   H762      1.0  0.75659  0.95261  0.53732  1.0000
  H   H763      1.0  0.67684  0.84922  0.64723  1.0000
  H   H764      1.0  0.81459  0.98075  0.75666  1.0000
  H   H765      1.0  0.70527  0.88159  0.49126  1.0000
  C   C432      1.0  0.70151  0.81259  0.50522  1.0000
  H   H766      1.0  0.66047  0.80070  0.94655  1.0000
  H   H767      1.0  0.65159  0.48637  0.87808  1.0000
  H   H768      1.0  0.64909  0.81657  0.63071  1.0000
