data_image0
_chemical_formula_structural       HSCHSC2FeHSFeS2FeS2FeSHS2HFeS2FeS2FeSFeS3C6H4NHCHC6H4C6H8C3H8C2NC6H14NC12H20CH6C4H4CH3CNC8H2C2H13CH5CH7CHCH3SHCH2C2H3SC3HCH3CH4FeHCH4CH7C2HNCSCH5CHSCHC2HC2FeHC2H4CH3CHS2HCHSHC2HSC2H2CHCFeH5FeH2CHC3H2CHCHFeH4CH5CHCH4NCHC3HC3H4C2H2CH2CH2CH5CHCH5CSH5C2HFeH4C2H7CHFeCFeSCHSFeHFeHSFeSHFeSHFeSHS2HFeS2FeS2FeSFeS4C6H6SHC7H4C6H6CHC6HC3H3C4HC3H3CHC2HC2HCH2C2H4NH3CNCHCHCH6CHCH7CHCH5CSHCHNH5CH4CFeHCHC2H2CH4SHC2HCH5SCH5NCH5CH3CHC2H2CH5CH2CH2C2NH2CHCH2CH2SCH2CHCH3SC2H3C2HCHSCSH7CHCH2CH5CH3SHCHCH2CH4CH2C3SH4CHC2HCH3C3NC2H2CH2CH3SH2CH6C2HSHFeH4CHC2H2CHCH4CNHC2H3SHCFeSHSHNH3C2H4SH4CH3CH4NC10HCH14FeCH2C3H2SHC3HCFeSHSCHCHFeSH2CH2CHFeH2CHCH2CH3FeSHSCFeSC2SHCH3CHC2HCFeCHC2HCH3CSH2CHC2HCHCH3CHCH2NC2H8C2H3CH4CS2CH4C3H2C2H3SH2CH2FeH2CH6NHCH3C2H2SHCHCH3C2H2CHFeS3HFeHC2SH3CH2CH2CH2SH2C3HCSCH2CHC2H11SC2H4C2H12CNH2C2HC3FeHCH2CHCH2CH3C4HC2H5NSCHCHC3H6C4HSCH2CH3CSHNCHCH5FeHCNHCH4CH2S2FeS2FeS2FeSFeS3H3CSFeS2FeHFeHS2H4FeSHFeSCSC5SH2C2HCHNH2CH4C3H5NH4CH2C6H4C6H5CH3C7H4FeC3H8SH4C2H5C2HCH2C2H2CH4C3H6CFeH3CH4C2HC2HC4HNH3CH12NC12H28SCHCH4CH3NH2C2H2CH5CHCH2C2HCH7NCHC2H2CH2SH2C2H2SH3C2HFeCHCH3CH5CH5C4H2CH2SH2C3H3CHC3HCSHC2HCH3SC3HFe2CH4SC2FeSFeSH3SC2HCHCH2CSCHCH5SC3HCNHS2FeS2FeS2FeSFeS3H4SFeS2FeSFeHS2H5SCFeSHSHCH2C5H2C3H2CH3NH2C2HCH2CH2NH4C6H4C6H4C3H2C7H4FeHCH5NC6HC3H13C2H19CFeCH2NCHCHCH3C2H4CH4CHCH3CHC4H2C2HC3FeHNC3H2NH12C3H9NH6C2HSNC3H3CFeH4C2HC3HSCHC3HC2H6CH4CHCH2SHCH2C2H4CHCH3C2HCHCH2SH5FeHCHC2H2C2HFeSCHNHC2H5CH2SC5HCH2SHCFeCH2CSCHCH2CHCH2SC2H5CH2CHCHCH4CH2FeHCH5CH2CH5CHCH7CHCH6CH4C2H2CH3S2CSCH3FeHSFeS2H2FeS3HFeC3HSHSFeCFeS2FeS2FeS2FeSFeS3C6H5CHCH2CH2C6H4C6H6C3H6FeSH7C5H3C2HC2H3C6HNHCH4C2H4CSCH2CSH3CHCH3CH3CH3CH3CH2NHCHC3HCH2SH2CHCHNC8HC2H16CHSH10CH2CFeH3CH2CHC2H2CH3CNH8C3SH2NC11H28CNHCH4CHC2H4NHCH2CH4CHCHC5H5CH2C2H5CH9C2H3CH2C2H4CH4FeHSC2H2CH4CH2NHC2HCH4C3Fe2S2NFeS2CFeS2FeS2FeSFeS3C6H4C6H4C6H4CH4NC11H20CHCHC3H7CHCH2CH2CHC2HCH3C2H5NH2CH3CHCH2C2H2FeH6CH2SH5C2HCH6NS2H3CHCHCH2CH2CHC2HCHCH4CH7CHCH2SH3C2H8CH4CHCHCHCHNHFeCHC2HCFeH3CH2C2H4C2FeC2NHCHSHCH2CHC2HCH5CH3SH4SH2CSH3CH2CH2CFeH6CHCHCH2CHC2H3SH4SC3SFeH2CH3CH2C4HCH2C2SCNH2CH3CHCH2SHFeCSH3S2CFeS2FeS2FeSFeS3NSH2SFeSH2SHSHC3SH4C6H4C6H4C6H4FeH3CH2CHCH2SCHCHCHNC8HC3H17C2H9NC12H24FeH3NCHC2HC2H3CHC3H3CH6CH2CH6CHCHC2H6CH5CH2SH7CH7CH2FeCH2CHC2HNC4HFeC3HC2H10NH7CFeCH4SFeHCHCHCHC2H2CHCHCHCH2CH3SHC2H2C2HC8HCH4CHC2H5SHFeH8CHCSH5FeS2HC2S2CFeS2FeS2FeSFeS3CSH2SFeSFeCH3CH2C2HFeH2C6H4C6H4C6H4CH2CH2C4H5CHCH2C3H2CFeC2HCHCHCNC12H24SHCH2NC6HC3H8CH3CNHFeH2CSCHCNSH4CHCHSCHCSHC2HCH5CH3CH10NC12H25CH3CH3SCHC2H2NHCH4CH2CH4CHFeCH6CH8SH3SCH3CHC2HC2HCH5FeH5SHCH2CHCSFeSFeS2FeS2FeSFeS3CSHSFeS2HCH3SH4SFeS2H2SHCHFeCH2CHFeH4C2H3CHC2HSH4C3H3C6H4C6H4C6H9SCHSHCH6C5H8CFeHNCHC2HCSC2HNHCHFeH2CHCSFeH7SH6CH6CHC2H4CHCHSHCH2NH5FeNC4H4C2H2CNC11H15CHCH2CH4NC9H21CH2C3H2CH3C3H5SH7C2H5CHCHCH2NHCHCHCH3SHFeHCHFeH2C3H2CHC3H2C3H5CHC2HCH5C6HSH2CH7CHC2HC2H3CHFeS2FeS2FeSFeS3FeH3FeS2H2CHS2FeHC2HFeS2FeS3H2SCHSHCH8C5H4CHCHCH4C6H4C6H4C6H4C2H3SFeCHCHCHCH6NC8HCHCH17CH4CH6CH4CFeH2C2HCFeHCSCHC2H9CH7NC9H20CHC2H4SCH5SCH2SH2C2HC2HCFeHCSCH5CH5C2NH4NC5HC2HC2H3CH2CHCHSNHC2H2CH2CH2CH2CHFeH3CH3CH2CHC2SCSCHC2HFeSFeHS3H3CHCSHC2H3C2H2CHCHC2H3CH5NH2CHC3H5CH2CHNC9HC2H16CHC2HCH4C2H3CHNCH6CHCFeHSH3FeH3CHC2H4SCH6CHCHSHC3HSCH3CH3S2FeSFeHS2H5SH3CH2C2H6C3HC2H2C3H2CHC3FeH4C2H6CHCSHCHNCHCH3CH3CHC3HSCH2CH3CSH3SHCH2FeSH2C2NH3FeS2H2NH2C2HC2H4CHSH4CHC2H3CHCH2CHCH2CH3CH3CH3C2H7CHCHSH3CH7CHC5HC2SHCH2FeS2H11CHC2HC2HCH2C2H2SHNH3CH3CHC2H4C3H4C2HNH4CHCHC2HCFeH2CHSHSFeS2CHFeSCSFeS2H3CSFeS3FeS2FeS2FeSFeS3FeS2C6H5C2H2C6H4C6H4CH3FeHCH4C2H3C2HCHC2HCH3CH3NH12CHCH6CH4FeH2CH2C2H5SH3CHNC9H13SH3NC12H4C2HC2H2CH4CHSHFeH2CHCH2CH4CH3C2H2CH2CH2NCFe2HC3H2CH2CHCH4C4HC3H3NH2CHCHCHSH5CH2C2HCHCH8CHCHCH3C2H4CH5CH2C2HSFeCH5C2H3FeS2HCFeSCSFeSCFeCH2SFeSHSFeS2FeS2FeSFeS3FeS2C6H4C2HSHC6H4C6H4C2FeHC2H4SCH2CFeC2HCH4CHNHFeCH7CHC2H3C3HC3SHCH3NC12H31CH3CH5CH3SCH7CH2CH2NC11H14CH17NCSC3HC3H15C2NH2NCSHCHC4SH4CH2CHCH2CHC2H4C2HNCH3SHCH8SHC2SHCHC4H2CH2SCH2C2HCH3CH2CHCH7CH3CH3C2H5C3H2CHCHFeCH2C
_chemical_formula_sum              "H3072 S384 C1728 Fe192 N96"
_cell_length_a       84.5288
_cell_length_b       83.8542
_cell_length_c       46.9373
_cell_angle_alpha    90.8636
_cell_angle_beta     92.0514
_cell_angle_gamma    115.059

_space_group_name_H-M_alt    "P 1"
_space_group_IT_number       1

loop_
  _space_group_symop_operation_xyz
  'x, y, z'

loop_
  _atom_site_type_symbol
  _atom_site_label
  _atom_site_symmetry_multiplicity
  _atom_site_fract_x
  _atom_site_fract_y
  _atom_site_fract_z
  _atom_site_occupancy
  H   H1        1.0  0.08673  0.60538  0.42990  1.0000
  S   S1        1.0  0.07689  0.60291  0.04131  1.0000
  C   C1        1.0  0.02163  0.47763  0.06795  1.0000
  H   H2        1.0  0.17008  0.48271  0.01836  1.0000
  S   S2        1.0  0.11825  0.62598  0.02749  1.0000
  C   C2        1.0  0.07591  0.57052  0.43817  1.0000
  C   C3        1.0  0.05588  0.47233  0.19786  1.0000
  Fe  Fe1       1.0  0.09974  0.62739  0.05972  1.0000
  H   H3        1.0  0.07123  0.61178  0.35731  1.0000
  S   S3        1.0  0.09196  0.64572  0.03352  1.0000
  Fe  Fe2       1.0  0.06934  0.49013  0.04503  1.0000
  S   S4        1.0  0.09398  0.48826  0.03287  1.0000
  S   S5        1.0  0.06758  0.51380  0.06410  1.0000
  Fe  Fe3       1.0  0.04613  0.45105  0.03905  1.0000
  S   S6        1.0  0.06904  0.44556  0.02713  1.0000
  S   S7        1.0  0.01902  0.43063  0.05046  1.0000
  Fe  Fe4       1.0  0.08507  0.46529  0.06188  1.0000
  S   S8        1.0  0.10256  0.45962  0.09447  1.0000
  H   H4        1.0  0.04502  0.62787  0.42623  1.0000
  S   S9        1.0  0.10399  0.46320  0.46424  1.0000
  S   S10       1.0  0.06173  0.46859  0.07608  1.0000
  H   H5        1.0  0.04149  0.64120  0.47184  1.0000
  Fe  Fe5       1.0  0.15060  0.50905  0.24624  1.0000
  S   S11       1.0  0.17871  0.52646  0.26042  1.0000
  S   S12       1.0  0.13975  0.51175  0.20181  1.0000
  Fe  Fe6       1.0  0.14032  0.49657  0.30764  1.0000
  S   S13       1.0  0.16752  0.51254  0.32555  1.0000
  S   S14       1.0  0.11547  0.48266  0.33270  1.0000
  Fe  Fe7       1.0  0.16753  0.53417  0.29806  1.0000
  S   S15       1.0  0.17619  0.56062  0.32092  1.0000
  Fe  Fe8       1.0  0.17717  0.50368  0.28678  1.0000
  S   S16       1.0  0.13981  0.51889  0.28223  1.0000
  S   S17       1.0  0.14951  0.48555  0.27047  1.0000
  S   S18       1.0  0.20221  0.63269  0.25701  1.0000
  C   C4        1.0  0.18252  0.58019  0.30206  1.0000
  C   C5        1.0  0.18197  0.59501  0.31543  1.0000
  C   C6        1.0  0.18770  0.61108  0.30154  1.0000
  C   C7        1.0  0.19457  0.61257  0.27456  1.0000
  C   C8        1.0  0.19532  0.59781  0.26128  1.0000
  C   C9        1.0  0.18895  0.58153  0.27476  1.0000
  H   H6        1.0  0.17702  0.59405  0.33658  1.0000
  H   H7        1.0  0.18704  0.62239  0.31191  1.0000
  H   H8        1.0  0.20063  0.59893  0.24040  1.0000
  H   H9        1.0  0.18942  0.57015  0.26443  1.0000
  N   N1        1.0  0.06413  0.60929  0.41539  1.0000
  H   H10       1.0  0.06893  0.63396  0.39532  1.0000
  C   C10       1.0  0.08185  0.49521  0.17610  1.0000
  H   H11       1.0  0.08000  0.50343  0.19338  1.0000
  C   C11       1.0  0.10715  0.47009  0.42828  1.0000
  C   C12       1.0  0.12399  0.47617  0.41755  1.0000
  C   C13       1.0  0.12690  0.48055  0.38864  1.0000
  C   C14       1.0  0.11289  0.47852  0.36984  1.0000
  C   C15       1.0  0.09605  0.47247  0.38060  1.0000
  C   C16       1.0  0.09318  0.46830  0.40957  1.0000
  H   H12       1.0  0.13486  0.47730  0.43163  1.0000
  H   H13       1.0  0.13990  0.48503  0.38073  1.0000
  H   H14       1.0  0.08510  0.47075  0.36627  1.0000
  H   H15       1.0  0.08012  0.46342  0.41726  1.0000
  C   C17       1.0  0.13053  0.49712  0.17169  1.0000
  C   C18       1.0  0.12433  0.50317  0.14788  1.0000
  C   C19       1.0  0.11571  0.49184  0.12426  1.0000
  C   C20       1.0  0.11361  0.47438  0.12374  1.0000
  C   C21       1.0  0.12031  0.46844  0.14711  1.0000
  C   C22       1.0  0.12864  0.47970  0.17106  1.0000
  H   H16       1.0  0.12589  0.51666  0.14797  1.0000
  H   H17       1.0  0.11077  0.49667  0.10638  1.0000
  H   H18       1.0  0.11884  0.45498  0.14689  1.0000
  H   H19       1.0  0.13346  0.47488  0.18908  1.0000
  H   H20       1.0  0.09250  0.61714  0.37417  1.0000
  H   H21       1.0  0.03963  0.44438  0.41213  1.0000
  H   H22       1.0  0.13218  0.64138  0.20538  1.0000
  H   H23       1.0  0.05051  0.56180  0.01550  1.0000
  C   C23       1.0  0.07795  0.53245  0.04404  1.0000
  C   C24       1.0  0.07913  0.54864  0.05432  1.0000
  C   C25       1.0  0.08589  0.56342  0.03740  1.0000
  H   H24       1.0  0.01597  0.43095  0.49077  1.0000
  H   H25       1.0  0.07462  0.54974  0.07523  1.0000
  H   H26       1.0  0.08694  0.57590  0.04560  1.0000
  H   H27       1.0  0.21893  0.58612  0.32809  1.0000
  H   H28       1.0  0.03128  0.59797  0.05082  1.0000
  H   H29       1.0  0.03002  0.50308  0.00840  1.0000
  H   H30       1.0  0.12210  0.47614  0.04343  1.0000
  H   H31       1.0  0.18316  0.64201  0.21071  1.0000
  C   C26       1.0  0.02595  0.55142  0.03710  1.0000
  C   C27       1.0  0.03575  0.56037  0.06505  1.0000
  N   N2        1.0  0.07224  0.47581  0.18220  1.0000
  C   C28       1.0  0.06842  0.46475  0.15493  1.0000
  C   C29       1.0  0.08408  0.47078  0.20130  1.0000
  C   C30       1.0  0.05961  0.44447  0.15807  1.0000
  C   C31       1.0  0.09173  0.48226  0.22908  1.0000
  C   C32       1.0  0.05444  0.43483  0.12893  1.0000
  C   C33       1.0  0.10353  0.47584  0.24612  1.0000
  H   H32       1.0  0.08079  0.46794  0.14386  1.0000
  H   H33       1.0  0.09619  0.49920  0.17648  1.0000
  H   H34       1.0  0.09532  0.47113  0.18923  1.0000
  H   H35       1.0  0.07709  0.45700  0.20823  1.0000
  H   H36       1.0  0.05032  0.45879  0.20620  1.0000
  H   H37       1.0  0.06876  0.43996  0.16904  1.0000
  H   H38       1.0  0.04757  0.44031  0.17021  1.0000
  H   H39       1.0  0.08121  0.48158  0.24311  1.0000
  H   H40       1.0  0.09974  0.49627  0.22439  1.0000
  H   H41       1.0  0.04452  0.43806  0.11739  1.0000
  H   H42       1.0  0.04873  0.42039  0.13180  1.0000
  H   H43       1.0  0.09618  0.46193  0.25205  1.0000
  H   H44       1.0  0.11485  0.47703  0.23356  1.0000
  H   H45       1.0  0.10860  0.48400  0.26608  1.0000
  N   N3        1.0  0.14639  0.58891  0.20763  1.0000
  C   C34       1.0  0.13687  0.59144  0.23274  1.0000
  C   C35       1.0  0.13405  0.58231  0.18152  1.0000
  C   C36       1.0  0.15273  0.57507  0.21529  1.0000
  C   C37       1.0  0.16225  0.60560  0.20166  1.0000
  C   C38       1.0  0.15888  0.62152  0.19223  1.0000
  C   C39       1.0  0.14723  0.59602  0.26199  1.0000
  C   C40       1.0  0.15867  0.56681  0.19029  1.0000
  C   C41       1.0  0.11971  0.58923  0.17781  1.0000
  C   C42       1.0  0.11141  0.58547  0.14753  1.0000
  C   C43       1.0  0.17602  0.63793  0.18965  1.0000
  C   C44       1.0  0.13641  0.59868  0.28547  1.0000
  C   C45       1.0  0.17006  0.55791  0.20133  1.0000
  H   H46       1.0  0.12474  0.57919  0.23542  1.0000
  H   H47       1.0  0.13244  0.60196  0.22900  1.0000
  H   H48       1.0  0.14165  0.58503  0.16183  1.0000
  H   H49       1.0  0.12657  0.56772  0.18169  1.0000
  H   H50       1.0  0.14235  0.56387  0.22588  1.0000
  H   H51       1.0  0.16389  0.58065  0.23125  1.0000
  H   H52       1.0  0.17163  0.60989  0.22044  1.0000
  H   H53       1.0  0.16974  0.60319  0.18450  1.0000
  H   H54       1.0  0.15106  0.62482  0.20771  1.0000
  H   H55       1.0  0.15206  0.61871  0.17084  1.0000
  H   H56       1.0  0.15081  0.58531  0.26874  1.0000
  H   H57       1.0  0.15932  0.60833  0.26104  1.0000
  H   H58       1.0  0.16622  0.57665  0.17476  1.0000
  H   H59       1.0  0.14705  0.55659  0.17857  1.0000
  H   H60       1.0  0.10917  0.58256  0.19281  1.0000
  H   H61       1.0  0.12474  0.60353  0.18234  1.0000
  H   H62       1.0  0.10079  0.58994  0.14587  1.0000
  H   H63       1.0  0.12127  0.59279  0.13188  1.0000
  H   H64       1.0  0.10578  0.57114  0.14199  1.0000
  H   H65       1.0  0.20609  0.52833  0.32517  1.0000
  C   C46       1.0  0.06427  0.58030  0.43457  1.0000
  H   H66       1.0  0.13244  0.60938  0.28022  1.0000
  H   H67       1.0  0.12456  0.58632  0.28852  1.0000
  H   H68       1.0  0.14439  0.60248  0.30588  1.0000
  H   H69       1.0  0.16353  0.54869  0.21843  1.0000
  H   H70       1.0  0.17237  0.55030  0.18367  1.0000
  H   H71       1.0  0.18289  0.56795  0.20995  1.0000
  C   C47       1.0  0.04560  0.63025  0.47193  1.0000
  C   C48       1.0  0.24242  0.58237  0.31716  1.0000
  C   C49       1.0  0.09058  0.54587  0.00008  1.0000
  C   C50       1.0  0.01517  0.57718  0.39582  1.0000
  H   H72       1.0  0.03214  0.44339  0.44776  1.0000
  H   H73       1.0  0.10996  0.51918  0.48084  1.0000
  H   H74       1.0  0.08005  0.64333  0.34755  1.0000
  H   H75       1.0  0.07448  0.62160  0.45687  1.0000
  C   C51       1.0  0.02431  0.39001  0.07514  1.0000
  H   H76       1.0  0.10088  0.64914  0.36648  1.0000
  H   H77       1.0  0.04262  0.42535  0.48517  1.0000
  H   H78       1.0  0.01706  0.38011  0.44776  1.0000
  C   C52       1.0  0.13866  0.66103  0.38153  1.0000
  N   N4        1.0  0.11313  0.52543  0.43619  1.0000
  C   C53       1.0  0.12504  0.52524  0.41305  1.0000
  C   C54       1.0  0.11829  0.51893  0.46325  1.0000
  C   C55       1.0  0.09478  0.51238  0.42719  1.0000
  C   C56       1.0  0.11308  0.54328  0.44131  1.0000
  C   C57       1.0  0.13022  0.55978  0.43613  1.0000
  C   C58       1.0  0.11927  0.52765  0.38228  1.0000
  C   C59       1.0  0.08073  0.50865  0.44968  1.0000
  C   C60       1.0  0.13729  0.52934  0.47534  1.0000
  H   H79       1.0  0.13862  0.50633  0.49465  1.0000
  H   H80       1.0  0.17767  0.65949  0.02745  1.0000
  C   C61       1.0  0.13409  0.53176  0.36185  1.0000
  C   C62       1.0  0.06244  0.49718  0.43680  1.0000
  H   H81       1.0  0.12621  0.51248  0.41274  1.0000
  H   H82       1.0  0.13858  0.53537  0.41741  1.0000
  H   H83       1.0  0.00177  0.57877  0.06744  1.0000
  H   H84       1.0  0.11599  0.50488  0.46005  1.0000
  H   H85       1.0  0.09470  0.49955  0.42085  1.0000
  H   H86       1.0  0.08996  0.51689  0.40795  1.0000
  H   H87       1.0  0.10282  0.54472  0.42740  1.0000
  H   H88       1.0  0.10926  0.54445  0.46347  1.0000
  H   H89       1.0  0.13261  0.56102  0.41300  1.0000
  H   H90       1.0  0.02632  0.59843  0.42672  1.0000
  H   H91       1.0  0.10823  0.51526  0.37414  1.0000
  H   H92       1.0  0.11490  0.53840  0.38160  1.0000
  H   H93       1.0  0.08080  0.52110  0.45822  1.0000
  C   C63       1.0  0.99774  0.42477  0.03457  1.0000
  H   H94       1.0  0.14699  0.53057  0.45928  1.0000
  H   H95       1.0  0.21273  0.54257  0.23127  1.0000
  H   H96       1.0  0.01348  0.55287  0.03594  1.0000
  H   H97       1.0  0.02732  0.39339  0.41864  1.0000
  H   H98       1.0  0.02165  0.42470  0.42309  1.0000
  C   C64       1.0  0.10063  0.41928  0.48056  1.0000
  H   H99       1.0  0.18231  0.65861  0.43386  1.0000
  H   H100      1.0  0.03279  0.58103  0.43191  1.0000
  H   H101      1.0  0.12939  0.53280  0.33986  1.0000
  H   H102      1.0  0.14533  0.54444  0.36809  1.0000
  H   H103      1.0  0.13856  0.52106  0.36166  1.0000
  H   H104      1.0  0.06176  0.48441  0.42848  1.0000
  H   H105      1.0  0.13923  0.54260  0.48325  1.0000
  C   C65       1.0  0.01992  0.59402  0.03638  1.0000
  H   H106      1.0  0.05903  0.48115  0.21718  1.0000
  C   C66       1.0  0.12429  0.64958  0.42615  1.0000
  H   H107      1.0  0.15245  0.49408  0.00380  1.0000
  H   H108      1.0  0.06608  0.43848  0.11581  1.0000
  H   H109      1.0  0.05996  0.43975  0.44608  1.0000
  S   S19       1.0  0.10523  0.62651  0.10808  1.0000
  H   H110      1.0  0.06002  0.46799  0.13963  1.0000
  C   C67       1.0  0.16843  0.65707  0.00876  1.0000
  H   H111      1.0  0.01173  0.36240  0.40319  1.0000
  H   H112      1.0  0.02746  0.55443  0.08329  1.0000
  C   C68       1.0  0.04116  0.47502  0.18107  1.0000
  C   C69       1.0  0.07767  0.50147  0.14692  1.0000
  H   H113      1.0  0.03737  0.46731  0.16061  1.0000
  H   H114      1.0  0.08110  0.52751  0.16215  1.0000
  H   H115      1.0  0.01448  0.47160  0.18610  1.0000
  S   S20       1.0  0.19965  0.49549  0.29543  1.0000
  C   C70       1.0  0.22285  0.55593  0.28762  1.0000
  C   C71       1.0  0.13304  0.64574  0.18370  1.0000
  C   C72       1.0  0.13895  0.64484  0.37485  1.0000
  H   H116      1.0  0.16834  0.63378  0.45492  1.0000
  C   C73       1.0  0.12908  0.57660  0.44658  1.0000
  H   H117      1.0  0.10310  0.42273  0.45788  1.0000
  H   H118      1.0  0.06895  0.55833  0.45010  1.0000
  H   H119      1.0  0.11958  0.62280  0.43427  1.0000
  C   C74       1.0  0.08632  0.52156  0.14578  1.0000
  H   H120      1.0  0.04538  0.48920  0.17696  1.0000
  H   H121      1.0  0.08284  0.49627  0.12937  1.0000
  H   H122      1.0  0.08355  0.52562  0.12444  1.0000
  H   H123      1.0  0.23054  0.56181  0.36006  1.0000
  Fe  Fe9       1.0  0.09512  0.60319  0.00761  1.0000
  H   H124      1.0  0.02756  0.46822  0.06532  1.0000
  C   C75       1.0  0.02473  0.46919  0.19829  1.0000
  H   H125      1.0  0.06348  0.49695  0.14234  1.0000
  H   H126      1.0  0.01952  0.45489  0.20243  1.0000
  H   H127      1.0  0.14405  0.47866  0.05123  1.0000
  H   H128      1.0  0.04960  0.42112  0.42196  1.0000
  C   C76       1.0  0.04703  0.59969  0.39833  1.0000
  H   H129      1.0  0.11785  0.57798  0.43574  1.0000
  H   H130      1.0  0.08305  0.50133  0.46764  1.0000
  H   H131      1.0  0.07407  0.42173  0.45291  1.0000
  H   H132      1.0  0.22884  0.49066  0.32021  1.0000
  H   H133      1.0  0.16185  0.65865  0.42688  1.0000
  H   H134      1.0  0.10072  0.52667  0.14930  1.0000
  H   H135      1.0  0.02761  0.47674  0.21896  1.0000
  C   C77       1.0  0.12080  0.63509  0.16225  1.0000
  C   C78       1.0  0.08212  0.62181  0.37059  1.0000
  H   H136      1.0  0.00349  0.57036  0.40860  1.0000
  N   N5        1.0  0.04999  0.40470  0.47232  1.0000
  C   C79       1.0  0.04090  0.41646  0.46629  1.0000
  S   S21       1.0  0.16294  0.64449  0.26635  1.0000
  C   C80       1.0  0.12131  0.64064  0.13397  1.0000
  H   H137      1.0  0.05241  0.57134  0.42188  1.0000
  H   H138      1.0  0.03902  0.57467  0.06536  1.0000
  H   H139      1.0  0.13711  0.58494  0.01434  1.0000
  H   H140      1.0  0.04834  0.59045  0.38228  1.0000
  H   H141      1.0  0.14124  0.58824  0.44178  1.0000
  C   C81       1.0  0.12472  0.63344  0.41963  1.0000
  H   H142      1.0  0.13198  0.61848  0.38905  1.0000
  S   S22       1.0  0.11545  0.65338  0.45810  1.0000
  C   C82       1.0  0.09111  0.56193  0.00998  1.0000
  H   H143      1.0  0.05588  0.39516  0.43254  1.0000
  C   C83       1.0  0.04613  0.39047  0.44943  1.0000
  C   C84       1.0  0.09012  0.63861  0.35367  1.0000
  H   H144      1.0  0.05273  0.49444  0.45353  1.0000
  C   C85       1.0  0.13184  0.63106  0.39400  1.0000
  C   C86       1.0  0.17520  0.46066  0.02943  1.0000
  Fe  Fe10      1.0  0.16600  0.65816  0.30950  1.0000
  H   H145      1.0  0.13824  0.50221  0.07409  1.0000
  C   C87       1.0  0.00314  0.58321  0.04577  1.0000
  C   C88       1.0  0.07574  0.62536  0.39959  1.0000
  H   H146      1.0  0.14178  0.55923  0.44702  1.0000
  H   H147      1.0  0.20000  0.51510  0.37180  1.0000
  H   H148      1.0  0.21754  0.54134  0.28550  1.0000
  H   H149      1.0  0.21170  0.55859  0.33876  1.0000
  C   C89       1.0  0.06174  0.61570  0.44444  1.0000
  H   H150      1.0  0.08762  0.63362  0.41311  1.0000
  H   H151      1.0  0.08338  0.51862  0.00939  1.0000
  H   H152      1.0  0.04377  0.60904  0.38546  1.0000
  C   C90       1.0  0.02795  0.38338  0.43327  1.0000
  H   H153      1.0  0.18448  0.63545  0.17429  1.0000
  S   S23       1.0  0.05235  0.47303  0.00859  1.0000
  S   S24       1.0  0.14750  0.64086  0.34274  1.0000
  H   H154      1.0  0.05326  0.60463  0.45734  1.0000
  C   C91       1.0  0.03052  0.58925  0.41548  1.0000
  H   H155      1.0  0.07643  0.59354  0.39771  1.0000
  S   S25       1.0  0.05941  0.46395  0.49514  1.0000
  H   H156      1.0  0.19553  0.53430  0.37174  1.0000
  C   C92       1.0  0.03434  0.43561  0.43027  1.0000
  C   C93       1.0  0.14107  0.50274  0.05110  1.0000
  H   H157      1.0  0.22586  0.53016  0.34333  1.0000
  S   S26       1.0  0.09220  0.60656  0.49214  1.0000
  C   C94       1.0  0.05454  0.62995  0.44434  1.0000
  C   C95       1.0  0.04735  0.42834  0.44020  1.0000
  H   H158      1.0  0.02909  0.48943  0.05551  1.0000
  H   H159      1.0  0.05895  0.50404  0.41930  1.0000
  C   C96       1.0  0.13431  0.65713  0.12746  1.0000
  H   H160      1.0  0.04805  0.55866  0.06785  1.0000
  C   C97       1.0  0.00250  0.46881  0.05721  1.0000
  Fe  Fe11      1.0  0.10925  0.64265  0.99990  1.0000
  H   H161      1.0  0.11061  0.62256  0.16769  1.0000
  H   H162      1.0  0.09560  0.63594  0.33395  1.0000
  H   H163      1.0  0.01195  0.58493  0.37949  1.0000
  H   H164      1.0  0.02655  0.40878  0.46349  1.0000
  H   H165      1.0  0.21991  0.51930  0.25133  1.0000
  Fe  Fe12      1.0  0.07040  0.62085  0.01325  1.0000
  H   H166      1.0  0.04778  0.37906  0.45858  1.0000
  H   H167      1.0  0.15591  0.65647  0.01649  1.0000
  C   C98       1.0  0.22214  0.50443  0.28686  1.0000
  H   H168      1.0  0.14174  0.45407  0.02915  1.0000
  C   C99       1.0  0.08414  0.53112  0.01726  1.0000
  C   C100      1.0  0.21561  0.53511  0.34304  1.0000
  C   C101      1.0  0.20605  0.52970  0.37077  1.0000
  H   H169      1.0  0.02276  0.48155  0.09090  1.0000
  H   H170      1.0  0.13487  0.66168  0.10592  1.0000
  C   C102      1.0  0.21890  0.55716  0.23374  1.0000
  H   H171      1.0  0.20861  0.56193  0.23619  1.0000
  C   C103      1.0  0.07372  0.59773  0.41885  1.0000
  H   H172      1.0  0.99534  0.53303  0.00374  1.0000
  Fe  Fe13      1.0  0.19166  0.65202  0.27166  1.0000
  H   H173      1.0  0.15223  0.57553  0.00708  1.0000
  H   H174      1.0  0.99610  0.45674  0.06956  1.0000
  H   H175      1.0  0.03489  0.36963  0.39954  1.0000
  H   H176      1.0  0.08825  0.57876  0.45044  1.0000
  C   C104      1.0  0.16113  0.65179  0.48079  1.0000
  H   H177      1.0  0.17322  0.64896  0.18191  1.0000
  H   H178      1.0  0.02312  0.53730  0.03826  1.0000
  H   H179      1.0  0.07909  0.56679  0.41706  1.0000
  H   H180      1.0  0.22367  0.58857  0.29096  1.0000
  H   H181      1.0  0.06053  0.58261  0.45608  1.0000
  C   C105      1.0  0.02454  0.36685  0.41515  1.0000
  H   H182      1.0  0.21532  0.53527  0.38949  1.0000
  C   C106      1.0  0.22319  0.55534  0.33982  1.0000
  H   H183      1.0  0.03381  0.61767  0.47390  1.0000
  H   H184      1.0  0.02413  0.35603  0.42892  1.0000
  H   H185      1.0  0.01829  0.56704  0.38508  1.0000
  H   H186      1.0  0.24463  0.61458  0.33974  1.0000
  N   N6        1.0  0.23431  0.56251  0.31452  1.0000
  C   C107      1.0  0.16653  0.63641  0.47750  1.0000
  H   H187      1.0  0.12756  0.57647  0.47001  1.0000
  C   C108      1.0  0.23897  0.61110  0.31757  1.0000
  C   C109      1.0  0.22868  0.51575  0.26425  1.0000
  C   C110      1.0  0.15250  0.61941  0.48846  1.0000
  H   H188      1.0  0.17867  0.63925  0.49052  1.0000
  C   C111      1.0  0.03682  0.56007  0.01120  1.0000
  C   C112      1.0  0.06947  0.41624  0.47409  1.0000
  C   C113      1.0  0.23373  0.49954  0.30284  1.0000
  H   H189      1.0  0.06555  0.64315  0.44223  1.0000
  H   H190      1.0  0.00218  0.49376  0.05047  1.0000
  H   H191      1.0  0.10468  0.43160  0.49379  1.0000
  H   H192      1.0  0.21106  0.55863  0.28879  1.0000
  C   C114      1.0  0.13120  0.66330  0.40686  1.0000
  C   C115      1.0  0.22960  0.59112  0.31294  1.0000
  H   H193      1.0  0.20108  0.65868  0.47062  1.0000
  H   H194      1.0  0.15525  0.51102  0.04903  1.0000
  C   C116      1.0  0.02187  0.60038  0.00874  1.0000
  H   H195      1.0  0.03808  0.38609  0.04031  1.0000
  H   H196      1.0  0.15660  0.60853  0.48612  1.0000
  C   C117      1.0  0.23194  0.56314  0.25938  1.0000
  H   H197      1.0  0.24200  0.55823  0.25547  1.0000
  H   H198      1.0  0.23834  0.57772  0.25983  1.0000
  C   C118      1.0  0.13603  0.48407  0.03912  1.0000
  H   H199      1.0  0.22580  0.56261  0.21400  1.0000
  H   H200      1.0  0.22945  0.61690  0.31401  1.0000
  H   H201      1.0  0.03782  0.57375  0.01115  1.0000
  H   H202      1.0  0.14768  0.64732  0.47099  1.0000
  H   H203      1.0  0.07802  0.39476  0.47202  1.0000
  C   C119      1.0  0.08133  0.40729  0.48424  1.0000
  H   H204      1.0  0.07251  0.42791  0.48849  1.0000
  C   C120      1.0  0.14589  0.66232  0.17729  1.0000
  H   H205      1.0  0.00231  0.46499  0.03444  1.0000
  H   H206      1.0  0.10879  0.41247  0.48757  1.0000
  H   H207      1.0  0.13984  0.61564  0.47627  1.0000
  H   H208      1.0  0.15986  0.62918  0.00874  1.0000
  H   H209      1.0  0.17062  0.46015  0.05146  1.0000
  C   C121      1.0  0.16643  0.46919  0.00970  1.0000
  S   S27       1.0  0.19461  0.66425  0.31548  1.0000
  H   H210      1.0  0.04930  0.53478  0.01174  1.0000
  H   H211      1.0  0.13347  0.50895  0.03980  1.0000
  H   H212      1.0  0.02086  0.37308  0.49083  1.0000
  H   H213      1.0  0.03784  0.40739  0.04245  1.0000
  H   H214      1.0  0.11379  0.45124  0.01855  1.0000
  C   C122      1.0  0.99505  0.43076  0.00795  1.0000
  C   C123      1.0  0.13895  0.48410  0.00665  1.0000
  H   H215      1.0  0.08852  0.42254  0.00717  1.0000
  Fe  Fe14      1.0  0.07651  0.46903  0.99873  1.0000
  H   H216      1.0  0.01660  0.37575  0.07856  1.0000
  H   H217      1.0  0.00570  0.39375  0.02955  1.0000
  H   H218      1.0  0.01639  0.39725  0.08059  1.0000
  H   H219      1.0  0.02215  0.35933  0.01422  1.0000
  C   C124      1.0  0.01347  0.38651  0.02323  1.0000
  C   C125      1.0  0.14640  0.45815  0.00738  1.0000
  H   H220      1.0  0.17228  0.44709  0.02155  1.0000
  H   H221      1.0  0.18960  0.46856  0.03017  1.0000
  H   H222      1.0  0.03615  0.39493  0.08973  1.0000
  H   H223      1.0  0.00504  0.37251  0.02770  1.0000
  H   H224      1.0  0.99754  0.48920  0.00387  1.0000
  H   H225      1.0  0.05464  0.63221  0.49073  1.0000
  H   H226      1.0  0.24331  0.54212  0.30784  1.0000
  C   C126      1.0  0.02975  0.39307  0.04426  1.0000
  H   H227      1.0  0.03831  0.41467  0.99796  1.0000
  Fe  Fe15      1.0  0.10637  0.63579  0.49665  1.0000
  C   C127      1.0  0.14338  0.58078  0.99711  1.0000
  Fe  Fe16      1.0  0.07327  0.60807  0.52363  1.0000
  S   S28       1.0  0.08900  0.60535  0.56172  1.0000
  C   C128      1.0  0.00048  0.58974  0.59741  1.0000
  H   H228      1.0  0.08342  0.57362  0.51994  1.0000
  S   S29       1.0  0.12443  0.63531  0.53274  1.0000
  Fe  Fe17      1.0  0.10852  0.60606  0.53014  1.0000
  H   H229      1.0  0.08633  0.53884  0.63048  1.0000
  Fe  Fe18      1.0  0.10387  0.63492  0.56220  1.0000
  H   H230      1.0  0.13296  0.60496  0.98027  1.0000
  S   S30       1.0  0.08665  0.63781  0.52614  1.0000
  Fe  Fe19      1.0  0.07001  0.48807  0.52407  1.0000
  S   S31       1.0  0.09744  0.49066  0.52518  1.0000
  H   H231      1.0  0.15508  0.52724  0.50804  1.0000
  Fe  Fe20      1.0  0.05476  0.44956  0.53625  1.0000
  S   S32       1.0  0.08147  0.44920  0.53864  1.0000
  H   H232      1.0  0.06872  0.63804  0.67581  1.0000
  Fe  Fe21      1.0  0.09050  0.47461  0.56464  1.0000
  S   S33       1.0  0.11284  0.48634  0.59887  1.0000
  H   H233      1.0  0.12862  0.53767  0.56887  1.0000
  S   S34       1.0  0.08323  0.46525  0.95286  1.0000
  S   S35       1.0  0.06356  0.47383  0.56505  1.0000
  H   H234      1.0  0.11525  0.53383  0.71487  1.0000
  Fe  Fe22      1.0  0.14508  0.49662  0.76395  1.0000
  S   S36       1.0  0.17163  0.51511  0.75045  1.0000
  S   S37       1.0  0.12235  0.47875  0.73356  1.0000
  Fe  Fe23      1.0  0.15335  0.51007  0.82740  1.0000
  S   S38       1.0  0.18061  0.52999  0.81753  1.0000
  S   S39       1.0  0.14522  0.51210  0.87335  1.0000
  Fe  Fe24      1.0  0.16777  0.53522  0.77813  1.0000
  S   S40       1.0  0.16950  0.56015  0.75772  1.0000
  Fe  Fe25      1.0  0.18251  0.50829  0.79081  1.0000
  S   S41       1.0  0.20504  0.49953  0.79091  1.0000
  S   S42       1.0  0.14069  0.51707  0.78972  1.0000
  S   S43       1.0  0.15584  0.48797  0.80278  1.0000
  S   S44       1.0  0.19261  0.63283  0.82613  1.0000
  C   C129      1.0  0.17600  0.58019  0.77717  1.0000
  C   C130      1.0  0.18583  0.58351  0.80293  1.0000
  C   C131      1.0  0.19110  0.59984  0.81759  1.0000
  C   C132      1.0  0.18644  0.61283  0.80667  1.0000
  C   C133      1.0  0.17658  0.60948  0.78092  1.0000
  C   C134      1.0  0.17144  0.59323  0.76618  1.0000
  H   H235      1.0  0.18966  0.57363  0.81121  1.0000
  H   H236      1.0  0.19889  0.60246  0.83735  1.0000
  H   H237      1.0  0.17308  0.61948  0.77220  1.0000
  H   H238      1.0  0.16400  0.59079  0.74608  1.0000
  H   H239      1.0  0.16639  0.48955  0.96575  1.0000
  H   H240      1.0  0.14012  0.53092  0.67112  1.0000
  S   S45       1.0  0.13062  0.66360  0.97487  1.0000
  H   H241      1.0  0.11263  0.60373  0.94346  1.0000
  C   C135      1.0  0.12256  0.55799  0.63181  1.0000
  C   C136      1.0  0.10026  0.47883  0.93084  1.0000
  C   C137      1.0  0.11276  0.49556  0.93991  1.0000
  C   C138      1.0  0.12620  0.50560  0.92182  1.0000
  C   C139      1.0  0.12738  0.49910  0.89448  1.0000
  C   C140      1.0  0.11483  0.48242  0.88539  1.0000
  C   C141      1.0  0.10141  0.47237  0.90348  1.0000
  H   H242      1.0  0.11207  0.50077  0.96081  1.0000
  H   H243      1.0  0.13584  0.51846  0.92916  1.0000
  H   H244      1.0  0.11555  0.47718  0.86450  1.0000
  H   H245      1.0  0.09185  0.45946  0.89616  1.0000
  C   C142      1.0  0.11989  0.48111  0.69612  1.0000
  C   C143      1.0  0.10359  0.47124  0.68178  1.0000
  C   C144      1.0  0.10112  0.47264  0.65212  1.0000
  C   C145      1.0  0.11502  0.48377  0.63630  1.0000
  C   C146      1.0  0.13132  0.49361  0.65064  1.0000
  C   C147      1.0  0.13372  0.49239  0.68032  1.0000
  H   H246      1.0  0.09280  0.46244  0.69373  1.0000
  H   H247      1.0  0.08850  0.46498  0.64150  1.0000
  H   H248      1.0  0.14223  0.50219  0.63871  1.0000
  H   H249      1.0  0.14635  0.50003  0.69094  1.0000
  H   H250      1.0  0.13155  0.63202  0.61576  1.0000
  H   H251      1.0  0.15367  0.59032  0.87234  1.0000
  C   C148      1.0  0.10445  0.56567  0.52553  1.0000
  H   H252      1.0  0.11026  0.51506  0.65114  1.0000
  C   C149      1.0  0.08509  0.52695  0.61812  1.0000
  C   C150      1.0  0.07824  0.53114  0.51910  1.0000
  C   C151      1.0  0.07393  0.54546  0.51714  1.0000
  C   C152      1.0  0.08698  0.56270  0.52070  1.0000
  C   C153      1.0  0.11198  0.61366  0.72600  1.0000
  C   C154      1.0  0.11483  0.52956  0.65472  1.0000
  H   H253      1.0  0.01230  0.56393  0.98338  1.0000
  C   C155      1.0  0.99550  0.53589  0.98087  1.0000
  C   C156      1.0  0.02308  0.58463  0.51439  1.0000
  C   C157      1.0  0.12415  0.52842  0.70653  1.0000
  H   H254      1.0  0.11316  0.62329  0.88872  1.0000
  H   H255      1.0  0.12948  0.54030  0.82897  1.0000
  H   H256      1.0  0.05403  0.53458  0.97457  1.0000
  C   C158      1.0  0.10694  0.61259  0.90376  1.0000
  C   C159      1.0  0.13959  0.54372  0.58494  1.0000
  C   C160      1.0  0.17801  0.55956  0.88823  1.0000
  C   C161      1.0  0.15003  0.65601  0.67782  1.0000
  H   H257      1.0  0.13562  0.53215  0.72175  1.0000
  C   C162      1.0  0.24143  0.50602  0.86877  1.0000
  C   C163      1.0  0.19330  0.63895  0.90633  1.0000
  C   C164      1.0  0.07124  0.52327  0.59403  1.0000
  H   H258      1.0  0.08029  0.51561  0.63251  1.0000
  H   H259      1.0  0.05841  0.52051  0.60305  1.0000
  H   H260      1.0  0.11722  0.51382  0.70521  1.0000
  C   C165      1.0  0.16687  0.62227  0.93555  1.0000
  H   H261      1.0  0.06989  0.51168  0.58068  1.0000
  C   C166      1.0  0.11787  0.56760  0.60707  1.0000
  C   C167      1.0  0.09570  0.53416  0.52420  1.0000
  H   H262      1.0  0.10393  0.53121  0.66497  1.0000
  C   C168      1.0  0.14620  0.64327  0.65556  1.0000
  C   C169      1.0  0.00816  0.41892  0.53107  1.0000
  H   H263      1.0  0.09585  0.63749  0.69447  1.0000
  C   C170      1.0  0.01863  0.59794  0.52441  1.0000
  H   H264      1.0  0.06417  0.61774  0.69343  1.0000
  H   H265      1.0  0.14004  0.63455  0.97574  1.0000
  C   C171      1.0  0.10288  0.52924  0.60654  1.0000
  C   C172      1.0  0.13031  0.53574  0.67731  1.0000
  H   H266      1.0  0.10166  0.51578  0.60089  1.0000
  H   H267      1.0  0.10348  0.56256  0.60374  1.0000
  H   H268      1.0  0.09573  0.56809  0.89478  1.0000
  H   H269      1.0  0.11552  0.55964  0.65044  1.0000
  N   N7        1.0  0.11860  0.53876  0.62661  1.0000
  H   H270      1.0  0.10444  0.53582  0.58587  1.0000
  H   H271      1.0  0.13687  0.55032  0.67965  1.0000
  H   H272      1.0  0.14601  0.54389  0.62929  1.0000
  C   C173      1.0  0.00684  0.59554  0.99053  1.0000
  N   N8        1.0  0.15000  0.62055  0.94799  1.0000
  C   C174      1.0  0.13769  0.61987  0.92336  1.0000
  H   H273      1.0  0.11358  0.60643  0.74470  1.0000
  C   C175      1.0  0.15267  0.63616  0.96709  1.0000
  H   H274      1.0  0.13668  0.56568  0.63802  1.0000
  C   C176      1.0  0.13416  0.53683  0.61506  1.0000
  H   H275      1.0  0.13177  0.52272  0.61480  1.0000
  H   H276      1.0  0.09765  0.61308  0.77509  1.0000
  H   H277      1.0  0.13291  0.54786  0.76769  1.0000
  H   H278      1.0  0.01550  0.45076  0.56833  1.0000
  H   H279      1.0  0.11279  0.53259  0.78239  1.0000
  H   H280      1.0  0.05605  0.56086  0.96695  1.0000
  C   C177      1.0  0.15436  0.53926  0.57521  1.0000
  H   H281      1.0  0.14459  0.55826  0.58515  1.0000
  C   C178      1.0  0.17673  0.63902  0.91823  1.0000
  H   H282      1.0  0.11823  0.62680  0.94321  1.0000
  H   H283      1.0  0.09156  0.54599  0.90511  1.0000
  H   H284      1.0  0.07484  0.53489  0.58036  1.0000
  H   H285      1.0  0.15856  0.54497  0.55410  1.0000
  H   H286      1.0  0.16428  0.61059  0.92131  1.0000
  H   H287      1.0  0.09965  0.64532  0.81043  1.0000
  H   H288      1.0  0.14981  0.52474  0.57321  1.0000
  C   C179      1.0  0.13454  0.64207  0.63239  1.0000
  H   H289      1.0  0.14243  0.63273  0.91267  1.0000
  C   C180      1.0  0.08761  0.64024  0.70988  1.0000
  H   H290      1.0  0.17168  0.54604  0.89642  1.0000
  H   H291      1.0  0.16581  0.54484  0.59061  1.0000
  H   H292      1.0  0.12303  0.56576  0.58660  1.0000
  H   H293      1.0  0.10407  0.65123  0.92777  1.0000
  H   H294      1.0  0.00240  0.58110  0.58101  1.0000
  C   C181      1.0  0.11859  0.61565  0.93079  1.0000
  S   S46       1.0  0.15904  0.64740  0.78779  1.0000
  H   H295      1.0  0.13720  0.60997  0.90694  1.0000
  C   C182      1.0  0.22778  0.49942  0.70604  1.0000
  H   H296      1.0  0.08114  0.61812  0.73778  1.0000
  N   N9        1.0  0.10642  0.63785  0.75336  1.0000
  H   H297      1.0  0.10455  0.59984  0.89307  1.0000
  H   H298      1.0  0.16492  0.47437  0.91979  1.0000
  H   H299      1.0  0.12331  0.55495  0.91337  1.0000
  H   H300      1.0  0.23993  0.48849  0.73639  1.0000
  H   H301      1.0  0.22776  0.50254  0.68319  1.0000
  C   C183      1.0  0.02199  0.37870  0.53538  1.0000
  H   H302      1.0  0.09419  0.61238  0.90933  1.0000
  H   H303      1.0  0.00794  0.60366  0.59156  1.0000
  H   H304      1.0  0.11767  0.62995  0.78951  1.0000
  H   H305      1.0  0.15203  0.63401  0.65653  1.0000
  C   C184      1.0  0.10883  0.55140  0.52693  1.0000
  Fe  Fe26      1.0  0.18588  0.65366  0.80580  1.0000
  H   H306      1.0  0.11289  0.54993  0.76003  1.0000
  C   C185      1.0  0.11902  0.56306  0.89928  1.0000
  H   H307      1.0  0.20429  0.47480  0.69895  1.0000
  C   C186      1.0  0.13183  0.66379  0.93703  1.0000
  C   C187      1.0  0.12047  0.54650  0.77671  1.0000
  H   H308      1.0  0.24235  0.51870  0.86043  1.0000
  H   H309      1.0  0.16017  0.59164  0.96246  1.0000
  C   C188      1.0  0.16546  0.63979  0.99327  1.0000
  H   H310      1.0  0.02886  0.61064  0.53107  1.0000
  H   H311      1.0  0.14129  0.54410  0.87858  1.0000
  H   H312      1.0  0.11126  0.55735  0.81004  1.0000
  H   H313      1.0  0.19075  0.56145  0.87969  1.0000
  S   S47       1.0  0.16369  0.65580  0.70771  1.0000
  H   H314      1.0  0.18051  0.56930  0.90606  1.0000
  C   C189      1.0  0.04302  0.56042  0.96078  1.0000
  C   C190      1.0  0.10447  0.62747  0.78008  1.0000
  H   H315      1.0  0.15031  0.56531  0.89589  1.0000
  C   C191      1.0  0.08845  0.63270  0.73955  1.0000
  H   H316      1.0  0.08693  0.62379  0.84741  1.0000
  H   H317      1.0  0.08018  0.62692  0.79686  1.0000
  H   H318      1.0  0.04939  0.40750  0.51811  1.0000
  H   H319      1.0  0.11986  0.59004  0.63375  1.0000
  H   H320      1.0  0.09812  0.60753  0.71811  1.0000
  S   S48       1.0  0.04520  0.58769  0.51145  1.0000
  C   C192      1.0  0.12411  0.55885  0.80277  1.0000
  H   H321      1.0  0.02259  0.52590  0.96041  1.0000
  H   H322      1.0  0.16866  0.63987  0.89970  1.0000
  H   H323      1.0  0.12452  0.58750  0.82801  1.0000
  H   H324      1.0  0.18070  0.65113  0.93189  1.0000
  H   H325      1.0  0.12804  0.57708  0.90354  1.0000
  N   N10       1.0  0.13690  0.56405  0.85509  1.0000
  C   C193      1.0  0.02743  0.53201  0.98210  1.0000
  H   H326      1.0  0.17331  0.57584  0.85760  1.0000
  H   H327      1.0  0.11247  0.54287  0.86614  1.0000
  H   H328      1.0  0.23112  0.48630  0.78759  1.0000
  H   H329      1.0  0.00578  0.58780  0.61840  1.0000
  H   H330      1.0  0.12234  0.55369  0.53055  1.0000
  C   C194      1.0  0.14812  0.55846  0.87466  1.0000
  H   H331      1.0  0.17636  0.62219  0.95240  1.0000
  H   H332      1.0  0.10664  0.65244  0.87517  1.0000
  H   H333      1.0  0.13155  0.57247  0.79546  1.0000
  C   C195      1.0  0.10074  0.56014  0.90783  1.0000
  H   H334      1.0  0.12036  0.64077  0.71422  1.0000
  C   C196      1.0  0.04379  0.52891  0.99032  1.0000
  C   C197      1.0  0.13505  0.55485  0.82640  1.0000
  H   H335      1.0  0.11904  0.59675  0.69876  1.0000
  H   H336      1.0  0.06043  0.54325  0.51343  1.0000
  C   C198      1.0  0.12663  0.65374  0.63103  1.0000
  H   H337      1.0  0.15539  0.58739  0.83548  1.0000
  H   H338      1.0  0.11031  0.56184  0.85498  1.0000
  H   H339      1.0  0.14803  0.55853  0.81720  1.0000
  H   H340      1.0  0.15038  0.49673  0.95318  1.0000
  H   H341      1.0  0.17839  0.64086  0.98710  1.0000
  C   C199      1.0  0.11908  0.55757  0.86754  1.0000
  H   H342      1.0  0.23123  0.51174  0.71896  1.0000
  H   H343      1.0  0.16557  0.55294  0.84652  1.0000
  C   C200      1.0  0.16654  0.56213  0.86447  1.0000
  H   H344      1.0  0.12103  0.59380  0.59604  1.0000
  H   H345      1.0  0.10808  0.62521  0.83888  1.0000
  C   C201      1.0  0.09439  0.62098  0.83056  1.0000
  C   C202      1.0  0.14573  0.58386  0.85252  1.0000
  N   N11       1.0  0.01711  0.38868  0.99192  1.0000
  H   H346      1.0  0.23494  0.47775  0.70220  1.0000
  H   H347      1.0  0.12586  0.59282  0.86508  1.0000
  C   C203      1.0  0.12505  0.58740  0.61367  1.0000
  H   H348      1.0  0.08841  0.60658  0.82566  1.0000
  C   C204      1.0  0.11684  0.65681  0.91882  1.0000
  H   H349      1.0  0.01164  0.55312  0.95035  1.0000
  H   H350      1.0  0.02543  0.43726  0.95724  1.0000
  C   C205      1.0  0.15903  0.48392  0.92135  1.0000
  H   H351      1.0  0.13956  0.59341  0.61561  1.0000
  H   H352      1.0  0.12024  0.61644  0.68233  1.0000
  S   S49       1.0  0.12087  0.58712  0.53021  1.0000
  C   C206      1.0  0.05777  0.58713  0.93059  1.0000
  H   H353      1.0  0.02111  0.46129  0.53465  1.0000
  H   H354      1.0  0.10122  0.56418  0.93061  1.0000
  C   C207      1.0  0.14159  0.60360  0.96390  1.0000
  H   H355      1.0  0.05163  0.38826  0.50652  1.0000
  C   C208      1.0  0.13376  0.59341  0.84649  1.0000
  H   H356      1.0  0.02901  0.37044  0.54066  1.0000
  H   H357      1.0  0.05045  0.36304  0.99489  1.0000
  H   H358      1.0  0.99761  0.60529  0.53320  1.0000
  S   S50       1.0  0.02971  0.42571  0.54635  1.0000
  C   C209      1.0  0.09407  0.63115  0.80398  1.0000
  C   C210      1.0  0.02545  0.40808  0.98615  1.0000
  H   H359      1.0  0.03890  0.43630  0.92891  1.0000
  H   H360      1.0  0.04754  0.44003  0.96522  1.0000
  H   H361      1.0  0.00777  0.37070  0.53761  1.0000
  C   C211      1.0  0.06894  0.63220  0.69684  1.0000
  C   C212      1.0  0.12277  0.61102  0.70252  1.0000
  H   H362      1.0  0.01273  0.55784  0.49784  1.0000
  C   C213      1.0  0.01418  0.46081  0.55453  1.0000
  H   H363      1.0  0.02638  0.39002  0.55093  1.0000
  S   S51       1.0  0.08740  0.61958  0.97817  1.0000
  C   C214      1.0  0.02898  0.41299  0.95454  1.0000
  S   S52       1.0  0.13590  0.66453  0.83907  1.0000
  H   H364      1.0  0.13302  0.57005  0.98391  1.0000
  H   H365      1.0  0.15695  0.64831  0.95467  1.0000
  H   H366      1.0  0.07053  0.58642  0.93398  1.0000
  H   H367      1.0  0.19996  0.65090  0.89371  1.0000
  H   H368      1.0  0.15991  0.65324  0.50411  1.0000
  H   H369      1.0  0.12740  0.46810  0.94909  1.0000
  H   H370      1.0  0.03421  0.58152  0.95237  1.0000
  C   C215      1.0  0.14458  0.61282  0.84055  1.0000
  H   H371      1.0  0.13696  0.61759  0.70868  1.0000
  C   C216      1.0  0.13481  0.66450  0.87688  1.0000
  H   H372      1.0  0.13277  0.59260  0.94926  1.0000
  H   H373      1.0  0.20834  0.48333  0.73546  1.0000
  C   C217      1.0  0.11476  0.65722  0.76221  1.0000
  H   H374      1.0  0.13144  0.63810  0.74467  1.0000
  H   H375      1.0  0.08227  0.43180  0.97642  1.0000
  H   H376      1.0  0.13595  0.61973  0.83817  1.0000
  H   H377      1.0  0.14724  0.47940  0.90669  1.0000
  H   H378      1.0  0.03921  0.40920  0.94677  1.0000
  C   C218      1.0  0.22837  0.51050  0.79368  1.0000
  H   H379      1.0  0.02055  0.47379  0.56609  1.0000
  H   H380      1.0  0.20249  0.63898  0.92387  1.0000
  H   H381      1.0  0.16860  0.49689  0.91424  1.0000
  S   S53       1.0  0.09743  0.57975  0.98740  1.0000
  H   H382      1.0  0.20027  0.49358  0.70885  1.0000
  C   C219      1.0  0.00950  0.56823  0.50575  1.0000
  H   H383      1.0  0.22775  0.49817  0.87475  1.0000
  C   C220      1.0  0.11815  0.63347  0.73425  1.0000
  H   H384      1.0  0.09478  0.54473  0.97896  1.0000
  H   H385      1.0  0.00815  0.60053  0.96920  1.0000
  C   C221      1.0  0.00510  0.42282  0.50312  1.0000
  H   H386      1.0  0.15150  0.61404  0.82047  1.0000
  H   H387      1.0  0.03898  0.55316  0.93974  1.0000
  H   H388      1.0  0.09915  0.52332  0.52631  1.0000
  H   H389      1.0  0.15442  0.61946  0.85820  1.0000
  C   C222      1.0  0.20906  0.48696  0.71272  1.0000
  H   H390      1.0  0.19004  0.62724  0.89191  1.0000
  H   H391      1.0  0.23033  0.53667  0.80083  1.0000
  C   C223      1.0  0.01271  0.55185  0.97388  1.0000
  C   C224      1.0  0.04645  0.57987  0.95614  1.0000
  C   C225      1.0  0.15437  0.48570  0.95206  1.0000
  S   S54       1.0  0.11118  0.65238  0.60304  1.0000
  H   H392      1.0  0.09171  0.65465  0.71198  1.0000
  H   H393      1.0  0.03309  0.50249  0.97038  1.0000
  H   H394      1.0  0.05102  0.57964  0.91069  1.0000
  H   H395      1.0  0.04286  0.38890  0.99298  1.0000
  C   C226      1.0  0.00086  0.59486  0.52558  1.0000
  H   H396      1.0  0.05359  0.58810  0.97518  1.0000
  C   C227      1.0  0.24061  0.49098  0.71313  1.0000
  C   C228      1.0  0.23751  0.52869  0.79878  1.0000
  H   H397      1.0  0.13291  0.51996  0.51872  1.0000
  C   C229      1.0  0.99482  0.45589  0.54766  1.0000
  H   H398      1.0  0.06026  0.60114  0.92809  1.0000
  H   H399      1.0  0.00611  0.43992  0.99695  1.0000
  H   H400      1.0  0.06003  0.63497  0.71086  1.0000
  C   C230      1.0  0.04494  0.39681  0.50119  1.0000
  C   C231      1.0  0.11834  0.65748  0.88897  1.0000
  C   C232      1.0  0.00004  0.37929  0.97485  1.0000
  N   N12       1.0  0.02979  0.55091  0.98255  1.0000
  C   C233      1.0  0.03911  0.50921  0.99117  1.0000
  C   C234      1.0  0.02529  0.38506  0.50486  1.0000
  H   H401      1.0  0.07990  0.40454  0.50730  1.0000
  H   H402      1.0  0.08051  0.63707  0.75336  1.0000
  C   C235      1.0  0.23804  0.50040  0.79118  1.0000
  H   H403      1.0  0.03356  0.34113  0.98793  1.0000
  H   H404      1.0  0.11075  0.43834  0.95560  1.0000
  C   C236      1.0  0.13913  0.46849  0.96133  1.0000
  H   H405      1.0  0.10466  0.66156  0.76897  1.0000
  H   H406      1.0  0.24436  0.49864  0.85154  1.0000
  H   H407      1.0  0.16416  0.60650  0.99261  1.0000
  S   S55       1.0  0.06161  0.50966  0.51525  1.0000
  H   H408      1.0  0.08597  0.41231  0.97220  1.0000
  H   H409      1.0  0.04001  0.35655  0.95957  1.0000
  C   C237      1.0  0.15379  0.59638  0.97876  1.0000
  H   H410      1.0  0.99747  0.48228  0.54564  1.0000
  H   H411      1.0  0.15058  0.62102  0.51144  1.0000
  H   H412      1.0  0.01705  0.40647  0.94046  1.0000
  H   H413      1.0  0.99517  0.52004  0.50448  1.0000
  H   H414      1.0  0.12377  0.65958  0.78131  1.0000
  H   H415      1.0  0.01156  0.35267  0.97935  1.0000
  C   C238      1.0  0.03559  0.43286  0.95136  1.0000
  C   C239      1.0  0.14113  0.52010  0.50072  1.0000
  H   H416      1.0  0.00172  0.47426  0.51335  1.0000
  S   S56       1.0  0.04259  0.61476  0.99616  1.0000
  H   H417      1.0  0.01726  0.52399  0.99669  1.0000
  Fe  Fe27      1.0  0.08665  0.46551  0.49909  1.0000
  H   H418      1.0  0.01750  0.41462  0.99457  1.0000
  H   H419      1.0  0.14120  0.45709  0.95276  1.0000
  H   H420      1.0  0.99598  0.40518  0.56842  1.0000
  H   H421      1.0  0.00237  0.37804  0.95189  1.0000
  C   C240      1.0  0.02397  0.36133  0.99106  1.0000
  H   H422      1.0  0.03094  0.38144  0.96006  1.0000
  C   C241      1.0  0.02946  0.38087  0.98354  1.0000
  C   C242      1.0  0.03789  0.35521  0.98281  1.0000
  H   H423      1.0  0.01713  0.39222  0.50024  1.0000
  H   H424      1.0  0.10831  0.46109  0.98893  1.0000
  C   C243      1.0  0.09043  0.42513  0.98411  1.0000
  H   H425      1.0  0.17192  0.46981  0.98840  1.0000
  C   C244      1.0  0.10969  0.43642  0.97892  1.0000
  H   H426      1.0  0.05113  0.50728  0.99563  1.0000
  H   H427      1.0  0.14437  0.44569  0.99593  1.0000
  H   H428      1.0  0.13038  0.48949  0.99579  1.0000
  H   H429      1.0  0.11701  0.42871  0.98547  1.0000
  C   C245      1.0  0.11663  0.45438  0.99581  1.0000
  N   N13       1.0  0.13573  0.46653  0.99285  1.0000
  H   H430      1.0  0.15234  0.67697  0.45699  1.0000
  C   C246      1.0  0.18344  0.68370  0.42048  1.0000
  C   C247      1.0  0.23935  0.73373  0.29710  1.0000
  H   H431      1.0  0.19911  0.68316  0.18799  1.0000
  H   H432      1.0  0.18940  0.74703  0.28841  1.0000
  H   H433      1.0  0.19458  0.69243  0.37942  1.0000
  S   S57       1.0  0.19944  0.67773  0.24982  1.0000
  H   H434      1.0  0.18168  0.72422  0.15328  1.0000
  C   C248      1.0  0.20534  0.67293  0.47494  1.0000
  Fe  Fe28      1.0  0.20007  0.68966  0.29315  1.0000
  S   S58       1.0  0.22166  0.71570  0.31199  1.0000
  H   H435      1.0  0.17384  0.68935  0.41649  1.0000
  S   S59       1.0  0.17140  0.68438  0.28987  1.0000
  H   H436      1.0  0.23567  0.76183  0.21695  1.0000
  N   N14       1.0  0.17304  0.66923  0.46885  1.0000
  H   H437      1.0  0.22176  0.69866  0.18505  1.0000
  H   H438      1.0  0.15260  0.72261  0.14058  1.0000
  H   H439      1.0  0.23594  0.74420  0.19474  1.0000
  C   C249      1.0  0.16414  0.68145  0.47165  1.0000
  C   C250      1.0  0.18914  0.68009  0.39146  1.0000
  H   H440      1.0  0.20880  0.74364  0.29686  1.0000
  H   H441      1.0  0.13088  0.67583  0.41160  1.0000
  H   H442      1.0  0.17284  0.69491  0.46491  1.0000
  H   H443      1.0  0.18029  0.74420  0.16364  1.0000
  S   S60       1.0  0.16089  0.67689  0.20400  1.0000
  H   H444      1.0  0.17782  0.67020  0.37869  1.0000
  H   H445      1.0  0.21023  0.67972  0.45482  1.0000
  H   H446      1.0  0.19500  0.69377  0.43246  1.0000
  H   H447      1.0  0.19580  0.69195  0.48625  1.0000
  C   C251      1.0  0.24198  0.76848  0.17387  1.0000
  H   H448      1.0  0.18766  0.72737  0.30586  1.0000
  H   H449      1.0  0.14095  0.69534  0.48732  1.0000
  H   H450      1.0  0.15097  0.70666  0.16694  1.0000
  C   C252      1.0  0.19039  0.67729  0.48565  1.0000
  H   H451      1.0  0.15619  0.68072  0.14374  1.0000
  H   H452      1.0  0.14944  0.72683  0.17726  1.0000
  H   H453      1.0  0.17843  0.72145  0.25451  1.0000
  H   H454      1.0  0.20789  0.68912  0.15348  1.0000
  N   N15       1.0  0.20015  0.73340  0.20769  1.0000
  C   C253      1.0  0.21171  0.74811  0.18940  1.0000
  C   C254      1.0  0.18100  0.72842  0.20011  1.0000
  C   C255      1.0  0.20379  0.74030  0.23829  1.0000
  C   C256      1.0  0.20403  0.71745  0.20552  1.0000
  C   C257      1.0  0.20269  0.70930  0.17523  1.0000
  C   C258      1.0  0.23174  0.75505  0.19565  1.0000
  C   C259      1.0  0.19256  0.72751  0.26078  1.0000
  C   C260      1.0  0.17583  0.73007  0.16857  1.0000
  C   C261      1.0  0.15599  0.72099  0.16311  1.0000
  C   C262      1.0  0.20827  0.69418  0.17562  1.0000
  H   H455      1.0  0.23630  0.72211  0.25502  1.0000
  C   C263      1.0  0.19478  0.73704  0.28969  1.0000
  H   H456      1.0  0.20836  0.75957  0.19167  1.0000
  H   H457      1.0  0.20928  0.74418  0.16644  1.0000
  H   H458      1.0  0.17283  0.71469  0.20644  1.0000
  H   H459      1.0  0.17620  0.73676  0.21262  1.0000
  H   H460      1.0  0.20218  0.75280  0.24027  1.0000
  H   H461      1.0  0.21755  0.74364  0.24540  1.0000
  H   H462      1.0  0.21717  0.72040  0.21530  1.0000
  H   H463      1.0  0.19484  0.70669  0.21834  1.0000
  H   H464      1.0  0.21115  0.71913  0.16044  1.0000
  H   H465      1.0  0.18894  0.70361  0.16677  1.0000
  H   H466      1.0  0.19939  0.67515  0.39410  1.0000
  H   H467      1.0  0.23146  0.67629  0.48823  1.0000
  H   H468      1.0  0.19685  0.71681  0.26372  1.0000
  H   H469      1.0  0.14394  0.67172  0.36696  1.0000
  Fe  Fe29      1.0  0.17057  0.67088  0.24715  1.0000
  C   C264      1.0  0.24372  0.73356  0.26864  1.0000
  H   H470      1.0  0.23847  0.77984  0.17417  1.0000
  H   H471      1.0  0.23931  0.76231  0.15206  1.0000
  C   C265      1.0  0.14641  0.66792  0.14903  1.0000
  C   C266      1.0  0.17491  0.66660  0.43745  1.0000
  C   C267      1.0  0.22080  0.67914  0.49673  1.0000
  H   H472      1.0  0.22716  0.73406  0.75672  1.0000
  H   H473      1.0  0.18850  0.67366  0.50844  1.0000
  S   S61       1.0  0.19937  0.67159  0.77061  1.0000
  H   H474      1.0  0.16258  0.67713  0.88612  1.0000
  C   C268      1.0  0.12618  0.67035  0.74044  1.0000
  C   C269      1.0  0.24179  0.83314  0.64949  1.0000
  C   C270      1.0  0.14830  0.67139  0.92492  1.0000
  H   H475      1.0  0.13976  0.69851  0.73477  1.0000
  C   C271      1.0  0.13051  0.68936  0.74965  1.0000
  Fe  Fe30      1.0  0.19849  0.69350  0.79811  1.0000
  S   S62       1.0  0.22286  0.71842  0.81348  1.0000
  H   H476      1.0  0.13672  0.69240  0.77153  1.0000
  S   S63       1.0  0.17187  0.68983  0.77960  1.0000
  C   C272      1.0  0.23821  0.73854  0.79967  1.0000
  H   H477      1.0  0.14627  0.67863  0.69171  1.0000
  C   C273      1.0  0.23746  0.74299  0.77119  1.0000
  H   H478      1.0  0.16286  0.71116  0.49848  1.0000
  Fe  Fe31      1.0  0.16065  0.67042  0.81474  1.0000
  S   S64       1.0  0.18681  0.67555  0.83470  1.0000
  H   H479      1.0  0.16913  0.68676  0.51815  1.0000
  H   H480      1.0  0.11846  0.69161  0.74924  1.0000
  C   C274      1.0  0.15207  0.69826  0.50303  1.0000
  H   H481      1.0  0.23545  0.81879  0.64403  1.0000
  H   H482      1.0  0.15999  0.67727  0.93871  1.0000
  C   C275      1.0  0.13089  0.66682  0.65282  1.0000
  H   H483      1.0  0.14751  0.69916  0.52466  1.0000
  Fe  Fe32      1.0  0.17212  0.66679  0.75393  1.0000
  H   H484      1.0  0.23139  0.83766  0.65300  1.0000
  H   H485      1.0  0.22593  0.69356  0.50114  1.0000
  C   C276      1.0  0.14982  0.67138  0.89506  1.0000
  H   H486      1.0  0.17400  0.66831  0.99431  1.0000
  C   C277      1.0  0.15829  0.68362  0.50188  1.0000
  H   H487      1.0  0.12515  0.67614  0.65176  1.0000
  H   H488      1.0  0.14707  0.67134  0.50769  1.0000
  C   C278      1.0  0.14268  0.66811  0.67581  1.0000
  H   H489      1.0  0.21680  0.67213  0.51699  1.0000
  H   H490      1.0  0.13872  0.66913  0.73906  1.0000
  H   H491      1.0  0.11978  0.66792  0.71889  1.0000
  Fe  Fe33      1.0  0.45545  0.06761  0.03168  1.0000
  S   S65       1.0  0.45411  0.09404  0.02748  1.0000
  H   H492      1.0  0.46446  0.14636  0.23807  1.0000
  S   S66       1.0  0.48243  0.07823  0.01449  1.0000
  C   C279      1.0  0.47941  0.10488  0.25288  1.0000
  Fe  Fe34      1.0  0.46625  0.10007  0.07270  1.0000
  S   S67       1.0  0.45844  0.11404  0.10820  1.0000
  C   C280      1.0  0.44130  0.14906  0.22500  1.0000
  C   C281      1.0  0.43876  0.07157  0.17985  1.0000
  S   S68       1.0  0.46515  0.07291  0.07769  1.0000
  H   H493      1.0  0.46869  0.10382  0.37355  1.0000
  C   C282      1.0  0.47688  0.28591  0.22963  1.0000
  H   H494      1.0  0.46162  0.09498  0.19158  1.0000
  H   H495      1.0  0.45221  0.08493  0.28429  1.0000
  H   H496      1.0  0.48463  0.02464  0.48698  1.0000
  C   C283      1.0  0.49155  0.32966  0.46098  1.0000
  H   H497      1.0  0.46187  0.09680  0.42414  1.0000
  C   C284      1.0  0.47113  0.11439  0.38900  1.0000
  C   C285      1.0  0.47308  0.12627  0.13694  1.0000
  H   H498      1.0  0.47617  0.03576  0.07849  1.0000
  C   C286      1.0  0.46319  0.01497  0.04578  1.0000
  Fe  Fe35      1.0  0.49176  0.08486  0.06005  1.0000
  C   C287      1.0  0.44489  0.10636  0.27130  1.0000
  H   H499      1.0  0.45462  0.11737  0.28508  1.0000
  C   C288      1.0  0.47765  0.13188  0.37993  1.0000
  C   C289      1.0  0.46385  0.28979  0.13473  1.0000
  H   H500      1.0  0.45884  0.29266  0.17825  1.0000
  C   C290      1.0  0.47015  0.12378  0.43813  1.0000
  H   H501      1.0  0.47619  0.12878  0.25252  1.0000
  H   H502      1.0  0.47449  0.11931  0.21821  1.0000
  H   H503      1.0  0.48539  0.15882  0.39372  1.0000
  C   C291      1.0  0.46739  0.11035  0.41782  1.0000
  S   S69       1.0  0.48113  0.13599  0.34287  1.0000
  H   H504      1.0  0.44541  0.08031  0.23548  1.0000
  H   H505      1.0  0.42429  0.06620  0.18020  1.0000
  C   C292      1.0  0.47682  0.14129  0.42910  1.0000
  H   H506      1.0  0.45631  0.13806  0.15081  1.0000
  C   C293      1.0  0.42479  0.01977  0.02460  1.0000
  C   C294      1.0  0.41629  0.01864  0.05003  1.0000
  H   H507      1.0  0.44240  0.07194  0.15724  1.0000
  C   C295      1.0  0.40382  0.00218  0.05872  1.0000
  H   H508      1.0  0.39675  0.00159  0.07773  1.0000
  C   C296      1.0  0.43854  0.09033  0.31798  1.0000
  H   H509      1.0  0.48120  0.08918  0.45479  1.0000
  H   H510      1.0  0.44657  0.28883  0.24747  1.0000
  H   H511      1.0  0.42777  0.08520  0.22493  1.0000
  C   C297      1.0  0.48063  0.14533  0.40029  1.0000
  H   H512      1.0  0.47842  0.25496  0.24048  1.0000
  C   C298      1.0  0.44421  0.12014  0.22597  1.0000
  H   H513      1.0  0.48253  0.22912  0.22678  1.0000
  H   H514      1.0  0.48606  0.27964  0.16029  1.0000
  N   N16       1.0  0.45064  0.10797  0.24084  1.0000
  C   C299      1.0  0.46848  0.13699  0.15511  1.0000
  C   C300      1.0  0.48896  0.12520  0.14250  1.0000
  H   H515      1.0  0.44743  0.03318  0.45966  1.0000
  H   H516      1.0  0.46237  0.29349  0.27718  1.0000
  H   H517      1.0  0.42731  0.09367  0.32111  1.0000
  H   H518      1.0  0.43580  0.07760  0.32813  1.0000
  H   H519      1.0  0.45786  0.31092  0.26233  1.0000
  H   H520      1.0  0.42926  0.07808  0.27657  1.0000
  H   H521      1.0  0.43242  0.10785  0.27255  1.0000
  H   H522      1.0  0.47892  0.10503  0.27649  1.0000
  C   C301      1.0  0.47231  0.01242  0.48857  1.0000
  C   C302      1.0  0.45021  0.13877  0.23998  1.0000
  H   H523      1.0  0.44870  0.12240  0.20386  1.0000
  H   H524      1.0  0.41871  0.03054  0.06230  1.0000
  H   H525      1.0  0.46843  0.04261  0.04697  1.0000
  C   C303      1.0  0.47213  0.00300  0.05507  1.0000
  H   H526      1.0  0.47335  0.09111  0.24444  1.0000
  H   H527      1.0  0.44417  0.15026  0.20201  1.0000
  H   H528      1.0  0.42964  0.11394  0.22403  1.0000
  H   H529      1.0  0.42692  0.14243  0.22716  1.0000
  C   C304      1.0  0.44133  0.08885  0.28622  1.0000
  S   S70       1.0  0.46483  0.11947  0.47459  1.0000
  S   S71       1.0  0.43894  0.04033  0.01056  1.0000
  C   C305      1.0  0.45686  0.01771  0.48604  1.0000
  H   H530      1.0  0.47035  0.30809  0.21705  1.0000
  H   H531      1.0  0.44627  0.16252  0.23489  1.0000
  H   H532      1.0  0.48464  0.00789  0.04403  1.0000
  H   H533      1.0  0.36761  0.32708  0.01202  1.0000
  C   C306      1.0  0.44229  0.09038  0.22479  1.0000
  C   C307      1.0  0.47378  0.30254  0.23619  1.0000
  C   C308      1.0  0.44728  0.09019  0.19321  1.0000
  H   H534      1.0  0.44452  0.00574  0.48163  1.0000
  H   H535      1.0  0.45794  0.29871  0.12755  1.0000
  C   C309      1.0  0.45924  0.29861  0.25709  1.0000
  C   C310      1.0  0.47031  0.11596  0.24030  1.0000
  H   H536      1.0  0.44281  0.09843  0.17986  1.0000
  H   H537      1.0  0.48000  0.30817  0.16717  1.0000
  H   H538      1.0  0.44725  0.13829  0.26287  1.0000
  S   S72       1.0  0.48600  0.17090  0.28096  1.0000
  H   H539      1.0  0.47600  0.00581  0.07818  1.0000
  H   H540      1.0  0.47085  0.04244  0.46508  1.0000
  C   C311      1.0  0.47465  0.03416  0.05488  1.0000
  H   H541      1.0  0.47489  0.29166  0.12096  1.0000
  H   H542      1.0  0.48137  0.24558  0.30548  1.0000
  Fe  Fe36      1.0  0.48190  0.10475  0.01319  1.0000
  H   H543      1.0  0.48777  0.03883  0.04587  1.0000
  H   H544      1.0  0.45044  0.10067  0.32881  1.0000
  C   C312      1.0  0.45890  0.02998  0.46132  1.0000
  H   H545      1.0  0.47129  0.24930  0.20372  1.0000
  H   H546      1.0  0.47599  0.15484  0.19214  1.0000
  H   H547      1.0  0.45041  0.01113  0.05558  1.0000
  H   H548      1.0  0.47882  0.15179  0.44447  1.0000
  H   H549      1.0  0.46107  0.01443  0.02225  1.0000
  H   H550      1.0  0.49268  0.11703  0.12872  1.0000
  N   N17       1.0  0.48843  0.28669  0.20530  1.0000
  H   H551      1.0  0.46392  0.27442  0.22634  1.0000
  C   C313      1.0  0.47956  0.14644  0.17867  1.0000
  H   H552      1.0  0.48590  0.31301  0.24611  1.0000
  H   H553      1.0  0.44332  0.06271  0.19136  1.0000
  H   H554      1.0  0.45970  0.02360  0.44086  1.0000
  C   C314      1.0  0.48293  0.25473  0.21860  1.0000
  C   C315      1.0  0.49035  0.08481  0.44443  1.0000
  H   H555      1.0  0.45377  0.27598  0.13212  1.0000
  H   H556      1.0  0.46672  0.26854  0.17837  1.0000
  S   S73       1.0  0.49369  0.11224  0.05817  1.0000
  H   H557      1.0  0.47108  0.00462  0.46847  1.0000
  C   C316      1.0  0.42130  0.00411  0.00882  1.0000
  H   H558      1.0  0.47780  0.32081  0.45429  1.0000
  C   C317      1.0  0.47034  0.29420  0.16593  1.0000
  H   H559      1.0  0.48912  0.07234  0.45392  1.0000
  H   H560      1.0  0.48671  0.08229  0.42128  1.0000
  H   H561      1.0  0.48275  0.28369  0.25003  1.0000
  C   C318      1.0  0.47804  0.28158  0.17715  1.0000
  C   C319      1.0  0.49149  0.24192  0.21815  1.0000
  H   H562      1.0  0.48951  0.31171  0.49461  1.0000
  H   H563      1.0  0.49303  0.27801  0.30004  1.0000
  C   C320      1.0  0.49460  0.25284  0.29888  1.0000
  H   H564      1.0  0.49443  0.23958  0.19602  1.0000
  Fe  Fe37      1.0  0.44607  0.06456  0.54064  1.0000
  S   S74       1.0  0.44980  0.09285  0.54704  1.0000
  S   S75       1.0  0.42338  0.04048  0.55718  1.0000
  S   S76       1.0  0.45764  0.06908  0.49736  1.0000
  H   H565      1.0  0.46325  0.10300  0.68212  1.0000
  Fe  Fe38      1.0  0.47581  0.09799  0.56854  1.0000
  H   H566      1.0  0.47332  0.25519  0.72567  1.0000
  C   C321      1.0  0.47308  0.12362  0.90154  1.0000
  C   C322      1.0  0.45271  0.04470  0.63505  1.0000
  S   S77       1.0  0.47128  0.06964  0.56446  1.0000
  H   H567      1.0  0.42824  0.04634  0.62327  1.0000
  H   H568      1.0  0.45282  0.08590  0.70691  1.0000
  H   H569      1.0  0.46544  0.11013  0.94128  1.0000
  C   C323      1.0  0.43955  0.17573  0.67970  1.0000
  H   H570      1.0  0.45061  0.14160  0.90553  1.0000
  H   H571      1.0  0.45247  0.14225  0.94391  1.0000
  C   C324      1.0  0.42205  0.09452  0.60595  1.0000
  H   H572      1.0  0.44461  0.21845  0.73716  1.0000
  H   H573      1.0  0.44211  0.05148  0.70402  1.0000
  C   C325      1.0  0.48659  0.13622  0.88638  1.0000
  H   H574      1.0  0.43932  0.16109  0.76657  1.0000
  H   H575      1.0  0.43961  0.09326  0.65349  1.0000
  S   S78       1.0  0.48781  0.17567  0.79231  1.0000
  H   H576      1.0  0.45419  0.17771  0.79166  1.0000
  H   H577      1.0  0.41754  0.15690  0.65397  1.0000
  C   C326      1.0  0.42815  0.06061  0.67202  1.0000
  C   C327      1.0  0.44032  0.08371  0.63743  1.0000
  C   C328      1.0  0.36389  0.31373  0.97144  1.0000
  H   H578      1.0  0.46279  0.12484  0.61898  1.0000
  C   C329      1.0  0.42937  0.04658  0.69187  1.0000
  S   S79       1.0  0.48986  0.11184  0.61072  1.0000
  C   C330      1.0  0.47602  0.11972  0.92990  1.0000
  H   H579      1.0  0.44960  0.20370  0.67215  1.0000
  H   H580      1.0  0.45186  0.09131  0.62465  1.0000
  C   C331      1.0  0.41513  0.04112  0.71363  1.0000
  H   H581      1.0  0.40642  0.00683  0.58347  1.0000
  C   C332      1.0  0.44557  0.18819  0.75503  1.0000
  C   C333      1.0  0.41670  0.01850  0.54368  1.0000
  H   H582      1.0  0.43398  0.10324  0.59514  1.0000
  H   H583      1.0  0.44878  0.17356  0.66563  1.0000
  H   H584      1.0  0.46375  0.06662  0.67735  1.0000
  H   H585      1.0  0.48929  0.00713  0.55365  1.0000
  H   H586      1.0  0.47089  0.08309  0.65176  1.0000
  H   H587      1.0  0.46689  0.05325  0.63330  1.0000
  H   H588      1.0  0.46016  0.11692  0.89139  1.0000
  H   H589      1.0  0.47515  0.03475  0.53992  1.0000
  H   H590      1.0  0.48291  0.10717  0.72319  1.0000
  H   H591      1.0  0.49201  0.04786  0.99485  1.0000
  H   H592      1.0  0.46546  0.01734  0.56464  1.0000
  S   S80       1.0  0.48161  0.14171  0.85159  1.0000
  C   C334      1.0  0.44771  0.02927  0.61357  1.0000
  C   C335      1.0  0.47770  0.02572  0.55433  1.0000
  H   H593      1.0  0.45000  0.03407  0.59151  1.0000
  H   H594      1.0  0.49389  0.02877  0.59318  1.0000
  H   H595      1.0  0.43372  0.02006  0.61499  1.0000
  H   H596      1.0  0.40195  0.03570  0.70267  1.0000
  C   C336      1.0  0.46946  0.32918  0.50741  1.0000
  C   C337      1.0  0.45308  0.15022  0.92493  1.0000
  H   H597      1.0  0.44884  0.20079  0.76695  1.0000
  H   H598      1.0  0.41985  0.10209  0.62380  1.0000
  H   H599      1.0  0.41540  0.05387  0.65987  1.0000
  H   H600      1.0  0.47566  0.21925  0.90626  1.0000
  H   H601      1.0  0.45558  0.02443  0.50567  1.0000
  H   H602      1.0  0.42667  0.07093  0.68540  1.0000
  H   H603      1.0  0.41073  0.09035  0.59033  1.0000
  H   H604      1.0  0.44916  0.22827  0.70305  1.0000
  H   H605      1.0  0.41170  0.07033  0.62780  1.0000
  H   H606      1.0  0.41603  0.03077  0.72721  1.0000
  H   H607      1.0  0.43310  0.18434  0.74246  1.0000
  H   H608      1.0  0.46122  0.17857  0.89414  1.0000
  C   C338      1.0  0.45518  0.22726  0.72401  1.0000
  N   N18       1.0  0.44278  0.06888  0.65191  1.0000
  H   H609      1.0  0.41675  0.05256  0.72766  1.0000
  H   H610      1.0  0.46864  0.24524  0.76015  1.0000
  C   C339      1.0  0.41865  0.01490  0.51517  1.0000
  C   C340      1.0  0.46944  0.22050  0.71935  1.0000
  H   H611      1.0  0.45260  0.25027  0.74095  1.0000
  C   C341      1.0  0.47490  0.21168  0.82793  1.0000
  C   C342      1.0  0.46960  0.13895  0.65996  1.0000
  C   C343      1.0  0.47744  0.19970  0.69309  1.0000
  Fe  Fe39      1.0  0.48303  0.07582  0.52209  1.0000
  H   H612      1.0  0.43133  0.17289  0.79020  1.0000
  C   C344      1.0  0.47108  0.16576  0.92461  1.0000
  H   H613      1.0  0.35158  0.30270  0.97758  1.0000
  H   H614      1.0  0.47208  0.16700  0.87862  1.0000
  C   C345      1.0  0.44206  0.05561  0.62902  1.0000
  H   H615      1.0  0.48071  0.08486  0.71992  1.0000
  C   C346      1.0  0.46054  0.07684  0.66738  1.0000
  H   H616      1.0  0.45835  0.14196  0.65930  1.0000
  H   H617      1.0  0.42730  0.03455  0.67916  1.0000
  C   C347      1.0  0.46321  0.09088  0.69128  1.0000
  H   H618      1.0  0.43674  0.16651  0.69750  1.0000
  H   H619      1.0  0.42468  0.07050  0.59823  1.0000
  H   H620      1.0  0.47427  0.18565  0.68814  1.0000
  C   C348      1.0  0.47205  0.12919  0.63707  1.0000
  C   C349      1.0  0.47226  0.19953  0.85302  1.0000
  C   C350      1.0  0.44247  0.17410  0.77716  1.0000
  C   C351      1.0  0.42386  0.07828  0.61700  1.0000
  H   H621      1.0  0.45084  0.03925  0.65659  1.0000
  C   C352      1.0  0.49081  0.03711  0.57782  1.0000
  C   C353      1.0  0.36707  0.33030  0.98928  1.0000
  H   H622      1.0  0.44718  0.06236  0.60889  1.0000
  H   H623      1.0  0.47256  0.17423  0.94380  1.0000
  H   H624      1.0  0.43626  0.19673  0.70163  1.0000
  H   H625      1.0  0.47274  0.19523  0.75042  1.0000
  H   H626      1.0  0.48174  0.20823  0.81081  1.0000
  N   N19       1.0  0.46336  0.20131  0.71031  1.0000
  S   S81       1.0  0.47779  0.15668  0.71240  1.0000
  C   C354      1.0  0.44704  0.19517  0.69101  1.0000
  H   H627      1.0  0.48520  0.04490  0.58964  1.0000
  C   C355      1.0  0.49257  0.12845  0.94359  1.0000
  H   H628      1.0  0.37480  0.30982  0.97516  1.0000
  C   C356      1.0  0.48153  0.14473  0.68372  1.0000
  C   C357      1.0  0.46080  0.19001  0.73603  1.0000
  C   C358      1.0  0.48647  0.12506  0.63777  1.0000
  H   H629      1.0  0.45913  0.17656  0.72948  1.0000
  H   H630      1.0  0.45575  0.02195  0.61813  1.0000
  H   H631      1.0  0.46452  0.18577  0.84481  1.0000
  H   H632      1.0  0.46202  0.21027  0.81901  1.0000
  H   H633      1.0  0.42461  0.17938  0.64350  1.0000
  H   H634      1.0  0.48204  0.31311  0.54323  1.0000
  C   C359      1.0  0.48999  0.20129  0.86665  1.0000
  C   C360      1.0  0.46297  0.24558  0.73855  1.0000
  C   C361      1.0  0.42247  0.17076  0.66207  1.0000
  C   C362      1.0  0.48070  0.09613  0.70782  1.0000
  H   H635      1.0  0.41236  0.17193  0.67535  1.0000
  S   S82       1.0  0.48953  0.32718  0.79333  1.0000
  C   C363      1.0  0.47645  0.21089  0.92384  1.0000
  H   H636      1.0  0.49202  0.05376  0.95816  1.0000
  H   H637      1.0  0.47799  0.22358  0.73917  1.0000
  C   C364      1.0  0.47307  0.17612  0.89681  1.0000
  H   H638      1.0  0.48268  0.22566  0.83497  1.0000
  H   H639      1.0  0.47975  0.21393  0.97025  1.0000
  H   H640      1.0  0.48093  0.16029  0.92643  1.0000
  C   C365      1.0  0.47931  0.22175  0.95158  1.0000
  S   S83       1.0  0.48980  0.10459  0.52748  1.0000
  H   H641      1.0  0.46835  0.22561  0.95390  1.0000
  N   N20       1.0  0.47340  0.00218  0.51441  1.0000
  C   C366      1.0  0.40838  0.00426  0.56155  1.0000
  H   H642      1.0  0.42768  0.00482  0.98901  1.0000
  C   C367      1.0  0.48515  0.01452  0.53779  1.0000
  H   H643      1.0  0.46378  0.19920  0.92501  1.0000
  H   H644      1.0  0.46430  0.20262  0.86840  1.0000
  H   H645      1.0  0.44267  0.15496  0.92596  1.0000
  H   H646      1.0  0.45754  0.32605  0.54918  1.0000
  H   H647      1.0  0.43358  0.31607  0.51109  1.0000
  Fe  Fe40      1.0  0.46374  0.09786  0.50519  1.0000
  H   H648      1.0  0.47813  0.20592  0.67205  1.0000
  C   C368      1.0  0.49022  0.32761  0.54348  1.0000
  N   N21       1.0  0.48958  0.19292  0.89518  1.0000
  H   H649      1.0  0.49171  0.23394  0.95146  1.0000
  C   C369      1.0  0.49178  0.20577  0.91952  1.0000
  H   H650      1.0  0.47776  0.22924  0.70294  1.0000
  H   H651      1.0  0.49164  0.10055  0.69310  1.0000
  H   H652      1.0  0.46267  0.31463  0.50346  1.0000
  H   H653      1.0  0.36264  0.31597  0.94836  1.0000
  C   C370      1.0  0.44066  0.33011  0.51823  1.0000
  H   H654      1.0  0.42458  0.02567  0.50097  1.0000
  H   H655      1.0  0.49470  0.20076  0.93996  1.0000
  S   S84       1.0  0.47308  0.63947  0.25425  1.0000
  S   S85       1.0  0.42476  0.61443  0.23114  1.0000
  Fe  Fe41      1.0  0.30546  0.52377  0.28191  1.0000
  S   S86       1.0  0.31317  0.50133  0.27376  1.0000
  S   S87       1.0  0.28037  0.52549  0.26441  1.0000
  Fe  Fe42      1.0  0.34344  0.54915  0.30011  1.0000
  S   S88       1.0  0.35329  0.52869  0.29308  1.0000
  S   S89       1.0  0.36302  0.57655  0.31446  1.0000
  Fe  Fe43      1.0  0.33655  0.52110  0.25259  1.0000
  S   S90       1.0  0.35041  0.52084  0.21179  1.0000
  Fe  Fe44      1.0  0.32948  0.51065  0.31519  1.0000
  S   S91       1.0  0.33601  0.49232  0.34395  1.0000
  S   S92       1.0  0.32824  0.54297  0.25843  1.0000
  S   S93       1.0  0.32033  0.53181  0.32486  1.0000
  H   H656      1.0  0.44339  0.56061  0.06299  1.0000
  H   H657      1.0  0.45863  0.58214  0.31753  1.0000
  H   H658      1.0  0.24950  0.61688  0.30227  1.0000
  C   C371      1.0  0.42310  0.42196  0.02731  1.0000
  S   S94       1.0  0.33839  0.49212  0.48027  1.0000
  Fe  Fe45      1.0  0.35801  0.47573  0.07010  1.0000
  S   S95       1.0  0.38465  0.47579  0.07609  1.0000
  S   S96       1.0  0.33852  0.46811  0.10550  1.0000
  Fe  Fe46      1.0  0.39398  0.50211  0.05617  1.0000
  H   H659      1.0  0.47055  0.49754  0.05052  1.0000
  Fe  Fe47      1.0  0.38036  0.46493  0.03087  1.0000
  H   H660      1.0  0.48625  0.59285  0.28945  1.0000
  S   S97       1.0  0.46074  0.40456  0.01303  1.0000
  S   S98       1.0  0.35261  0.46261  0.02584  1.0000
  H   H661      1.0  0.47297  0.38851  0.35953  1.0000
  H   H662      1.0  0.44405  0.47729  0.02417  1.0000
  H   H663      1.0  0.48584  0.61021  0.33234  1.0000
  H   H664      1.0  0.36379  0.52889  0.46536  1.0000
  Fe  Fe48      1.0  0.47634  0.38167  0.07220  1.0000
  S   S99       1.0  0.47356  0.40683  0.08079  1.0000
  H   H665      1.0  0.26332  0.46287  0.22292  1.0000
  Fe  Fe49      1.0  0.44841  0.39455  0.05408  1.0000
  S   S100      1.0  0.42478  0.39879  0.06795  1.0000
  C   C372      1.0  0.48278  0.50141  0.03895  1.0000
  S   S101      1.0  0.45008  0.36841  0.04812  1.0000
  C   C373      1.0  0.44392  0.55174  0.04659  1.0000
  C   C374      1.0  0.40289  0.43601  0.02897  1.0000
  C   C375      1.0  0.31662  0.53727  0.16864  1.0000
  C   C376      1.0  0.27422  0.55265  0.33751  1.0000
  C   C377      1.0  0.41747  0.41412  0.05338  1.0000
  S   S102      1.0  0.47774  0.34794  0.23528  1.0000
  H   H666      1.0  0.40605  0.55760  0.41366  1.0000
  H   H667      1.0  0.44099  0.52507  0.47185  1.0000
  C   C378      1.0  0.37958  0.38899  0.00008  1.0000
  C   C379      1.0  0.43333  0.63526  0.35437  1.0000
  H   H668      1.0  0.47718  0.62265  0.31115  1.0000
  C   C380      1.0  0.43290  0.53377  0.04694  1.0000
  H   H669      1.0  0.25762  0.56295  0.29615  1.0000
  N   N22       1.0  0.48106  0.48764  0.01646  1.0000
  H   H670      1.0  0.40024  0.52448  0.18110  1.0000
  H   H671      1.0  0.49430  0.39699  0.39511  1.0000
  C   C381      1.0  0.48363  0.53176  0.04918  1.0000
  H   H672      1.0  0.40057  0.56727  0.44317  1.0000
  H   H673      1.0  0.43633  0.61589  0.38039  1.0000
  H   H674      1.0  0.47802  0.46060  0.01475  1.0000
  H   H675      1.0  0.41249  0.56250  0.07167  1.0000
  C   C382      1.0  0.44491  0.52911  0.00304  1.0000
  C   C383      1.0  0.47239  0.36546  0.15613  1.0000
  C   C384      1.0  0.46830  0.46117  0.48629  1.0000
  H   H676      1.0  0.38391  0.33996  0.07740  1.0000
  H   H677      1.0  0.46375  0.57233  0.02431  1.0000
  H   H678      1.0  0.40039  0.41170  0.08768  1.0000
  H   H679      1.0  0.46358  0.37002  0.14550  1.0000
  H   H680      1.0  0.24904  0.58687  0.33861  1.0000
  N   N23       1.0  0.44901  0.59798  0.34224  1.0000
  H   H681      1.0  0.43438  0.56999  0.34743  1.0000
  H   H682      1.0  0.43818  0.62776  0.17149  1.0000
  H   H683      1.0  0.29706  0.48182  0.10156  1.0000
  H   H684      1.0  0.38787  0.43112  0.06651  1.0000
  C   C385      1.0  0.41561  0.43256  0.01496  1.0000
  H   H685      1.0  0.48305  0.64933  0.06918  1.0000
  H   H686      1.0  0.45955  0.36133  0.19617  1.0000
  C   C386      1.0  0.34596  0.50608  0.18201  1.0000
  C   C387      1.0  0.35749  0.51123  0.15962  1.0000
  C   C388      1.0  0.35533  0.49976  0.13613  1.0000
  C   C389      1.0  0.34142  0.48300  0.13458  1.0000
  C   C390      1.0  0.32969  0.47788  0.15681  1.0000
  C   C391      1.0  0.33200  0.48933  0.18054  1.0000
  H   H687      1.0  0.36824  0.52417  0.16051  1.0000
  H   H688      1.0  0.36447  0.50387  0.11924  1.0000
  H   H689      1.0  0.31895  0.46489  0.15584  1.0000
  H   H690      1.0  0.32324  0.48505  0.19784  1.0000
  C   C392      1.0  0.33667  0.49259  0.38188  1.0000
  C   C393      1.0  0.32782  0.50023  0.39776  1.0000
  C   C394      1.0  0.32842  0.49987  0.42781  1.0000
  C   C395      1.0  0.33796  0.49198  0.44238  1.0000
  C   C396      1.0  0.34688  0.48440  0.42653  1.0000
  C   C397      1.0  0.34613  0.48461  0.39645  1.0000
  H   H691      1.0  0.32028  0.50619  0.38688  1.0000
  H   H692      1.0  0.32139  0.50567  0.43984  1.0000
  H   H693      1.0  0.35417  0.47817  0.43742  1.0000
  H   H694      1.0  0.35288  0.47850  0.38440  1.0000
  H   H695      1.0  0.45080  0.59495  0.29681  1.0000
  C   C398      1.0  0.25808  0.51723  0.27395  1.0000
  H   H696      1.0  0.36858  0.40811  0.99849  1.0000
  H   H697      1.0  0.45287  0.49940  0.01293  1.0000
  H   H698      1.0  0.26020  0.50193  0.30902  1.0000
  C   C399      1.0  0.45539  0.55840  0.02450  1.0000
  C   C400      1.0  0.40771  0.60428  0.25462  1.0000
  C   C401      1.0  0.39487  0.58727  0.24762  1.0000
  C   C402      1.0  0.38106  0.57876  0.26572  1.0000
  C   C403      1.0  0.38001  0.58720  0.29105  1.0000
  C   C404      1.0  0.39288  0.60422  0.29811  1.0000
  C   C405      1.0  0.40668  0.61275  0.27992  1.0000
  H   H699      1.0  0.39555  0.58065  0.22806  1.0000
  H   H700      1.0  0.37123  0.56565  0.26006  1.0000
  H   H701      1.0  0.39211  0.61083  0.31763  1.0000
  H   H702      1.0  0.41641  0.62593  0.28527  1.0000
  Fe  Fe50      1.0  0.44765  0.64067  0.24240  1.0000
  C   C406      1.0  0.41605  0.56761  0.15777  1.0000
  C   C407      1.0  0.40927  0.54737  0.15479  1.0000
  C   C408      1.0  0.40535  0.53899  0.18391  1.0000
  H   H703      1.0  0.42673  0.57260  0.17471  1.0000
  H   H704      1.0  0.40520  0.56996  0.16680  1.0000
  H   H705      1.0  0.41891  0.54344  0.14508  1.0000
  H   H706      1.0  0.39685  0.54173  0.14174  1.0000
  H   H707      1.0  0.44941  0.56987  0.15526  1.0000
  H   H708      1.0  0.40097  0.54642  0.09710  1.0000
  H   H709      1.0  0.41741  0.54384  0.19799  1.0000
  H   H710      1.0  0.39528  0.54206  0.19422  1.0000
  S   S103      1.0  0.45067  0.66029  0.27727  1.0000
  H   H711      1.0  0.47089  0.59283  0.42206  1.0000
  H   H712      1.0  0.46921  0.65796  0.11271  1.0000
  H   H713      1.0  0.44004  0.58194  0.09743  1.0000
  H   H714      1.0  0.40874  0.58571  0.09720  1.0000
  C   C409      1.0  0.48803  0.66354  0.06420  1.0000
  C   C410      1.0  0.47040  0.37582  0.31864  1.0000
  H   H715      1.0  0.41720  0.58918  0.31124  1.0000
  H   H716      1.0  0.28280  0.55558  0.35719  1.0000
  H   H717      1.0  0.28804  0.47436  0.19076  1.0000
  H   H718      1.0  0.30077  0.49125  0.21668  1.0000
  H   H719      1.0  0.37382  0.54999  0.08544  1.0000
  C   C411      1.0  0.26059  0.55997  0.34102  1.0000
  C   C412      1.0  0.45827  0.59525  0.31703  1.0000
  H   H720      1.0  0.47343  0.58386  0.35914  1.0000
  C   C413      1.0  0.25156  0.50591  0.29653  1.0000
  H   H721      1.0  0.28315  0.46367  0.23984  1.0000
  H   H722      1.0  0.45869  0.55767  0.11364  1.0000
  C   C414      1.0  0.47504  0.45018  0.46836  1.0000
  C   C415      1.0  0.49311  0.65269  0.35791  1.0000
  H   H723      1.0  0.39218  0.55956  0.30605  1.0000
  H   H724      1.0  0.27752  0.50268  0.21545  1.0000
  C   C416      1.0  0.25807  0.53251  0.16772  1.0000
  H   H725      1.0  0.33937  0.54846  0.19832  1.0000
  H   H726      1.0  0.30341  0.51953  0.11993  1.0000
  H   H727      1.0  0.25361  0.53953  0.18354  1.0000
  H   H728      1.0  0.40665  0.42635  0.48355  1.0000
  C   C417      1.0  0.49188  0.62774  0.10731  1.0000
  C   C418      1.0  0.44600  0.61430  0.33771  1.0000
  C   C419      1.0  0.41891  0.57750  0.31848  1.0000
  H   H729      1.0  0.45622  0.37250  0.31634  1.0000
  H   H730      1.0  0.38243  0.54425  0.05435  1.0000
  H   H731      1.0  0.26469  0.50448  0.15123  1.0000
  H   H732      1.0  0.31369  0.51674  0.19720  1.0000
  H   H733      1.0  0.44673  0.57730  0.46135  1.0000
  H   H734      1.0  0.39287  0.37370  0.04067  1.0000
  C   C420      1.0  0.27666  0.47181  0.23137  1.0000
  Fe  Fe51      1.0  0.48593  0.41523  0.03892  1.0000
  H   H735      1.0  0.42335  0.63656  0.36777  1.0000
  H   H736      1.0  0.47167  0.61341  0.36998  1.0000
  H   H737      1.0  0.28293  0.48434  0.14843  1.0000
  C   C421      1.0  0.45988  0.60061  0.36966  1.0000
  H   H738      1.0  0.26515  0.54190  0.15117  1.0000
  H   H739      1.0  0.30546  0.49674  0.15801  1.0000
  H   H740      1.0  0.42363  0.57230  0.30034  1.0000
  H   H741      1.0  0.35714  0.54776  0.42312  1.0000
  C   C422      1.0  0.43380  0.52239  0.02562  1.0000
  C   C423      1.0  0.30450  0.49638  0.10212  1.0000
  H   H742      1.0  0.41755  0.62902  0.16673  1.0000
  C   C424      1.0  0.39047  0.52296  0.44415  1.0000
  C   C425      1.0  0.37484  0.53546  0.41372  1.0000
  H   H743      1.0  0.45535  0.35217  0.40884  1.0000
  C   C426      1.0  0.39704  0.51671  0.41768  1.0000
  C   C427      1.0  0.36738  0.54919  0.40787  1.0000
  C   C428      1.0  0.40380  0.50301  0.42552  1.0000
  C   C429      1.0  0.35881  0.54653  0.37786  1.0000
  H   H744      1.0  0.37843  0.51154  0.45044  1.0000
  N   N24       1.0  0.38670  0.53887  0.44022  1.0000
  H   H745      1.0  0.40092  0.36189  0.08516  1.0000
  H   H746      1.0  0.36353  0.52238  0.41456  1.0000
  H   H747      1.0  0.38181  0.53481  0.39438  1.0000
  C   C430      1.0  0.33051  0.55275  0.18596  1.0000
  H   H748      1.0  0.49322  0.34336  0.45858  1.0000
  H   H749      1.0  0.38612  0.51033  0.40148  1.0000
  H   H750      1.0  0.40763  0.52792  0.40779  1.0000
  H   H751      1.0  0.43693  0.58011  0.42830  1.0000
  H   H752      1.0  0.45478  0.45816  0.47816  1.0000
  H   H753      1.0  0.38035  0.38985  0.02373  1.0000
  H   H754      1.0  0.41505  0.50869  0.44126  1.0000
  H   H755      1.0  0.39327  0.49135  0.43470  1.0000
  H   H756      1.0  0.40818  0.49858  0.40614  1.0000
  H   H757      1.0  0.35346  0.55641  0.37434  1.0000
  H   H758      1.0  0.36843  0.54815  0.36140  1.0000
  H   H759      1.0  0.34793  0.53320  0.37502  1.0000
  N   N25       1.0  0.37023  0.48143  0.23586  1.0000
  C   C431      1.0  0.36638  0.47423  0.20546  1.0000
  C   C432      1.0  0.35343  0.47980  0.24855  1.0000
  C   C433      1.0  0.38216  0.50089  0.23503  1.0000
  C   C434      1.0  0.37909  0.47261  0.25414  1.0000
  C   C435      1.0  0.37430  0.45288  0.24706  1.0000
  C   C436      1.0  0.38259  0.47811  0.18745  1.0000
  C   C437      1.0  0.38640  0.51134  0.26401  1.0000
  C   C438      1.0  0.33841  0.46109  0.24949  1.0000
  C   C439      1.0  0.32178  0.46187  0.25978  1.0000
  C   C440      1.0  0.38145  0.44486  0.27040  1.0000
  C   C441      1.0  0.37780  0.46640  0.16033  1.0000
  C   C442      1.0  0.39977  0.53038  0.26094  1.0000
  H   H760      1.0  0.35830  0.47978  0.19383  1.0000
  H   H761      1.0  0.35826  0.45982  0.20445  1.0000
  H   H762      1.0  0.35581  0.48480  0.27111  1.0000
  H   H763      1.0  0.34827  0.48822  0.23692  1.0000
  H   H764      1.0  0.37651  0.50748  0.21999  1.0000
  H   H765      1.0  0.39499  0.50291  0.22662  1.0000
  H   H766      1.0  0.39358  0.47950  0.25289  1.0000
  H   H767      1.0  0.37662  0.47388  0.27706  1.0000
  H   H768      1.0  0.38006  0.45150  0.22681  1.0000
  H   H769      1.0  0.36004  0.44484  0.24451  1.0000
  H   H770      1.0  0.38800  0.49198  0.18068  1.0000
  H   H771      1.0  0.39303  0.47616  0.19980  1.0000
  H   H772      1.0  0.39173  0.50515  0.28015  1.0000
  H   H773      1.0  0.37456  0.51200  0.27218  1.0000
  H   H774      1.0  0.33511  0.45427  0.22825  1.0000
  H   H775      1.0  0.34199  0.45317  0.26496  1.0000
  H   H776      1.0  0.31715  0.46924  0.24473  1.0000
  H   H777      1.0  0.31129  0.44831  0.26103  1.0000
  H   H778      1.0  0.32417  0.46834  0.28136  1.0000
  H   H779      1.0  0.39589  0.45216  0.27313  1.0000
  H   H780      1.0  0.37547  0.44516  0.29100  1.0000
  H   H781      1.0  0.37823  0.43092  0.26445  1.0000
  H   H782      1.0  0.38952  0.46993  0.14744  1.0000
  H   H783      1.0  0.37293  0.45231  0.16566  1.0000
  H   H784      1.0  0.36759  0.46830  0.14715  1.0000
  H   H785      1.0  0.41201  0.53089  0.25224  1.0000
  H   H786      1.0  0.39424  0.53743  0.24673  1.0000
  H   H787      1.0  0.40298  0.53729  0.28216  1.0000
  S   S104      1.0  0.36789  0.50293  0.05335  1.0000
  C   C443      1.0  0.28737  0.48334  0.20781  1.0000
  H   H788      1.0  0.32431  0.55862  0.20076  1.0000
  C   C444      1.0  0.43305  0.61703  0.35768  1.0000
  H   H789      1.0  0.44141  0.61476  0.31530  1.0000
  H   H790      1.0  0.47703  0.57484  0.13282  1.0000
  H   H791      1.0  0.49261  0.64162  0.02471  1.0000
  H   H792      1.0  0.48148  0.57980  0.40873  1.0000
  C   C445      1.0  0.30501  0.52244  0.18800  1.0000
  H   H793      1.0  0.42615  0.50839  0.02676  1.0000
  H   H794      1.0  0.47856  0.65309  0.39451  1.0000
  H   H795      1.0  0.39692  0.33912  0.03099  1.0000
  N   N26       1.0  0.28872  0.50817  0.17385  1.0000
  H   H796      1.0  0.25301  0.58822  0.30189  1.0000
  H   H797      1.0  0.48101  0.52004  0.00720  1.0000
  C   C446      1.0  0.40297  0.55569  0.43659  1.0000
  C   C447      1.0  0.46930  0.35831  0.41365  1.0000
  H   H798      1.0  0.45459  0.57330  0.38023  1.0000
  H   H799      1.0  0.43284  0.41945  0.01626  1.0000
  C   C448      1.0  0.47580  0.36799  0.43955  1.0000
  H   H800      1.0  0.25292  0.55361  0.35963  1.0000
  H   H801      1.0  0.41394  0.36077  0.03876  1.0000
  H   H802      1.0  0.45120  0.45651  0.03631  1.0000
  H   H803      1.0  0.40841  0.55078  0.01580  1.0000
  H   H804      1.0  0.48755  0.54511  0.04062  1.0000
  C   C449      1.0  0.45566  0.54713  0.00248  1.0000
  H   H805      1.0  0.47708  0.60485  0.26774  1.0000
  C   C450      1.0  0.48579  0.36412  0.14103  1.0000
  H   H806      1.0  0.40190  0.55156  0.33383  1.0000
  H   H807      1.0  0.46895  0.57949  0.09947  1.0000
  C   C451      1.0  0.39778  0.42876  0.05560  1.0000
  C   C452      1.0  0.40487  0.41770  0.06752  1.0000
  H   H808      1.0  0.25134  0.53083  0.24036  1.0000
  C   C453      1.0  0.47927  0.47098  0.03085  1.0000
  H   H809      1.0  0.35022  0.42603  0.49448  1.0000
  H   H810      1.0  0.48990  0.60277  0.40084  1.0000
  H   H811      1.0  0.43069  0.56004  0.10916  1.0000
  H   H812      1.0  0.39447  0.57132  0.12177  1.0000
  H   H813      1.0  0.41268  0.59838  0.17247  1.0000
  H   H814      1.0  0.49453  0.64157  0.42769  1.0000
  H   H815      1.0  0.46937  0.52610  0.05251  1.0000
  N   N27       1.0  0.42192  0.57772  0.13090  1.0000
  C   C454      1.0  0.45263  0.57747  0.13549  1.0000
  H   H816      1.0  0.28254  0.50213  0.11017  1.0000
  C   C455      1.0  0.27648  0.51544  0.16143  1.0000
  C   C456      1.0  0.48067  0.35635  0.39399  1.0000
  H   H817      1.0  0.37478  0.35313  0.03574  1.0000
  H   H818      1.0  0.30165  0.52850  0.20674  1.0000
  C   C457      1.0  0.40095  0.56348  0.32556  1.0000
  H   H819      1.0  0.38538  0.56666  0.06013  1.0000
  H   H820      1.0  0.28120  0.53695  0.19310  1.0000
  S   S105      1.0  0.41753  0.52583  0.07329  1.0000
  H   H821      1.0  0.32367  0.53209  0.15432  1.0000
  H   H822      1.0  0.27556  0.48008  0.24926  1.0000
  C   C458      1.0  0.46502  0.57199  0.11930  1.0000
  C   C459      1.0  0.27900  0.49543  0.19643  1.0000
  H   H823      1.0  0.26244  0.51677  0.19963  1.0000
  H   H824      1.0  0.45305  0.44052  0.07887  1.0000
  S   S106      1.0  0.46080  0.36959  0.46390  1.0000
  H   H825      1.0  0.42537  0.58305  0.36416  1.0000
  H   H826      1.0  0.26768  0.57433  0.34589  1.0000
  H   H827      1.0  0.47544  0.34872  0.37431  1.0000
  C   C460      1.0  0.43587  0.57397  0.11687  1.0000
  C   C461      1.0  0.40209  0.55875  0.08742  1.0000
  H   H828      1.0  0.47593  0.37854  0.29718  1.0000
  Fe  Fe52      1.0  0.48428  0.66130  0.22321  1.0000
  C   C462      1.0  0.29560  0.50514  0.12043  1.0000
  H   H829      1.0  0.44636  0.64570  0.36132  1.0000
  C   C463      1.0  0.46594  0.58594  0.37657  1.0000
  H   H830      1.0  0.43072  0.63101  0.13635  1.0000
  H   H831      1.0  0.28242  0.52450  0.14398  1.0000
  H   H832      1.0  0.46498  0.62090  0.11536  1.0000
  C   C464      1.0  0.40652  0.57393  0.11004  1.0000
  H   H833      1.0  0.46263  0.47133  0.06618  1.0000
  H   H834      1.0  0.47543  0.45394  0.44574  1.0000
  H   H835      1.0  0.45996  0.59165  0.14137  1.0000
  H   H836      1.0  0.47661  0.45132  0.07953  1.0000
  H   H837      1.0  0.41947  0.60712  0.35247  1.0000
  C   C465      1.0  0.38486  0.55475  0.07089  1.0000
  H   H838      1.0  0.44075  0.60055  0.15527  1.0000
  H   H839      1.0  0.39502  0.56888  0.34161  1.0000
  H   H840      1.0  0.37779  0.56283  0.40990  1.0000
  H   H841      1.0  0.46586  0.64391  0.01801  1.0000
  H   H842      1.0  0.43551  0.60498  0.11997  1.0000
  C   C466      1.0  0.47714  0.60950  0.31365  1.0000
  C   C467      1.0  0.48146  0.35457  0.19922  1.0000
  C   C468      1.0  0.42981  0.59714  0.13898  1.0000
  C   C469      1.0  0.29335  0.49806  0.15112  1.0000
  H   H843      1.0  0.46451  0.43658  0.05002  1.0000
  H   H844      1.0  0.42515  0.54860  0.44211  1.0000
  C   C470      1.0  0.24873  0.55643  0.31351  1.0000
  H   H845      1.0  0.45858  0.62621  0.34051  1.0000
  H   H846      1.0  0.43046  0.58575  0.46206  1.0000
  S   S107      1.0  0.39250  0.44782  0.01100  1.0000
  H   H847      1.0  0.49085  0.53302  0.06994  1.0000
  H   H848      1.0  0.37371  0.55224  0.46316  1.0000
  C   C471      1.0  0.42018  0.55751  0.45227  1.0000
  C   C472      1.0  0.41724  0.60428  0.15162  1.0000
  C   C473      1.0  0.37670  0.54060  0.46523  1.0000
  H   H849      1.0  0.47193  0.36421  0.32711  1.0000
  H   H850      1.0  0.31803  0.49986  0.11071  1.0000
  H   H851      1.0  0.26773  0.53813  0.33379  1.0000
  C   C474      1.0  0.43438  0.57633  0.45081  1.0000
  H   H852      1.0  0.40563  0.60143  0.13717  1.0000
  C   C475      1.0  0.42653  0.62424  0.15674  1.0000
  C   C476      1.0  0.47015  0.36053  0.18491  1.0000
  C   C477      1.0  0.39760  0.34918  0.07342  1.0000
  H   H853      1.0  0.43038  0.63727  0.33184  1.0000
  C   C478      1.0  0.47830  0.62806  0.12339  1.0000
  S   S108      1.0  0.48194  0.66194  0.33569  1.0000
  H   H854      1.0  0.46767  0.33518  0.48721  1.0000
  C   C479      1.0  0.48514  0.60552  0.28733  1.0000
  C   C480      1.0  0.43198  0.58193  0.34463  1.0000
  H   H855      1.0  0.40013  0.52513  0.46211  1.0000
  C   C481      1.0  0.44961  0.48568  0.00588  1.0000
  H   H856      1.0  0.28251  0.55869  0.31928  1.0000
  H   H857      1.0  0.33854  0.56307  0.17136  1.0000
  H   H858      1.0  0.33090  0.40723  0.48156  1.0000
  S   S109      1.0  0.39143  0.49160  0.01146  1.0000
  C   C482      1.0  0.38840  0.36075  0.02914  1.0000
  C   C483      1.0  0.46454  0.44673  0.06549  1.0000
  C   C484      1.0  0.48179  0.63780  0.14943  1.0000
  H   H859      1.0  0.30525  0.50100  0.07994  1.0000
  Fe  Fe53      1.0  0.36442  0.49025  0.00946  1.0000
  Fe  Fe54      1.0  0.49124  0.58418  0.48304  1.0000
  C   C485      1.0  0.46344  0.46210  0.04979  1.0000
  H   H860      1.0  0.49285  0.50241  0.05575  1.0000
  H   H861      1.0  0.45255  0.60171  0.38820  1.0000
  H   H862      1.0  0.30892  0.54267  0.15577  1.0000
  H   H863      1.0  0.47116  0.63797  0.16141  1.0000
  S   S110      1.0  0.46984  0.55858  0.46694  1.0000
  C   C486      1.0  0.47776  0.59069  0.40369  1.0000
  C   C487      1.0  0.48787  0.52029  0.02794  1.0000
  Fe  Fe55      1.0  0.46465  0.37973  0.00829  1.0000
  S   S111      1.0  0.48907  0.60968  0.47871  1.0000
  Fe  Fe56      1.0  0.47709  0.66074  0.28727  1.0000
  S   S112      1.0  0.48623  0.61572  0.07402  1.0000
  H   H864      1.0  0.47648  0.66529  0.05548  1.0000
  H   H865      1.0  0.41847  0.55419  0.47497  1.0000
  H   H866      1.0  0.49138  0.47356  0.04413  1.0000
  S   S113      1.0  0.45860  0.66160  0.20978  1.0000
  C   C488      1.0  0.27005  0.52551  0.18278  1.0000
  C   C489      1.0  0.44076  0.53359  0.48918  1.0000
  H   H867      1.0  0.41181  0.38781  0.00434  1.0000
  C   C490      1.0  0.40000  0.35208  0.04150  1.0000
  H   H868      1.0  0.46621  0.43596  0.46947  1.0000
  C   C491      1.0  0.48882  0.64995  0.38667  1.0000
  H   H869      1.0  0.49050  0.41560  0.38651  1.0000
  H   H870      1.0  0.26547  0.48661  0.18833  1.0000
  C   C492      1.0  0.45376  0.55081  0.49209  1.0000
  S   S114      1.0  0.48907  0.36962  0.10444  1.0000
  C   C493      1.0  0.24651  0.52213  0.25793  1.0000
  H   H871      1.0  0.24636  0.52149  0.15766  1.0000
  C   C494      1.0  0.47645  0.65286  0.00473  1.0000
  H   H872      1.0  0.48846  0.45245  0.47597  1.0000
  H   H873      1.0  0.47656  0.47530  0.48282  1.0000
  H   H874      1.0  0.49099  0.40885  0.44535  1.0000
  H   H875      1.0  0.47727  0.40290  0.32987  1.0000
  H   H876      1.0  0.40645  0.34348  0.08186  1.0000
  S   S115      1.0  0.49091  0.39125  0.03161  1.0000
  C   C495      1.0  0.47950  0.39186  0.33894  1.0000
  C   C496      1.0  0.49388  0.37589  0.44539  1.0000
  C   C497      1.0  0.38572  0.54274  0.49527  1.0000
  H   H877      1.0  0.47554  0.66566  0.00432  1.0000
  C   C498      1.0  0.49442  0.65491  0.01771  1.0000
  N   N28       1.0  0.38878  0.36316  0.99734  1.0000
  H   H878      1.0  0.35248  0.38558  0.99788  1.0000
  S   S116      1.0  0.46411  0.63555  0.74295  1.0000
  S   S117      1.0  0.41778  0.63518  0.73212  1.0000
  Fe  Fe57      1.0  0.31048  0.52861  0.79237  1.0000
  S   S118      1.0  0.30643  0.50106  0.78074  1.0000
  S   S119      1.0  0.28890  0.53711  0.80397  1.0000
  Fe  Fe58      1.0  0.35063  0.54290  0.78719  1.0000
  S   S120      1.0  0.34886  0.51615  0.77495  1.0000
  S   S121      1.0  0.37840  0.56362  0.79584  1.0000
  Fe  Fe59      1.0  0.32577  0.51338  0.74663  1.0000
  S   S122      1.0  0.31940  0.50535  0.69936  1.0000
  Fe  Fe60      1.0  0.33007  0.50658  0.81036  1.0000
  S   S123      1.0  0.33178  0.48735  0.84302  1.0000
  S   S124      1.0  0.32869  0.54091  0.75681  1.0000
  S   S125      1.0  0.33299  0.53337  0.82392  1.0000
  H   H879      1.0  0.40390  0.56111  0.98502  1.0000
  H   H880      1.0  0.30488  0.55125  0.89182  1.0000
  H   H881      1.0  0.39819  0.58406  0.69731  1.0000
  H   H882      1.0  0.45783  0.43675  0.60761  1.0000
  S   S126      1.0  0.35649  0.50485  0.97470  1.0000
  Fe  Fe61      1.0  0.36019  0.47438  0.57211  1.0000
  S   S127      1.0  0.38836  0.47969  0.56668  1.0000
  S   S128      1.0  0.35032  0.46562  0.61640  1.0000
  Fe  Fe62      1.0  0.39005  0.50373  0.54449  1.0000
  S   S129      1.0  0.41111  0.53054  0.55637  1.0000
  Fe  Fe63      1.0  0.37944  0.46596  0.52392  1.0000
  H   H883      1.0  0.43368  0.61258  0.70256  1.0000
  S   S130      1.0  0.36271  0.49950  0.55278  1.0000
  S   S131      1.0  0.35084  0.45864  0.53047  1.0000
  H   H884      1.0  0.38601  0.54194  0.59432  1.0000
  H   H885      1.0  0.42130  0.47955  0.52762  1.0000
  H   H886      1.0  0.44119  0.33861  0.50001  1.0000
  H   H887      1.0  0.46015  0.60557  0.70608  1.0000
  H   H888      1.0  0.42950  0.53512  0.67015  1.0000
  S   S132      1.0  0.47427  0.40817  0.58208  1.0000
  C   C499      1.0  0.38375  0.37439  0.55919  1.0000
  Fe  Fe64      1.0  0.45014  0.39952  0.55284  1.0000
  S   S133      1.0  0.42964  0.40809  0.56901  1.0000
  H   H889      1.0  0.26917  0.49374  0.74352  1.0000
  S   S134      1.0  0.44939  0.37249  0.54501  1.0000
  H   H890      1.0  0.40014  0.47281  0.95204  1.0000
  C   C500      1.0  0.40268  0.43833  0.52198  1.0000
  H   H891      1.0  0.35364  0.55421  0.63163  1.0000
  H   H892      1.0  0.29090  0.47443  0.72387  1.0000
  C   C501      1.0  0.42059  0.42065  0.55007  1.0000
  C   C502      1.0  0.41462  0.43138  0.56551  1.0000
  C   C503      1.0  0.40595  0.44039  0.55153  1.0000
  C   C504      1.0  0.35997  0.53104  0.62861  1.0000
  C   C505      1.0  0.48110  0.41838  0.94386  1.0000
  H   H893      1.0  0.41659  0.43257  0.58849  1.0000
  H   H894      1.0  0.40139  0.44853  0.56369  1.0000
  C   C506      1.0  0.42751  0.53823  0.53163  1.0000
  C   C507      1.0  0.44054  0.55548  0.53455  1.0000
  C   C508      1.0  0.27686  0.46658  0.72781  1.0000
  H   H895      1.0  0.46666  0.57182  0.59394  1.0000
  H   H896      1.0  0.38376  0.45993  0.92517  1.0000
  C   C509      1.0  0.38843  0.47190  0.93937  1.0000
  H   H897      1.0  0.44053  0.56401  0.55204  1.0000
  H   H898      1.0  0.45736  0.64439  0.88805  1.0000
  H   H899      1.0  0.27488  0.46700  0.75104  1.0000
  N   N29       1.0  0.37893  0.54098  0.63844  1.0000
  H   H900      1.0  0.49245  0.40012  0.95266  1.0000
  H   H901      1.0  0.44859  0.54089  0.69354  1.0000
  C   C510      1.0  0.43524  0.48073  0.98232  1.0000
  C   C511      1.0  0.42765  0.52732  0.50895  1.0000
  H   H902      1.0  0.41794  0.51392  0.50691  1.0000
  C   C512      1.0  0.48923  0.63691  0.85200  1.0000
  H   H903      1.0  0.32970  0.42017  0.51166  1.0000
  H   H904      1.0  0.37336  0.36324  0.54683  1.0000
  C   C513      1.0  0.44871  0.56214  0.66715  1.0000
  H   H905      1.0  0.26448  0.48810  0.86807  1.0000
  H   H906      1.0  0.43976  0.46105  0.52536  1.0000
  N   N30       1.0  0.48870  0.33476  0.51467  1.0000
  H   H907      1.0  0.28146  0.55197  0.74697  1.0000
  H   H908      1.0  0.33593  0.56442  0.90866  1.0000
  H   H909      1.0  0.39078  0.36904  0.57387  1.0000
  H   H910      1.0  0.46971  0.45813  0.62537  1.0000
  C   C514      1.0  0.32839  0.49436  0.67697  1.0000
  C   C515      1.0  0.34051  0.48825  0.68720  1.0000
  C   C516      1.0  0.34718  0.47953  0.66843  1.0000
  C   C517      1.0  0.34238  0.47746  0.63912  1.0000
  C   C518      1.0  0.33051  0.48386  0.62885  1.0000
  C   C519      1.0  0.32325  0.49185  0.64780  1.0000
  H   H911      1.0  0.34444  0.48990  0.70964  1.0000
  H   H912      1.0  0.35608  0.47432  0.67669  1.0000
  H   H913      1.0  0.32641  0.48204  0.60647  1.0000
  H   H914      1.0  0.31358  0.49612  0.63978  1.0000
  C   C520      1.0  0.33945  0.49267  0.87927  1.0000
  C   C521      1.0  0.34061  0.47956  0.89647  1.0000
  C   C522      1.0  0.34610  0.48309  0.92557  1.0000
  C   C523      1.0  0.35029  0.49976  0.93790  1.0000
  C   C524      1.0  0.34926  0.51291  0.92066  1.0000
  C   C525      1.0  0.34406  0.50946  0.89147  1.0000
  H   H915      1.0  0.33711  0.46653  0.88727  1.0000
  H   H916      1.0  0.34676  0.47282  0.93855  1.0000
  H   H917      1.0  0.35249  0.52586  0.92997  1.0000
  H   H918      1.0  0.34340  0.51971  0.87848  1.0000
  C   C526      1.0  0.25598  0.53657  0.80165  1.0000
  C   C527      1.0  0.26563  0.52648  0.79903  1.0000
  C   C528      1.0  0.48978  0.60470  0.68566  1.0000
  H   H919      1.0  0.26283  0.55062  0.80592  1.0000
  H   H920      1.0  0.26365  0.50031  0.79189  1.0000
  C   C529      1.0  0.35082  0.54254  0.61744  1.0000
  C   C530      1.0  0.40662  0.61531  0.74975  1.0000
  C   C531      1.0  0.38831  0.60629  0.74662  1.0000
  C   C532      1.0  0.37930  0.59035  0.76053  1.0000
  C   C533      1.0  0.38865  0.58333  0.77733  1.0000
  C   C534      1.0  0.40690  0.59230  0.78008  1.0000
  C   C535      1.0  0.41587  0.60825  0.76660  1.0000
  H   H921      1.0  0.38108  0.61170  0.73359  1.0000
  H   H922      1.0  0.36520  0.58356  0.75827  1.0000
  H   H923      1.0  0.41416  0.58672  0.79236  1.0000
  H   H924      1.0  0.42994  0.61503  0.76913  1.0000
  Fe  Fe65      1.0  0.44693  0.64977  0.74203  1.0000
  H   H925      1.0  0.33336  0.55668  0.87209  1.0000
  C   C536      1.0  0.33099  0.53200  0.61483  1.0000
  H   H926      1.0  0.36582  0.42379  0.54065  1.0000
  H   H927      1.0  0.32742  0.51995  0.60108  1.0000
  H   H928      1.0  0.32571  0.52821  0.63628  1.0000
  H   H929      1.0  0.32490  0.54017  0.60513  1.0000
  H   H930      1.0  0.47451  0.35546  0.86774  1.0000
  N   N31       1.0  0.40569  0.52278  0.92597  1.0000
  C   C537      1.0  0.39590  0.52057  0.89754  1.0000
  C   C538      1.0  0.39938  0.50527  0.94062  1.0000
  C   C539      1.0  0.40154  0.53529  0.94453  1.0000
  C   C540      1.0  0.42523  0.53064  0.92318  1.0000
  C   C541      1.0  0.43220  0.52070  0.90282  1.0000
  C   C542      1.0  0.40053  0.53741  0.88011  1.0000
  H   H931      1.0  0.26820  0.50903  0.61714  1.0000
  C   C543      1.0  0.39280  0.48820  0.92147  1.0000
  C   C544      1.0  0.45193  0.53081  0.90016  1.0000
  C   C545      1.0  0.39075  0.53292  0.85091  1.0000
  H   H932      1.0  0.47044  0.49315  0.97696  1.0000
  H   H933      1.0  0.38157  0.51485  0.90074  1.0000
  H   H934      1.0  0.39780  0.51091  0.88332  1.0000
  H   H935      1.0  0.40972  0.50512  0.95589  1.0000
  H   H936      1.0  0.38806  0.50339  0.95380  1.0000
  H   H937      1.0  0.38709  0.53038  0.94579  1.0000
  H   H938      1.0  0.40618  0.54849  0.93515  1.0000
  H   H939      1.0  0.43018  0.54458  0.91673  1.0000
  H   H940      1.0  0.43196  0.53136  0.94430  1.0000
  H   H941      1.0  0.42601  0.51891  0.88108  1.0000
  H   H942      1.0  0.42987  0.50769  0.91141  1.0000
  H   H943      1.0  0.39665  0.54688  0.89118  1.0000
  H   H944      1.0  0.41472  0.54390  0.87646  1.0000
  C   C546      1.0  0.40193  0.54829  0.99413  1.0000
  C   C547      1.0  0.47288  0.64498  0.97434  1.0000
  H   H945      1.0  0.38059  0.48630  0.90924  1.0000
  H   H946      1.0  0.40254  0.48860  0.90607  1.0000
  H   H947      1.0  0.37791  0.47041  0.95407  1.0000
  H   H948      1.0  0.45890  0.53222  0.92124  1.0000
  H   H949      1.0  0.45665  0.52353  0.88526  1.0000
  H   H950      1.0  0.45523  0.54412  0.89180  1.0000
  H   H951      1.0  0.37637  0.52696  0.85336  1.0000
  H   H952      1.0  0.39432  0.54506  0.83856  1.0000
  H   H953      1.0  0.39421  0.52358  0.83845  1.0000
  H   H954      1.0  0.39227  0.44443  0.62516  1.0000
  H   H955      1.0  0.43516  0.58096  0.91132  1.0000
  H   H956      1.0  0.34431  0.38142  0.59854  1.0000
  H   H957      1.0  0.35329  0.42934  0.60569  1.0000
  H   H958      1.0  0.45047  0.45185  0.56783  1.0000
  H   H959      1.0  0.37148  0.50495  0.61914  1.0000
  H   H960      1.0  0.42931  0.39861  0.93134  1.0000
  H   H961      1.0  0.43719  0.38881  0.95894  1.0000
  H   H962      1.0  0.44533  0.52038  0.98621  1.0000
  H   H963      1.0  0.38296  0.41946  0.58954  1.0000
  C   C548      1.0  0.26532  0.52018  0.71644  1.0000
  Fe  Fe66      1.0  0.48829  0.41754  0.54196  1.0000
  C   C549      1.0  0.46318  0.57697  0.68581  1.0000
  H   H964      1.0  0.37349  0.36962  0.96526  1.0000
  H   H965      1.0  0.25217  0.50688  0.66331  1.0000
  N   N32       1.0  0.28534  0.51182  0.88681  1.0000
  C   C550      1.0  0.44762  0.59274  0.90918  1.0000
  H   H966      1.0  0.30440  0.37197  0.58331  1.0000
  C   C551      1.0  0.46363  0.46312  0.56809  1.0000
  H   H967      1.0  0.43173  0.57766  0.59595  1.0000
  C   C552      1.0  0.47668  0.45651  0.58137  1.0000
  H   H968      1.0  0.38661  0.39452  0.59011  1.0000
  H   H969      1.0  0.39270  0.51977  0.60820  1.0000
  H   H970      1.0  0.36249  0.36138  0.99679  1.0000
  C   C553      1.0  0.30111  0.49093  0.95004  1.0000
  C   C554      1.0  0.30335  0.50228  0.92399  1.0000
  H   H971      1.0  0.42992  0.49939  0.54979  1.0000
  H   H972      1.0  0.30207  0.52955  0.85647  1.0000
  H   H973      1.0  0.43986  0.48958  0.96408  1.0000
  H   H974      1.0  0.36764  0.40721  0.61438  1.0000
  C   C555      1.0  0.44484  0.60927  0.90124  1.0000
  H   H975      1.0  0.44028  0.47803  0.56825  1.0000
  H   H976      1.0  0.47767  0.44616  0.56762  1.0000
  H   H977      1.0  0.26099  0.52771  0.70110  1.0000
  H   H978      1.0  0.39328  0.38313  0.54425  1.0000
  C   C556      1.0  0.39273  0.50182  0.64027  1.0000
  H   H979      1.0  0.33763  0.54420  0.90018  1.0000
  C   C557      1.0  0.47137  0.36237  0.93928  1.0000
  H   H980      1.0  0.38600  0.49597  0.65995  1.0000
  H   H981      1.0  0.31395  0.51546  0.92965  1.0000
  H   H982      1.0  0.30261  0.38484  0.61306  1.0000
  C   C558      1.0  0.25652  0.50832  0.79361  1.0000
  H   H983      1.0  0.47073  0.60739  0.93681  1.0000
  C   C559      1.0  0.38421  0.34595  0.98121  1.0000
  C   C560      1.0  0.28939  0.55045  0.72963  1.0000
  C   C561      1.0  0.40981  0.53872  0.97542  1.0000
  C   C562      1.0  0.45154  0.47379  0.52890  1.0000
  H   H984      1.0  0.47339  0.57211  0.69036  1.0000
  H   H985      1.0  0.36141  0.52962  0.51717  1.0000
  C   C563      1.0  0.41414  0.59382  0.88375  1.0000
  C   C564      1.0  0.25393  0.50927  0.89487  1.0000
  H   H986      1.0  0.44084  0.61425  0.92060  1.0000
  C   C565      1.0  0.25999  0.50049  0.67339  1.0000
  C   C566      1.0  0.43277  0.58249  0.84224  1.0000
  C   C567      1.0  0.39883  0.59266  0.86326  1.0000
  Fe  Fe67      1.0  0.48248  0.65767  0.71758  1.0000
  H   H987      1.0  0.43917  0.49917  0.51588  1.0000
  N   N33       1.0  0.46715  0.47055  0.53866  1.0000
  C   C568      1.0  0.44342  0.57995  0.81836  1.0000
  C   C569      1.0  0.38192  0.57655  0.86878  1.0000
  C   C570      1.0  0.44874  0.64078  0.86837  1.0000
  H   H988      1.0  0.41106  0.59684  0.90551  1.0000
  H   H989      1.0  0.41355  0.58040  0.88486  1.0000
  N   N34       1.0  0.43212  0.60714  0.87645  1.0000
  H   H990      1.0  0.46357  0.57520  0.51690  1.0000
  H   H991      1.0  0.48035  0.44381  0.61936  1.0000
  H   H992      1.0  0.42252  0.62395  0.85410  1.0000
  H   H993      1.0  0.43390  0.60755  0.83032  1.0000
  H   H994      1.0  0.48242  0.65413  0.95981  1.0000
  H   H995      1.0  0.41874  0.57602  0.83526  1.0000
  H   H996      1.0  0.47385  0.63220  0.97367  1.0000
  H   H997      1.0  0.39615  0.60442  0.86649  1.0000
  H   H998      1.0  0.40200  0.59206  0.84067  1.0000
  H   H999      1.0  0.45564  0.63797  0.85077  1.0000
  H   H1000     1.0  0.45541  0.59003  0.89279  1.0000
  H   H1001     1.0  0.29050  0.51165  0.62022  1.0000
  C   C571      1.0  0.47766  0.35650  0.89043  1.0000
  C   C572      1.0  0.46755  0.36100  0.90962  1.0000
  C   C573      1.0  0.26548  0.47363  0.71101  1.0000
  H   H1002     1.0  0.38001  0.54354  0.53979  1.0000
  H   H1003     1.0  0.33362  0.37871  0.56477  1.0000
  H   H1004     1.0  0.45740  0.58487  0.82559  1.0000
  H   H1005     1.0  0.41343  0.58330  0.59230  1.0000
  H   H1006     1.0  0.37113  0.57663  0.85463  1.0000
  H   H1007     1.0  0.38332  0.56424  0.86387  1.0000
  H   H1008     1.0  0.37833  0.57666  0.89129  1.0000
  H   H1009     1.0  0.46331  0.47308  0.58368  1.0000
  H   H1010     1.0  0.42253  0.41103  0.50821  1.0000
  N   N35       1.0  0.35742  0.40279  0.57040  1.0000
  H   H1011     1.0  0.35532  0.54723  0.59589  1.0000
  H   H1012     1.0  0.35835  0.52149  0.61084  1.0000
  H   H1013     1.0  0.34637  0.42084  0.55687  1.0000
  H   H1014     1.0  0.25200  0.49647  0.90388  1.0000
  H   H1015     1.0  0.40693  0.50942  0.64539  1.0000
  H   H1016     1.0  0.37390  0.43307  0.64733  1.0000
  C   C574      1.0  0.31105  0.54234  0.89784  1.0000
  C   C575      1.0  0.49411  0.35431  0.64864  1.0000
  H   H1017     1.0  0.29694  0.49648  0.96842  1.0000
  S   S135      1.0  0.46443  0.41018  0.51325  1.0000
  N   N36       1.0  0.47116  0.59516  0.67366  1.0000
  C   C576      1.0  0.38499  0.51361  0.62681  1.0000
  C   C577      1.0  0.33070  0.55246  0.89440  1.0000
  C   C578      1.0  0.40903  0.42796  0.50645  1.0000
  H   H1018     1.0  0.30803  0.49651  0.90674  1.0000
  H   H1019     1.0  0.44221  0.59966  0.64611  1.0000
  H   H1020     1.0  0.28766  0.50494  0.67108  1.0000
  C   C579      1.0  0.37334  0.54230  0.51850  1.0000
  Fe  Fe68      1.0  0.35575  0.48459  0.51034  1.0000
  H   H1021     1.0  0.47972  0.41712  0.92026  1.0000
  H   H1022     1.0  0.35242  0.52311  0.64637  1.0000
  H   H1023     1.0  0.28430  0.50047  0.71644  1.0000
  H   H1024     1.0  0.33009  0.39218  0.52669  1.0000
  C   C580      1.0  0.44577  0.65696  0.86057  1.0000
  C   C581      1.0  0.41809  0.41930  0.52036  1.0000
  H   H1025     1.0  0.42529  0.62786  0.89183  1.0000
  C   C582      1.0  0.43837  0.60238  0.84921  1.0000
  C   C583      1.0  0.35338  0.41346  0.54799  1.0000
  C   C584      1.0  0.38887  0.55089  0.61350  1.0000
  H   H1026     1.0  0.38436  0.56108  0.60720  1.0000
  S   S136      1.0  0.46935  0.55554  0.97417  1.0000
  C   C585      1.0  0.43342  0.49121  0.53467  1.0000
  H   H1027     1.0  0.37728  0.45390  0.63256  1.0000
  C   C586      1.0  0.48682  0.36505  0.63628  1.0000
  C   C587      1.0  0.28608  0.50375  0.91522  1.0000
  C   C588      1.0  0.34099  0.38882  0.58173  1.0000
  H   H1028     1.0  0.28380  0.51140  0.93295  1.0000
  C   C589      1.0  0.38534  0.52770  0.64886  1.0000
  C   C590      1.0  0.40892  0.56054  0.61831  1.0000
  H   H1029     1.0  0.31257  0.51950  0.87763  1.0000
  H   H1030     1.0  0.38191  0.56672  0.65433  1.0000
  H   H1031     1.0  0.41467  0.55091  0.62064  1.0000
  H   H1032     1.0  0.44346  0.62643  0.67297  1.0000
  H   H1033     1.0  0.28681  0.55637  0.71001  1.0000
  H   H1034     1.0  0.45819  0.49756  0.55652  1.0000
  C   C591      1.0  0.37983  0.55363  0.66268  1.0000
  H   H1035     1.0  0.36710  0.54893  0.67333  1.0000
  H   H1036     1.0  0.37744  0.52050  0.66696  1.0000
  H   H1037     1.0  0.25357  0.48656  0.66528  1.0000
  H   H1038     1.0  0.41316  0.56449  0.57275  1.0000
  C   C592      1.0  0.44653  0.48550  0.54927  1.0000
  H   H1039     1.0  0.39908  0.53435  0.65731  1.0000
  C   C593      1.0  0.27887  0.47317  0.83271  1.0000
  H   H1040     1.0  0.27647  0.47950  0.81348  1.0000
  H   H1041     1.0  0.41240  0.56939  0.63742  1.0000
  S   S137      1.0  0.39017  0.44782  0.50382  1.0000
  H   H1042     1.0  0.27636  0.50398  0.84301  1.0000
  C   C594      1.0  0.45910  0.33402  0.52992  1.0000
  H   H1043     1.0  0.28720  0.46642  0.82698  1.0000
  H   H1044     1.0  0.40682  0.56046  0.68024  1.0000
  C   C595      1.0  0.47925  0.63904  0.60266  1.0000
  C   C596      1.0  0.39352  0.55678  0.68768  1.0000
  H   H1045     1.0  0.26616  0.46313  0.83959  1.0000
  H   H1046     1.0  0.46902  0.61987  0.67749  1.0000
  H   H1047     1.0  0.43394  0.58698  0.67765  1.0000
  H   H1048     1.0  0.38979  0.54463  0.70010  1.0000
  C   C597      1.0  0.28810  0.48683  0.85681  1.0000
  H   H1049     1.0  0.37797  0.40317  0.54366  1.0000
  C   C598      1.0  0.27826  0.50929  0.66075  1.0000
  H   H1050     1.0  0.45814  0.61934  0.89685  1.0000
  H   H1051     1.0  0.28884  0.47933  0.87563  1.0000
  H   H1052     1.0  0.38136  0.56773  0.71748  1.0000
  C   C599      1.0  0.39431  0.57138  0.70825  1.0000
  C   C600      1.0  0.48001  0.58257  0.59745  1.0000
  H   H1053     1.0  0.43443  0.57528  0.86071  1.0000
  C   C601      1.0  0.27782  0.49783  0.86326  1.0000
  H   H1054     1.0  0.32461  0.40362  0.58075  1.0000
  C   C602      1.0  0.43501  0.61277  0.67910  1.0000
  H   H1055     1.0  0.45053  0.59763  0.95527  1.0000
  H   H1056     1.0  0.40408  0.57326  0.72594  1.0000
  S   S138      1.0  0.49128  0.39271  0.53294  1.0000
  H   H1057     1.0  0.27380  0.52827  0.86843  1.0000
  H   H1058     1.0  0.43884  0.56624  0.65816  1.0000
  H   H1059     1.0  0.30879  0.53941  0.92068  1.0000
  H   H1060     1.0  0.30143  0.49534  0.85019  1.0000
  H   H1061     1.0  0.39098  0.49085  0.62520  1.0000
  Fe  Fe69      1.0  0.46606  0.38421  0.50735  1.0000
  H   H1062     1.0  0.48830  0.35968  0.97224  1.0000
  C   C603      1.0  0.30299  0.52529  0.87857  1.0000
  H   H1063     1.0  0.40632  0.37012  0.94394  1.0000
  C   C604      1.0  0.43120  0.62465  0.87298  1.0000
  C   C605      1.0  0.41726  0.57217  0.59328  1.0000
  H   H1064     1.0  0.31377  0.49057  0.95620  1.0000
  H   H1065     1.0  0.31413  0.37119  0.61803  1.0000
  C   C606      1.0  0.37585  0.38463  0.57639  1.0000
  C   C607      1.0  0.46818  0.45692  0.51840  1.0000
  H   H1066     1.0  0.48352  0.57576  0.64055  1.0000
  Fe  Fe70      1.0  0.47493  0.38229  0.57116  1.0000
  S   S139      1.0  0.45805  0.36785  0.96261  1.0000
  C   C608      1.0  0.34259  0.40302  0.52099  1.0000
  H   H1067     1.0  0.40788  0.52636  0.98595  1.0000
  N   N37       1.0  0.25942  0.50137  0.70546  1.0000
  H   H1068     1.0  0.44253  0.58719  0.79919  1.0000
  C   C609      1.0  0.37832  0.44133  0.62837  1.0000
  C   C610      1.0  0.28511  0.53102  0.72403  1.0000
  H   H1069     1.0  0.45289  0.60913  0.84923  1.0000
  H   H1070     1.0  0.41950  0.43785  0.99421  1.0000
  H   H1071     1.0  0.43838  0.56573  0.81235  1.0000
  H   H1072     1.0  0.29132  0.47721  0.94510  1.0000
  H   H1073     1.0  0.33428  0.40289  0.61547  1.0000
  C   C611      1.0  0.48534  0.35896  0.94952  1.0000
  H   H1074     1.0  0.30342  0.55775  0.73639  1.0000
  H   H1075     1.0  0.25892  0.52047  0.73668  1.0000
  S   S140      1.0  0.48406  0.36491  0.59829  1.0000
  C   C612      1.0  0.36729  0.39363  0.55628  1.0000
  C   C613      1.0  0.27732  0.50477  0.62888  1.0000
  C   C614      1.0  0.32827  0.39533  0.59531  1.0000
  C   C615      1.0  0.27336  0.52100  0.88839  1.0000
  C   C616      1.0  0.48994  0.62236  0.86563  1.0000
  H   H1076     1.0  0.27329  0.45270  0.72094  1.0000
  C   C617      1.0  0.42800  0.39481  0.95399  1.0000
  H   H1077     1.0  0.46765  0.63763  0.59031  1.0000
  H   H1078     1.0  0.48589  0.60999  0.85380  1.0000
  S   S141      1.0  0.48843  0.62780  0.55306  1.0000
  H   H1079     1.0  0.45452  0.55827  0.64896  1.0000
  C   C618      1.0  0.44261  0.60001  0.66974  1.0000
  Fe  Fe71      1.0  0.47683  0.65205  0.78274  1.0000
  C   C619      1.0  0.47072  0.44834  0.61020  1.0000
  H   H1080     1.0  0.29355  0.53017  0.70719  1.0000
  H   H1081     1.0  0.47151  0.64780  0.64127  1.0000
  C   C620      1.0  0.47173  0.59483  0.64155  1.0000
  S   S142      1.0  0.48094  0.63410  0.81592  1.0000
  C   C621      1.0  0.46141  0.60579  0.68259  1.0000
  H   H1082     1.0  0.48324  0.43191  0.95077  1.0000
  C   C622      1.0  0.43920  0.54572  0.68433  1.0000
  H   H1083     1.0  0.42182  0.60881  0.66873  1.0000
  H   H1084     1.0  0.38280  0.34763  0.95793  1.0000
  C   C623      1.0  0.45366  0.56179  0.51476  1.0000
  H   H1085     1.0  0.45856  0.58726  0.63132  1.0000
  C   C624      1.0  0.31135  0.37982  0.60284  1.0000
  H   H1086     1.0  0.39510  0.34181  0.98346  1.0000
  H   H1087     1.0  0.28875  0.52600  0.74380  1.0000
  S   S143      1.0  0.38343  0.49071  0.50091  1.0000
  C   C625      1.0  0.36697  0.43185  0.60186  1.0000
  C   C626      1.0  0.48141  0.64484  0.63155  1.0000
  H   H1088     1.0  0.35854  0.38322  0.54072  1.0000
  H   H1089     1.0  0.47589  0.60837  0.63358  1.0000
  H   H1090     1.0  0.45784  0.57751  0.70699  1.0000
  H   H1091     1.0  0.43217  0.54862  0.70181  1.0000
  H   H1092     1.0  0.48434  0.38735  0.85416  1.0000
  C   C627      1.0  0.45798  0.59569  0.93756  1.0000
  H   H1093     1.0  0.36623  0.37521  0.59038  1.0000
  H   H1094     1.0  0.46589  0.34818  0.53638  1.0000
  C   C628      1.0  0.36901  0.41470  0.59451  1.0000
  H   H1095     1.0  0.28336  0.52383  0.66307  1.0000
  C   C629      1.0  0.40925  0.38160  0.95864  1.0000
  H   H1096     1.0  0.27293  0.49037  0.62523  1.0000
  C   C630      1.0  0.27018  0.49305  0.71998  1.0000
  H   H1097     1.0  0.40059  0.38796  0.95234  1.0000
  H   H1098     1.0  0.43160  0.40687  0.96766  1.0000
  H   H1099     1.0  0.48096  0.59418  0.58526  1.0000
  H   H1100     1.0  0.46058  0.58402  0.94201  1.0000
  C   C631      1.0  0.49169  0.35319  0.90067  1.0000
  H   H1101     1.0  0.26766  0.47250  0.68803  1.0000
  H   H1102     1.0  0.47950  0.38240  0.69799  1.0000
  Fe  Fe72      1.0  0.49022  0.58176  0.98924  1.0000
  H   H1103     1.0  0.27814  0.53142  0.90561  1.0000
  C   C632      1.0  0.40700  0.37583  0.99009  1.0000
  H   H1104     1.0  0.45665  0.36339  0.90141  1.0000
  H   H1105     1.0  0.42408  0.54715  0.97513  1.0000
  H   H1106     1.0  0.45689  0.44391  0.52098  1.0000
  H   H1107     1.0  0.27521  0.49032  0.91588  1.0000
  H   H1108     1.0  0.37136  0.44106  0.58403  1.0000
  C   C633      1.0  0.48173  0.37529  0.65435  1.0000
  H   H1109     1.0  0.42375  0.48207  0.99087  1.0000
  H   H1110     1.0  0.36947  0.55335  0.51636  1.0000
  C   C634      1.0  0.48423  0.58753  0.62919  1.0000
  H   H1111     1.0  0.46867  0.40889  0.95236  1.0000
  H   H1112     1.0  0.48952  0.57794  0.58909  1.0000
  H   H1113     1.0  0.24980  0.51616  0.91145  1.0000
  H   H1114     1.0  0.48454  0.59710  0.73044  1.0000
  H   H1115     1.0  0.48756  0.61930  0.72351  1.0000
  C   C635      1.0  0.49193  0.63499  0.58959  1.0000
  H   H1116     1.0  0.43098  0.46687  0.97472  1.0000
  C   C636      1.0  0.49088  0.36376  0.69669  1.0000
  H   H1117     1.0  0.45377  0.48016  0.50786  1.0000
  H   H1118     1.0  0.25169  0.46491  0.71512  1.0000
  H   H1119     1.0  0.49122  0.36034  0.50088  1.0000
  H   H1120     1.0  0.48828  0.47610  0.96344  1.0000
  H   H1121     1.0  0.43768  0.65439  0.84038  1.0000
  H   H1122     1.0  0.43920  0.66064  0.87787  1.0000
  H   H1123     1.0  0.48971  0.46758  0.58530  1.0000
  C   C637      1.0  0.48369  0.37458  0.68429  1.0000
  H   H1124     1.0  0.47607  0.38359  0.64532  1.0000
  C   C638      1.0  0.49204  0.60899  0.71825  1.0000
  H   H1125     1.0  0.36449  0.39471  0.96634  1.0000
  H   H1126     1.0  0.45953  0.64274  0.96655  1.0000
  H   H1127     1.0  0.46160  0.47056  0.98504  1.0000
  H   H1128     1.0  0.48486  0.49508  0.56011  1.0000
  H   H1129     1.0  0.48190  0.49685  0.52308  1.0000
  H   H1130     1.0  0.47986  0.45455  0.52365  1.0000
  C   C639      1.0  0.48332  0.48791  0.53930  1.0000
  H   H1131     1.0  0.41642  0.36996  0.99440  1.0000
  H   H1132     1.0  0.35015  0.39747  0.50864  1.0000
  H   H1133     1.0  0.43319  0.33279  0.53519  1.0000
  H   H1134     1.0  0.38982  0.53205  0.49956  1.0000
  C   C640      1.0  0.37550  0.37006  0.98888  1.0000
  C   C641      1.0  0.33811  0.41490  0.50106  1.0000
  H   H1135     1.0  0.38772  0.54005  0.99617  1.0000
  H   H1136     1.0  0.49424  0.39994  0.90397  1.0000
  C   C642      1.0  0.36535  0.39459  0.98999  1.0000
  H   H1137     1.0  0.39210  0.39874  0.99230  1.0000
  H   H1138     1.0  0.49409  0.66413  0.85749  1.0000
  H   H1139     1.0  0.35564  0.33335  0.98541  1.0000
  S   S144      1.0  0.49257  0.36317  0.73473  1.0000
  S   S145      1.0  0.45842  0.66527  0.78311  1.0000
  C   C643      1.0  0.46603  0.48399  0.99498  1.0000
  S   S146      1.0  0.48457  0.60515  0.99660  1.0000
  C   C644      1.0  0.49458  0.65283  0.86760  1.0000
  H   H1140     1.0  0.48507  0.33344  0.56024  1.0000
  H   H1141     1.0  0.39722  0.55566  0.49765  1.0000
  H   H1142     1.0  0.33144  0.89880  0.28254  1.0000
  Fe  Fe73      1.0  0.40215  0.91923  0.06285  1.0000
  H   H1143     1.0  0.38745  0.88117  0.33829  1.0000
  S   S147      1.0  0.42859  0.92421  0.08164  1.0000
  Fe  Fe74      1.0  0.36336  0.90176  0.07307  1.0000
  S   S148      1.0  0.35695  0.91315  0.03327  1.0000
  S   S149      1.0  0.34215  0.88310  0.10091  1.0000
  H   H1144     1.0  0.42606  0.83649  0.30548  1.0000
  H   H1145     1.0  0.45114  0.98644  0.00804  1.0000
  Fe  Fe75      1.0  0.38061  0.93853  0.04654  1.0000
  S   S150      1.0  0.38281  0.96650  0.05279  1.0000
  S   S151      1.0  0.38116  0.89258  0.05102  1.0000
  S   S152      1.0  0.38493  0.92756  0.08804  1.0000
  H   H1146     1.0  0.43603  0.77296  0.22975  1.0000
  Fe  Fe76      1.0  0.46410  0.68160  0.24615  1.0000
  C   C645      1.0  0.35298  0.90654  0.20145  1.0000
  C   C646      1.0  0.42551  0.97308  0.10478  1.0000
  C   C647      1.0  0.41531  0.76179  0.27673  1.0000
  H   H1147     1.0  0.48279  0.88090  0.28537  1.0000
  S   S153      1.0  0.47223  0.81646  0.20658  1.0000
  H   H1148     1.0  0.49152  0.77829  0.30932  1.0000
  S   S154      1.0  0.46194  0.80784  0.27402  1.0000
  Fe  Fe77      1.0  0.48371  0.80960  0.24621  1.0000
  C   C648      1.0  0.34632  0.91497  0.17726  1.0000
  Fe  Fe78      1.0  0.45165  0.81653  0.23548  1.0000
  S   S155      1.0  0.42360  0.80510  0.21864  1.0000
  S   S156      1.0  0.46574  0.84523  0.24694  1.0000
  Fe  Fe79      1.0  0.34301  0.83472  0.24992  1.0000
  S   S157      1.0  0.33414  0.80548  0.25153  1.0000
  S   S158      1.0  0.35951  0.85133  0.21446  1.0000
  Fe  Fe80      1.0  0.33553  0.83754  0.31348  1.0000
  S   S159      1.0  0.32586  0.80826  0.31950  1.0000
  S   S160      1.0  0.34120  0.86088  0.34471  1.0000
  Fe  Fe81      1.0  0.34866  0.81063  0.29382  1.0000
  S   S161      1.0  0.36643  0.79799  0.30749  1.0000
  Fe  Fe82      1.0  0.31144  0.80452  0.27664  1.0000
  S   S162      1.0  0.28582  0.78101  0.26056  1.0000
  S   S163      1.0  0.35925  0.83982  0.29091  1.0000
  S   S164      1.0  0.31944  0.83394  0.27203  1.0000
  C   C649      1.0  0.40773  0.80281  0.24349  1.0000
  C   C650      1.0  0.41111  0.80200  0.27269  1.0000
  C   C651      1.0  0.39809  0.79981  0.29205  1.0000
  C   C652      1.0  0.38202  0.79943  0.28253  1.0000
  C   C653      1.0  0.37870  0.80037  0.25334  1.0000
  C   C654      1.0  0.39138  0.80166  0.23382  1.0000
  H   H1149     1.0  0.42369  0.80294  0.28035  1.0000
  H   H1150     1.0  0.40061  0.79879  0.31451  1.0000
  H   H1151     1.0  0.36637  0.80010  0.24576  1.0000
  H   H1152     1.0  0.38871  0.80235  0.21126  1.0000
  H   H1153     1.0  0.27131  0.77450  0.31785  1.0000
  C   C655      1.0  0.26804  0.76306  0.27549  1.0000
  H   H1154     1.0  0.40264  0.85158  0.49299  1.0000
  C   C656      1.0  0.46720  0.72792  0.24741  1.0000
  H   H1155     1.0  0.47022  0.67842  0.09907  1.0000
  H   H1156     1.0  0.45861  0.89849  0.30042  1.0000
  C   C657      1.0  0.40007  0.98658  0.04265  1.0000
  H   H1157     1.0  0.41798  0.92739  0.41704  1.0000
  H   H1158     1.0  0.42721  0.94120  0.44869  1.0000
  C   C658      1.0  0.35417  0.86893  0.44218  1.0000
  C   C659      1.0  0.35648  0.88319  0.42501  1.0000
  C   C660      1.0  0.35267  0.88049  0.39526  1.0000
  C   C661      1.0  0.34669  0.86359  0.38216  1.0000
  C   C662      1.0  0.34481  0.84941  0.39923  1.0000
  C   C663      1.0  0.34846  0.85208  0.42901  1.0000
  H   H1159     1.0  0.36082  0.89623  0.43472  1.0000
  H   H1160     1.0  0.35411  0.89157  0.38237  1.0000
  H   H1161     1.0  0.34017  0.83633  0.38961  1.0000
  H   H1162     1.0  0.34660  0.84094  0.44201  1.0000
  C   C664      1.0  0.34713  0.87364  0.13163  1.0000
  C   C665      1.0  0.36439  0.87819  0.14133  1.0000
  C   C666      1.0  0.36787  0.87098  0.16644  1.0000
  C   C667      1.0  0.35418  0.85916  0.18219  1.0000
  C   C668      1.0  0.33691  0.85439  0.17230  1.0000
  C   C669      1.0  0.33343  0.86160  0.14713  1.0000
  H   H1163     1.0  0.37505  0.88742  0.12961  1.0000
  H   H1164     1.0  0.38127  0.87473  0.17384  1.0000
  H   H1165     1.0  0.32626  0.84517  0.18402  1.0000
  H   H1166     1.0  0.32004  0.85792  0.13972  1.0000
  H   H1167     1.0  0.43408  0.75254  0.24233  1.0000
  H   H1168     1.0  0.31836  0.91725  0.30306  1.0000
  C   C670      1.0  0.46707  0.92318  0.03478  1.0000
  C   C671      1.0  0.45781  0.92538  0.05749  1.0000
  C   C672      1.0  0.43985  0.92032  0.05400  1.0000
  H   H1169     1.0  0.44683  0.73209  0.26802  1.0000
  H   H1170     1.0  0.32560  0.87976  0.18967  1.0000
  H   H1171     1.0  0.48101  0.92769  0.03715  1.0000
  H   H1172     1.0  0.46456  0.93131  0.07758  1.0000
  H   H1173     1.0  0.39795  0.85883  0.32821  1.0000
  H   H1174     1.0  0.42139  0.81830  0.35027  1.0000
  Fe  Fe83      1.0  0.47787  0.83697  0.28406  1.0000
  S   S165      1.0  0.39911  0.93135  0.02198  1.0000
  H   H1175     1.0  0.31893  0.85935  0.22746  1.0000
  H   H1176     1.0  0.42356  0.77575  0.18664  1.0000
  H   H1177     1.0  0.39114  0.75333  0.19673  1.0000
  H   H1178     1.0  0.43021  0.88948  0.30555  1.0000
  H   H1179     1.0  0.41708  0.90844  0.02540  1.0000
  H   H1180     1.0  0.41015  0.72679  0.17474  1.0000
  H   H1181     1.0  0.43091  0.88024  0.33882  1.0000
  C   C673      1.0  0.25784  0.74817  0.25789  1.0000
  C   C674      1.0  0.42153  0.84573  0.31605  1.0000
  C   C675      1.0  0.49366  0.67421  0.09303  1.0000
  C   C676      1.0  0.45774  0.88962  0.42849  1.0000
  C   C677      1.0  0.24952  0.74862  0.31467  1.0000
  H   H1182     1.0  0.45307  0.85958  0.29768  1.0000
  H   H1183     1.0  0.43726  0.96217  0.05962  1.0000
  H   H1184     1.0  0.33972  0.83581  0.02949  1.0000
  C   C678      1.0  0.40658  0.84759  0.26069  1.0000
  C   C679      1.0  0.26034  0.69836  0.30074  1.0000
  H   H1185     1.0  0.34177  0.87310  0.02363  1.0000
  C   C680      1.0  0.44138  0.75277  0.18849  1.0000
  C   C681      1.0  0.43800  0.88393  0.42619  1.0000
  H   H1186     1.0  0.41315  0.99472  0.48228  1.0000
  H   H1187     1.0  0.38644  0.85730  0.45290  1.0000
  H   H1188     1.0  0.43204  0.87092  0.41470  1.0000
  C   C682      1.0  0.42489  0.86176  0.27077  1.0000
  C   C683      1.0  0.40924  0.89512  0.44353  1.0000
  C   C684      1.0  0.42476  0.87686  0.31687  1.0000
  C   C685      1.0  0.29433  0.85772  0.21120  1.0000
  C   C686      1.0  0.47999  0.89155  0.29508  1.0000
  C   C687      1.0  0.34656  0.85041  0.03091  1.0000
  H   H1189     1.0  0.46943  0.72367  0.34502  1.0000
  N   N38       1.0  0.42407  0.75116  0.19902  1.0000
  H   H1190     1.0  0.49193  0.72003  0.28189  1.0000
  C   C688      1.0  0.32678  0.92190  0.28453  1.0000
  H   H1191     1.0  0.39832  0.72968  0.20303  1.0000
  H   H1192     1.0  0.43415  0.85819  0.25872  1.0000
  H   H1193     1.0  0.40381  0.76194  0.28723  1.0000
  H   H1194     1.0  0.43562  0.89373  0.41331  1.0000
  C   C689      1.0  0.46762  0.75696  0.25746  1.0000
  C   C690      1.0  0.48382  0.76535  0.24520  1.0000
  H   H1195     1.0  0.40169  0.82151  0.35487  1.0000
  H   H1196     1.0  0.45375  0.87223  0.32883  1.0000
  H   H1197     1.0  0.41021  0.89500  0.42009  1.0000
  H   H1198     1.0  0.48225  0.78545  0.17222  1.0000
  C   C691      1.0  0.33785  0.91203  0.24125  1.0000
  S   S166      1.0  0.47927  0.93827  0.47874  1.0000
  C   C692      1.0  0.39452  0.86241  0.41026  1.0000
  H   H1199     1.0  0.40446  0.85246  0.44553  1.0000
  H   H1200     1.0  0.28693  0.84555  0.22289  1.0000
  C   C693      1.0  0.38444  0.84363  0.39801  1.0000
  S   S167      1.0  0.45580  0.70450  0.24872  1.0000
  H   H1201     1.0  0.42635  0.77503  0.27988  1.0000
  H   H1202     1.0  0.39573  0.89375  0.44711  1.0000
  H   H1203     1.0  0.38511  0.89701  0.28800  1.0000
  C   C694      1.0  0.43044  0.88234  0.45608  1.0000
  H   H1204     1.0  0.34997  0.87803  0.22983  1.0000
  C   C695      1.0  0.48361  0.73633  0.23571  1.0000
  H   H1205     1.0  0.46283  0.89030  0.40684  1.0000
  H   H1206     1.0  0.41827  0.82742  0.38339  1.0000
  H   H1207     1.0  0.39270  0.83629  0.39926  1.0000
  C   C696      1.0  0.47469  0.71867  0.32735  1.0000
  H   H1208     1.0  0.38603  0.86943  0.40694  1.0000
  H   H1209     1.0  0.38048  0.84401  0.37528  1.0000
  H   H1210     1.0  0.49234  0.95555  0.07118  1.0000
  C   C697      1.0  0.32660  0.90607  0.26770  1.0000
  H   H1211     1.0  0.43190  0.87102  0.46592  1.0000
  H   H1212     1.0  0.45120  0.78032  0.17416  1.0000
  H   H1213     1.0  0.45731  0.88624  0.26785  1.0000
  C   C698      1.0  0.46054  0.88725  0.29112  1.0000
  H   H1214     1.0  0.37243  0.83652  0.40988  1.0000
  H   H1215     1.0  0.40692  0.69203  0.22690  1.0000
  H   H1216     1.0  0.37214  0.93416  0.16574  1.0000
  C   C699      1.0  0.42246  0.91389  0.45374  1.0000
  H   H1217     1.0  0.40628  0.86886  0.39778  1.0000
  H   H1218     1.0  0.46819  0.76718  0.14905  1.0000
  N   N39       1.0  0.41176  0.87998  0.45678  1.0000
  H   H1219     1.0  0.35105  0.85453  0.05349  1.0000
  C   C700      1.0  0.26376  0.76315  0.30402  1.0000
  H   H1220     1.0  0.46162  0.76487  0.26653  1.0000
  C   C701      1.0  0.45934  0.73839  0.25841  1.0000
  C   C702      1.0  0.39929  0.86256  0.44255  1.0000
  C   C703      1.0  0.33431  0.85861  0.02112  1.0000
  H   H1221     1.0  0.41689  0.97782  0.09267  1.0000
  C   C704      1.0  0.41601  0.82704  0.35989  1.0000
  H   H1222     1.0  0.40709  0.83949  0.31261  1.0000
  H   H1223     1.0  0.42045  0.85415  0.36046  1.0000
  S   S168      1.0  0.47500  0.84786  0.32795  1.0000
  H   H1224     1.0  0.43558  0.95495  0.01300  1.0000
  H   H1225     1.0  0.40443  0.92608  0.44677  1.0000
  C   C705      1.0  0.47169  0.77183  0.17166  1.0000
  H   H1226     1.0  0.43936  0.85006  0.35404  1.0000
  C   C706      1.0  0.42522  0.84560  0.34869  1.0000
  H   H1227     1.0  0.46089  0.88003  0.44080  1.0000
  N   N40       1.0  0.45210  0.87945  0.09924  1.0000
  C   C707      1.0  0.43779  0.88455  0.10794  1.0000
  C   C708      1.0  0.46954  0.89513  0.10406  1.0000
  C   C709      1.0  0.44952  0.87520  0.06748  1.0000
  C   C710      1.0  0.45194  0.86361  0.11456  1.0000
  C   C711      1.0  0.44557  0.86109  0.14553  1.0000
  C   C712      1.0  0.41887  0.87141  0.09847  1.0000
  C   C713      1.0  0.46418  0.87180  0.05332  1.0000
  C   C714      1.0  0.47462  0.90298  0.13485  1.0000
  H   H1228     1.0  0.25636  0.68602  0.28762  1.0000
  C   C715      1.0  0.44862  0.84628  0.15981  1.0000
  C   C716      1.0  0.40529  0.87525  0.11426  1.0000
  H   H1229     1.0  0.42920  0.71937  0.21004  1.0000
  H   H1230     1.0  0.43989  0.89747  0.09896  1.0000
  H   H1231     1.0  0.43818  0.88679  0.13133  1.0000
  H   H1232     1.0  0.42573  0.97670  0.12769  1.0000
  H   H1233     1.0  0.47019  0.90586  0.08984  1.0000
  H   H1234     1.0  0.44803  0.88603  0.05582  1.0000
  H   H1235     1.0  0.43717  0.86321  0.06275  1.0000
  H   H1236     1.0  0.44340  0.85117  0.10256  1.0000
  H   H1237     1.0  0.46523  0.86382  0.11507  1.0000
  H   H1238     1.0  0.43132  0.85746  0.14546  1.0000
  H   H1239     1.0  0.45227  0.87317  0.15910  1.0000
  H   H1240     1.0  0.41651  0.87262  0.07531  1.0000
  H   H1241     1.0  0.41669  0.85761  0.10225  1.0000
  H   H1242     1.0  0.46752  0.86230  0.06547  1.0000
  H   H1243     1.0  0.47617  0.88428  0.05205  1.0000
  H   H1244     1.0  0.46418  0.90565  0.14445  1.0000
  C   C717      1.0  0.45863  0.86441  0.02280  1.0000
  H   H1245     1.0  0.47260  0.97997  0.48923  1.0000
  S   S169      1.0  0.35807  0.87123  0.48001  1.0000
  H   H1246     1.0  0.48232  0.67847  0.13156  1.0000
  H   H1247     1.0  0.44177  0.83367  0.14736  1.0000
  H   H1248     1.0  0.46281  0.84960  0.16179  1.0000
  H   H1249     1.0  0.44350  0.84443  0.18158  1.0000
  H   H1250     1.0  0.40700  0.88895  0.11066  1.0000
  H   H1251     1.0  0.39193  0.86610  0.10618  1.0000
  H   H1252     1.0  0.40642  0.87342  0.13751  1.0000
  H   H1253     1.0  0.47681  0.76327  0.18278  1.0000
  H   H1254     1.0  0.39149  0.74298  0.16318  1.0000
  H   H1255     1.0  0.38962  0.83838  0.22252  1.0000
  C   C718      1.0  0.41756  0.76160  0.17960  1.0000
  H   H1256     1.0  0.28663  0.86566  0.21039  1.0000
  H   H1257     1.0  0.40627  0.83440  0.26350  1.0000
  C   C719      1.0  0.49094  0.92050  0.13538  1.0000
  Fe  Fe84      1.0  0.37610  0.90515  0.01156  1.0000
  H   H1258     1.0  0.45633  0.87411  0.00938  1.0000
  H   H1259     1.0  0.32168  0.92958  0.27096  1.0000
  H   H1260     1.0  0.47348  0.69240  0.31673  1.0000
  C   C720      1.0  0.31213  0.86815  0.22650  1.0000
  H   H1261     1.0  0.46449  0.90286  0.43919  1.0000
  H   H1262     1.0  0.26061  0.69515  0.32358  1.0000
  C   C721      1.0  0.44026  0.91043  0.00544  1.0000
  H   H1263     1.0  0.44466  0.67509  0.33581  1.0000
  C   C722      1.0  0.32323  0.88495  0.21024  1.0000
  C   C723      1.0  0.49019  0.86265  0.35410  1.0000
  H   H1264     1.0  0.35072  0.92284  0.24812  1.0000
  H   H1265     1.0  0.41795  0.72363  0.23907  1.0000
  C   C724      1.0  0.40922  0.98760  0.01795  1.0000
  H   H1266     1.0  0.37869  0.76421  0.15738  1.0000
  H   H1267     1.0  0.47391  0.75086  0.33447  1.0000
  H   H1268     1.0  0.49160  0.75588  0.36090  1.0000
  C   C725      1.0  0.41767  0.92794  0.44066  1.0000
  N   N41       1.0  0.34036  0.89784  0.22454  1.0000
  H   H1269     1.0  0.48492  0.96802  0.02706  1.0000
  H   H1270     1.0  0.36524  0.91724  0.21069  1.0000
  H   H1271     1.0  0.40215  0.86189  0.22509  1.0000
  H   H1272     1.0  0.44723  0.74605  0.20277  1.0000
  H   H1273     1.0  0.33141  0.91843  0.22745  1.0000
  H   H1274     1.0  0.35516  0.92886  0.13807  1.0000
  H   H1275     1.0  0.30991  0.87119  0.24861  1.0000
  H   H1276     1.0  0.47308  0.69703  0.35448  1.0000
  C   C726      1.0  0.40260  0.84905  0.22908  1.0000
  C   C727      1.0  0.43103  0.91266  0.02812  1.0000
  C   C728      1.0  0.40283  0.70051  0.21334  1.0000
  S   S170      1.0  0.49467  0.78874  0.24311  1.0000
  H   H1277     1.0  0.25038  0.70356  0.29696  1.0000
  H   H1278     1.0  0.43938  0.74606  0.16709  1.0000
  N   N42       1.0  0.30298  0.74256  0.30776  1.0000
  C   C729      1.0  0.30509  0.75949  0.32264  1.0000
  C   C730      1.0  0.30633  0.74587  0.27654  1.0000
  C   C731      1.0  0.28410  0.72943  0.30971  1.0000
  C   C732      1.0  0.31468  0.73486  0.32102  1.0000
  C   C733      1.0  0.33262  0.74808  0.33469  1.0000
  C   C734      1.0  0.29846  0.75755  0.35341  1.0000
  C   C735      1.0  0.27834  0.71179  0.29241  1.0000
  C   C736      1.0  0.32492  0.75906  0.26917  1.0000
  C   C737      1.0  0.32594  0.76196  0.23707  1.0000
  C   C738      1.0  0.34447  0.73894  0.34173  1.0000
  C   C739      1.0  0.30501  0.77530  0.36951  1.0000
  H   H1279     1.0  0.49001  0.88331  0.41777  1.0000
  H   H1280     1.0  0.29796  0.76579  0.31018  1.0000
  H   H1281     1.0  0.31887  0.76946  0.32330  1.0000
  H   H1282     1.0  0.30419  0.73350  0.26472  1.0000
  H   H1283     1.0  0.29682  0.75048  0.26679  1.0000
  H   H1284     1.0  0.27521  0.73544  0.30259  1.0000
  H   H1285     1.0  0.28109  0.72588  0.33226  1.0000
  H   H1286     1.0  0.30799  0.72582  0.33831  1.0000
  H   H1287     1.0  0.31719  0.72640  0.30494  1.0000
  H   H1288     1.0  0.33071  0.75393  0.35492  1.0000
  H   H1289     1.0  0.33978  0.75912  0.32078  1.0000
  H   H1290     1.0  0.28393  0.75180  0.35262  1.0000
  H   H1291     1.0  0.30264  0.74874  0.36586  1.0000
  H   H1292     1.0  0.28780  0.70597  0.29594  1.0000
  H   H1293     1.0  0.27720  0.71393  0.26926  1.0000
  H   H1294     1.0  0.32879  0.77203  0.28019  1.0000
  H   H1295     1.0  0.33454  0.75374  0.27496  1.0000
  H   H1296     1.0  0.33935  0.77155  0.23225  1.0000
  H   H1297     1.0  0.32297  0.74942  0.22509  1.0000
  H   H1298     1.0  0.31656  0.76732  0.22971  1.0000
  H   H1299     1.0  0.34755  0.73361  0.32194  1.0000
  H   H1300     1.0  0.39007  0.69953  0.22045  1.0000
  H   H1301     1.0  0.33814  0.72808  0.35657  1.0000
  H   H1302     1.0  0.29996  0.78400  0.35864  1.0000
  H   H1303     1.0  0.30023  0.77332  0.39149  1.0000
  H   H1304     1.0  0.31954  0.78182  0.37096  1.0000
  H   H1305     1.0  0.44657  0.85189  0.02240  1.0000
  H   H1306     1.0  0.47596  0.97894  0.08509  1.0000
  C   C740      1.0  0.48373  0.86802  0.37791  1.0000
  N   N43       1.0  0.46176  0.98347  0.04921  1.0000
  H   H1307     1.0  0.36276  0.88229  0.29406  1.0000
  C   C741      1.0  0.46862  0.69884  0.33277  1.0000
  H   H1308     1.0  0.46336  0.95984  0.06431  1.0000
  H   H1309     1.0  0.42191  0.76142  0.15749  1.0000
  H   H1310     1.0  0.26103  0.74786  0.23584  1.0000
  H   H1311     1.0  0.31481  0.89175  0.20437  1.0000
  C   C742      1.0  0.44927  0.86991  0.30597  1.0000
  H   H1312     1.0  0.39912  0.87165  0.29703  1.0000
  C   C743      1.0  0.39748  0.75553  0.17605  1.0000
  C   C744      1.0  0.44405  0.97681  0.06194  1.0000
  H   H1313     1.0  0.32343  0.85437  0.03587  1.0000
  H   H1314     1.0  0.36542  0.91017  0.27213  1.0000
  H   H1315     1.0  0.34298  0.92548  0.18587  1.0000
  H   H1316     1.0  0.36410  0.91334  0.14593  1.0000
  N   N44       1.0  0.42966  0.86349  0.30248  1.0000
  H   H1317     1.0  0.33945  0.88088  0.25982  1.0000
  C   C745      1.0  0.36622  0.89971  0.25834  1.0000
  H   H1318     1.0  0.33461  0.90502  0.16543  1.0000
  H   H1319     1.0  0.48032  0.89174  0.09789  1.0000
  C   C746      1.0  0.39309  0.76913  0.16044  1.0000
  H   H1320     1.0  0.37645  0.90585  0.24273  1.0000
  H   H1321     1.0  0.34026  0.93061  0.29274  1.0000
  H   H1322     1.0  0.43535  0.98157  0.04999  1.0000
  H   H1323     1.0  0.40130  0.69551  0.19088  1.0000
  C   C747      1.0  0.34829  0.88826  0.24301  1.0000
  H   H1324     1.0  0.39891  0.77161  0.13920  1.0000
  C   C748      1.0  0.45828  0.91570  0.00876  1.0000
  H   H1325     1.0  0.40746  0.89848  0.32696  1.0000
  C   C749      1.0  0.40176  0.88538  0.33676  1.0000
  C   C750      1.0  0.45584  0.77178  0.18638  1.0000
  C   C751      1.0  0.44404  0.98140  0.09406  1.0000
  C   C752      1.0  0.42713  0.75865  0.22918  1.0000
  C   C753      1.0  0.41672  0.71952  0.21622  1.0000
  H   H1326     1.0  0.42628  0.87465  0.26247  1.0000
  H   H1327     1.0  0.29598  0.85384  0.18914  1.0000
  H   H1328     1.0  0.46977  0.86316  0.37983  1.0000
  H   H1329     1.0  0.46040  0.77779  0.20806  1.0000
  H   H1330     1.0  0.47773  0.89386  0.14840  1.0000
  C   C754      1.0  0.48856  0.97595  0.04736  1.0000
  H   H1331     1.0  0.39593  0.84827  0.27285  1.0000
  H   H1332     1.0  0.41259  0.84761  0.21585  1.0000
  C   C755      1.0  0.41165  0.73183  0.19725  1.0000
  C   C756      1.0  0.40496  0.87182  0.31862  1.0000
  H   H1333     1.0  0.40763  0.88661  0.35865  1.0000
  H   H1334     1.0  0.45206  0.97637  0.10704  1.0000
  H   H1335     1.0  0.44922  0.99584  0.09799  1.0000
  H   H1336     1.0  0.25622  0.77349  0.17926  1.0000
  H   H1337     1.0  0.35690  0.89679  0.19105  1.0000
  C   C757      1.0  0.41083  0.75714  0.24495  1.0000
  H   H1338     1.0  0.31281  0.89766  0.26089  1.0000
  H   H1339     1.0  0.37376  0.87808  0.26443  1.0000
  H   H1340     1.0  0.46773  0.71981  0.30741  1.0000
  H   H1341     1.0  0.48805  0.78252  0.34576  1.0000
  H   H1342     1.0  0.40015  0.74369  0.24321  1.0000
  H   H1343     1.0  0.40605  0.76661  0.23624  1.0000
  H   H1344     1.0  0.35695  0.74863  0.35212  1.0000
  H   H1345     1.0  0.45530  0.95206  0.01794  1.0000
  H   H1346     1.0  0.41897  0.75193  0.28709  1.0000
  C   C758      1.0  0.36034  0.92334  0.15554  1.0000
  C   C759      1.0  0.37227  0.88853  0.27735  1.0000
  H   H1347     1.0  0.39810  0.78173  0.17313  1.0000
  H   H1348     1.0  0.32118  0.88328  0.00450  1.0000
  H   H1349     1.0  0.44302  0.69489  0.34745  1.0000
  C   C760      1.0  0.44867  0.68921  0.33135  1.0000
  H   H1350     1.0  0.43588  0.91658  0.44747  1.0000
  H   H1351     1.0  0.48989  0.72853  0.22717  1.0000
  C   C761      1.0  0.40721  0.87958  0.48772  1.0000
  C   C762      1.0  0.49186  0.75491  0.23473  1.0000
  H   H1352     1.0  0.48408  0.89308  0.31812  1.0000
  H   H1353     1.0  0.39387  0.87901  0.48918  1.0000
  H   H1354     1.0  0.49157  0.74822  0.29620  1.0000
  H   H1355     1.0  0.41999  0.95850  0.10243  1.0000
  C   C763      1.0  0.45912  0.97995  0.01739  1.0000
  H   H1356     1.0  0.47183  0.98597  0.00688  1.0000
  H   H1357     1.0  0.44332  0.69009  0.30975  1.0000
  H   H1358     1.0  0.40635  0.97578  0.00514  1.0000
  H   H1359     1.0  0.43916  0.89401  0.46969  1.0000
  Fe  Fe85      1.0  0.48733  0.84479  0.22067  1.0000
  H   H1360     1.0  0.46917  0.86166  0.01357  1.0000
  S   S171      1.0  0.49068  0.68283  0.25755  1.0000
  C   C764      1.0  0.47187  0.97413  0.06262  1.0000
  C   C765      1.0  0.44951  0.96025  0.00764  1.0000
  H   H1361     1.0  0.42279  0.91563  0.47707  1.0000
  H   H1362     1.0  0.48826  0.93045  0.12328  1.0000
  C   C766      1.0  0.47783  0.67210  0.11002  1.0000
  H   H1363     1.0  0.26744  0.84550  0.01922  1.0000
  H   H1364     1.0  0.30044  0.85558  0.01564  1.0000
  H   H1365     1.0  0.48789  0.90403  0.28456  1.0000
  H   H1366     1.0  0.35821  0.85494  0.01765  1.0000
  C   C767      1.0  0.48835  0.75702  0.33812  1.0000
  H   H1367     1.0  0.49225  0.84155  0.14608  1.0000
  H   H1368     1.0  0.45177  0.94728  0.49625  1.0000
  N   N45       1.0  0.49411  0.72964  0.32554  1.0000
  H   H1369     1.0  0.24632  0.74896  0.33672  1.0000
  C   C768      1.0  0.49466  0.77657  0.33195  1.0000
  C   C769      1.0  0.26350  0.77098  0.77995  1.0000
  H   H1370     1.0  0.27084  0.73736  0.77850  1.0000
  C   C770      1.0  0.27456  0.82575  0.72316  1.0000
  H   H1371     1.0  0.27445  0.77553  0.82291  1.0000
  H   H1372     1.0  0.32202  0.78877  0.86849  1.0000
  H   H1373     1.0  0.27393  0.83465  0.65168  1.0000
  H   H1374     1.0  0.29067  0.75414  0.81978  1.0000
  C   C771      1.0  0.26797  0.83025  0.67258  1.0000
  C   C772      1.0  0.27352  0.72642  0.78684  1.0000
  C   C773      1.0  0.26434  0.76647  0.80834  1.0000
  Fe  Fe86      1.0  0.39976  0.91012  0.55559  1.0000
  Fe  Fe87      1.0  0.36507  0.90779  0.57334  1.0000
  S   S172      1.0  0.35765  0.91360  0.52894  1.0000
  S   S173      1.0  0.35034  0.90449  0.61434  1.0000
  N   N46       1.0  0.28199  0.83524  0.69612  1.0000
  Fe  Fe88      1.0  0.38558  0.93467  0.52933  1.0000
  S   S174      1.0  0.37349  0.88749  0.55707  1.0000
  S   S175      1.0  0.39202  0.93021  0.57448  1.0000
  C   C774      1.0  0.40229  0.98665  0.55115  1.0000
  Fe  Fe89      1.0  0.33607  0.84043  0.75012  1.0000
  S   S176      1.0  0.32679  0.81141  0.75558  1.0000
  S   S177      1.0  0.34278  0.84517  0.70331  1.0000
  Fe  Fe90      1.0  0.33241  0.84574  0.81437  1.0000
  S   S178      1.0  0.32251  0.81678  0.82325  1.0000
  S   S179      1.0  0.33479  0.86717  0.84754  1.0000
  Fe  Fe91      1.0  0.34410  0.81815  0.79500  1.0000
  S   S180      1.0  0.35970  0.80190  0.79947  1.0000
  Fe  Fe92      1.0  0.30579  0.81197  0.78259  1.0000
  S   S181      1.0  0.27871  0.79130  0.76655  1.0000
  S   S182      1.0  0.35497  0.84727  0.78826  1.0000
  S   S183      1.0  0.31408  0.84093  0.77524  1.0000
  C   C775      1.0  0.41579  0.83038  0.77051  1.0000
  C   C776      1.0  0.40781  0.81197  0.77076  1.0000
  C   C777      1.0  0.39076  0.80322  0.78059  1.0000
  C   C778      1.0  0.38164  0.81286  0.78981  1.0000
  C   C779      1.0  0.39002  0.83124  0.79067  1.0000
  C   C780      1.0  0.40702  0.83993  0.78117  1.0000
  H   H1375     1.0  0.38444  0.78899  0.78018  1.0000
  H   H1376     1.0  0.38344  0.83879  0.79879  1.0000
  H   H1377     1.0  0.41332  0.85416  0.78181  1.0000
  H   H1378     1.0  0.32045  0.78158  0.81647  1.0000
  C   C781      1.0  0.36284  0.88227  0.93713  1.0000
  C   C782      1.0  0.35579  0.89285  0.92406  1.0000
  C   C783      1.0  0.34747  0.88814  0.89655  1.0000
  C   C784      1.0  0.34628  0.87295  0.88155  1.0000
  C   C785      1.0  0.35363  0.86256  0.89443  1.0000
  C   C786      1.0  0.36181  0.86718  0.92201  1.0000
  H   H1379     1.0  0.35666  0.90460  0.93517  1.0000
  H   H1380     1.0  0.34191  0.89635  0.88682  1.0000
  H   H1381     1.0  0.35284  0.85084  0.88329  1.0000
  H   H1382     1.0  0.36728  0.85892  0.93181  1.0000
  C   C787      1.0  0.34912  0.88835  0.63929  1.0000
  C   C788      1.0  0.34822  0.87201  0.63032  1.0000
  C   C789      1.0  0.34589  0.85891  0.65023  1.0000
  C   C790      1.0  0.34488  0.86209  0.67945  1.0000
  C   C791      1.0  0.34594  0.87847  0.68859  1.0000
  C   C792      1.0  0.34789  0.89149  0.66851  1.0000
  H   H1383     1.0  0.34879  0.86930  0.60787  1.0000
  H   H1384     1.0  0.34463  0.84615  0.64279  1.0000
  H   H1385     1.0  0.34521  0.88112  0.71101  1.0000
  H   H1386     1.0  0.34849  0.90407  0.67560  1.0000
  C   C793      1.0  0.30227  0.83292  0.90467  1.0000
  H   H1387     1.0  0.29172  0.82845  0.94621  1.0000
  H   H1388     1.0  0.30990  0.86390  0.66757  1.0000
  H   H1389     1.0  0.31250  0.89387  0.66521  1.0000
  H   H1390     1.0  0.30184  0.85806  0.71849  1.0000
  N   N47       1.0  0.39174  0.84774  0.69012  1.0000
  C   C794      1.0  0.38323  0.84578  0.66061  1.0000
  C   C795      1.0  0.38055  0.83278  0.70850  1.0000
  C   C796      1.0  0.39304  0.86484  0.70333  1.0000
  C   C797      1.0  0.40996  0.84871  0.68907  1.0000
  C   C798      1.0  0.41142  0.83217  0.67674  1.0000
  C   C799      1.0  0.39162  0.86169  0.64091  1.0000
  C   C800      1.0  0.39890  0.86841  0.73541  1.0000
  C   C801      1.0  0.36956  0.81460  0.69331  1.0000
  C   C802      1.0  0.36230  0.80004  0.71484  1.0000
  C   C803      1.0  0.38456  0.85687  0.61005  1.0000
  C   C804      1.0  0.39793  0.88517  0.74661  1.0000
  H   H1391     1.0  0.36938  0.84356  0.66249  1.0000
  H   H1392     1.0  0.38252  0.83391  0.64896  1.0000
  H   H1393     1.0  0.38873  0.83090  0.72611  1.0000
  H   H1394     1.0  0.37073  0.83603  0.71936  1.0000
  H   H1395     1.0  0.38015  0.86549  0.70083  1.0000
  H   H1396     1.0  0.40246  0.87632  0.69201  1.0000
  H   H1397     1.0  0.41614  0.85086  0.71091  1.0000
  H   H1398     1.0  0.40598  0.82125  0.69178  1.0000
  H   H1399     1.0  0.38852  0.87270  0.64812  1.0000
  H   H1400     1.0  0.40600  0.86657  0.64089  1.0000
  H   H1401     1.0  0.41260  0.87017  0.73879  1.0000
  H   H1402     1.0  0.39039  0.85755  0.74864  1.0000
  H   H1403     1.0  0.35826  0.81507  0.68108  1.0000
  H   H1404     1.0  0.37721  0.81074  0.67828  1.0000
  H   H1405     1.0  0.37312  0.79797  0.72576  1.0000
  H   H1406     1.0  0.35495  0.80351  0.73109  1.0000
  H   H1407     1.0  0.35333  0.78751  0.70371  1.0000
  H   H1408     1.0  0.37015  0.85226  0.60865  1.0000
  H   H1409     1.0  0.39048  0.86870  0.59690  1.0000
  H   H1410     1.0  0.38798  0.84645  0.60114  1.0000
  C   C805      1.0  0.31256  0.85550  0.94579  1.0000
  H   H1411     1.0  0.39589  0.97585  0.56511  1.0000
  C   C806      1.0  0.29900  0.86637  0.67579  1.0000
  H   H1412     1.0  0.28457  0.82295  0.73539  1.0000
  C   C807      1.0  0.29572  0.82944  0.68676  1.0000
  C   C808      1.0  0.28955  0.80934  0.68125  1.0000
  C   C809      1.0  0.30486  0.80525  0.67333  1.0000
  H   H1413     1.0  0.30672  0.83383  0.70311  1.0000
  H   H1414     1.0  0.30147  0.83574  0.66666  1.0000
  H   H1415     1.0  0.31445  0.80836  0.69171  1.0000
  H   H1416     1.0  0.30000  0.79105  0.66740  1.0000
  H   H1417     1.0  0.29618  0.76431  0.69574  1.0000
  H   H1418     1.0  0.35801  0.75685  0.77240  1.0000
  H   H1419     1.0  0.29329  0.83841  0.89598  1.0000
  C   C810      1.0  0.30343  0.75326  0.81910  1.0000
  H   H1420     1.0  0.31761  0.77309  0.76794  1.0000
  C   C811      1.0  0.30164  0.76970  0.71747  1.0000
  H   H1421     1.0  0.32079  0.73076  0.75220  1.0000
  H   H1422     1.0  0.29576  0.76689  0.77656  1.0000
  C   C812      1.0  0.30470  0.83563  0.93711  1.0000
  H   H1423     1.0  0.29577  0.88959  0.69059  1.0000
  H   H1424     1.0  0.28212  0.86002  0.71092  1.0000
  C   C813      1.0  0.29280  0.72964  0.78276  1.0000
  H   H1425     1.0  0.28902  0.86376  0.65821  1.0000
  C   C814      1.0  0.30634  0.88600  0.68392  1.0000
  C   C815      1.0  0.29107  0.85493  0.70185  1.0000
  H   H1426     1.0  0.30413  0.86095  0.93505  1.0000
  C   C816      1.0  0.40405  0.98309  0.52250  1.0000
  H   H1427     1.0  0.31647  0.88944  0.70156  1.0000
  H   H1428     1.0  0.34763  0.73361  0.77989  1.0000
  H   H1429     1.0  0.29370  0.72516  0.76081  1.0000
  C   C817      1.0  0.30477  0.76141  0.76872  1.0000
  C   C818      1.0  0.34805  0.74373  0.76455  1.0000
  H   H1430     1.0  0.31592  0.77785  0.71631  1.0000
  H   H1431     1.0  0.29662  0.81863  0.89890  1.0000
  H   H1432     1.0  0.29544  0.72033  0.79675  1.0000
  H   H1433     1.0  0.33140  0.75404  0.74486  1.0000
  H   H1434     1.0  0.30821  0.76606  0.87521  1.0000
  N   N48       1.0  0.30625  0.74828  0.78922  1.0000
  H   H1435     1.0  0.29527  0.77812  0.72476  1.0000
  H   H1436     1.0  0.35207  0.74055  0.74373  1.0000
  C   C819      1.0  0.31746  0.77096  0.83196  1.0000
  H   H1437     1.0  0.33444  0.76224  0.79500  1.0000
  H   H1438     1.0  0.31157  0.81303  0.65489  1.0000
  H   H1439     1.0  0.32973  0.76973  0.83784  1.0000
  C   C820      1.0  0.31141  0.77646  0.85919  1.0000
  H   H1440     1.0  0.31349  0.82959  0.94433  1.0000
  C   C821      1.0  0.29811  0.75457  0.73760  1.0000
  H   H1441     1.0  0.27971  0.80446  0.66317  1.0000
  H   H1442     1.0  0.28378  0.74640  0.73675  1.0000
  C   C822      1.0  0.33009  0.74393  0.76075  1.0000
  C   C823      1.0  0.32431  0.74875  0.78928  1.0000
  H   H1443     1.0  0.30261  0.74281  0.83418  1.0000
  H   H1444     1.0  0.32564  0.74000  0.80594  1.0000
  Fe  Fe93      1.0  0.36837  0.89472  0.51252  1.0000
  H   H1445     1.0  0.29973  0.77901  0.85445  1.0000
  H   H1446     1.0  0.28377  0.80177  0.70036  1.0000
  H   H1447     1.0  0.30424  0.74636  0.72883  1.0000
  H   H1448     1.0  0.31504  0.83941  0.89453  1.0000
  H   H1449     1.0  0.32534  0.86191  0.93560  1.0000
  H   H1450     1.0  0.27080  0.72547  0.80991  1.0000
  C   C824      1.0  0.41671  0.88172  0.85811  1.0000
  H   H1451     1.0  0.38426  0.88381  0.74456  1.0000
  H   H1452     1.0  0.40627  0.87798  0.87377  1.0000
  S   S184      1.0  0.37242  0.88669  0.97257  1.0000
  H   H1453     1.0  0.41038  0.87840  0.83632  1.0000
  H   H1454     1.0  0.40451  0.82784  0.65562  1.0000
  H   H1455     1.0  0.41456  0.80450  0.76272  1.0000
  H   H1456     1.0  0.41856  0.86036  0.67733  1.0000
  H   H1457     1.0  0.27926  0.84686  0.75514  1.0000
  C   C825      1.0  0.31812  0.89103  0.96131  1.0000
  C   C826      1.0  0.26060  0.70927  0.77194  1.0000
  H   H1458     1.0  0.39942  0.85106  0.54483  1.0000
  C   C827      1.0  0.39797  0.86152  0.53229  1.0000
  H   H1459     1.0  0.32315  0.89050  0.93996  1.0000
  H   H1460     1.0  0.38385  0.85744  0.52691  1.0000
  H   H1461     1.0  0.40224  0.88747  0.76954  1.0000
  H   H1462     1.0  0.40654  0.89675  0.73467  1.0000
  H   H1463     1.0  0.33919  0.85684  0.97645  1.0000
  H   H1464     1.0  0.28055  0.85386  0.95854  1.0000
  N   N49       1.0  0.31507  0.86002  0.97740  1.0000
  S   S185      1.0  0.39551  0.91596  0.51035  1.0000
  S   S186      1.0  0.39618  0.96127  0.50761  1.0000
  H   H1465     1.0  0.32214  0.91812  0.95570  1.0000
  H   H1466     1.0  0.26377  0.81251  0.71793  1.0000
  H   H1467     1.0  0.40301  0.87379  0.54566  1.0000
  C   C828      1.0  0.26799  0.83534  0.74514  1.0000
  H   H1468     1.0  0.26260  0.69788  0.78017  1.0000
  C   C829      1.0  0.32341  0.87983  0.98244  1.0000
  H   H1469     1.0  0.33788  0.88509  0.98118  1.0000
  C   C830      1.0  0.25177  0.75039  0.81810  1.0000
  H   H1470     1.0  0.25245  0.74714  0.84020  1.0000
  H   H1471     1.0  0.30383  0.88638  0.95851  1.0000
  C   C831      1.0  0.32594  0.91038  0.97130  1.0000
  H   H1472     1.0  0.25923  0.85125  0.68117  1.0000
  H   H1473     1.0  0.32131  0.83827  0.98894  1.0000
  C   C832      1.0  0.32751  0.85292  0.98967  1.0000
  H   H1474     1.0  0.34045  0.91588  0.97288  1.0000
  C   C833      1.0  0.28294  0.85576  0.98196  1.0000
  C   C834      1.0  0.29822  0.85154  0.99264  1.0000
  H   H1475     1.0  0.26088  0.81568  0.67002  1.0000
  C   C835      1.0  0.25363  0.83687  0.67648  1.0000
  H   H1476     1.0  0.25882  0.84012  0.73521  1.0000
  C   C836      1.0  0.24999  0.75914  0.76147  1.0000
  H   H1477     1.0  0.28571  0.86951  0.98834  1.0000
  H   H1478     1.0  0.41901  0.85749  0.86213  1.0000
  H   H1479     1.0  0.26795  0.81941  0.78144  1.0000
  H   H1480     1.0  0.29358  0.83697  0.99229  1.0000
  C   C837      1.0  0.25871  0.82327  0.76918  1.0000
  H   H1481     1.0  0.25374  0.83032  0.78407  1.0000
  H   H1482     1.0  0.32109  0.91185  0.99242  1.0000
  H   H1483     1.0  0.26210  0.82985  0.98936  1.0000
  H   H1484     1.0  0.26209  0.70986  0.74852  1.0000
  H   H1485     1.0  0.42198  0.86754  0.51148  1.0000
  H   H1486     1.0  0.24702  0.70722  0.77613  1.0000
  H   H1487     1.0  0.24914  0.76247  0.73947  1.0000
  C   C838      1.0  0.41214  0.99733  0.50461  1.0000
  H   H1488     1.0  0.25528  0.84749  0.98820  1.0000
  C   C839      1.0  0.40813  0.86432  0.50514  1.0000
  H   H1489     1.0  0.24942  0.84030  0.63126  1.0000
  H   H1490     1.0  0.41604  0.89187  0.49965  1.0000
  S   S187      1.0  0.42354  0.90691  0.57174  1.0000
  H   H1491     1.0  0.42477  0.89617  0.86041  1.0000
  H   H1492     1.0  0.24749  0.81121  0.76054  1.0000
  H   H1493     1.0  0.24521  0.82979  0.69395  1.0000
  C   C840      1.0  0.26594  0.84389  0.99559  1.0000
  C   C841      1.0  0.42794  0.87172  0.86379  1.0000
  H   H1494     1.0  0.43616  0.87309  0.82033  1.0000
  H   H1495     1.0  0.43357  0.87515  0.88596  1.0000
  H   H1496     1.0  0.43549  0.84488  0.82372  1.0000
  H   H1497     1.0  0.44839  0.99896  0.53038  1.0000
  H   H1498     1.0  0.47823  0.68828  0.66101  1.0000
  H   H1499     1.0  0.42660  0.96288  0.54403  1.0000
  H   H1500     1.0  0.42552  0.85905  0.61111  1.0000
  H   H1501     1.0  0.43378  0.81403  0.82043  1.0000
  C   C842      1.0  0.43045  0.83559  0.67283  1.0000
  H   H1502     1.0  0.43112  0.82314  0.66608  1.0000
  H   H1503     1.0  0.43237  0.98081  0.57007  1.0000
  H   H1504     1.0  0.48775  0.68385  0.60901  1.0000
  H   H1505     1.0  0.43561  0.84351  0.86157  1.0000
  C   C843      1.0  0.44260  0.87654  0.84213  1.0000
  H   H1506     1.0  0.49001  0.79621  0.85883  1.0000
  C   C844      1.0  0.45205  0.93700  0.50961  1.0000
  H   H1507     1.0  0.42790  0.75889  0.81074  1.0000
  C   C845      1.0  0.49011  0.89712  0.79324  1.0000
  H   H1508     1.0  0.45944  0.89470  0.69612  1.0000
  C   C846      1.0  0.45277  0.89290  0.62283  1.0000
  H   H1509     1.0  0.45857  0.66823  0.85739  1.0000
  N   N50       1.0  0.45505  0.86800  0.84610  1.0000
  H   H1510     1.0  0.47449  0.77521  0.79008  1.0000
  Fe  Fe94      1.0  0.47150  0.80451  0.73763  1.0000
  C   C847      1.0  0.46572  0.91944  0.65375  1.0000
  H   H1511     1.0  0.45485  0.70970  0.64458  1.0000
  C   C848      1.0  0.48721  0.76297  0.74286  1.0000
  C   C849      1.0  0.49053  0.85963  0.63629  1.0000
  H   H1512     1.0  0.45234  0.89933  0.55622  1.0000
  C   C850      1.0  0.45536  0.99085  0.52444  1.0000
  Fe  Fe95      1.0  0.45635  0.83157  0.74929  1.0000
  H   H1513     1.0  0.43833  0.84045  0.69313  1.0000
  H   H1514     1.0  0.48064  0.88733  0.64920  1.0000
  H   H1515     1.0  0.44712  0.98189  0.50661  1.0000
  C   C851      1.0  0.45462  0.97920  0.55024  1.0000
  H   H1516     1.0  0.48457  0.72332  0.82023  1.0000
  H   H1517     1.0  0.43619  0.84534  0.65611  1.0000
  C   C852      1.0  0.48065  0.89407  0.91544  1.0000
  C   C853      1.0  0.46349  0.72728  0.74228  1.0000
  H   H1518     1.0  0.48750  0.90588  0.67255  1.0000
  H   H1519     1.0  0.43394  0.81351  0.85903  1.0000
  H   H1520     1.0  0.45821  0.96842  0.54396  1.0000
  H   H1521     1.0  0.48254  0.72646  0.67355  1.0000
  C   C854      1.0  0.46951  0.75843  0.73637  1.0000
  C   C855      1.0  0.47457  0.89245  0.81227  1.0000
  Fe  Fe96      1.0  0.49093  0.84301  0.71989  1.0000
  C   C856      1.0  0.47021  0.87589  0.70162  1.0000
  C   C857      1.0  0.46806  0.87330  0.82276  1.0000
  N   N51       1.0  0.48868  0.77540  0.82962  1.0000
  H   H1522     1.0  0.47751  0.77481  0.87060  1.0000
  C   C858      1.0  0.48472  0.75601  0.82952  1.0000
  H   H1523     1.0  0.45421  0.71358  0.74200  1.0000
  S   S188      1.0  0.48915  0.71595  0.75898  1.0000
  H   H1524     1.0  0.44383  0.96540  0.96393  1.0000
  C   C859      1.0  0.44113  0.76864  0.80543  1.0000
  H   H1525     1.0  0.47760  0.85647  0.59462  1.0000
  H   H1526     1.0  0.47660  0.92722  0.66937  1.0000
  C   C860      1.0  0.48147  0.99000  0.50533  1.0000
  H   H1527     1.0  0.44962  0.89109  0.84300  1.0000
  C   C861      1.0  0.45003  0.95787  0.97543  1.0000
  C   C862      1.0  0.47510  0.89178  0.88376  1.0000
  H   H1528     1.0  0.44918  0.69159  0.66870  1.0000
  C   C863      1.0  0.47381  0.77733  0.81337  1.0000
  H   H1529     1.0  0.46268  0.83975  0.82305  1.0000
  H   H1530     1.0  0.43341  0.90463  0.98532  1.0000
  H   H1531     1.0  0.43104  0.87148  0.57887  1.0000
  H   H1532     1.0  0.48305  0.98241  0.52357  1.0000
  H   H1533     1.0  0.46356  0.98699  0.56819  1.0000
  C   C864      1.0  0.43620  0.97063  0.56137  1.0000
  H   H1534     1.0  0.44405  0.73671  0.73056  1.0000
  H   H1535     1.0  0.47781  0.74944  0.80894  1.0000
  H   H1536     1.0  0.46393  0.89382  0.79946  1.0000
  S   S189      1.0  0.43609  0.84220  0.75541  1.0000
  H   H1537     1.0  0.48290  0.88508  0.71205  1.0000
  H   H1538     1.0  0.47966  0.87094  0.82932  1.0000
  H   H1539     1.0  0.43635  0.85297  0.58343  1.0000
  H   H1540     1.0  0.47491  0.79100  0.81595  1.0000
  S   S190      1.0  0.46140  0.77455  0.72868  1.0000
  H   H1541     1.0  0.47380  0.94060  0.62249  1.0000
  H   H1542     1.0  0.46904  0.88961  0.92876  1.0000
  C   C865      1.0  0.44226  0.81724  0.84028  1.0000
  S   S191      1.0  0.46427  0.67084  0.71341  1.0000
  H   H1543     1.0  0.45213  0.75082  0.81666  1.0000
  H   H1544     1.0  0.45407  0.91312  0.66683  1.0000
  H   H1545     1.0  0.43028  0.93537  0.53376  1.0000
  C   C866      1.0  0.45464  0.83684  0.84208  1.0000
  H   H1546     1.0  0.44906  0.89971  0.60555  1.0000
  H   H1547     1.0  0.44531  0.93787  0.66364  1.0000
  C   C867      1.0  0.48419  0.70252  0.65600  1.0000
  H   H1548     1.0  0.46336  0.83906  0.86136  1.0000
  H   H1549     1.0  0.47423  0.91176  0.51999  1.0000
  C   C868      1.0  0.48114  0.73187  0.74939  1.0000
  Fe  Fe97      1.0  0.47714  0.68561  0.75449  1.0000
  H   H1550     1.0  0.48628  0.90324  0.60665  1.0000
  H   H1551     1.0  0.47557  0.74934  0.84656  1.0000
  H   H1552     1.0  0.46825  0.95302  0.66772  1.0000
  H   H1553     1.0  0.46280  0.88009  0.59144  1.0000
  H   H1554     1.0  0.44237  0.76771  0.78206  1.0000
  H   H1555     1.0  0.45108  0.92554  0.61881  1.0000
  C   C869      1.0  0.45501  0.76477  0.82174  1.0000
  H   H1556     1.0  0.47844  0.91912  0.59908  1.0000
  C   C870      1.0  0.45775  0.74046  0.73581  1.0000
  H   H1557     1.0  0.48068  0.84759  0.64415  1.0000
  C   C871      1.0  0.47585  0.71193  0.67510  1.0000
  H   H1558     1.0  0.44271  0.94369  0.96918  1.0000
  H   H1559     1.0  0.45683  0.86851  0.62417  1.0000
  C   C872      1.0  0.45325  0.87633  0.60851  1.0000
  H   H1560     1.0  0.47658  0.70860  0.69771  1.0000
  C   C873      1.0  0.45741  0.94523  0.65211  1.0000
  C   C874      1.0  0.44428  0.84829  0.84332  1.0000
  H   H1561     1.0  0.45087  0.71269  0.68128  1.0000
  H   H1562     1.0  0.45326  0.76611  0.84479  1.0000
  H   H1563     1.0  0.44157  0.88853  0.63711  1.0000
  S   S192      1.0  0.48292  0.85336  0.75878  1.0000
  H   H1564     1.0  0.45038  0.87581  0.67197  1.0000
  H   H1565     1.0  0.43575  0.96155  0.57864  1.0000
  H   H1566     1.0  0.47961  0.70315  0.63370  1.0000
  H   H1567     1.0  0.45479  0.86593  0.89206  1.0000
  S   S193      1.0  0.46144  0.81253  0.77653  1.0000
  C   C875      1.0  0.43541  0.86426  0.59468  1.0000
  C   C876      1.0  0.43982  0.91653  0.54742  1.0000
  C   C877      1.0  0.46440  0.93028  0.50560  1.0000
  S   S194      1.0  0.46386  0.82209  0.70902  1.0000
  Fe  Fe98      1.0  0.48855  0.83393  0.78426  1.0000
  H   H1568     1.0  0.45499  0.95446  0.63775  1.0000
  H   H1569     1.0  0.46770  0.89978  0.87989  1.0000
  C   C878      1.0  0.48329  0.91356  0.61699  1.0000
  H   H1570     1.0  0.46372  0.96227  0.96900  1.0000
  H   H1571     1.0  0.46225  0.86481  0.80316  1.0000
  H   H1572     1.0  0.47223  0.86561  0.68911  1.0000
  C   C879      1.0  0.45239  0.91006  0.54374  1.0000
  H   H1573     1.0  0.47861  0.90234  0.83004  1.0000
  H   H1574     1.0  0.44235  0.78196  0.81142  1.0000
  C   C880      1.0  0.43981  0.93016  0.53065  1.0000
  C   C881      1.0  0.46264  0.88571  0.68233  1.0000
  C   C882      1.0  0.46213  0.93255  0.63443  1.0000
  C   C883      1.0  0.46473  0.91701  0.52295  1.0000
  H   H1575     1.0  0.47370  0.86609  0.87715  1.0000
  C   C884      1.0  0.47587  0.89624  0.66003  1.0000
  H   H1576     1.0  0.45006  0.80942  0.84005  1.0000
  H   H1577     1.0  0.46100  0.86936  0.71852  1.0000
  C   C885      1.0  0.45650  0.70606  0.66678  1.0000
  C   C886      1.0  0.46427  0.87211  0.87525  1.0000
  S   S195      1.0  0.46954  0.91298  0.98007  1.0000
  C   C887      1.0  0.48884  0.86471  0.60812  1.0000
  N   N52       1.0  0.46942  0.90552  0.63841  1.0000
  H   H1578     1.0  0.48618  0.88862  0.77355  1.0000
  H   H1579     1.0  0.48821  0.72806  0.85829  1.0000
  C   C888      1.0  0.48962  0.78275  0.85951  1.0000
  H   H1580     1.0  0.48729  0.89710  0.87183  1.0000
  H   H1581     1.0  0.48832  0.88647  0.92068  1.0000
  H   H1582     1.0  0.48898  0.90819  0.92087  1.0000
  C   C889      1.0  0.49294  0.74982  0.74953  1.0000
  H   H1583     1.0  0.49365  0.78824  0.91836  1.0000
  C   C890      1.0  0.49425  0.73137  0.83730  1.0000
  H   H1584     1.0  0.57215  0.12378  0.21686  1.0000
  H   H1585     1.0  0.51978  0.15491  0.47695  1.0000
  S   S196      1.0  0.60018  0.09747  0.47060  1.0000
  H   H1586     1.0  0.50381  0.24719  0.23157  1.0000
  Fe  Fe99      1.0  0.62319  0.09318  0.04649  1.0000
  C   C891      1.0  0.66537  0.25464  0.27541  1.0000
  S   S197      1.0  0.63157  0.09681  0.09383  1.0000
  H   H1587     1.0  0.56963  0.16419  0.24855  1.0000
  H   H1588     1.0  0.60819  0.15133  0.20076  1.0000
  H   H1589     1.0  0.72738  0.28959  0.31485  1.0000
  S   S198      1.0  0.64861  0.13006  0.44958  1.0000
  S   S199      1.0  0.59534  0.07453  0.03417  1.0000
  C   C892      1.0  0.50353  0.30469  0.20491  1.0000
  Fe  Fe100     1.0  0.66064  0.17265  0.22174  1.0000
  S   S200      1.0  0.66626  0.20124  0.22896  1.0000
  S   S201      1.0  0.66011  0.16666  0.17361  1.0000
  Fe  Fe101     1.0  0.65362  0.16527  0.28565  1.0000
  S   S202      1.0  0.65834  0.19321  0.29599  1.0000
  S   S203      1.0  0.64054  0.14273  0.31631  1.0000
  Fe  Fe102     1.0  0.64275  0.19138  0.25545  1.0000
  S   S204      1.0  0.62324  0.20264  0.24521  1.0000
  Fe  Fe103     1.0  0.68186  0.20125  0.26861  1.0000
  S   S205      1.0  0.70562  0.22578  0.28724  1.0000
  S   S206      1.0  0.63629  0.16303  0.24647  1.0000
  S   S207      1.0  0.67804  0.17306  0.26020  1.0000
  N   N53       1.0  0.55755  0.14826  0.21018  1.0000
  S   S208      1.0  0.51430  0.18899  0.33496  1.0000
  H   H1590     1.0  0.68763  0.27715  0.31775  1.0000
  H   H1591     1.0  0.51202  0.13340  0.17027  1.0000
  S   S209      1.0  0.52705  0.19765  0.26827  1.0000
  Fe  Fe104     1.0  0.53427  0.18626  0.30713  1.0000
  S   S210      1.0  0.56067  0.18958  0.32598  1.0000
  H   H1592     1.0  0.71286  0.27207  0.33633  1.0000
  H   H1593     1.0  0.52675  0.10034  0.14436  1.0000
  S   S211      1.0  0.51679  0.15856  0.29351  1.0000
  H   H1594     1.0  0.53908  0.13182  0.15687  1.0000
  S   S212      1.0  0.52691  0.30397  0.28035  1.0000
  H   H1595     1.0  0.71111  0.26116  0.23023  1.0000
  C   C893      1.0  0.52201  0.25333  0.28504  1.0000
  C   C894      1.0  0.52848  0.27171  0.28145  1.0000
  C   C895      1.0  0.51817  0.28086  0.28683  1.0000
  S   S213      1.0  0.50924  0.15541  0.21503  1.0000
  H   H1596     1.0  0.53014  0.24658  0.28076  1.0000
  H   H1597     1.0  0.54162  0.27890  0.27446  1.0000
  H   H1598     1.0  0.54243  0.06994  0.07367  1.0000
  H   H1599     1.0  0.53056  0.12939  0.20829  1.0000
  C   C896      1.0  0.60572  0.19848  0.26757  1.0000
  C   C897      1.0  0.59226  0.20317  0.25879  1.0000
  C   C898      1.0  0.57815  0.20013  0.27623  1.0000
  C   C899      1.0  0.57773  0.19291  0.30297  1.0000
  C   C900      1.0  0.59136  0.18850  0.31194  1.0000
  C   C901      1.0  0.60518  0.19099  0.29412  1.0000
  H   H1600     1.0  0.59278  0.20924  0.23846  1.0000
  H   H1601     1.0  0.56782  0.20379  0.26932  1.0000
  H   H1602     1.0  0.59099  0.18288  0.33255  1.0000
  H   H1603     1.0  0.61556  0.18742  0.30100  1.0000
  C   C902      1.0  0.64599  0.13340  0.41255  1.0000
  C   C903      1.0  0.63156  0.12197  0.39556  1.0000
  C   C904      1.0  0.63028  0.12497  0.36619  1.0000
  C   C905      1.0  0.64326  0.13950  0.35338  1.0000
  C   C906      1.0  0.65758  0.15105  0.37042  1.0000
  C   C907      1.0  0.65897  0.14793  0.39973  1.0000
  H   H1604     1.0  0.62152  0.11067  0.40496  1.0000
  H   H1605     1.0  0.61915  0.11589  0.35327  1.0000
  H   H1606     1.0  0.66769  0.16226  0.36097  1.0000
  H   H1607     1.0  0.67024  0.15680  0.41259  1.0000
  C   C908      1.0  0.63789  0.11622  0.11579  1.0000
  C   C909      1.0  0.63904  0.11501  0.14561  1.0000
  C   C910      1.0  0.64516  0.13021  0.16375  1.0000
  C   C911      1.0  0.65048  0.14687  0.15220  1.0000
  C   C912      1.0  0.64895  0.14804  0.12238  1.0000
  C   C913      1.0  0.64254  0.13282  0.10429  1.0000
  H   H1608     1.0  0.63549  0.10224  0.15475  1.0000
  H   H1609     1.0  0.64632  0.12907  0.18658  1.0000
  H   H1610     1.0  0.65302  0.16086  0.11322  1.0000
  H   H1611     1.0  0.64165  0.13395  0.08145  1.0000
  Fe  Fe105     1.0  0.62900  0.11213  0.48087  1.0000
  H   H1612     1.0  0.51711  0.16562  0.38600  1.0000
  H   H1613     1.0  0.56147  0.19010  0.15756  1.0000
  H   H1614     1.0  0.52675  0.16095  0.35527  1.0000
  C   C914      1.0  0.52979  0.08486  0.05438  1.0000
  H   H1615     1.0  0.68741  0.11232  0.14136  1.0000
  H   H1616     1.0  0.56993  0.00701  0.43129  1.0000
  C   C915      1.0  0.57554  0.15021  0.20307  1.0000
  H   H1617     1.0  0.50828  0.11288  0.41225  1.0000
  C   C916      1.0  0.55619  0.14541  0.29365  1.0000
  H   H1618     1.0  0.54429  0.18858  0.18091  1.0000
  H   H1619     1.0  0.66016  0.22675  0.27570  1.0000
  S   S214      1.0  0.63444  0.08239  0.01207  1.0000
  C   C917      1.0  0.57671  0.02585  0.49592  1.0000
  H   H1620     1.0  0.71033  0.27519  0.26911  1.0000
  C   C918      1.0  0.55786  0.09719  0.01821  1.0000
  H   H1621     1.0  0.69679  0.10976  0.04170  1.0000
  C   C919      1.0  0.72483  0.24228  0.27299  1.0000
  H   H1622     1.0  0.61713  0.16593  0.01069  1.0000
  N   N54       1.0  0.58731  0.13421  0.09036  1.0000
  C   C920      1.0  0.57174  0.13746  0.08044  1.0000
  C   C921      1.0  0.59928  0.13668  0.06591  1.0000
  C   C922      1.0  0.58048  0.11529  0.09919  1.0000
  C   C923      1.0  0.59708  0.14565  0.11603  1.0000
  C   C924      1.0  0.60509  0.16577  0.11246  1.0000
  C   C925      1.0  0.55723  0.13379  0.10200  1.0000
  C   C926      1.0  0.59426  0.10786  0.10487  1.0000
  C   C927      1.0  0.60086  0.15123  0.04449  1.0000
  H   H1623     1.0  0.67936  0.13705  0.00463  1.0000
  C   C928      1.0  0.61291  0.17556  0.14094  1.0000
  C   C929      1.0  0.54247  0.13785  0.08932  1.0000
  C   C930      1.0  0.58542  0.08851  0.11273  1.0000
  H   H1624     1.0  0.56540  0.12910  0.06089  1.0000
  H   H1625     1.0  0.57576  0.15122  0.07392  1.0000
  H   H1626     1.0  0.61264  0.13909  0.07425  1.0000
  H   H1627     1.0  0.59461  0.12435  0.05236  1.0000
  H   H1628     1.0  0.57093  0.10659  0.08267  1.0000
  H   H1629     1.0  0.57319  0.11335  0.11907  1.0000
  H   H1630     1.0  0.58857  0.14251  0.13456  1.0000
  H   H1631     1.0  0.60827  0.14268  0.12287  1.0000
  H   H1632     1.0  0.59520  0.17024  0.10442  1.0000
  H   H1633     1.0  0.61598  0.16965  0.09770  1.0000
  H   H1634     1.0  0.55119  0.11970  0.10753  1.0000
  H   H1635     1.0  0.56261  0.14214  0.12164  1.0000
  H   H1636     1.0  0.60347  0.11513  0.12287  1.0000
  H   H1637     1.0  0.60186  0.10857  0.08577  1.0000
  H   H1638     1.0  0.58864  0.14681  0.03080  1.0000
  H   H1639     1.0  0.60293  0.16381  0.05523  1.0000
  H   H1640     1.0  0.51479  0.10439  0.17236  1.0000
  C   C931      1.0  0.55703  0.15306  0.24127  1.0000
  C   C932      1.0  0.68520  0.11191  0.03429  1.0000
  H   H1641     1.0  0.60261  0.17277  0.15662  1.0000
  H   H1642     1.0  0.62311  0.17168  0.14984  1.0000
  H   H1643     1.0  0.61913  0.18998  0.13773  1.0000
  H   H1644     1.0  0.53201  0.13476  0.10480  1.0000
  H   H1645     1.0  0.54738  0.15198  0.08420  1.0000
  H   H1646     1.0  0.53656  0.12965  0.06958  1.0000
  H   H1647     1.0  0.59551  0.08352  0.11696  1.0000
  H   H1648     1.0  0.57791  0.08697  0.13224  1.0000
  H   H1649     1.0  0.57650  0.08042  0.09492  1.0000
  N   N55       1.0  0.61735  0.17045  0.39127  1.0000
  C   C933      1.0  0.61307  0.15613  0.41265  1.0000
  C   C934      1.0  0.61330  0.16222  0.36148  1.0000
  C   C935      1.0  0.63686  0.18170  0.39412  1.0000
  C   C936      1.0  0.60804  0.18211  0.39610  1.0000
  C   C937      1.0  0.58936  0.17329  0.40750  1.0000
  C   C938      1.0  0.61968  0.16249  0.44385  1.0000
  C   C939      1.0  0.64448  0.19588  0.37140  1.0000
  C   C940      1.0  0.59455  0.14799  0.35424  1.0000
  C   C941      1.0  0.59361  0.13910  0.32512  1.0000
  C   C942      1.0  0.58043  0.18576  0.40611  1.0000
  C   C943      1.0  0.61067  0.14796  0.46472  1.0000
  C   C944      1.0  0.66384  0.20761  0.37808  1.0000
  H   H1650     1.0  0.61873  0.14684  0.40640  1.0000
  H   H1651     1.0  0.59882  0.14793  0.41277  1.0000
  H   H1652     1.0  0.61559  0.17242  0.34532  1.0000
  H   H1653     1.0  0.62246  0.15624  0.35689  1.0000
  H   H1654     1.0  0.64405  0.17323  0.39341  1.0000
  H   H1655     1.0  0.64057  0.18882  0.41523  1.0000
  H   H1656     1.0  0.61568  0.19305  0.41176  1.0000
  H   H1657     1.0  0.60738  0.18883  0.37612  1.0000
  H   H1658     1.0  0.58996  0.16986  0.43014  1.0000
  H   H1659     1.0  0.58090  0.16105  0.39540  1.0000
  H   H1660     1.0  0.63395  0.16617  0.44625  1.0000
  H   H1661     1.0  0.61737  0.17412  0.45004  1.0000
  H   H1662     1.0  0.63739  0.20439  0.37015  1.0000
  H   H1663     1.0  0.64355  0.18952  0.35019  1.0000
  H   H1664     1.0  0.59021  0.13743  0.36993  1.0000
  H   H1665     1.0  0.58524  0.15412  0.35286  1.0000
  H   H1666     1.0  0.60212  0.13200  0.32548  1.0000
  H   H1667     1.0  0.57999  0.12936  0.31977  1.0000
  H   H1668     1.0  0.59784  0.14899  0.30819  1.0000
  H   H1669     1.0  0.57836  0.18864  0.38360  1.0000
  H   H1670     1.0  0.56751  0.17958  0.41574  1.0000
  H   H1671     1.0  0.58842  0.19833  0.41809  1.0000
  H   H1672     1.0  0.54715  0.03069  0.08853  1.0000
  H   H1673     1.0  0.69894  0.25707  0.29016  1.0000
  Fe  Fe106     1.0  0.52002  0.32745  0.28863  1.0000
  H   H1674     1.0  0.66902  0.21728  0.36102  1.0000
  H   H1675     1.0  0.66570  0.21492  0.39877  1.0000
  H   H1676     1.0  0.67142  0.19953  0.37893  1.0000
  N   N56       1.0  0.68674  0.12962  0.04541  1.0000
  C   C945      1.0  0.67547  0.13575  0.02708  1.0000
  H   H1677     1.0  0.54510  0.11207  0.99888  1.0000
  C   C946      1.0  0.67979  0.12715  0.07505  1.0000
  C   C947      1.0  0.70559  0.14296  0.04763  1.0000
  H   H1678     1.0  0.56199  0.02881  0.06354  1.0000
  C   C948      1.0  0.67528  0.15353  0.03629  1.0000
  C   C949      1.0  0.68910  0.11999  0.09717  1.0000
  H   H1679     1.0  0.53046  0.03711  0.05044  1.0000
  H   H1680     1.0  0.54041  0.00355  0.00501  1.0000
  H   H1681     1.0  0.50207  0.31247  0.44199  1.0000
  C   C950      1.0  0.67982  0.11618  0.12529  1.0000
  H   H1682     1.0  0.61322  0.14318  0.01092  1.0000
  C   C951      1.0  0.53919  0.03097  0.04413  1.0000
  C   C952      1.0  0.51983  0.14291  0.48648  1.0000
  C   C953      1.0  0.58334  0.00810  0.42847  1.0000
  H   H1683     1.0  0.66560  0.11808  0.07397  1.0000
  H   H1684     1.0  0.68079  0.13978  0.08456  1.0000
  H   H1685     1.0  0.71372  0.13754  0.05958  1.0000
  C   C954      1.0  0.71466  0.14923  0.01923  1.0000
  H   H1686     1.0  0.55052  0.01552  0.47713  1.0000
  H   H1687     1.0  0.66840  0.15223  0.05640  1.0000
  H   H1688     1.0  0.70272  0.12988  0.10206  1.0000
  H   H1689     1.0  0.68942  0.10760  0.08935  1.0000
  H   H1690     1.0  0.49898  0.31524  0.20264  1.0000
  H   H1691     1.0  0.49980  0.32814  0.41819  1.0000
  C   C955      1.0  0.49992  0.13451  0.16614  1.0000
  H   H1692     1.0  0.71604  0.29447  0.34308  1.0000
  H   H1693     1.0  0.51447  0.03768  0.01288  1.0000
  C   C956      1.0  0.56008  0.01232  0.48859  1.0000
  H   H1694     1.0  0.56133  0.04983  0.07011  1.0000
  H   H1695     1.0  0.66540  0.17208  0.02105  1.0000
  H   H1696     1.0  0.66663  0.10511  0.12221  1.0000
  H   H1697     1.0  0.67853  0.12800  0.13377  1.0000
  H   H1698     1.0  0.58623  0.02649  0.03854  1.0000
  H   H1699     1.0  0.69787  0.23082  0.20894  1.0000
  C   C957      1.0  0.54292  0.07897  0.05715  1.0000
  H   H1700     1.0  0.67406  0.07981  0.00420  1.0000
  C   C958      1.0  0.67335  0.28949  0.25650  1.0000
  H   H1701     1.0  0.67604  0.27410  0.22223  1.0000
  C   C959      1.0  0.64619  0.23184  0.30916  1.0000
  C   C960      1.0  0.66238  0.23761  0.29135  1.0000
  H   H1702     1.0  0.54518  0.11993  0.21636  1.0000
  H   H1703     1.0  0.53856  0.12899  0.26045  1.0000
  H   H1704     1.0  0.62846  0.15872  0.03718  1.0000
  H   H1705     1.0  0.64818  0.24171  0.32659  1.0000
  H   H1706     1.0  0.67034  0.31360  0.24945  1.0000
  H   H1707     1.0  0.55182  0.13442  0.30865  1.0000
  C   C961      1.0  0.54355  0.12997  0.20302  1.0000
  H   H1708     1.0  0.58634  0.14205  0.24006  1.0000
  H   H1709     1.0  0.70211  0.29493  0.29661  1.0000
  H   H1710     1.0  0.57803  0.18508  0.19898  1.0000
  H   H1711     1.0  0.67364  0.23939  0.30595  1.0000
  H   H1712     1.0  0.56587  0.20619  0.18624  1.0000
  C   C962      1.0  0.68265  0.27868  0.24374  1.0000
  H   H1713     1.0  0.52033  0.10122  0.03083  1.0000
  H   H1714     1.0  0.57635  0.14900  0.17960  1.0000
  S   S215      1.0  0.62303  0.11496  0.01992  1.0000
  H   H1715     1.0  0.67372  0.10098  0.04331  1.0000
  H   H1716     1.0  0.67051  0.24347  0.22631  1.0000
  H   H1717     1.0  0.55459  0.12283  0.16575  1.0000
  H   H1718     1.0  0.53115  0.05754  0.00217  1.0000
  H   H1719     1.0  0.66392  0.26387  0.29111  1.0000
  H   H1720     1.0  0.60382  0.13016  0.21526  1.0000
  H   H1721     1.0  0.57036  0.15359  0.29781  1.0000
  C   C963      1.0  0.51671  0.30738  0.18130  1.0000
  H   H1722     1.0  0.59259  0.01919  0.44246  1.0000
  H   H1723     1.0  0.74117  0.16019  0.03855  1.0000
  H   H1724     1.0  0.55584  0.15936  0.16921  1.0000
  H   H1725     1.0  0.52319  0.29838  0.18376  1.0000
  H   H1726     1.0  0.51011  0.30512  0.15980  1.0000
  H   H1727     1.0  0.54901  0.15358  0.29775  1.0000
  H   H1728     1.0  0.50633  0.27846  0.22825  1.0000
  C   C964      1.0  0.58003  0.01488  0.02469  1.0000
  H   H1729     1.0  0.69810  0.26747  0.20579  1.0000
  H   H1730     1.0  0.65208  0.14955  0.00973  1.0000
  Fe  Fe107     1.0  0.50563  0.19857  0.29499  1.0000
  C   C965      1.0  0.55346  0.16092  0.19202  1.0000
  H   H1731     1.0  0.61325  0.13632  0.45964  1.0000
  H   H1732     1.0  0.64362  0.21903  0.31880  1.0000
  C   C966      1.0  0.52762  0.10468  0.16710  1.0000
  H   H1733     1.0  0.54600  0.14809  0.47451  1.0000
  C   C967      1.0  0.53110  0.32615  0.18279  1.0000
  C   C968      1.0  0.68305  0.24969  0.23938  1.0000
  H   H1734     1.0  0.56089  0.18382  0.22186  1.0000
  N   N57       1.0  0.52871  0.13169  0.44037  1.0000
  C   C969      1.0  0.53270  0.13704  0.47163  1.0000
  C   C970      1.0  0.54316  0.12785  0.42830  1.0000
  C   C971      1.0  0.52789  0.14703  0.42487  1.0000
  C   C972      1.0  0.51124  0.11615  0.43542  1.0000
  H   H1735     1.0  0.56031  0.13035  0.25997  1.0000
  Fe  Fe108     1.0  0.59623  0.09577  0.00492  1.0000
  C   C973      1.0  0.52686  0.14554  0.39171  1.0000
  C   C974      1.0  0.55251  0.11974  0.44856  1.0000
  C   C975      1.0  0.56338  0.11241  0.43211  1.0000
  H   H1736     1.0  0.68439  0.23878  0.25087  1.0000
  C   C976      1.0  0.52791  0.16254  0.37885  1.0000
  C   C977      1.0  0.61590  0.15497  0.02472  1.0000
  H   H1737     1.0  0.66168  0.12554  0.02617  1.0000
  H   H1738     1.0  0.53818  0.11915  0.40875  1.0000
  H   H1739     1.0  0.55390  0.14024  0.42134  1.0000
  H   H1740     1.0  0.53943  0.15944  0.43151  1.0000
  H   H1741     1.0  0.51616  0.14898  0.43077  1.0000
  H   H1742     1.0  0.54674  0.15795  0.24403  1.0000
  H   H1743     1.0  0.68871  0.16410  0.03940  1.0000
  H   H1744     1.0  0.59634  0.14396  0.46386  1.0000
  H   H1745     1.0  0.67363  0.30343  0.21748  1.0000
  H   H1746     1.0  0.65893  0.28162  0.25457  1.0000
  N   N58       1.0  0.68232  0.26321  0.26036  1.0000
  H   H1747     1.0  0.51429  0.13479  0.38375  1.0000
  H   H1748     1.0  0.53768  0.14303  0.38315  1.0000
  H   H1749     1.0  0.56147  0.13007  0.46401  1.0000
  H   H1750     1.0  0.54327  0.10893  0.46097  1.0000
  H   H1751     1.0  0.55472  0.10085  0.41845  1.0000
  H   H1752     1.0  0.57265  0.12258  0.41863  1.0000
  H   H1753     1.0  0.57097  0.10808  0.44743  1.0000
  C   C978      1.0  0.55849  0.19205  0.17985  1.0000
  Fe  Fe109     1.0  0.50789  0.16966  0.25639  1.0000
  C   C979      1.0  0.54220  0.12327  0.17166  1.0000
  H   H1754     1.0  0.54061  0.17377  0.38482  1.0000
  H   H1755     1.0  0.72321  0.22872  0.23299  1.0000
  H   H1756     1.0  0.53936  0.15790  0.19253  1.0000
  H   H1757     1.0  0.53323  0.12622  0.48434  1.0000
  S   S216      1.0  0.51287  0.07788  0.07803  1.0000
  Fe  Fe110     1.0  0.60623  0.06526  0.99795  1.0000
  H   H1758     1.0  0.53030  0.09522  0.18053  1.0000
  C   C980      1.0  0.73047  0.24056  0.24593  1.0000
  H   H1759     1.0  0.70697  0.15474  0.06060  1.0000
  C   C981      1.0  0.54451  0.10278  0.01504  1.0000
  H   H1760     1.0  0.58553  0.16372  0.20913  1.0000
  C   C982      1.0  0.55267  0.13812  0.26294  1.0000
  H   H1761     1.0  0.70795  0.24707  0.18280  1.0000
  C   C983      1.0  0.55691  0.08512  0.03900  1.0000
  C   C984      1.0  0.56374  0.18082  0.20007  1.0000
  H   H1762     1.0  0.56725  0.08102  0.04190  1.0000
  H   H1763     1.0  0.51098  0.30771  0.22589  1.0000
  C   C985      1.0  0.53046  0.09660  0.03311  1.0000
  H   H1764     1.0  0.59412  0.13131  0.18106  1.0000
  C   C986      1.0  0.59803  0.13766  0.20268  1.0000
  H   H1765     1.0  0.65410  0.25112  0.25965  1.0000
  C   C987      1.0  0.58217  0.13758  0.21749  1.0000
  H   H1766     1.0  0.63451  0.23018  0.29559  1.0000
  C   C988      1.0  0.50493  0.24368  0.29357  1.0000
  H   H1767     1.0  0.69181  0.31518  0.24273  1.0000
  H   H1768     1.0  0.54039  0.32780  0.16574  1.0000
  C   C989      1.0  0.69957  0.28188  0.30531  1.0000
  H   H1769     1.0  0.69723  0.09217  0.99894  1.0000
  H   H1770     1.0  0.69639  0.28794  0.23975  1.0000
  H   H1771     1.0  0.51359  0.01009  0.00310  1.0000
  S   S217      1.0  0.49552  0.22022  0.29663  1.0000
  H   H1772     1.0  0.50633  0.13236  0.48494  1.0000
  C   C990      1.0  0.73280  0.16435  0.02456  1.0000
  C   C991      1.0  0.49524  0.14503  0.18456  1.0000
  H   H1773     1.0  0.73179  0.17593  0.03468  1.0000
  H   H1774     1.0  0.70714  0.15404  0.00469  1.0000
  C   C992      1.0  0.54738  0.03796  0.01524  1.0000
  C   C993      1.0  0.66573  0.15959  0.01368  1.0000
  H   H1775     1.0  0.51766  0.09352  0.43945  1.0000
  C   C994      1.0  0.68258  0.10819  0.00151  1.0000
  C   C995      1.0  0.67759  0.30645  0.24047  1.0000
  C   C996      1.0  0.73478  0.25767  0.28966  1.0000
  C   C997      1.0  0.49866  0.11255  0.24572  1.0000
  C   C998      1.0  0.69698  0.24189  0.19743  1.0000
  C   C999      1.0  0.55333  0.03538  0.06796  1.0000
  C   C1000     1.0  0.71492  0.28463  0.32610  1.0000
  C   C1001     1.0  0.69810  0.26877  0.28074  1.0000
  H   H1776     1.0  0.67701  0.29312  0.27931  1.0000
  C   C1002     1.0  0.69825  0.25650  0.21850  1.0000
  H   H1777     1.0  0.68444  0.23688  0.18453  1.0000
  H   H1778     1.0  0.58682  0.01117  0.40599  1.0000
  H   H1779     1.0  0.53155  0.01646  0.04307  1.0000
  H   H1780     1.0  0.50062  0.11951  0.44250  1.0000
  C   C1003     1.0  0.50117  0.27127  0.29575  1.0000
  H   H1781     1.0  0.50966  0.33037  0.49547  1.0000
  C   C1004     1.0  0.49604  0.27353  0.21061  1.0000
  C   C1005     1.0  0.50906  0.09881  0.44931  1.0000
  H   H1782     1.0  0.55509  0.05238  0.01854  1.0000
  H   H1783     1.0  0.73071  0.25909  0.31075  1.0000
  H   H1784     1.0  0.49990  0.11255  0.22223  1.0000
  H   H1785     1.0  0.51192  0.10063  0.47266  1.0000
  H   H1786     1.0  0.50276  0.27192  0.19156  1.0000
  S   S218      1.0  0.58131  0.04784  0.48626  1.0000
  H   H1787     1.0  0.71655  0.13835  0.00847  1.0000
  Fe  Fe111     1.0  0.49632  0.16150  0.31921  1.0000
  H   H1788     1.0  0.55732  0.03286  0.01102  1.0000
  H   H1789     1.0  0.53846  0.32891  0.20376  1.0000
  H   H1790     1.0  0.50493  0.10447  0.25518  1.0000
  H   H1791     1.0  0.53326  0.06436  0.48932  1.0000
  H   H1792     1.0  0.50001  0.00771  0.47504  1.0000
  H   H1793     1.0  0.73918  0.16837  0.00394  1.0000
  H   H1794     1.0  0.50564  0.12624  0.25454  1.0000
  H   H1795     1.0  0.61583  0.15277  0.48680  1.0000
  C   C1006     1.0  0.50345  0.32620  0.44043  1.0000
  H   H1796     1.0  0.56384  0.08725  0.49255  1.0000
  C   C1007     1.0  0.49540  0.32628  0.49237  1.0000
  S   S219      1.0  0.49494  0.32785  0.30309  1.0000
  H   H1797     1.0  0.74438  0.22204  0.35825  1.0000
  H   H1798     1.0  0.50919  0.21001  0.66687  1.0000
  H   H1799     1.0  0.68142  0.08857  0.96987  1.0000
  H   H1800     1.0  0.55933  0.28407  0.73021  1.0000
  H   H1801     1.0  0.60476  0.14182  0.57150  1.0000
  Fe  Fe112     1.0  0.62477  0.10385  0.54520  1.0000
  S   S220      1.0  0.62605  0.12671  0.51977  1.0000
  S   S221      1.0  0.63532  0.10507  0.59137  1.0000
  H   H1802     1.0  0.58874  0.28373  0.72960  1.0000
  C   C1008     1.0  0.69539  0.18566  0.61642  1.0000
  C   C1009     1.0  0.50742  0.25738  0.76297  1.0000
  S   S222      1.0  0.65309  0.12387  0.95807  1.0000
  S   S223      1.0  0.59568  0.08881  0.53856  1.0000
  C   C1010     1.0  0.69566  0.19286  0.64661  1.0000
  Fe  Fe113     1.0  0.65945  0.17029  0.73443  1.0000
  S   S224      1.0  0.66888  0.19872  0.74914  1.0000
  S   S225      1.0  0.65454  0.16736  0.68572  1.0000
  Fe  Fe114     1.0  0.65972  0.15875  0.79711  1.0000
  S   S226      1.0  0.66990  0.18646  0.81499  1.0000
  S   S227      1.0  0.64848  0.13402  0.82354  1.0000
  Fe  Fe115     1.0  0.65000  0.18862  0.78400  1.0000
  S   S228      1.0  0.63289  0.20171  0.79824  1.0000
  Fe  Fe116     1.0  0.68808  0.19422  0.77832  1.0000
  S   S229      1.0  0.71780  0.21151  0.78093  1.0000
  S   S230      1.0  0.63912  0.16071  0.76741  1.0000
  S   S231      1.0  0.67939  0.16596  0.76245  1.0000
  C   C1011     1.0  0.70074  0.21241  0.70052  1.0000
  S   S232      1.0  0.52560  0.18129  0.82233  1.0000
  H   H1803     1.0  0.66283  0.19307  0.88345  1.0000
  H   H1804     1.0  0.57109  0.00517  0.58419  1.0000
  S   S233      1.0  0.52248  0.18874  0.75375  1.0000
  Fe  Fe117     1.0  0.53052  0.17108  0.78045  1.0000
  S   S234      1.0  0.55145  0.16252  0.76794  1.0000
  Fe  Fe118     1.0  0.51514  0.19727  0.79531  1.0000
  C   C1012     1.0  0.51479  0.27097  0.81018  1.0000
  H   H1805     1.0  0.50137  0.32565  0.59907  1.0000
  H   H1806     1.0  0.57272  0.26471  0.74603  1.0000
  H   H1807     1.0  0.74316  0.29777  0.80558  1.0000
  C   C1013     1.0  0.51615  0.24263  0.80068  1.0000
  H   H1808     1.0  0.55444  0.29842  0.85285  1.0000
  H   H1809     1.0  0.71332  0.16023  0.72586  1.0000
  C   C1014     1.0  0.50936  0.27142  0.78178  1.0000
  C   C1015     1.0  0.53644  0.07664  0.50098  1.0000
  H   H1810     1.0  0.54241  0.29671  0.75550  1.0000
  Fe  Fe119     1.0  0.59747  0.11070  0.51066  1.0000
  H   H1811     1.0  0.60384  0.09183  0.63224  1.0000
  H   H1812     1.0  0.54669  0.14679  0.70186  1.0000
  C   C1016     1.0  0.61025  0.19113  0.78936  1.0000
  C   C1017     1.0  0.59925  0.19893  0.79756  1.0000
  C   C1018     1.0  0.58111  0.19046  0.79100  1.0000
  C   C1019     1.0  0.57397  0.17412  0.77632  1.0000
  C   C1020     1.0  0.58498  0.16637  0.76826  1.0000
  C   C1021     1.0  0.60301  0.17487  0.77461  1.0000
  H   H1813     1.0  0.60476  0.21153  0.80900  1.0000
  H   H1814     1.0  0.57267  0.19650  0.79737  1.0000
  H   H1815     1.0  0.57946  0.15358  0.75747  1.0000
  H   H1816     1.0  0.61122  0.16874  0.76812  1.0000
  C   C1022     1.0  0.65091  0.12690  0.92084  1.0000
  C   C1023     1.0  0.66208  0.14287  0.90899  1.0000
  C   C1024     1.0  0.66120  0.14551  0.87942  1.0000
  C   C1025     1.0  0.64932  0.13204  0.86124  1.0000
  C   C1026     1.0  0.63800  0.11618  0.87317  1.0000
  C   C1027     1.0  0.63865  0.11367  0.90278  1.0000
  H   H1817     1.0  0.67161  0.15321  0.92271  1.0000
  H   H1818     1.0  0.67002  0.15776  0.87058  1.0000
  H   H1819     1.0  0.62880  0.10564  0.85935  1.0000
  H   H1820     1.0  0.63000  0.10129  0.91150  1.0000
  C   C1028     1.0  0.64038  0.12247  0.61741  1.0000
  C   C1029     1.0  0.64156  0.13906  0.61022  1.0000
  C   C1030     1.0  0.64605  0.15260  0.63141  1.0000
  C   C1031     1.0  0.64923  0.14973  0.66010  1.0000
  C   C1032     1.0  0.64791  0.13310  0.66737  1.0000
  C   C1033     1.0  0.64359  0.11961  0.64612  1.0000
  H   H1821     1.0  0.63920  0.14152  0.58827  1.0000
  H   H1822     1.0  0.64704  0.16539  0.62547  1.0000
  H   H1823     1.0  0.65037  0.13067  0.68929  1.0000
  H   H1824     1.0  0.64283  0.10688  0.65194  1.0000
  C   C1034     1.0  0.51827  0.25674  0.81947  1.0000
  H   H1825     1.0  0.64593  0.19710  0.90025  1.0000
  H   H1826     1.0  0.51537  0.15093  0.52849  1.0000
  C   C1035     1.0  0.51073  0.24309  0.77235  1.0000
  H   H1827     1.0  0.49529  0.19532  0.85027  1.0000
  H   H1828     1.0  0.64813  0.19896  0.86201  1.0000
  C   C1036     1.0  0.54923  0.31023  0.74767  1.0000
  C   C1037     1.0  0.50615  0.14088  0.92827  1.0000
  C   C1038     1.0  0.54461  0.10878  0.52988  1.0000
  C   C1039     1.0  0.52749  0.09557  0.52899  1.0000
  H   H1829     1.0  0.51835  0.30060  0.71285  1.0000
  H   H1830     1.0  0.58475  0.12701  0.58648  1.0000
  H   H1831     1.0  0.54773  0.12118  0.54113  1.0000
  H   H1832     1.0  0.51765  0.09763  0.54034  1.0000
  H   H1833     1.0  0.58937  0.31184  0.76796  1.0000
  C   C1040     1.0  0.59437  0.14103  0.58601  1.0000
  H   H1834     1.0  0.52171  0.32486  0.59105  1.0000
  C   C1041     1.0  0.73072  0.23405  0.77336  1.0000
  H   H1835     1.0  0.51507  0.01208  0.96578  1.0000
  H   H1836     1.0  0.52230  0.21056  0.69835  1.0000
  C   C1042     1.0  0.58456  0.00384  0.51789  1.0000
  C   C1043     1.0  0.51094  0.04339  0.96938  1.0000
  C   C1044     1.0  0.52325  0.07974  0.51373  1.0000
  H   H1837     1.0  0.55113  0.00729  0.57610  1.0000
  H   H1838     1.0  0.55463  0.03478  0.96180  1.0000
  C   C1045     1.0  0.56822  0.32220  0.79087  1.0000
  Fe  Fe120     1.0  0.63219  0.10326  0.98417  1.0000
  C   C1046     1.0  0.55373  0.08962  0.50274  1.0000
  C   C1047     1.0  0.52316  0.20294  0.89254  1.0000
  H   H1839     1.0  0.51842  0.04939  0.95043  1.0000
  C   C1048     1.0  0.55770  0.10588  0.51654  1.0000
  H   H1840     1.0  0.58450  0.31244  0.73118  1.0000
  C   C1049     1.0  0.56052  0.30565  0.80906  1.0000
  H   H1841     1.0  0.57337  0.31902  0.84933  1.0000
  C   C1050     1.0  0.49853  0.13114  0.66129  1.0000
  N   N59       1.0  0.59440  0.15138  0.66782  1.0000
  C   C1051     1.0  0.57939  0.15163  0.68404  1.0000
  C   C1052     1.0  0.60942  0.16953  0.66992  1.0000
  C   C1053     1.0  0.58841  0.14748  0.63669  1.0000
  C   C1054     1.0  0.60029  0.13761  0.67785  1.0000
  C   C1055     1.0  0.59867  0.13312  0.70989  1.0000
  C   C1056     1.0  0.56168  0.13518  0.67939  1.0000
  C   C1057     1.0  0.60246  0.14799  0.61583  1.0000
  C   C1058     1.0  0.61661  0.17729  0.70030  1.0000
  C   C1059     1.0  0.63043  0.19630  0.69934  1.0000
  C   C1060     1.0  0.60890  0.12237  0.71765  1.0000
  C   C1061     1.0  0.54882  0.13458  0.70190  1.0000
  C   C1062     1.0  0.56000  0.31058  0.84038  1.0000
  H   H1842     1.0  0.57697  0.16329  0.67821  1.0000
  H   H1843     1.0  0.58261  0.15343  0.70726  1.0000
  H   H1844     1.0  0.62088  0.16963  0.65881  1.0000
  H   H1845     1.0  0.60556  0.17911  0.65883  1.0000
  H   H1846     1.0  0.58303  0.15679  0.62901  1.0000
  H   H1847     1.0  0.57754  0.13406  0.63380  1.0000
  H   H1848     1.0  0.59283  0.12481  0.66597  1.0000
  H   H1849     1.0  0.61414  0.14148  0.67253  1.0000
  H   H1850     1.0  0.58478  0.12513  0.71454  1.0000
  H   H1851     1.0  0.60355  0.14493  0.72424  1.0000
  H   H1852     1.0  0.55553  0.13559  0.65824  1.0000
  H   H1853     1.0  0.56348  0.12283  0.68004  1.0000
  H   H1854     1.0  0.60898  0.13971  0.62334  1.0000
  H   H1855     1.0  0.61250  0.16167  0.61368  1.0000
  H   H1856     1.0  0.60621  0.17749  0.71377  1.0000
  H   H1857     1.0  0.62306  0.16967  0.71063  1.0000
  H   H1858     1.0  0.64167  0.19697  0.68701  1.0000
  H   H1859     1.0  0.62477  0.20481  0.68957  1.0000
  H   H1860     1.0  0.63532  0.20143  0.72143  1.0000
  H   H1861     1.0  0.60454  0.11033  0.70366  1.0000
  H   H1862     1.0  0.62313  0.13042  0.71542  1.0000
  H   H1863     1.0  0.60684  0.11832  0.74008  1.0000
  H   H1864     1.0  0.53602  0.12316  0.69725  1.0000
  H   H1865     1.0  0.49667  0.20208  0.72799  1.0000
  S   S235      1.0  0.50413  0.14796  0.77729  1.0000
  H   H1866     1.0  0.53626  0.03569  0.94401  1.0000
  C   C1063     1.0  0.57826  0.30856  0.75202  1.0000
  H   H1867     1.0  0.50541  0.14524  0.70219  1.0000
  H   H1868     1.0  0.50306  0.04645  0.56841  1.0000
  N   N60       1.0  0.57946  0.04200  0.59032  1.0000
  C   C1064     1.0  0.59614  0.04043  0.58403  1.0000
  C   C1065     1.0  0.56865  0.02685  0.60847  1.0000
  C   C1066     1.0  0.56981  0.04149  0.56245  1.0000
  C   C1067     1.0  0.58318  0.05907  0.60630  1.0000
  C   C1068     1.0  0.59583  0.06345  0.63303  1.0000
  C   C1069     1.0  0.55196  0.04244  0.56461  1.0000
  H   H1869     1.0  0.73488  0.17694  0.71969  1.0000
  C   C1070     1.0  0.73460  0.26425  0.76656  1.0000
  C   C1071     1.0  0.59838  0.08093  0.64735  1.0000
  C   C1072     1.0  0.54319  0.04091  0.53502  1.0000
  H   H1870     1.0  0.59327  0.02840  0.57065  1.0000
  H   H1871     1.0  0.57665  0.02622  0.62741  1.0000
  H   H1872     1.0  0.55765  0.02900  0.61740  1.0000
  H   H1873     1.0  0.56779  0.02958  0.54941  1.0000
  H   H1874     1.0  0.57782  0.05265  0.54927  1.0000
  H   H1875     1.0  0.58843  0.07038  0.59192  1.0000
  H   H1876     1.0  0.57082  0.05907  0.61372  1.0000
  H   H1877     1.0  0.59063  0.05303  0.64892  1.0000
  C   C1073     1.0  0.53280  0.00258  0.98482  1.0000
  H   H1878     1.0  0.55376  0.05527  0.57438  1.0000
  H   H1879     1.0  0.54290  0.03170  0.57748  1.0000
  H   H1880     1.0  0.74141  0.24999  0.84889  1.0000
  C   C1074     1.0  0.56391  0.06558  0.93309  1.0000
  N   N61       1.0  0.53465  0.03420  0.98997  1.0000
  H   H1881     1.0  0.60776  0.08399  0.66603  1.0000
  Fe  Fe121     1.0  0.49856  0.15937  0.81732  1.0000
  H   H1882     1.0  0.51627  0.28157  0.82502  1.0000
  H   H1883     1.0  0.54047  0.02801  0.52449  1.0000
  C   C1075     1.0  0.69194  0.22384  0.68763  1.0000
  S   S236      1.0  0.50455  0.28888  0.76857  1.0000
  C   C1076     1.0  0.50891  0.20436  0.68820  1.0000
  H   H1884     1.0  0.52542  0.13581  0.52907  1.0000
  C   C1077     1.0  0.62706  0.05417  0.56654  1.0000
  N   N62       1.0  0.56799  0.31903  0.75905  1.0000
  S   S237      1.0  0.60521  0.08551  0.96762  1.0000
  H   H1885     1.0  0.72538  0.24114  0.67662  1.0000
  H   H1886     1.0  0.57289  0.05922  0.92962  1.0000
  H   H1887     1.0  0.66934  0.10658  0.99426  1.0000
  H   H1888     1.0  0.56635  0.06564  0.97874  1.0000
  C   C1078     1.0  0.56800  0.28814  0.74982  1.0000
  H   H1889     1.0  0.53526  0.18504  0.88374  1.0000
  C   C1079     1.0  0.50325  0.14461  0.89980  1.0000
  H   H1890     1.0  0.73142  0.23777  0.71187  1.0000
  S   S238      1.0  0.52064  0.22493  0.81355  1.0000
  C   C1080     1.0  0.58899  0.02144  0.51042  1.0000
  H   H1891     1.0  0.50119  0.22229  0.71003  1.0000
  C   C1081     1.0  0.71390  0.20780  0.65552  1.0000
  S   S239      1.0  0.50145  0.06414  0.50942  1.0000
  H   H1892     1.0  0.53790  0.19293  0.92039  1.0000
  C   C1082     1.0  0.68394  0.09113  0.99327  1.0000
  C   C1083     1.0  0.52817  0.29634  0.70465  1.0000
  H   H1893     1.0  0.58889  0.28217  0.76810  1.0000
  C   C1084     1.0  0.57388  0.00110  0.97757  1.0000
  H   H1894     1.0  0.73707  0.20427  0.69408  1.0000
  H   H1895     1.0  0.50505  0.18997  0.68556  1.0000
  H   H1896     1.0  0.69165  0.18165  0.66103  1.0000
  H   H1897     1.0  0.53816  0.15862  0.52086  1.0000
  H   H1898     1.0  0.54702  0.29687  0.80156  1.0000
  C   C1085     1.0  0.52509  0.14734  0.51814  1.0000
  H   H1899     1.0  0.55612  0.30563  0.70424  1.0000
  H   H1900     1.0  0.52534  0.28294  0.71213  1.0000
  H   H1901     1.0  0.55366  0.06140  0.91556  1.0000
  C   C1086     1.0  0.49623  0.20782  0.70704  1.0000
  H   H1902     1.0  0.67757  0.21565  0.68536  1.0000
  H   H1903     1.0  0.54844  0.32254  0.70702  1.0000
  H   H1904     1.0  0.55379  0.13316  0.72351  1.0000
  H   H1905     1.0  0.52620  0.21438  0.90730  1.0000
  H   H1906     1.0  0.68212  0.17526  0.61057  1.0000
  H   H1907     1.0  0.55175  0.05160  0.52142  1.0000
  H   H1908     1.0  0.70484  0.17968  0.61520  1.0000
  H   H1909     1.0  0.57154  0.08009  0.93251  1.0000
  H   H1910     1.0  0.68931  0.23583  0.72776  1.0000
  H   H1911     1.0  0.72217  0.18021  0.74761  1.0000
  N   N63       1.0  0.60417  0.15056  0.86686  1.0000
  C   C1087     1.0  0.58613  0.14992  0.86896  1.0000
  C   C1088     1.0  0.60625  0.13816  0.88810  1.0000
  C   C1089     1.0  0.61751  0.16927  0.87290  1.0000
  C   C1090     1.0  0.60688  0.14496  0.83743  1.0000
  C   C1091     1.0  0.59310  0.12676  0.82584  1.0000
  C   C1092     1.0  0.58054  0.15973  0.84576  1.0000
  C   C1093     1.0  0.63683  0.17199  0.87652  1.0000
  C   C1094     1.0  0.60511  0.14269  0.91993  1.0000
  C   C1095     1.0  0.60791  0.12960  0.93941  1.0000
  C   C1096     1.0  0.59663  0.12334  0.79520  1.0000
  C   C1097     1.0  0.56223  0.15841  0.85061  1.0000
  C   C1098     1.0  0.64912  0.19150  0.88086  1.0000
  H   H1912     1.0  0.58506  0.15584  0.88975  1.0000
  H   H1913     1.0  0.57604  0.13604  0.86891  1.0000
  H   H1914     1.0  0.59591  0.12459  0.88395  1.0000
  H   H1915     1.0  0.61877  0.13703  0.88543  1.0000
  H   H1916     1.0  0.61436  0.17496  0.89229  1.0000
  H   H1917     1.0  0.61703  0.17783  0.85526  1.0000
  H   H1918     1.0  0.60770  0.15506  0.82169  1.0000
  H   H1919     1.0  0.61970  0.14423  0.83690  1.0000
  H   H1920     1.0  0.57964  0.12587  0.82586  1.0000
  H   H1921     1.0  0.59366  0.11604  0.83880  1.0000
  H   H1922     1.0  0.58966  0.17390  0.84606  1.0000
  H   H1923     1.0  0.58021  0.15399  0.82423  1.0000
  H   H1924     1.0  0.64091  0.16705  0.85740  1.0000
  H   H1925     1.0  0.63884  0.16508  0.89531  1.0000
  H   H1926     1.0  0.61509  0.15605  0.92634  1.0000
  H   H1927     1.0  0.59199  0.14200  0.92407  1.0000
  H   H1928     1.0  0.60612  0.13255  0.96186  1.0000
  H   H1929     1.0  0.59833  0.11589  0.93374  1.0000
  H   H1930     1.0  0.62135  0.13061  0.93788  1.0000
  H   H1931     1.0  0.60985  0.12357  0.79418  1.0000
  H   H1932     1.0  0.58679  0.11019  0.78736  1.0000
  H   H1933     1.0  0.59576  0.13347  0.78104  1.0000
  H   H1934     1.0  0.55243  0.14444  0.84928  1.0000
  H   H1935     1.0  0.56182  0.16432  0.87175  1.0000
  H   H1936     1.0  0.55855  0.16564  0.83393  1.0000
  C   C1099     1.0  0.50820  0.32159  0.58263  1.0000
  H   H1937     1.0  0.70981  0.24223  0.77373  1.0000
  H   H1938     1.0  0.52250  0.25662  0.84145  1.0000
  H   H1939     1.0  0.58579  0.08024  0.65479  1.0000
  C   C1100     1.0  0.72152  0.17466  0.72570  1.0000
  H   H1940     1.0  0.63294  0.05489  0.58833  1.0000
  H   H1941     1.0  0.70003  0.17985  0.71123  1.0000
  H   H1942     1.0  0.50935  0.23252  0.75768  1.0000
  S   S240      1.0  0.59353  0.03703  0.97923  1.0000
  C   C1101     1.0  0.54658  0.30941  0.71466  1.0000
  H   H1943     1.0  0.60257  0.03859  0.60403  1.0000
  C   C1102     1.0  0.72366  0.24638  0.77121  1.0000
  C   C1103     1.0  0.71339  0.18303  0.70448  1.0000
  H   H1944     1.0  0.52402  0.20754  0.87036  1.0000
  H   H1945     1.0  0.71260  0.17665  0.68325  1.0000
  N   N64       1.0  0.71705  0.21369  0.68665  1.0000
  H   H1946     1.0  0.53067  0.04212  0.53685  1.0000
  C   C1104     1.0  0.54497  0.04052  0.96360  1.0000
  H   H1947     1.0  0.55963  0.28272  0.76806  1.0000
  H   H1948     1.0  0.60895  0.06477  0.62737  1.0000
  H   H1949     1.0  0.69051  0.19869  0.69962  1.0000
  H   H1950     1.0  0.72897  0.27366  0.76533  1.0000
  C   C1105     1.0  0.72472  0.20312  0.70325  1.0000
  H   H1951     1.0  0.70352  0.21558  0.72383  1.0000
  H   H1952     1.0  0.72831  0.20859  0.72551  1.0000
  C   C1106     1.0  0.52316  0.01473  0.98602  1.0000
  H   H1953     1.0  0.70888  0.24895  0.70968  1.0000
  H   H1954     1.0  0.68802  0.24739  0.69646  1.0000
  H   H1955     1.0  0.61278  0.06879  0.57847  1.0000
  H   H1956     1.0  0.56882  0.29837  0.80835  1.0000
  C   C1107     1.0  0.69481  0.23997  0.70656  1.0000
  H   H1957     1.0  0.51386  0.15408  0.88837  1.0000
  Fe  Fe122     1.0  0.51001  0.31716  0.78411  1.0000
  C   C1108     1.0  0.60982  0.05591  0.56795  1.0000
  H   H1958     1.0  0.50943  0.06774  0.98271  1.0000
  H   H1959     1.0  0.58774  0.14895  0.57714  1.0000
  H   H1960     1.0  0.51902  0.14764  0.93854  1.0000
  H   H1961     1.0  0.62500  0.04154  0.55569  1.0000
  H   H1962     1.0  0.60199  0.03152  0.51541  1.0000
  H   H1963     1.0  0.71551  0.21903  0.64171  1.0000
  C   C1109     1.0  0.55565  0.06076  0.96198  1.0000
  H   H1964     1.0  0.60502  0.05617  0.54575  1.0000
  H   H1965     1.0  0.69619  0.22814  0.66588  1.0000
  H   H1966     1.0  0.50978  0.12813  0.66203  1.0000
  H   H1967     1.0  0.54747  0.06804  0.96470  1.0000
  H   H1968     1.0  0.50339  0.25759  0.74093  1.0000
  H   H1969     1.0  0.63640  0.06518  0.55434  1.0000
  H   H1970     1.0  0.50966  0.00725  0.50961  1.0000
  H   H1971     1.0  0.50145  0.02973  0.96341  1.0000
  S   S241      1.0  0.57878  0.12284  0.51626  1.0000
  H   H1972     1.0  0.52695  0.29579  0.68099  1.0000
  H   H1973     1.0  0.67251  0.16187  0.99327  1.0000
  H   H1974     1.0  0.50571  0.18263  0.91854  1.0000
  S   S242      1.0  0.63020  0.09004  0.50722  1.0000
  C   C1110     1.0  0.73010  0.23280  0.68933  1.0000
  H   H1975     1.0  0.57521  0.00210  0.95474  1.0000
  H   H1976     1.0  0.69864  0.19629  0.60081  1.0000
  H   H1977     1.0  0.68545  0.19789  0.64691  1.0000
  C   C1111     1.0  0.58042  0.27922  0.74828  1.0000
  H   H1978     1.0  0.72407  0.20355  0.64884  1.0000
  C   C1112     1.0  0.50481  0.18794  0.89727  1.0000
  C   C1113     1.0  0.52315  0.04360  0.99501  1.0000
  H   H1979     1.0  0.54185  0.00606  0.96707  1.0000
  C   C1114     1.0  0.53751  0.19662  0.89782  1.0000
  C   C1115     1.0  0.50050  0.05382  0.97683  1.0000
  H   H1980     1.0  0.50274  0.17714  0.88136  1.0000
  C   C1116     1.0  0.56080  0.00827  0.59347  1.0000
  H   H1981     1.0  0.55040  0.20733  0.89328  1.0000
  H   H1982     1.0  0.74143  0.22098  0.84213  1.0000
  H   H1983     1.0  0.55163  0.31769  0.84274  1.0000
  H   H1984     1.0  0.49926  0.21551  0.86800  1.0000
  H   H1985     1.0  0.73837  0.30354  0.84054  1.0000
  Fe  Fe123     1.0  0.60080  0.07626  0.49939  1.0000
  H   H1986     1.0  0.69213  0.11894  0.98939  1.0000
  H   H1987     1.0  0.54169  0.31719  0.75627  1.0000
  H   H1988     1.0  0.51597  0.32690  0.53964  1.0000
  H   H1989     1.0  0.50132  0.30711  0.57871  1.0000
  H   H1990     1.0  0.50335  0.21841  0.91666  1.0000
  S   S243      1.0  0.49695  0.12494  0.97990  1.0000
  H   H1991     1.0  0.59422  0.00061  0.52894  1.0000
  C   C1117     1.0  0.49608  0.14085  0.68415  1.0000
  H   H1992     1.0  0.49754  0.02407  0.52894  1.0000
  H   H1993     1.0  0.58180  0.32975  0.79975  1.0000
  C   C1118     1.0  0.58178  0.01642  0.99520  1.0000
  H   H1994     1.0  0.56115  0.33049  0.79546  1.0000
  C   C1119     1.0  0.50886  0.33126  0.55502  1.0000
  S   S244      1.0  0.52704  0.33193  0.82204  1.0000
  Fe  Fe124     1.0  0.49582  0.16593  0.75263  1.0000
  S   S245      1.0  0.57599  0.10607  0.99699  1.0000
  Fe  Fe125     1.0  0.64982  0.48385  0.21709  1.0000
  S   S246      1.0  0.66414  0.46664  0.22319  1.0000
  S   S247      1.0  0.63467  0.47998  0.17413  1.0000
  Fe  Fe126     1.0  0.65887  0.49816  0.27957  1.0000
  S   S248      1.0  0.67408  0.48229  0.28933  1.0000
  S   S249      1.0  0.65338  0.51657  0.30992  1.0000
  Fe  Fe127     1.0  0.68551  0.48997  0.24623  1.0000
  S   S250      1.0  0.71413  0.50121  0.23322  1.0000
  Fe  Fe128     1.0  0.65150  0.46034  0.26527  1.0000
  S   S251      1.0  0.63917  0.43258  0.28157  1.0000
  S   S252      1.0  0.67176  0.50760  0.23787  1.0000
  S   S253      1.0  0.63580  0.47588  0.25796  1.0000
  C   C1120     1.0  0.55561  0.41222  0.34802  1.0000
  S   S254      1.0  0.53730  0.35066  0.31757  1.0000
  H   H1995     1.0  0.70472  0.39202  0.19842  1.0000
  S   S255      1.0  0.57534  0.46183  0.47514  1.0000
  Fe  Fe129     1.0  0.53725  0.36784  0.28144  1.0000
  S   S256      1.0  0.55637  0.39411  0.26578  1.0000
  S   S257      1.0  0.51329  0.37035  0.29510  1.0000
  H   H1996     1.0  0.54290  0.42775  0.33182  1.0000
  C   C1121     1.0  0.53493  0.46457  0.01188  1.0000
  H   H1997     1.0  0.64958  0.46098  0.13492  1.0000
  H   H1998     1.0  0.54909  0.42894  0.49288  1.0000
  H   H1999     1.0  0.61226  0.65039  0.38043  1.0000
  S   S258      1.0  0.55367  0.59809  0.01559  1.0000
  H   H2000     1.0  0.70872  0.48753  0.12383  1.0000
  H   H2001     1.0  0.57471  0.43792  0.41251  1.0000
  H   H2002     1.0  0.50041  0.38467  0.35098  1.0000
  H   H2003     1.0  0.55672  0.48275  0.48644  1.0000
  S   S259      1.0  0.51709  0.59333  0.46317  1.0000
  Fe  Fe130     1.0  0.61894  0.52106  0.03206  1.0000
  S   S260      1.0  0.58974  0.50671  0.02785  1.0000
  S   S261      1.0  0.63253  0.53113  0.07598  1.0000
  H   H2004     1.0  0.72888  0.42126  0.20659  1.0000
  H   H2005     1.0  0.62396  0.56985  0.03562  1.0000
  S   S262      1.0  0.64951  0.52019  0.44526  1.0000
  H   H2006     1.0  0.64713  0.45866  0.32706  1.0000
  C   C1122     1.0  0.58147  0.55244  0.11532  1.0000
  H   H2007     1.0  0.52613  0.39982  0.37744  1.0000
  Fe  Fe131     1.0  0.59216  0.49044  0.48590  1.0000
  C   C1123     1.0  0.54739  0.43860  0.01525  1.0000
  H   H2008     1.0  0.71762  0.55120  0.37644  1.0000
  H   H2009     1.0  0.56660  0.41000  0.43591  1.0000
  C   C1124     1.0  0.69612  0.52066  0.10670  1.0000
  H   H2010     1.0  0.50374  0.65777  0.00040  1.0000
  Fe  Fe132     1.0  0.59659  0.52862  0.48710  1.0000
  H   H2011     1.0  0.52611  0.65500  0.15112  1.0000
  H   H2012     1.0  0.56589  0.59256  0.40544  1.0000
  H   H2013     1.0  0.74395  0.47141  0.28945  1.0000
  H   H2014     1.0  0.56377  0.62966  0.45039  1.0000
  C   C1125     1.0  0.62693  0.46733  0.42298  1.0000
  C   C1126     1.0  0.63874  0.47114  0.47415  1.0000
  H   H2015     1.0  0.51731  0.33557  0.44506  1.0000
  H   H2016     1.0  0.55032  0.54991  0.45606  1.0000
  H   H2017     1.0  0.57001  0.46659  0.16034  1.0000
  C   C1127     1.0  0.52416  0.44792  0.02151  1.0000
  H   H2018     1.0  0.61007  0.48638  0.40985  1.0000
  C   C1128     1.0  0.71802  0.54677  0.24335  1.0000
  C   C1129     1.0  0.57835  0.41484  0.42288  1.0000
  H   H2019     1.0  0.53864  0.58391  0.37417  1.0000
  S   S263      1.0  0.52237  0.34492  0.25117  1.0000
  H   H2020     1.0  0.63559  0.46078  0.41834  1.0000
  H   H2021     1.0  0.60896  0.57970  0.08826  1.0000
  H   H2022     1.0  0.52647  0.63997  0.35963  1.0000
  H   H2023     1.0  0.61872  0.59915  0.44664  1.0000
  C   C1130     1.0  0.68545  0.53336  0.06522  1.0000
  C   C1131     1.0  0.73200  0.49624  0.24406  1.0000
  C   C1132     1.0  0.73054  0.48386  0.26468  1.0000
  H   H2024     1.0  0.50953  0.42790  0.45989  1.0000
  H   H2025     1.0  0.71812  0.47666  0.27418  1.0000
  H   H2026     1.0  0.53025  0.47471  0.01077  1.0000
  C   C1133     1.0  0.57934  0.40406  0.27063  1.0000
  C   C1134     1.0  0.58850  0.39695  0.28772  1.0000
  C   C1135     1.0  0.60689  0.40571  0.29095  1.0000
  C   C1136     1.0  0.61614  0.42151  0.27704  1.0000
  C   C1137     1.0  0.60690  0.42837  0.25973  1.0000
  C   C1138     1.0  0.58861  0.41978  0.25675  1.0000
  H   H2027     1.0  0.58145  0.38479  0.29845  1.0000
  H   H2028     1.0  0.61396  0.40024  0.30423  1.0000
  H   H2029     1.0  0.61383  0.44016  0.24822  1.0000
  H   H2030     1.0  0.58165  0.42535  0.24347  1.0000
  C   C1139     1.0  0.65058  0.51499  0.34732  1.0000
  C   C1140     1.0  0.66051  0.50920  0.36530  1.0000
  C   C1141     1.0  0.65990  0.51071  0.39520  1.0000
  C   C1142     1.0  0.64882  0.51731  0.40750  1.0000
  C   C1143     1.0  0.63822  0.52222  0.38949  1.0000
  C   C1144     1.0  0.63937  0.52139  0.35962  1.0000
  H   H2031     1.0  0.66920  0.50427  0.35621  1.0000
  H   H2032     1.0  0.66818  0.50691  0.40892  1.0000
  H   H2033     1.0  0.62973  0.52744  0.39859  1.0000
  H   H2034     1.0  0.63175  0.52606  0.34597  1.0000
  C   C1145     1.0  0.63398  0.49457  0.14755  1.0000
  C   C1146     1.0  0.62704  0.48759  0.12012  1.0000
  C   C1147     1.0  0.62648  0.49859  0.09806  1.0000
  C   C1148     1.0  0.63291  0.51677  0.10318  1.0000
  C   C1149     1.0  0.63973  0.52376  0.13071  1.0000
  C   C1150     1.0  0.64003  0.51271  0.15290  1.0000
  H   H2035     1.0  0.62212  0.47355  0.11581  1.0000
  H   H2036     1.0  0.62112  0.49299  0.07705  1.0000
  H   H2037     1.0  0.64462  0.53780  0.13494  1.0000
  H   H2038     1.0  0.64511  0.51821  0.17405  1.0000
  H   H2039     1.0  0.62472  0.45443  0.31868  1.0000
  H   H2040     1.0  0.55228  0.42861  0.01687  1.0000
  H   H2041     1.0  0.51801  0.39096  0.18203  1.0000
  H   H2042     1.0  0.67774  0.53317  0.10810  1.0000
  H   H2043     1.0  0.54318  0.65431  0.06038  1.0000
  S   S264      1.0  0.52452  0.63337  0.41961  1.0000
  C   C1151     1.0  0.49871  0.36389  0.40017  1.0000
  H   H2044     1.0  0.53178  0.40454  0.32349  1.0000
  S   S265      1.0  0.51373  0.36148  0.37681  1.0000
  H   H2045     1.0  0.59547  0.43697  0.37879  1.0000
  C   C1152     1.0  0.57365  0.47614  0.39441  1.0000
  H   H2046     1.0  0.73780  0.41944  0.25510  1.0000
  H   H2047     1.0  0.70740  0.50575  0.16852  1.0000
  H   H2048     1.0  0.59353  0.47873  0.36537  1.0000
  H   H2049     1.0  0.58009  0.49010  0.40215  1.0000
  H   H2050     1.0  0.56406  0.47505  0.37686  1.0000
  H   H2051     1.0  0.56654  0.46777  0.41205  1.0000
  C   C1153     1.0  0.71288  0.53169  0.29120  1.0000
  C   C1154     1.0  0.71114  0.51676  0.33651  1.0000
  C   C1155     1.0  0.72098  0.50579  0.32709  1.0000
  C   C1156     1.0  0.71359  0.48772  0.34053  1.0000
  C   C1157     1.0  0.57858  0.45967  0.16341  1.0000
  H   H2052     1.0  0.69949  0.52123  0.28612  1.0000
  H   H2053     1.0  0.72223  0.50813  0.10843  1.0000
  H   H2054     1.0  0.69687  0.50851  0.33253  1.0000
  H   H2055     1.0  0.69043  0.53382  0.32625  1.0000
  H   H2056     1.0  0.71988  0.50349  0.30368  1.0000
  H   H2057     1.0  0.67057  0.48327  0.16994  1.0000
  H   H2058     1.0  0.69953  0.51324  0.08997  1.0000
  H   H2059     1.0  0.60576  0.62023  0.39648  1.0000
  C   C1158     1.0  0.62230  0.46318  0.45439  1.0000
  Fe  Fe133     1.0  0.50071  0.60989  0.03761  1.0000
  H   H2060     1.0  0.68771  0.47766  0.15877  1.0000
  N   N65       1.0  0.51024  0.41257  0.36170  1.0000
  C   C1159     1.0  0.50107  0.41106  0.38934  1.0000
  H   H2061     1.0  0.51004  0.65085  0.32614  1.0000
  C   C1160     1.0  0.51166  0.42867  0.34608  1.0000
  C   C1161     1.0  0.52317  0.44668  0.36098  1.0000
  H   H2062     1.0  0.55554  0.61529  0.38912  1.0000
  C   C1162     1.0  0.51248  0.42046  0.41655  1.0000
  S   S266      1.0  0.50299  0.44368  0.03129  1.0000
  C   C1163     1.0  0.52637  0.46178  0.34082  1.0000
  C   C1164     1.0  0.56193  0.59981  0.42150  1.0000
  H   H2063     1.0  0.73654  0.56068  0.33308  1.0000
  N   N66       1.0  0.57757  0.61427  0.43683  1.0000
  H   H2064     1.0  0.53042  0.66368  0.01733  1.0000
  C   C1165     1.0  0.61948  0.46705  0.37225  1.0000
  H   H2065     1.0  0.51644  0.42850  0.32432  1.0000
  Fe  Fe134     1.0  0.49843  0.34656  0.26669  1.0000
  H   H2066     1.0  0.51638  0.44886  0.37944  1.0000
  H   H2067     1.0  0.56088  0.61164  0.47217  1.0000
  C   C1166     1.0  0.71445  0.54821  0.27477  1.0000
  H   H2068     1.0  0.52244  0.43386  0.41274  1.0000
  C   C1167     1.0  0.57427  0.58010  0.00968  1.0000
  S   S267      1.0  0.50411  0.66117  0.19131  1.0000
  Fe  Fe135     1.0  0.62709  0.51929  0.47227  1.0000
  H   H2069     1.0  0.51377  0.46168  0.33293  1.0000
  H   H2070     1.0  0.53416  0.47457  0.35235  1.0000
  H   H2071     1.0  0.53378  0.46072  0.32237  1.0000
  H   H2072     1.0  0.58830  0.41121  0.43337  1.0000
  H   H2073     1.0  0.69715  0.54616  0.06791  1.0000
  H   H2074     1.0  0.64572  0.46768  0.37558  1.0000
  H   H2075     1.0  0.70053  0.56862  0.36781  1.0000
  S   S268      1.0  0.50426  0.58485  0.03181  1.0000
  H   H2076     1.0  0.54328  0.61182  0.42077  1.0000
  H   H2077     1.0  0.59487  0.46849  0.42743  1.0000
  H   H2078     1.0  0.49480  0.43061  0.43387  1.0000
  H   H2079     1.0  0.70789  0.53343  0.10950  1.0000
  H   H2080     1.0  0.58728  0.58536  0.14019  1.0000
  H   H2081     1.0  0.64090  0.47673  0.32663  1.0000
  C   C1168     1.0  0.53896  0.41445  0.34057  1.0000
  H   H2082     1.0  0.68040  0.54868  0.36554  1.0000
  H   H2083     1.0  0.59959  0.63890  0.42884  1.0000
  H   H2084     1.0  0.50735  0.35681  0.14382  1.0000
  H   H2085     1.0  0.62586  0.48167  0.37098  1.0000
  H   H2086     1.0  0.50380  0.34888  0.19480  1.0000
  H   H2087     1.0  0.72100  0.48023  0.33356  1.0000
  C   C1169     1.0  0.57769  0.56547  0.00252  1.0000
  H   H2088     1.0  0.67431  0.53590  0.05672  1.0000
  C   C1170     1.0  0.51161  0.63995  0.39603  1.0000
  C   C1171     1.0  0.60114  0.44203  0.40065  1.0000
  H   H2089     1.0  0.68261  0.48650  0.10810  1.0000
  H   H2090     1.0  0.66881  0.51199  0.08989  1.0000
  H   H2091     1.0  0.62847  0.44595  0.36778  1.0000
  H   H2092     1.0  0.71845  0.55850  0.23214  1.0000
  C   C1172     1.0  0.67909  0.49212  0.12721  1.0000
  H   H2093     1.0  0.69525  0.56034  0.18786  1.0000
  C   C1173     1.0  0.49905  0.64771  0.15954  1.0000
  H   H2094     1.0  0.51282  0.40324  0.25601  1.0000
  S   S269      1.0  0.57942  0.54224  0.47157  1.0000
  H   H2095     1.0  0.56391  0.42245  0.36404  1.0000
  C   C1174     1.0  0.53381  0.59002  0.39089  1.0000
  H   H2096     1.0  0.55234  0.39891  0.35643  1.0000
  H   H2097     1.0  0.61313  0.46855  0.46146  1.0000
  N   N67       1.0  0.69248  0.51073  0.13406  1.0000
  H   H2098     1.0  0.68795  0.52479  0.04942  1.0000
  H   H2099     1.0  0.52672  0.57998  0.40660  1.0000
  H   H2100     1.0  0.73494  0.51249  0.33435  1.0000
  H   H2101     1.0  0.58485  0.59219  0.01784  1.0000
  H   H2102     1.0  0.58435  0.61206  0.37845  1.0000
  Fe  Fe136     1.0  0.52804  0.60078  0.00746  1.0000
  N   N68       1.0  0.61187  0.46178  0.40111  1.0000
  C   C1175     1.0  0.63305  0.46017  0.36361  1.0000
  C   C1176     1.0  0.66213  0.46057  0.14175  1.0000
  C   C1177     1.0  0.49504  0.35350  0.18424  1.0000
  C   C1178     1.0  0.60129  0.47205  0.40695  1.0000
  H   H2103     1.0  0.67206  0.51745  0.14823  1.0000
  H   H2104     1.0  0.51917  0.37965  0.43094  1.0000
  H   H2105     1.0  0.51344  0.65256  0.06266  1.0000
  H   H2106     1.0  0.50217  0.52684  0.02477  1.0000
  C   C1179     1.0  0.73386  0.50140  0.14507  1.0000
  C   C1180     1.0  0.68084  0.52435  0.09375  1.0000
  H   H2107     1.0  0.70199  0.54965  0.27578  1.0000
  H   H2108     1.0  0.70748  0.39831  0.23578  1.0000
  C   C1181     1.0  0.49934  0.39658  0.34279  1.0000
  N   N69       1.0  0.54268  0.41143  0.17019  1.0000
  C   C1182     1.0  0.55248  0.43117  0.17420  1.0000
  C   C1183     1.0  0.52589  0.40537  0.18565  1.0000
  C   C1184     1.0  0.55427  0.40315  0.18176  1.0000
  C   C1185     1.0  0.53825  0.40598  0.13907  1.0000
  C   C1186     1.0  0.52728  0.41417  0.12289  1.0000
  C   C1187     1.0  0.56855  0.44005  0.15555  1.0000
  C   C1188     1.0  0.54519  0.38311  0.18693  1.0000
  C   C1189     1.0  0.52801  0.40992  0.21811  1.0000
  C   C1190     1.0  0.51580  0.64252  0.36719  1.0000
  C   C1191     1.0  0.52707  0.41122  0.09068  1.0000
  C   C1192     1.0  0.55870  0.37598  0.19440  1.0000
  H   H2109     1.0  0.55734  0.43469  0.19686  1.0000
  H   H2110     1.0  0.54361  0.43773  0.17051  1.0000
  H   H2111     1.0  0.51743  0.41142  0.17675  1.0000
  H   H2112     1.0  0.54034  0.41857  0.08257  1.0000
  H   H2113     1.0  0.56109  0.40970  0.20231  1.0000
  H   H2114     1.0  0.56501  0.40527  0.16713  1.0000
  H   H2115     1.0  0.55033  0.40880  0.12738  1.0000
  H   H2116     1.0  0.53056  0.39145  0.13658  1.0000
  H   H2117     1.0  0.53240  0.42856  0.12705  1.0000
  H   H2118     1.0  0.51351  0.40792  0.12936  1.0000
  H   H2119     1.0  0.57780  0.43392  0.15841  1.0000
  H   H2120     1.0  0.56440  0.43891  0.13262  1.0000
  H   H2121     1.0  0.53733  0.37561  0.16784  1.0000
  H   H2122     1.0  0.53642  0.38044  0.20506  1.0000
  H   H2123     1.0  0.53865  0.40743  0.22841  1.0000
  C   C1193     1.0  0.73134  0.40967  0.21214  1.0000
  H   H2124     1.0  0.53116  0.42408  0.22175  1.0000
  C   C1194     1.0  0.67569  0.47893  0.15150  1.0000
  H   H2125     1.0  0.73837  0.54399  0.35350  1.0000
  H   H2126     1.0  0.51805  0.41605  0.08010  1.0000
  C   C1195     1.0  0.60592  0.58775  0.44903  1.0000
  H   H2127     1.0  0.52239  0.39699  0.08502  1.0000
  H   H2128     1.0  0.56776  0.38388  0.21223  1.0000
  H   H2129     1.0  0.55200  0.36222  0.20127  1.0000
  H   H2130     1.0  0.56641  0.37626  0.17559  1.0000
  N   N70       1.0  0.58479  0.54207  0.09147  1.0000
  C   C1196     1.0  0.57155  0.53770  0.06671  1.0000
  C   C1197     1.0  0.60285  0.55187  0.08039  1.0000
  C   C1198     1.0  0.58378  0.52486  0.10279  1.0000
  C   C1199     1.0  0.55248  0.52510  0.07333  1.0000
  C   C1200     1.0  0.59622  0.52618  0.12883  1.0000
  C   C1201     1.0  0.60753  0.57065  0.06985  1.0000
  C   C1202     1.0  0.62494  0.57788  0.05518  1.0000
  C   C1203     1.0  0.53921  0.52628  0.05154  1.0000
  C   C1204     1.0  0.59260  0.50789  0.13968  1.0000
  H   H2131     1.0  0.57530  0.53142  0.04865  1.0000
  H   H2132     1.0  0.57151  0.54980  0.05762  1.0000
  H   H2133     1.0  0.61312  0.55366  0.09709  1.0000
  H   H2134     1.0  0.60492  0.54396  0.06278  1.0000
  H   H2135     1.0  0.58628  0.51706  0.08555  1.0000
  H   H2136     1.0  0.57043  0.51659  0.10981  1.0000
  H   H2137     1.0  0.55094  0.51125  0.07260  1.0000
  H   H2138     1.0  0.54909  0.52793  0.09484  1.0000
  H   H2139     1.0  0.59460  0.53406  0.14674  1.0000
  H   H2140     1.0  0.61007  0.53226  0.12316  1.0000
  H   H2141     1.0  0.59753  0.57097  0.05439  1.0000
  H   H2142     1.0  0.60385  0.58518  0.47205  1.0000
  H   H2143     1.0  0.62835  0.59163  0.04889  1.0000
  H   H2144     1.0  0.63558  0.57782  0.06972  1.0000
  H   H2145     1.0  0.54117  0.52179  0.03012  1.0000
  H   H2146     1.0  0.52580  0.51767  0.05778  1.0000
  H   H2147     1.0  0.54048  0.54001  0.05052  1.0000
  H   H2148     1.0  0.60198  0.50909  0.15768  1.0000
  H   H2149     1.0  0.57912  0.50133  0.14733  1.0000
  H   H2150     1.0  0.59426  0.49954  0.12248  1.0000
  H   H2151     1.0  0.69314  0.55532  0.39868  1.0000
  C   C1205     1.0  0.49703  0.35805  0.15530  1.0000
  H   H2152     1.0  0.74376  0.51509  0.14996  1.0000
  H   H2153     1.0  0.50935  0.49829  0.01661  1.0000
  C   C1206     1.0  0.68521  0.51900  0.15565  1.0000
  C   C1207     1.0  0.69661  0.53873  0.16363  1.0000
  C   C1208     1.0  0.58554  0.43483  0.42069  1.0000
  H   H2154     1.0  0.53627  0.42284  0.38270  1.0000
  H   H2155     1.0  0.57033  0.65083  0.49063  1.0000
  C   C1209     1.0  0.68662  0.54643  0.18156  1.0000
  H   H2156     1.0  0.73991  0.49454  0.13192  1.0000
  H   H2157     1.0  0.60689  0.63461  0.35104  1.0000
  H   H2158     1.0  0.57887  0.57905  0.43624  1.0000
  C   C1210     1.0  0.50523  0.37370  0.42596  1.0000
  C   C1211     1.0  0.54898  0.60570  0.40568  1.0000
  C   C1212     1.0  0.59112  0.59130  0.43525  1.0000
  H   H2159     1.0  0.52213  0.42205  0.03035  1.0000
  H   H2160     1.0  0.68312  0.51193  0.17601  1.0000
  H   H2161     1.0  0.70072  0.54683  0.14453  1.0000
  H   H2162     1.0  0.70851  0.54021  0.17636  1.0000
  H   H2163     1.0  0.49909  0.38363  0.46492  1.0000
  S   S270      1.0  0.52558  0.62637  0.01613  1.0000
  H   H2164     1.0  0.58026  0.45650  0.37490  1.0000
  H   H2165     1.0  0.51852  0.36162  0.48436  1.0000
  H   H2166     1.0  0.60891  0.46236  0.35512  1.0000
  H   H2167     1.0  0.66693  0.45533  0.12379  1.0000
  H   H2168     1.0  0.67506  0.54612  0.16909  1.0000
  H   H2169     1.0  0.68218  0.53891  0.20122  1.0000
  H   H2170     1.0  0.58915  0.44061  0.44255  1.0000
  C   C1213     1.0  0.51270  0.64741  0.14348  1.0000
  C   C1214     1.0  0.58719  0.47025  0.38340  1.0000
  H   H2171     1.0  0.57999  0.63607  0.41047  1.0000
  H   H2172     1.0  0.65959  0.45146  0.15971  1.0000
  H   H2173     1.0  0.49853  0.42851  0.34241  1.0000
  H   H2174     1.0  0.70756  0.55535  0.32533  1.0000
  H   H2175     1.0  0.55444  0.58971  0.43697  1.0000
  C   C1215     1.0  0.70930  0.51111  0.14666  1.0000
  H   H2176     1.0  0.71479  0.48914  0.36417  1.0000
  C   C1216     1.0  0.50917  0.63739  0.11761  1.0000
  H   H2177     1.0  0.57458  0.40820  0.40146  1.0000
  C   C1217     1.0  0.71359  0.39469  0.21770  1.0000
  H   H2178     1.0  0.63516  0.48174  0.42196  1.0000
  H   H2179     1.0  0.70757  0.53483  0.23289  1.0000
  N   N71       1.0  0.71621  0.53442  0.32310  1.0000
  H   H2180     1.0  0.71336  0.51837  0.36007  1.0000
  C   C1218     1.0  0.59467  0.62344  0.39034  1.0000
  H   H2181     1.0  0.71932  0.52495  0.14976  1.0000
  C   C1219     1.0  0.53035  0.43490  0.02300  1.0000
  H   H2182     1.0  0.71507  0.38245  0.22262  1.0000
  C   C1220     1.0  0.57077  0.62223  0.45988  1.0000
  H   H2183     1.0  0.58043  0.57419  0.08965  1.0000
  H   H2184     1.0  0.59385  0.55997  0.12821  1.0000
  H   H2185     1.0  0.57232  0.54336  0.13050  1.0000
  S   S271      1.0  0.60007  0.51104  0.45312  1.0000
  H   H2186     1.0  0.51952  0.41272  0.42459  1.0000
  Fe  Fe137     1.0  0.51589  0.61961  0.46176  1.0000
  H   H2187     1.0  0.59377  0.59376  0.41250  1.0000
  C   C1221     1.0  0.70419  0.54209  0.33402  1.0000
  H   H2188     1.0  0.69768  0.53130  0.37676  1.0000
  Fe  Fe138     1.0  0.51232  0.35207  0.33005  1.0000
  H   H2189     1.0  0.53611  0.44756  0.36837  1.0000
  H   H2190     1.0  0.69963  0.48003  0.33370  1.0000
  C   C1222     1.0  0.69395  0.55490  0.37512  1.0000
  C   C1223     1.0  0.57364  0.57705  0.13229  1.0000
  C   C1224     1.0  0.50121  0.42200  0.44029  1.0000
  H   H2191     1.0  0.58374  0.46158  0.18593  1.0000
  H   H2192     1.0  0.55963  0.55809  0.09897  1.0000
  C   C1225     1.0  0.57345  0.56542  0.10678  1.0000
  H   H2193     1.0  0.66617  0.49200  0.12125  1.0000
  C   C1226     1.0  0.60160  0.63862  0.36980  1.0000
  C   C1227     1.0  0.58783  0.62882  0.41727  1.0000
  C   C1228     1.0  0.55636  0.55746  0.47551  1.0000
  H   H2194     1.0  0.59092  0.64212  0.36210  1.0000
  H   H2195     1.0  0.64508  0.48571  0.47271  1.0000
  C   C1229     1.0  0.52787  0.41233  0.36716  1.0000
  C   C1230     1.0  0.70414  0.54432  0.36693  1.0000
  C   C1231     1.0  0.55184  0.46818  0.00364  1.0000
  H   H2196     1.0  0.56749  0.58588  0.12570  1.0000
  H   H2197     1.0  0.74317  0.40166  0.24777  1.0000
  H   H2198     1.0  0.60977  0.43532  0.40561  1.0000
  H   H2199     1.0  0.58988  0.46566  0.14955  1.0000
  H   H2200     1.0  0.56616  0.56886  0.14981  1.0000
  C   C1232     1.0  0.49798  0.49440  0.00102  1.0000
  H   H2201     1.0  0.51980  0.63726  0.10561  1.0000
  C   C1233     1.0  0.58907  0.60667  0.45115  1.0000
  C   C1234     1.0  0.63661  0.46270  0.33203  1.0000
  H   H2202     1.0  0.61650  0.44874  0.45719  1.0000
  C   C1235     1.0  0.51124  0.39905  0.23314  1.0000
  H   H2203     1.0  0.56313  0.41357  0.32854  1.0000
  H   H2204     1.0  0.72165  0.52655  0.28159  1.0000
  H   H2205     1.0  0.49995  0.40077  0.22326  1.0000
  H   H2206     1.0  0.53888  0.57030  0.47634  1.0000
  H   H2207     1.0  0.52446  0.59459  0.38070  1.0000
  C   C1236     1.0  0.50649  0.64868  0.34814  1.0000
  C   C1237     1.0  0.71787  0.50144  0.12882  1.0000
  C   C1238     1.0  0.58471  0.63506  0.48193  1.0000
  C   C1239     1.0  0.55485  0.45638  0.48866  1.0000
  C   C1240     1.0  0.49783  0.64338  0.40554  1.0000
  C   C1241     1.0  0.55734  0.57931  0.00594  1.0000
  H   H2208     1.0  0.50851  0.38488  0.23189  1.0000
  S   S272      1.0  0.62354  0.50206  0.00313  1.0000
  H   H2209     1.0  0.60625  0.57593  0.43857  1.0000
  H   H2210     1.0  0.50429  0.39818  0.32091  1.0000
  C   C1242     1.0  0.55815  0.45526  0.00568  1.0000
  H   H2211     1.0  0.59082  0.56639  0.00487  1.0000
  H   H2212     1.0  0.58378  0.60113  0.47204  1.0000
  H   H2213     1.0  0.73002  0.49439  0.16538  1.0000
  H   H2214     1.0  0.60236  0.61729  0.45634  1.0000
  H   H2215     1.0  0.73660  0.40547  0.19365  1.0000
  H   H2216     1.0  0.49844  0.61619  0.28505  1.0000
  H   H2217     1.0  0.72507  0.56041  0.28423  1.0000
  C   C1243     1.0  0.73494  0.54679  0.33158  1.0000
  H   H2218     1.0  0.59521  0.64592  0.47133  1.0000
  C   C1244     1.0  0.74381  0.41417  0.23896  1.0000
  C   C1245     1.0  0.54990  0.56911  0.48686  1.0000
  H   H2219     1.0  0.73076  0.54606  0.24126  1.0000
  C   C1246     1.0  0.54929  0.46960  0.49373  1.0000
  C   C1247     1.0  0.57068  0.55564  0.48884  1.0000
  H   H2220     1.0  0.52543  0.33582  0.17973  1.0000
  H   H2221     1.0  0.64822  0.46577  0.46849  1.0000
  H   H2222     1.0  0.59075  0.62801  0.49503  1.0000
  C   C1248     1.0  0.54477  0.43917  0.49688  1.0000
  H   H2223     1.0  0.63518  0.46791  0.49655  1.0000
  Fe  Fe139     1.0  0.66265  0.48940  0.71402  1.0000
  S   S273      1.0  0.66499  0.46379  0.71255  1.0000
  S   S274      1.0  0.66957  0.50571  0.67404  1.0000
  Fe  Fe140     1.0  0.65195  0.48473  0.77697  1.0000
  S   S275      1.0  0.65397  0.45883  0.77921  1.0000
  S   S276      1.0  0.63587  0.49281  0.80749  1.0000
  Fe  Fe141     1.0  0.67907  0.47227  0.75562  1.0000
  S   S277      1.0  0.70235  0.46505  0.76240  1.0000
  Fe  Fe142     1.0  0.64014  0.45272  0.73603  1.0000
  S   S278      1.0  0.61584  0.42911  0.71964  1.0000
  S   S279      1.0  0.67795  0.49876  0.75622  1.0000
  S   S280      1.0  0.63696  0.47783  0.73449  1.0000
  Fe  Fe143     1.0  0.50490  0.34986  0.76515  1.0000
  H   H2224     1.0  0.49678  0.61245  0.90429  1.0000
  H   H2225     1.0  0.62233  0.46667  0.93562  1.0000
  H   H2226     1.0  0.51290  0.43776  0.93278  1.0000
  Fe  Fe144     1.0  0.53981  0.35426  0.79276  1.0000
  S   S281      1.0  0.56932  0.36812  0.79939  1.0000
  S   S282      1.0  0.52183  0.36684  0.80231  1.0000
  H   H2227     1.0  0.59541  0.47563  0.55026  1.0000
  H   H2228     1.0  0.52197  0.39857  0.59057  1.0000
  C   C1249     1.0  0.73496  0.49420  0.76712  1.0000
  H   H2229     1.0  0.60308  0.44292  0.55080  1.0000
  S   S283      1.0  0.55116  0.59534  0.52533  1.0000
  S   S284      1.0  0.50234  0.58976  0.52809  1.0000
  Fe  Fe145     1.0  0.50785  0.34367  0.82970  1.0000
  H   H2230     1.0  0.51766  0.48122  0.94667  1.0000
  C   C1250     1.0  0.52651  0.38274  0.51566  1.0000
  C   C1251     1.0  0.49537  0.35435  0.93035  1.0000
  H   H2231     1.0  0.59596  0.45145  0.52004  1.0000
  Fe  Fe146     1.0  0.61456  0.51565  0.53424  1.0000
  S   S285      1.0  0.58658  0.50696  0.51833  1.0000
  S   S286      1.0  0.61528  0.51282  0.58281  1.0000
  Fe  Fe147     1.0  0.59445  0.48921  0.99607  1.0000
  S   S287      1.0  0.59355  0.50479  0.95829  1.0000
  S   S288      1.0  0.64371  0.52449  0.93463  1.0000
  S   S289      1.0  0.52415  0.33900  0.75383  1.0000
  H   H2232     1.0  0.49687  0.40803  0.83758  1.0000
  H   H2233     1.0  0.71381  0.50628  0.58706  1.0000
  S   S290      1.0  0.61919  0.49749  0.50365  1.0000
  C   C1252     1.0  0.49981  0.48154  0.97864  1.0000
  H   H2234     1.0  0.60286  0.46761  0.58099  1.0000
  S   S291      1.0  0.62466  0.53868  0.50449  1.0000
  H   H2235     1.0  0.55259  0.42093  0.59995  1.0000
  C   C1253     1.0  0.54724  0.54898  0.98808  1.0000
  H   H2236     1.0  0.50170  0.34529  0.68770  1.0000
  H   H2237     1.0  0.70965  0.47968  0.70683  1.0000
  H   H2238     1.0  0.56169  0.47190  0.55201  1.0000
  H   H2239     1.0  0.51442  0.51514  0.52388  1.0000
  H   H2240     1.0  0.52040  0.39003  0.50338  1.0000
  H   H2241     1.0  0.59197  0.44369  0.66916  1.0000
  H   H2242     1.0  0.51656  0.60640  0.72479  1.0000
  H   H2243     1.0  0.51746  0.51025  0.56062  1.0000
  C   C1254     1.0  0.55786  0.57935  0.51154  1.0000
  C   C1255     1.0  0.57202  0.57737  0.52513  1.0000
  C   C1256     1.0  0.57832  0.56550  0.51401  1.0000
  C   C1257     1.0  0.71829  0.51151  0.68279  1.0000
  C   C1258     1.0  0.72064  0.51567  0.71538  1.0000
  H   H2244     1.0  0.69624  0.43415  0.67537  1.0000
  H   H2245     1.0  0.57828  0.58519  0.54425  1.0000
  H   H2246     1.0  0.58940  0.56437  0.52444  1.0000
  H   H2247     1.0  0.69223  0.48862  0.58237  1.0000
  C   C1259     1.0  0.52490  0.41267  0.59449  1.0000
  H   H2248     1.0  0.52515  0.35679  0.51844  1.0000
  C   C1260     1.0  0.70889  0.47960  0.68319  1.0000
  H   H2249     1.0  0.64613  0.55513  0.68697  1.0000
  C   C1261     1.0  0.72562  0.47612  0.76107  1.0000
  H   H2250     1.0  0.56603  0.43733  0.63795  1.0000
  H   H2251     1.0  0.72798  0.50197  0.77259  1.0000
  H   H2252     1.0  0.59608  0.44092  0.76370  1.0000
  H   H2253     1.0  0.54731  0.50358  0.58709  1.0000
  C   C1262     1.0  0.58184  0.38558  0.77775  1.0000
  C   C1263     1.0  0.57434  0.39007  0.75400  1.0000
  C   C1264     1.0  0.58491  0.40353  0.73642  1.0000
  C   C1265     1.0  0.60292  0.41288  0.74292  1.0000
  C   C1266     1.0  0.61035  0.40861  0.76702  1.0000
  C   C1267     1.0  0.59987  0.39480  0.78410  1.0000
  H   H2254     1.0  0.56047  0.38296  0.74883  1.0000
  H   H2255     1.0  0.57911  0.40671  0.71771  1.0000
  H   H2256     1.0  0.62426  0.41552  0.77184  1.0000
  H   H2257     1.0  0.60579  0.39105  0.80202  1.0000
  C   C1268     1.0  0.63823  0.50041  0.84366  1.0000
  C   C1269     1.0  0.65423  0.50686  0.85926  1.0000
  C   C1270     1.0  0.65563  0.51402  0.88716  1.0000
  C   C1271     1.0  0.64100  0.51439  0.90008  1.0000
  C   C1272     1.0  0.62489  0.50747  0.88473  1.0000
  C   C1273     1.0  0.62357  0.50066  0.85662  1.0000
  H   H2258     1.0  0.66562  0.50677  0.84964  1.0000
  H   H2259     1.0  0.66816  0.51940  0.89880  1.0000
  H   H2260     1.0  0.61357  0.50780  0.89427  1.0000
  H   H2261     1.0  0.61114  0.49579  0.84474  1.0000
  C   C1274     1.0  0.65403  0.50574  0.64749  1.0000
  C   C1275     1.0  0.63627  0.49945  0.65282  1.0000
  C   C1276     1.0  0.62466  0.50171  0.63274  1.0000
  C   C1277     1.0  0.63038  0.50932  0.60634  1.0000
  C   C1278     1.0  0.64800  0.51486  0.60043  1.0000
  C   C1279     1.0  0.65980  0.51334  0.62111  1.0000
  H   H2262     1.0  0.63157  0.49329  0.67274  1.0000
  H   H2263     1.0  0.61119  0.49774  0.63787  1.0000
  H   H2264     1.0  0.65265  0.52093  0.58038  1.0000
  H   H2265     1.0  0.67352  0.51829  0.61675  1.0000
  C   C1280     1.0  0.51137  0.40106  0.87075  1.0000
  C   C1281     1.0  0.60426  0.36411  0.73672  1.0000
  H   H2266     1.0  0.55205  0.49632  0.55345  1.0000
  H   H2267     1.0  0.55215  0.44129  0.94921  1.0000
  H   H2268     1.0  0.54492  0.42356  0.89979  1.0000
  S   S292      1.0  0.50537  0.34796  0.87773  1.0000
  Fe  Fe148     1.0  0.62257  0.51909  0.96704  1.0000
  C   C1282     1.0  0.52315  0.40179  0.93250  1.0000
  H   H2269     1.0  0.49744  0.41707  0.97885  1.0000
  C   C1283     1.0  0.59475  0.46363  0.56080  1.0000
  H   H2270     1.0  0.52246  0.42248  0.51980  1.0000
  C   C1284     1.0  0.50073  0.65417  0.89634  1.0000
  H   H2271     1.0  0.54484  0.42089  0.56388  1.0000
  C   C1285     1.0  0.56718  0.45611  0.91528  1.0000
  H   H2272     1.0  0.60648  0.35895  0.71605  1.0000
  H   H2273     1.0  0.53417  0.43686  0.88969  1.0000
  H   H2274     1.0  0.69549  0.47828  0.67755  1.0000
  H   H2275     1.0  0.73076  0.50974  0.63289  1.0000
  H   H2276     1.0  0.71098  0.48362  0.58436  1.0000
  H   H2277     1.0  0.53669  0.53694  0.97971  1.0000
  N   N72       1.0  0.59599  0.43132  0.85162  1.0000
  C   C1286     1.0  0.60334  0.44876  0.86817  1.0000
  C   C1287     1.0  0.58973  0.43335  0.82174  1.0000
  C   C1288     1.0  0.58032  0.41874  0.86689  1.0000
  C   C1289     1.0  0.60903  0.42345  0.85060  1.0000
  C   C1290     1.0  0.62668  0.43483  0.83754  1.0000
  C   C1291     1.0  0.61013  0.44863  0.89934  1.0000
  C   C1292     1.0  0.57000  0.40023  0.85221  1.0000
  C   C1293     1.0  0.59972  0.45126  0.80749  1.0000
  H   H2278     1.0  0.60057  0.46382  0.76723  1.0000
  C   C1294     1.0  0.63941  0.42631  0.84100  1.0000
  H   H2279     1.0  0.57702  0.33530  0.72233  1.0000
  C   C1295     1.0  0.55353  0.38938  0.86798  1.0000
  H   H2280     1.0  0.59327  0.45405  0.86879  1.0000
  H   H2281     1.0  0.61443  0.45892  0.85734  1.0000
  H   H2282     1.0  0.58966  0.42275  0.80700  1.0000
  H   H2283     1.0  0.57589  0.43158  0.82152  1.0000
  H   H2284     1.0  0.57096  0.42474  0.86999  1.0000
  H   H2285     1.0  0.58427  0.41617  0.88855  1.0000
  H   H2286     1.0  0.61164  0.41958  0.87221  1.0000
  H   H2287     1.0  0.60348  0.41095  0.83769  1.0000
  H   H2288     1.0  0.63309  0.44819  0.84769  1.0000
  H   H2289     1.0  0.62456  0.43586  0.81436  1.0000
  H   H2290     1.0  0.59940  0.44037  0.91288  1.0000
  H   H2291     1.0  0.62040  0.44369  0.90008  1.0000
  H   H2292     1.0  0.57808  0.39269  0.85234  1.0000
  H   H2293     1.0  0.56591  0.40109  0.82977  1.0000
  H   H2294     1.0  0.51040  0.39050  0.93535  1.0000
  H   H2295     1.0  0.61395  0.45512  0.80786  1.0000
  H   H2296     1.0  0.61709  0.37349  0.74641  1.0000
  C   C1296     1.0  0.50921  0.64306  0.63448  1.0000
  H   H2297     1.0  0.57551  0.46731  0.92991  1.0000
  H   H2298     1.0  0.65188  0.43459  0.83108  1.0000
  H   H2299     1.0  0.64232  0.42513  0.86394  1.0000
  H   H2300     1.0  0.63391  0.41304  0.83029  1.0000
  C   C1297     1.0  0.71618  0.53106  0.72286  1.0000
  H   H2301     1.0  0.51679  0.63398  0.59603  1.0000
  H   H2302     1.0  0.56544  0.46144  0.89447  1.0000
  H   H2303     1.0  0.55683  0.38793  0.89063  1.0000
  H   H2304     1.0  0.54431  0.39564  0.86697  1.0000
  H   H2305     1.0  0.54686  0.37599  0.85777  1.0000
  H   H2306     1.0  0.49811  0.34634  0.63498  1.0000
  C   C1298     1.0  0.52972  0.43551  0.51209  1.0000
  H   H2307     1.0  0.55837  0.48465  0.61292  1.0000
  H   H2308     1.0  0.52971  0.39668  0.91702  1.0000
  H   H2309     1.0  0.59612  0.37140  0.73268  1.0000
  H   H2310     1.0  0.69387  0.44615  0.70578  1.0000
  C   C1299     1.0  0.51615  0.49084  0.96157  1.0000
  Fe  Fe149     1.0  0.50939  0.62011  0.97461  1.0000
  H   H2311     1.0  0.56831  0.34433  0.74878  1.0000
  H   H2312     1.0  0.58503  0.46117  0.67284  1.0000
  C   C1300     1.0  0.60309  0.45495  0.54120  1.0000
  C   C1301     1.0  0.70542  0.49252  0.59273  1.0000
  H   H2313     1.0  0.62883  0.54962  0.72750  1.0000
  C   C1302     1.0  0.52479  0.44904  0.51870  1.0000
  Fe  Fe150     1.0  0.59093  0.52374  0.99063  1.0000
  H   H2314     1.0  0.56966  0.50893  0.57900  1.0000
  C   C1303     1.0  0.53432  0.46596  0.50898  1.0000
  S   S293      1.0  0.49997  0.65400  0.68424  1.0000
  C   C1304     1.0  0.69471  0.44613  0.68221  1.0000
  H   H2315     1.0  0.51636  0.34554  0.56025  1.0000
  C   C1305     1.0  0.49798  0.35468  0.51559  1.0000
  C   C1306     1.0  0.72215  0.49645  0.64036  1.0000
  H   H2316     1.0  0.62989  0.47580  0.90162  1.0000
  H   H2317     1.0  0.52345  0.43177  0.96044  1.0000
  H   H2318     1.0  0.54024  0.38270  0.95504  1.0000
  H   H2319     1.0  0.54368  0.45523  0.93245  1.0000
  H   H2320     1.0  0.53042  0.47639  0.51384  1.0000
  H   H2321     1.0  0.50367  0.42082  0.88789  1.0000
  H   H2322     1.0  0.58689  0.65281  0.51754  1.0000
  H   H2323     1.0  0.57920  0.44724  0.77483  1.0000
  H   H2324     1.0  0.67442  0.54550  0.66232  1.0000
  C   C1307     1.0  0.49646  0.64691  0.64764  1.0000
  H   H2325     1.0  0.50130  0.48281  0.51141  1.0000
  H   H2326     1.0  0.56835  0.46670  0.63080  1.0000
  H   H2327     1.0  0.54041  0.47217  0.58815  1.0000
  H   H2328     1.0  0.69494  0.47734  0.62932  1.0000
  H   H2329     1.0  0.61685  0.46431  0.53808  1.0000
  H   H2330     1.0  0.65040  0.56256  0.74089  1.0000
  H   H2331     1.0  0.59750  0.46183  0.81880  1.0000
  N   N73       1.0  0.64398  0.53468  0.73542  1.0000
  C   C1308     1.0  0.65138  0.52869  0.76066  1.0000
  C   C1309     1.0  0.62846  0.51906  0.72224  1.0000
  C   C1310     1.0  0.65779  0.54088  0.71340  1.0000
  C   C1311     1.0  0.63908  0.54955  0.74305  1.0000
  C   C1312     1.0  0.63272  0.54999  0.77363  1.0000
  C   C1313     1.0  0.66945  0.54220  0.77315  1.0000
  C   C1314     1.0  0.61292  0.50944  0.74142  1.0000
  C   C1315     1.0  0.59905  0.49302  0.72591  1.0000
  C   C1316     1.0  0.67334  0.53746  0.80308  1.0000
  H   H2332     1.0  0.65287  0.51649  0.75478  1.0000
  H   H2333     1.0  0.64222  0.52475  0.77823  1.0000
  H   H2334     1.0  0.62272  0.52301  0.70345  1.0000
  H   H2335     1.0  0.63285  0.50914  0.71411  1.0000
  H   H2336     1.0  0.66261  0.53062  0.70912  1.0000
  H   H2337     1.0  0.66940  0.55276  0.72160  1.0000
  H   H2338     1.0  0.64380  0.55373  0.78961  1.0000
  H   H2339     1.0  0.62262  0.53709  0.77962  1.0000
  H   H2340     1.0  0.67993  0.54228  0.75941  1.0000
  H   H2341     1.0  0.67019  0.55572  0.77419  1.0000
  H   H2342     1.0  0.64272  0.53391  0.67218  1.0000
  H   H2343     1.0  0.61706  0.50508  0.76136  1.0000
  H   H2344     1.0  0.60648  0.51814  0.74661  1.0000
  H   H2345     1.0  0.58800  0.48638  0.74000  1.0000
  H   H2346     1.0  0.59392  0.49662  0.70610  1.0000
  H   H2347     1.0  0.60457  0.48355  0.72033  1.0000
  H   H2348     1.0  0.68649  0.54709  0.81117  1.0000
  H   H2349     1.0  0.66353  0.53772  0.81801  1.0000
  H   H2350     1.0  0.67311  0.52411  0.80272  1.0000
  H   H2351     1.0  0.58850  0.47378  0.61446  1.0000
  C   C1317     1.0  0.65220  0.54582  0.68417  1.0000
  H   H2352     1.0  0.68234  0.44551  0.67221  1.0000
  C   C1318     1.0  0.57642  0.33687  0.74578  1.0000
  C   C1319     1.0  0.50689  0.63696  0.60576  1.0000
  H   H2353     1.0  0.52781  0.40974  0.97799  1.0000
  H   H2354     1.0  0.53077  0.56283  0.99189  1.0000
  H   H2355     1.0  0.58493  0.44118  0.61730  1.0000
  H   H2356     1.0  0.60857  0.47299  0.91275  1.0000
  S   S294      1.0  0.56745  0.53055  0.98405  1.0000
  C   C1320     1.0  0.73507  0.46620  0.75489  1.0000
  H   H2357     1.0  0.52324  0.41466  0.61746  1.0000
  H   H2358     1.0  0.72613  0.52386  0.67177  1.0000
  H   H2359     1.0  0.51250  0.61963  0.75169  1.0000
  H   H2360     1.0  0.72782  0.48762  0.63196  1.0000
  H   H2361     1.0  0.49711  0.35994  0.53715  1.0000
  S   S295      1.0  0.51400  0.59613  0.96427  1.0000
  C   C1321     1.0  0.61818  0.46716  0.91304  1.0000
  H   H2362     1.0  0.50607  0.35166  0.93858  1.0000
  H   H2363     1.0  0.72805  0.45217  0.75046  1.0000
  S   S296      1.0  0.50970  0.64213  0.94601  1.0000
  H   H2364     1.0  0.52401  0.40985  0.86196  1.0000
  H   H2365     1.0  0.60381  0.46425  0.65232  1.0000
  C   C1322     1.0  0.51751  0.36306  0.50769  1.0000
  C   C1323     1.0  0.51628  0.50551  0.53807  1.0000
  H   H2366     1.0  0.71185  0.50416  0.72717  1.0000
  C   C1324     1.0  0.66786  0.55438  0.66547  1.0000
  C   C1325     1.0  0.50674  0.41003  0.89631  1.0000
  H   H2367     1.0  0.53903  0.44590  0.57201  1.0000
  C   C1326     1.0  0.53718  0.43035  0.90833  1.0000
  Fe  Fe151     1.0  0.52843  0.60097  0.50773  1.0000
  H   H2368     1.0  0.60354  0.34170  0.75917  1.0000
  C   C1327     1.0  0.54957  0.44585  0.92841  1.0000
  S   S297      1.0  0.50788  0.44559  0.54139  1.0000
  C   C1328     1.0  0.71032  0.46255  0.67317  1.0000
  H   H2369     1.0  0.72228  0.46210  0.68295  1.0000
  H   H2370     1.0  0.74348  0.48838  0.67459  1.0000
  H   H2371     1.0  0.63508  0.57689  0.77170  1.0000
  H   H2372     1.0  0.59511  0.35508  0.77802  1.0000
  H   H2373     1.0  0.62118  0.56388  0.79878  1.0000
  C   C1329     1.0  0.62516  0.56354  0.77655  1.0000
  H   H2374     1.0  0.51217  0.38876  0.87738  1.0000
  H   H2375     1.0  0.66334  0.55690  0.64420  1.0000
  H   H2376     1.0  0.69782  0.49983  0.63206  1.0000
  H   H2377     1.0  0.51910  0.62848  0.71712  1.0000
  H   H2378     1.0  0.71074  0.46161  0.64967  1.0000
  C   C1330     1.0  0.59342  0.45069  0.77642  1.0000
  C   C1331     1.0  0.70393  0.49115  0.62504  1.0000
  N   N74       1.0  0.72243  0.49661  0.67253  1.0000
  H   H2379     1.0  0.67742  0.56711  0.67531  1.0000
  H   H2380     1.0  0.70447  0.50860  0.67691  1.0000
  H   H2381     1.0  0.57948  0.48497  0.57577  1.0000
  H   H2382     1.0  0.51535  0.41575  0.58155  1.0000
  N   N75       1.0  0.56624  0.45753  0.58689  1.0000
  C   C1332     1.0  0.57554  0.45090  0.56614  1.0000
  C   C1333     1.0  0.54748  0.44415  0.58923  1.0000
  C   C1334     1.0  0.56606  0.47412  0.57498  1.0000
  C   C1335     1.0  0.57566  0.46224  0.61584  1.0000
  C   C1336     1.0  0.57867  0.44745  0.63109  1.0000
  H   H2383     1.0  0.54751  0.41491  0.95861  1.0000
  C   C1337     1.0  0.55442  0.48159  0.59001  1.0000
  C   C1338     1.0  0.54358  0.42433  0.58640  1.0000
  H   H2384     1.0  0.61345  0.55997  0.76193  1.0000
  C   C1339     1.0  0.59058  0.45466  0.65797  1.0000
  C   C1340     1.0  0.55599  0.49865  0.57651  1.0000
  H   H2385     1.0  0.56822  0.44771  0.54505  1.0000
  H   H2386     1.0  0.57567  0.43837  0.57292  1.0000
  H   H2387     1.0  0.54219  0.44641  0.60954  1.0000
  C   C1341     1.0  0.53388  0.40519  0.96108  1.0000
  H   H2388     1.0  0.54318  0.39138  0.99123  1.0000
  H   H2389     1.0  0.52148  0.37843  0.97630  1.0000
  C   C1342     1.0  0.49739  0.39606  0.84651  1.0000
  H   H2390     1.0  0.49794  0.59779  0.63147  1.0000
  C   C1343     1.0  0.56415  0.54975  0.99200  1.0000
  H   H2391     1.0  0.49737  0.59695  0.68117  1.0000
  S   S298      1.0  0.52939  0.62841  0.50545  1.0000
  N   N76       1.0  0.52046  0.41711  0.92046  1.0000
  H   H2392     1.0  0.54050  0.38808  0.51050  1.0000
  C   C1344     1.0  0.53472  0.38835  0.97141  1.0000
  C   C1345     1.0  0.51125  0.61628  0.72847  1.0000
  H   H2393     1.0  0.52807  0.49665  0.97602  1.0000
  H   H2394     1.0  0.57401  0.44750  0.91237  1.0000
  C   C1346     1.0  0.74024  0.49889  0.68372  1.0000
  H   H2395     1.0  0.52094  0.64468  0.64666  1.0000
  H   H2396     1.0  0.70251  0.52803  0.71564  1.0000
  C   C1347     1.0  0.51386  0.42605  0.94218  1.0000
  H   H2397     1.0  0.71749  0.53346  0.74635  1.0000
  H   H2398     1.0  0.49662  0.61739  0.67491  1.0000
  C   C1348     1.0  0.59535  0.34905  0.75690  1.0000
  H   H2399     1.0  0.52577  0.38501  0.53887  1.0000
  H   H2400     1.0  0.73429  0.51936  0.72326  1.0000
  C   C1349     1.0  0.49606  0.62369  0.89433  1.0000
  H   H2401     1.0  0.52869  0.50485  0.53282  1.0000
  Fe  Fe152     1.0  0.50229  0.61644  0.52290  1.0000
  H   H2402     1.0  0.51512  0.50149  0.94896  1.0000
  H   H2403     1.0  0.72522  0.54323  0.71268  1.0000
  H   H2404     1.0  0.49987  0.50654  0.98946  1.0000
  C   C1350     1.0  0.49619  0.35370  0.67859  1.0000
  H   H2405     1.0  0.74029  0.49704  0.70714  1.0000
  H   H2406     1.0  0.50122  0.47045  0.98924  1.0000
  H   H2407     1.0  0.56670  0.63324  0.51510  1.0000
  C   C1351     1.0  0.50107  0.48728  0.53369  1.0000
  H   H2408     1.0  0.50370  0.47822  0.54786  1.0000
  H   H2409     1.0  0.50054  0.38884  0.82918  1.0000
  C   C1352     1.0  0.50158  0.63965  0.90986  1.0000
  H   H2410     1.0  0.55992  0.48094  0.99555  1.0000
  C   C1353     1.0  0.54383  0.56364  0.99500  1.0000
  C   C1354     1.0  0.49616  0.41438  0.95540  1.0000
  S   S299      1.0  0.57941  0.45988  0.99604  1.0000
  C   C1355     1.0  0.57660  0.64348  0.50246  1.0000
  S   S300      1.0  0.62018  0.53956  0.99664  1.0000
  C   C1356     1.0  0.51282  0.69147  0.00243  1.0000
  H   H2411     1.0  0.52186  0.71846  0.34545  1.0000
  C   C1357     1.0  0.51741  0.66637  0.05592  1.0000
  C   C1358     1.0  0.61074  0.97183  0.36339  1.0000
  H   H2412     1.0  0.53800  0.91702  0.36510  1.0000
  Fe  Fe153     1.0  0.52170  0.91144  0.46467  1.0000
  S   S301      1.0  0.52830  0.89992  0.42455  1.0000
  Fe  Fe154     1.0  0.51485  0.89629  0.02645  1.0000
  H   H2413     1.0  0.52679  0.72886  0.39656  1.0000
  S   S302      1.0  0.52472  0.93946  0.46404  1.0000
  S   S303      1.0  0.50933  0.91962  0.03599  1.0000
  S   S304      1.0  0.55072  0.96228  0.03444  1.0000
  H   H2414     1.0  0.50142  0.68846  0.08979  1.0000
  H   H2415     1.0  0.61399  0.97185  0.14126  1.0000
  H   H2416     1.0  0.50505  0.71252  0.40371  1.0000
  C   C1359     1.0  0.60425  0.95800  0.14322  1.0000
  H   H2417     1.0  0.60473  0.93739  0.02984  1.0000
  C   C1360     1.0  0.55351  0.94501  0.37422  1.0000
  S   S305      1.0  0.50065  0.83835  0.25876  1.0000
  H   H2418     1.0  0.58766  0.96486  0.46103  1.0000
  C   C1361     1.0  0.50986  0.88743  0.11168  1.0000
  C   C1362     1.0  0.52678  0.72467  0.27310  1.0000
  H   H2419     1.0  0.55164  0.95716  0.37092  1.0000
  H   H2420     1.0  0.50198  0.91879  0.12590  1.0000
  H   H2421     1.0  0.59557  0.95758  0.16069  1.0000
  C   C1363     1.0  0.59067  0.96089  0.40481  1.0000
  C   C1364     1.0  0.50676  0.68695  0.03339  1.0000
  H   H2422     1.0  0.60627  0.95833  0.35389  1.0000
  H   H2423     1.0  0.56372  0.92553  0.45257  1.0000
  C   C1365     1.0  0.49986  0.96950  0.06569  1.0000
  H   H2424     1.0  0.62234  0.97478  0.37800  1.0000
  C   C1366     1.0  0.50574  0.87241  0.09430  1.0000
  H   H2425     1.0  0.51093  0.71664  0.00286  1.0000
  C   C1367     1.0  0.51327  0.88557  0.39774  1.0000
  C   C1368     1.0  0.53643  0.92949  0.36433  1.0000
  H   H2426     1.0  0.53251  0.71816  0.01247  1.0000
  H   H2427     1.0  0.58207  0.98923  0.45960  1.0000
  H   H2428     1.0  0.51083  0.97885  0.99776  1.0000
  C   C1369     1.0  0.51973  0.88022  0.37391  1.0000
  H   H2429     1.0  0.61136  0.94987  0.14880  1.0000
  H   H2430     1.0  0.58301  0.92277  0.48993  1.0000
  H   H2431     1.0  0.53370  0.88477  0.37234  1.0000
  H   H2432     1.0  0.54025  0.73364  0.26747  1.0000
  H   H2433     1.0  0.59746  0.94592  0.48939  1.0000
  N   N77       1.0  0.50186  0.66823  0.04225  1.0000
  H   H2434     1.0  0.56996  0.97911  0.39708  1.0000
  H   H2435     1.0  0.58507  0.97103  0.36387  1.0000
  C   C1370     1.0  0.56250  0.98293  0.01861  1.0000
  H   H2436     1.0  0.58577  0.93434  0.44072  1.0000
  C   C1371     1.0  0.50162  0.86944  0.15417  1.0000
  C   C1372     1.0  0.51627  0.71583  0.38971  1.0000
  C   C1373     1.0  0.49676  0.74810  0.31830  1.0000
  H   H2437     1.0  0.51892  0.99232  0.47247  1.0000
  H   H2438     1.0  0.51469  0.90017  0.10214  1.0000
  H   H2439     1.0  0.56034  0.93097  0.40621  1.0000
  H   H2440     1.0  0.52858  0.73987  0.31148  1.0000
  H   H2441     1.0  0.55285  0.67697  0.07327  1.0000
  C   C1374     1.0  0.50800  0.88597  0.14144  1.0000
  H   H2442     1.0  0.50170  0.66936  0.10642  1.0000
  H   H2443     1.0  0.51132  0.97044  0.05371  1.0000
  C   C1375     1.0  0.55844  0.94331  0.40575  1.0000
  H   H2444     1.0  0.52561  0.92847  0.37804  1.0000
  N   N78       1.0  0.56702  0.92458  0.09207  1.0000
  C   C1376     1.0  0.55638  0.93508  0.08789  1.0000
  C   C1377     1.0  0.57573  0.92359  0.06482  1.0000
  C   C1378     1.0  0.55446  0.90603  0.09884  1.0000
  C   C1379     1.0  0.58033  0.93187  0.11666  1.0000
  C   C1380     1.0  0.59363  0.95136  0.11503  1.0000
  C   C1381     1.0  0.54744  0.93801  0.11454  1.0000
  C   C1382     1.0  0.56245  0.89249  0.10201  1.0000
  C   C1383     1.0  0.58179  0.93979  0.04543  1.0000
  C   C1384     1.0  0.53365  0.67141  0.03777  1.0000
  H   H2445     1.0  0.51718  0.69633  0.04838  1.0000
  C   C1385     1.0  0.53719  0.94883  0.10737  1.0000
  C   C1386     1.0  0.54824  0.87397  0.10613  1.0000
  H   H2446     1.0  0.54611  0.92874  0.07055  1.0000
  H   H2447     1.0  0.56450  0.94844  0.08042  1.0000
  H   H2448     1.0  0.58721  0.92067  0.06967  1.0000
  H   H2449     1.0  0.56667  0.91236  0.05071  1.0000
  H   H2450     1.0  0.54369  0.90070  0.08200  1.0000
  H   H2451     1.0  0.54809  0.90583  0.11921  1.0000
  H   H2452     1.0  0.57367  0.93007  0.13720  1.0000
  H   H2453     1.0  0.58834  0.92427  0.11863  1.0000
  H   H2454     1.0  0.58718  0.96016  0.11030  1.0000
  H   H2455     1.0  0.60215  0.96599  0.42033  1.0000
  H   H2456     1.0  0.53810  0.92543  0.12299  1.0000
  H   H2457     1.0  0.55731  0.94536  0.13177  1.0000
  H   H2458     1.0  0.57161  0.89592  0.12100  1.0000
  H   H2459     1.0  0.56956  0.89186  0.08293  1.0000
  H   H2460     1.0  0.51854  0.72004  0.25305  1.0000
  H   H2461     1.0  0.58969  0.95231  0.05731  1.0000
  C   C1387     1.0  0.55570  0.99469  0.49581  1.0000
  H   H2462     1.0  0.54676  0.94072  0.41838  1.0000
  C   C1388     1.0  0.57046  0.99824  0.03629  1.0000
  C   C1389     1.0  0.58452  0.99104  0.43659  1.0000
  H   H2463     1.0  0.53283  0.93123  0.34199  1.0000
  C   C1390     1.0  0.59255  0.93789  0.02122  1.0000
  H   H2464     1.0  0.54606  0.96199  0.09983  1.0000
  H   H2465     1.0  0.55431  0.86470  0.10980  1.0000
  H   H2466     1.0  0.54046  0.87380  0.12483  1.0000
  H   H2467     1.0  0.53935  0.86926  0.08678  1.0000
  C   C1391     1.0  0.50073  0.72249  0.30125  1.0000
  C   C1392     1.0  0.57694  0.93661  0.45554  1.0000
  H   H2468     1.0  0.60304  0.95262  0.09836  1.0000
  H   H2469     1.0  0.56372  0.94476  0.36029  1.0000
  H   H2470     1.0  0.51350  0.86491  0.33408  1.0000
  C   C1393     1.0  0.57583  0.95434  0.45020  1.0000
  H   H2471     1.0  0.52686  0.94195  0.09049  1.0000
  N   N79       1.0  0.57417  0.95857  0.41932  1.0000
  C   C1394     1.0  0.54805  0.66820  0.05388  1.0000
  H   H2472     1.0  0.51537  0.74316  0.35702  1.0000
  H   H2473     1.0  0.60094  0.98741  0.38715  1.0000
  H   H2474     1.0  0.58969  0.94783  0.39718  1.0000
  H   H2475     1.0  0.51943  0.74578  0.28042  1.0000
  H   H2476     1.0  0.50020  0.70936  0.30590  1.0000
  H   H2477     1.0  0.57024  0.94092  0.03543  1.0000
  C   C1395     1.0  0.50364  0.73035  0.35380  1.0000
  H   H2478     1.0  0.53088  0.95073  0.12666  1.0000
  C   C1396     1.0  0.51952  0.73451  0.29249  1.0000
  Fe  Fe155     1.0  0.50025  0.92926  0.48817  1.0000
  H   H2479     1.0  0.51094  0.75707  0.31847  1.0000
  S   S306      1.0  0.50940  0.87369  0.05708  1.0000
  H   H2480     1.0  0.52138  0.70568  0.39221  1.0000
  H   H2481     1.0  0.52231  0.67482  0.07562  1.0000
  H   H2482     1.0  0.50049  0.70253  0.35259  1.0000
  Fe  Fe156     1.0  0.53350  0.93563  0.01222  1.0000
  H   H2483     1.0  0.59616  0.94939  0.00729  1.0000
  H   H2484     1.0  0.52729  0.71322  0.28402  1.0000
  H   H2485     1.0  0.56457  0.95414  0.46208  1.0000
  C   C1397     1.0  0.57086  0.97491  0.41911  1.0000
  H   H2486     1.0  0.50449  0.76125  0.22545  1.0000
  C   C1398     1.0  0.50583  0.98550  0.48138  1.0000
  C   C1399     1.0  0.50830  0.86895  0.35214  1.0000
  H   H2487     1.0  0.61467  0.98134  0.34590  1.0000
  H   H2488     1.0  0.50473  0.97771  0.08565  1.0000
  H   H2489     1.0  0.55785  0.97203  0.42787  1.0000
  H   H2490     1.0  0.50900  0.78374  0.33632  1.0000
  S   S307      1.0  0.54014  0.91239  0.00521  1.0000
  C   C1400     1.0  0.59605  0.97351  0.37940  1.0000
  H   H2491     1.0  0.58482  0.92576  0.00800  1.0000
  H   H2492     1.0  0.49685  0.98980  0.04238  1.0000
  H   H2493     1.0  0.54292  0.98444  0.48979  1.0000
  H   H2494     1.0  0.53926  0.68566  0.03336  1.0000
  H   H2495     1.0  0.59806  0.99265  0.43373  1.0000
  H   H2496     1.0  0.55920  0.67100  0.03991  1.0000
  C   C1401     1.0  0.51042  0.71594  0.35856  1.0000
  H   H2497     1.0  0.51158  0.89773  0.15477  1.0000
  C   C1402     1.0  0.58367  0.93607  0.48602  1.0000
  H   H2498     1.0  0.56929  0.99721  0.05913  1.0000
  S   S308      1.0  0.49990  0.86853  0.19194  1.0000
  H   H2499     1.0  0.49660  0.97714  0.46406  1.0000
  C   C1403     1.0  0.49929  0.85587  0.10697  1.0000
  C   C1404     1.0  0.49710  0.85435  0.13667  1.0000
  C   C1405     1.0  0.49516  0.87944  0.39952  1.0000
  H   H2500     1.0  0.49521  0.72998  0.37172  1.0000
  S   S309      1.0  0.49605  0.90104  0.48579  1.0000
  C   C1406     1.0  0.52062  0.71133  0.99827  1.0000
  H   H2501     1.0  0.49484  0.92549  0.15777  1.0000
  H   H2502     1.0  0.49615  0.84414  0.09377  1.0000
  H   H2503     1.0  0.49554  0.69052  0.03536  1.0000
  C   C1407     1.0  0.49986  0.99910  0.49283  1.0000
  H   H2504     1.0  0.52796  0.69820  0.72994  1.0000
  H   H2505     1.0  0.50503  0.66660  0.90808  1.0000
  H   H2506     1.0  0.51219  0.98134  0.95952  1.0000
  S   S310      1.0  0.49818  0.88621  0.56171  1.0000
  S   S311      1.0  0.56332  0.96820  0.51926  1.0000
  Fe  Fe157     1.0  0.52359  0.90702  0.96394  1.0000
  S   S312      1.0  0.53021  0.90256  0.91851  1.0000
  Fe  Fe158     1.0  0.51146  0.90723  0.52825  1.0000
  H   H2507     1.0  0.52776  0.75842  0.61625  1.0000
  S   S313      1.0  0.51905  0.93148  0.96979  1.0000
  S   S314      1.0  0.51375  0.93503  0.53149  1.0000
  H   H2508     1.0  0.50484  0.68471  0.65082  1.0000
  H   H2509     1.0  0.52627  0.94600  0.61471  1.0000
  H   H2510     1.0  0.50770  0.92163  0.64330  1.0000
  H   H2511     1.0  0.50483  0.71724  0.70296  1.0000
  H   H2512     1.0  0.52822  0.89939  0.85731  1.0000
  S   S315      1.0  0.50819  0.86425  0.68974  1.0000
  H   H2513     1.0  0.52590  0.71779  0.74232  1.0000
  H   H2514     1.0  0.54685  0.71903  0.73276  1.0000
  H   H2515     1.0  0.51558  0.92628  0.59263  1.0000
  C   C1408     1.0  0.53259  0.71259  0.72729  1.0000
  H   H2516     1.0  0.56049  0.99375  0.63179  1.0000
  H   H2517     1.0  0.50556  0.72791  0.83714  1.0000
  C   C1409     1.0  0.52760  0.81416  0.79585  1.0000
  C   C1410     1.0  0.51149  0.72853  0.64815  1.0000
  H   H2518     1.0  0.53936  0.73294  0.64775  1.0000
  H   H2519     1.0  0.53118  0.82849  0.79447  1.0000
  H   H2520     1.0  0.53857  0.81249  0.80706  1.0000
  H   H2521     1.0  0.52563  0.80840  0.77381  1.0000
  H   H2522     1.0  0.51343  0.81201  0.83359  1.0000
  H   H2523     1.0  0.52354  0.70269  0.64028  1.0000
  C   C1411     1.0  0.50525  0.78548  0.81431  1.0000
  C   C1412     1.0  0.52059  0.88639  0.86509  1.0000
  C   C1413     1.0  0.51882  0.88415  0.89467  1.0000
  H   H2524     1.0  0.50737  0.75375  0.81178  1.0000
  C   C1414     1.0  0.52959  0.73544  0.63457  1.0000
  C   C1415     1.0  0.52912  0.71629  0.69647  1.0000
  H   H2525     1.0  0.53910  0.76255  0.65097  1.0000
  H   H2526     1.0  0.53542  0.73080  0.69439  1.0000
  C   C1416     1.0  0.55128  0.99392  0.61443  1.0000
  C   C1417     1.0  0.50387  0.85490  0.85540  1.0000
  C   C1418     1.0  0.50927  0.70921  0.68909  1.0000
  H   H2527     1.0  0.52709  0.97489  0.97918  1.0000
  H   H2528     1.0  0.52841  0.72891  0.61335  1.0000
  C   C1419     1.0  0.50510  0.87000  0.65401  1.0000
  H   H2529     1.0  0.54962  0.75979  0.61977  1.0000
  C   C1420     1.0  0.51779  0.88556  0.64310  1.0000
  C   C1421     1.0  0.51606  0.89067  0.61498  1.0000
  C   C1422     1.0  0.53690  0.75526  0.63016  1.0000
  Fe  Fe159     1.0  0.53831  0.94333  0.50718  1.0000
  H   H2530     1.0  0.52916  0.89368  0.65648  1.0000
  H   H2531     1.0  0.52601  0.90261  0.60704  1.0000
  H   H2532     1.0  0.55835  0.97285  0.97524  1.0000
  H   H2533     1.0  0.50666  0.75358  0.75468  1.0000
  C   C1423     1.0  0.50904  0.86722  0.90442  1.0000
  C   C1424     1.0  0.51302  0.87190  0.84553  1.0000
  H   H2534     1.0  0.50513  0.68258  0.56951  1.0000
  H   H2535     1.0  0.51685  0.79443  0.92141  1.0000
  H   H2536     1.0  0.51489  0.87381  0.82295  1.0000
  H   H2537     1.0  0.50275  0.69544  0.69657  1.0000
  H   H2538     1.0  0.50789  0.94347  0.59135  1.0000
  H   H2539     1.0  0.54571  0.98086  0.60301  1.0000
  C   C1425     1.0  0.50042  0.75100  0.83207  1.0000
  H   H2540     1.0  0.53552  0.71015  0.68271  1.0000
  C   C1426     1.0  0.51168  0.68650  0.59108  1.0000
  S   S316      1.0  0.53723  0.91578  0.50670  1.0000
  H   H2541     1.0  0.50158  0.68527  0.98681  1.0000
  C   C1427     1.0  0.56428  0.98448  0.98914  1.0000
  H   H2542     1.0  0.50393  0.77984  0.79233  1.0000
  N   N80       1.0  0.50392  0.70981  0.65820  1.0000
  C   C1428     1.0  0.50157  0.88023  0.59717  1.0000
  H   H2543     1.0  0.52441  0.71411  0.97582  1.0000
  C   C1429     1.0  0.51343  0.93638  0.60543  1.0000
  H   H2544     1.0  0.50183  0.70590  0.59946  1.0000
  H   H2545     1.0  0.52526  0.69656  0.58878  1.0000
  H   H2546     1.0  0.54042  0.99606  0.62378  1.0000
  C   C1430     1.0  0.56792  0.99033  0.51057  1.0000
  H   H2547     1.0  0.51659  0.78401  0.82439  1.0000
  H   H2548     1.0  0.50876  0.80808  0.90218  1.0000
  H   H2549     1.0  0.51209  0.67469  0.60080  1.0000
  C   C1431     1.0  0.50914  0.69771  0.64066  1.0000
  H   H2550     1.0  0.51770  0.79013  0.86968  1.0000
  C   C1432     1.0  0.51986  0.98328  0.98002  1.0000
  C   C1433     1.0  0.51085  0.80551  0.81208  1.0000
  C   C1434     1.0  0.50157  0.69387  0.60940  1.0000
  H   H2551     1.0  0.50766  0.86526  0.92709  1.0000
  S   S317      1.0  0.49648  0.67341  0.75737  1.0000
  C   C1435     1.0  0.50491  0.78367  0.87959  1.0000
  H   H2552     1.0  0.52271  0.68675  0.99664  1.0000
  H   H2553     1.0  0.50252  0.73031  0.63180  1.0000
  C   C1436     1.0  0.50112  0.92773  0.62922  1.0000
  H   H2554     1.0  0.50999  0.75845  0.84946  1.0000
  H   H2555     1.0  0.51241  0.73778  0.66614  1.0000
  H   H2556     1.0  0.57559  0.93890  0.50171  1.0000
  C   C1437     1.0  0.50604  0.79424  0.90703  1.0000
  S   S318      1.0  0.49915  0.82499  0.74647  1.0000
  H   H2557     1.0  0.50271  0.77020  0.88580  1.0000
  H   H2558     1.0  0.50063  0.80812  0.80044  1.0000
  H   H2559     1.0  0.49958  0.93831  0.64156  1.0000
  S   S319      1.0  0.49917  0.88926  0.98455  1.0000
  H   H2560     1.0  0.50668  0.97694  0.49866  1.0000
  C   C1438     1.0  0.50181  0.85268  0.88492  1.0000
  H   H2561     1.0  0.49649  0.77665  0.74253  1.0000
  H   H2562     1.0  0.50106  0.89557  0.80475  1.0000
  Fe  Fe160     1.0  0.49564  0.91384  0.99272  1.0000
  S   S320      1.0  0.49585  0.83592  0.83210  1.0000
  H   H2563     1.0  0.49480  0.91104  0.78695  1.0000
  H   H2564     1.0  0.49483  0.83960  0.89283  1.0000
  C   C1439     1.0  0.81055  0.30689  0.14713  1.0000
  C   C1440     1.0  0.81048  0.28735  0.18793  1.0000
  N   N81       1.0  0.79539  0.27466  0.34239  1.0000
  H   H2565     1.0  0.81727  0.26968  0.32942  1.0000
  H   H2566     1.0  0.78736  0.24801  0.32523  1.0000
  H   H2567     1.0  0.82074  0.27910  0.25222  1.0000
  Fe  Fe161     1.0  0.79600  0.31304  0.25421  1.0000
  S   S321      1.0  0.77485  0.28601  0.23816  1.0000
  S   S322      1.0  0.82445  0.31890  0.24910  1.0000
  H   H2568     1.0  0.80009  0.26852  0.47572  1.0000
  H   H2569     1.0  0.79661  0.26429  0.28414  1.0000
  N   N82       1.0  0.80244  0.31722  0.13094  1.0000
  H   H2570     1.0  0.82743  0.26876  0.28063  1.0000
  H   H2571     1.0  0.82840  0.31072  0.09753  1.0000
  C   C1441     1.0  0.75309  0.22993  0.34161  1.0000
  C   C1442     1.0  0.78506  0.30430  0.11785  1.0000
  H   H2572     1.0  0.78457  0.28842  0.31514  1.0000
  C   C1443     1.0  0.77366  0.28778  0.35566  1.0000
  C   C1444     1.0  0.78905  0.28877  0.33777  1.0000
  H   H2573     1.0  0.77610  0.28646  0.37865  1.0000
  H   H2574     1.0  0.82592  0.28098  0.41912  1.0000
  H   H2575     1.0  0.75933  0.30322  0.36568  1.0000
  H   H2576     1.0  0.82045  0.29866  0.49142  1.0000
  C   C1445     1.0  0.80080  0.29710  0.17350  1.0000
  H   H2577     1.0  0.80665  0.26442  0.37534  1.0000
  S   S323      1.0  0.84743  0.32877  0.32582  1.0000
  H   H2578     1.0  0.83083  0.30395  0.42483  1.0000
  H   H2579     1.0  0.76146  0.27648  0.34783  1.0000
  H   H2580     1.0  0.80342  0.28065  0.20690  1.0000
  H   H2581     1.0  0.81149  0.30305  0.38436  1.0000
  C   C1446     1.0  0.77052  0.30436  0.35282  1.0000
  H   H2582     1.0  0.76311  0.25361  0.36771  1.0000
  C   C1447     1.0  0.76849  0.24581  0.35556  1.0000
  C   C1448     1.0  0.82065  0.29101  0.41671  1.0000
  H   H2583     1.0  0.86110  0.31036  0.44525  1.0000
  H   H2584     1.0  0.78742  0.28714  0.16736  1.0000
  H   H2585     1.0  0.76735  0.30612  0.33025  1.0000
  C   C1449     1.0  0.75879  0.29718  0.08395  1.0000
  H   H2586     1.0  0.80901  0.28752  0.42975  1.0000
  C   C1450     1.0  0.81091  0.27859  0.32412  1.0000
  H   H2587     1.0  0.79979  0.30638  0.18965  1.0000
  H   H2588     1.0  0.77539  0.24075  0.37104  1.0000
  C   C1451     1.0  0.81991  0.31618  0.08689  1.0000
  H   H2589     1.0  0.76207  0.28790  0.07096  1.0000
  C   C1452     1.0  0.80716  0.27720  0.29128  1.0000
  H   H2590     1.0  0.78723  0.32327  0.16229  1.0000
  H   H2591     1.0  0.77583  0.29786  0.13484  1.0000
  C   C1453     1.0  0.78134  0.25672  0.33296  1.0000
  H   H2592     1.0  0.79065  0.27084  0.38760  1.0000
  H   H2593     1.0  0.83451  0.29239  0.28170  1.0000
  H   H2594     1.0  0.82108  0.29223  0.32858  1.0000
  C   C1454     1.0  0.82349  0.27950  0.27559  1.0000
  H   H2595     1.0  0.80327  0.28767  0.28434  1.0000
  H   H2596     1.0  0.82822  0.29649  0.37376  1.0000
  H   H2597     1.0  0.81166  0.29669  0.13296  1.0000
  C   C1455     1.0  0.80158  0.27465  0.37301  1.0000
  H   H2598     1.0  0.75708  0.28315  0.29207  1.0000
  H   H2599     1.0  0.80007  0.30203  0.34131  1.0000
  H   H2600     1.0  0.77345  0.25797  0.31426  1.0000
  C   C1456     1.0  0.75559  0.26953  0.25227  1.0000
  C   C1457     1.0  0.81598  0.29240  0.38538  1.0000
  H   H2601     1.0  0.77129  0.32086  0.10950  1.0000
  H   H2602     1.0  0.78226  0.31621  0.36069  1.0000
  H   H2603     1.0  0.74978  0.28981  0.10066  1.0000
  H   H2604     1.0  0.84926  0.31773  0.48755  1.0000
  H   H2605     1.0  0.82396  0.29673  0.19506  1.0000
  H   H2606     1.0  0.81111  0.27722  0.17308  1.0000
  H   H2607     1.0  0.78650  0.29331  0.10638  1.0000
  C   C1458     1.0  0.74989  0.27128  0.27928  1.0000
  H   H2608     1.0  0.75777  0.22135  0.32964  1.0000
  C   C1459     1.0  0.77539  0.31188  0.09747  1.0000
  H   H2609     1.0  0.80815  0.30520  0.07707  1.0000
  S   S324      1.0  0.80077  0.32571  0.29819  1.0000
  H   H2610     1.0  0.82415  0.31580  0.15470  1.0000
  H   H2611     1.0  0.88035  0.30626  0.44899  1.0000
  H   H2612     1.0  0.83444  0.31954  0.04844  1.0000
  C   C1460     1.0  0.87313  0.31320  0.45870  1.0000
  H   H2613     1.0  0.75193  0.30295  0.06976  1.0000
  H   H2614     1.0  0.86990  0.32845  0.13881  1.0000
  H   H2615     1.0  0.88157  0.32759  0.45893  1.0000
  H   H2616     1.0  0.78360  0.31896  0.07982  1.0000
  H   H2617     1.0  0.83180  0.28634  0.47917  1.0000
  H   H2618     1.0  0.74999  0.25247  0.21483  1.0000
  H   H2619     1.0  0.86077  0.29262  0.48832  1.0000
  C   C1461     1.0  0.86859  0.30710  0.48907  1.0000
  H   H2620     1.0  0.82193  0.33239  0.04995  1.0000
  C   C1462     1.0  0.81500  0.32729  0.10861  1.0000
  C   C1463     1.0  0.83016  0.32749  0.06275  1.0000
  C   C1464     1.0  0.79996  0.32984  0.15191  1.0000
  C   C1465     1.0  0.82402  0.28777  0.49675  1.0000
  C   C1466     1.0  0.74574  0.25407  0.23572  1.0000
  H   H2621     1.0  0.74529  0.23431  0.32673  1.0000
  C   C1467     1.0  0.80716  0.27081  0.49686  1.0000
  C   C1468     1.0  0.80254  0.29390  0.89212  1.0000
  S   S325      1.0  0.85016  0.32448  0.82199  1.0000
  H   H2622     1.0  0.87298  0.28536  0.58660  1.0000
  C   C1469     1.0  0.78653  0.28389  0.83093  1.0000
  H   H2623     1.0  0.76979  0.31489  0.85565  1.0000
  H   H2624     1.0  0.77846  0.25980  0.87413  1.0000
  Fe  Fe162     1.0  0.79500  0.31330  0.76042  1.0000
  S   S326      1.0  0.76597  0.29311  0.75993  1.0000
  S   S327      1.0  0.81905  0.30985  0.74853  1.0000
  H   H2625     1.0  0.86744  0.29297  0.61929  1.0000
  H   H2626     1.0  0.83897  0.28027  0.52700  1.0000
  H   H2627     1.0  0.75402  0.26281  0.66266  1.0000
  H   H2628     1.0  0.88440  0.30826  0.59843  1.0000
  H   H2629     1.0  0.80262  0.27644  0.78500  1.0000
  H   H2630     1.0  0.77356  0.26182  0.76288  1.0000
  H   H2631     1.0  0.79978  0.28039  0.89871  1.0000
  H   H2632     1.0  0.82301  0.30607  0.92528  1.0000
  H   H2633     1.0  0.77327  0.25977  0.67312  1.0000
  H   H2634     1.0  0.76394  0.22932  0.85478  1.0000
  H   H2635     1.0  0.75105  0.28367  0.86504  1.0000
  C   C1470     1.0  0.86350  0.30670  0.55028  1.0000
  H   H2636     1.0  0.81631  0.26867  0.80531  1.0000
  C   C1471     1.0  0.78597  0.29537  0.87985  1.0000
  C   C1472     1.0  0.80951  0.27746  0.80599  1.0000
  H   H2637     1.0  0.80138  0.30183  0.93623  1.0000
  C   C1473     1.0  0.79659  0.27210  0.82982  1.0000
  C   C1474     1.0  0.75973  0.25767  0.76530  1.0000
  H   H2638     1.0  0.76152  0.26388  0.88842  1.0000
  C   C1475     1.0  0.87155  0.29658  0.59719  1.0000
  H   H2639     1.0  0.79623  0.29779  0.82919  1.0000
  H   H2640     1.0  0.75228  0.32044  0.81774  1.0000
  C   C1476     1.0  0.75276  0.27012  0.76403  1.0000
  C   C1477     1.0  0.76801  0.26397  0.86812  1.0000
  H   H2641     1.0  0.81950  0.29119  0.80982  1.0000
  H   H2642     1.0  0.77742  0.29472  0.89777  1.0000
  S   S328      1.0  0.80807  0.32989  0.80006  1.0000
  H   H2643     1.0  0.75443  0.23040  0.77146  1.0000
  N   N83       1.0  0.77549  0.28223  0.85634  1.0000
  H   H2644     1.0  0.76041  0.26345  0.70004  1.0000
  H   H2645     1.0  0.80405  0.27284  0.85000  1.0000
  H   H2646     1.0  0.78738  0.25812  0.82552  1.0000
  C   C1478     1.0  0.76474  0.30520  0.83746  1.0000
  H   H2647     1.0  0.82535  0.28860  0.54318  1.0000
  H   H2648     1.0  0.86751  0.29673  0.54110  1.0000
  H   H2649     1.0  0.79096  0.30904  0.87214  1.0000
  C   C1479     1.0  0.85789  0.30084  0.58097  1.0000
  H   H2650     1.0  0.81270  0.29800  0.87596  1.0000
  C   C1480     1.0  0.74879  0.23980  0.77001  1.0000
  C   C1481     1.0  0.75974  0.25700  0.67887  1.0000
  H   H2651     1.0  0.77844  0.28091  0.81070  1.0000
  H   H2652     1.0  0.75571  0.23211  0.69555  1.0000
  H   H2653     1.0  0.83826  0.31656  0.56564  1.0000
  H   H2654     1.0  0.87564  0.31923  0.55216  1.0000
  C   C1482     1.0  0.81035  0.30618  0.91834  1.0000
  C   C1483     1.0  0.75427  0.24937  0.84809  1.0000
  C   C1484     1.0  0.83461  0.29108  0.52571  1.0000
  H   H2655     1.0  0.87180  0.32556  0.87165  1.0000
  H   H2656     1.0  0.81283  0.31992  0.91336  1.0000
  H   H2657     1.0  0.84522  0.28900  0.58055  1.0000
  H   H2658     1.0  0.85661  0.31154  0.59344  1.0000
  C   C1485     1.0  0.83120  0.32676  0.52859  1.0000
  C   C1486     1.0  0.76020  0.28625  0.84736  1.0000
  H   H2659     1.0  0.75819  0.25112  0.82572  1.0000
  N   N84       1.0  0.84997  0.30884  0.53069  1.0000
  H   H2660     1.0  0.81838  0.31516  0.52614  1.0000
  H   H2661     1.0  0.79848  0.27184  0.51332  1.0000
  H   H2662     1.0  0.81013  0.25935  0.50121  1.0000
  H   H2663     1.0  0.77462  0.30889  0.82102  1.0000
  C   C1487     1.0  0.85871  0.31673  0.50360  1.0000
  H   H2664     1.0  0.75249  0.27734  0.82915  1.0000
  C   C1488     1.0  0.84449  0.32176  0.54528  1.0000
  H   H2665     1.0  0.88112  0.31009  0.50120  1.0000
  C   C1489     1.0  0.86364  0.33200  0.87763  1.0000
  C   C1490     1.0  0.75164  0.23094  0.85664  1.0000
  H   H2666     1.0  0.83579  0.33187  0.50734  1.0000
  C   C1491     1.0  0.74859  0.30675  0.82461  1.0000
  Fe  Fe163     1.0  0.83243  0.32803  0.78712  1.0000
  H   H2667     1.0  0.74853  0.23113  0.65854  1.0000
  H   H2668     1.0  0.86836  0.33062  0.50790  1.0000
  C   C1492     1.0  0.74883  0.23709  0.67993  1.0000
  H   H2669     1.0  0.74730  0.22851  0.87885  1.0000
  S   S329      1.0  0.89682  0.35848  0.00552  1.0000
  H   H2670     1.0  0.74936  0.46681  0.20616  1.0000
  S   S330      1.0  0.86122  0.35107  0.45861  1.0000
  Fe  Fe164     1.0  0.88704  0.39773  0.02762  1.0000
  S   S331      1.0  0.90764  0.39239  0.05116  1.0000
  S   S332      1.0  0.88176  0.42071  0.04101  1.0000
  C   C1493     1.0  0.76747  0.43531  0.28965  1.0000
  H   H2671     1.0  0.77897  0.38471  0.19248  1.0000
  Fe  Fe165     1.0  0.88751  0.36419  0.04782  1.0000
  S   S333      1.0  0.88085  0.34660  0.08633  1.0000
  C   C1494     1.0  0.88344  0.55529  0.28327  1.0000
  S   S334      1.0  0.86641  0.37014  0.02727  1.0000
  Fe  Fe166     1.0  0.94070  0.54762  0.01905  1.0000
  S   S335      1.0  0.91359  0.54715  0.02032  1.0000
  S   S336      1.0  0.96718  0.56547  0.04121  1.0000
  H   H2672     1.0  0.83263  0.34587  0.41900  1.0000
  H   H2673     1.0  0.84773  0.42781  0.06397  1.0000
  H   H2674     1.0  0.92135  0.50099  0.10649  1.0000
  C   C1495     1.0  0.90790  0.47095  0.01847  1.0000
  S   S337      1.0  0.88165  0.52691  0.44905  1.0000
  Fe  Fe167     1.0  0.90418  0.51978  0.03775  1.0000
  S   S338      1.0  0.88733  0.50410  0.07422  1.0000
  S   S339      1.0  0.93199  0.53476  0.46757  1.0000
  S   S340      1.0  0.93131  0.52134  0.03946  1.0000
  Fe  Fe168     1.0  0.83793  0.50368  0.21841  1.0000
  S   S341      1.0  0.81141  0.48068  0.21551  1.0000
  S   S342      1.0  0.85114  0.52127  0.18134  1.0000
  Fe  Fe169     1.0  0.84426  0.49808  0.28228  1.0000
  S   S343      1.0  0.81843  0.47427  0.28339  1.0000
  S   S344      1.0  0.86768  0.50773  0.31489  1.0000
  Fe  Fe170     1.0  0.82443  0.46659  0.24060  1.0000
  S   S345      1.0  0.82146  0.44024  0.22295  1.0000
  Fe  Fe171     1.0  0.80688  0.49013  0.25837  1.0000
  S   S346      1.0  0.77963  0.48567  0.27327  1.0000
  S   S347      1.0  0.85103  0.48895  0.24091  1.0000
  S   S348      1.0  0.83264  0.51459  0.25982  1.0000
  Fe  Fe172     1.0  0.80598  0.35087  0.27583  1.0000
  S   S349      1.0  0.79640  0.37043  0.29257  1.0000
  S   S350      1.0  0.83474  0.35903  0.27300  1.0000
  C   C1496     1.0  0.81633  0.42172  0.24417  1.0000
  C   C1497     1.0  0.81098  0.42146  0.27209  1.0000
  C   C1498     1.0  0.80489  0.40568  0.28698  1.0000
  C   C1499     1.0  0.80478  0.39033  0.27439  1.0000
  C   C1500     1.0  0.81095  0.39087  0.24702  1.0000
  C   C1501     1.0  0.81654  0.40647  0.23188  1.0000
  H   H2675     1.0  0.81125  0.43328  0.28201  1.0000
  H   H2676     1.0  0.80034  0.40535  0.30831  1.0000
  H   H2677     1.0  0.81108  0.37916  0.23726  1.0000
  H   H2678     1.0  0.82084  0.40664  0.21041  1.0000
  H   H2679     1.0  0.79738  0.37056  0.15403  1.0000
  C   C1502     1.0  0.76154  0.48993  0.26104  1.0000
  C   C1503     1.0  0.76293  0.50213  0.24012  1.0000
  H   H2680     1.0  0.93117  0.49317  0.07942  1.0000
  H   H2681     1.0  0.77535  0.50929  0.23058  1.0000
  C   C1504     1.0  0.87103  0.51278  0.35230  1.0000
  C   C1505     1.0  0.85756  0.51176  0.36970  1.0000
  C   C1506     1.0  0.86107  0.51621  0.39916  1.0000
  C   C1507     1.0  0.87801  0.52156  0.41170  1.0000
  C   C1508     1.0  0.89146  0.52252  0.39428  1.0000
  C   C1509     1.0  0.88799  0.51826  0.36480  1.0000
  H   H2682     1.0  0.84447  0.50770  0.36046  1.0000
  H   H2683     1.0  0.85057  0.51550  0.41235  1.0000
  H   H2684     1.0  0.90459  0.52680  0.40347  1.0000
  H   H2685     1.0  0.89856  0.51921  0.35159  1.0000
  C   C1510     1.0  0.87787  0.50952  0.10426  1.0000
  C   C1511     1.0  0.86867  0.49614  0.12312  1.0000
  C   C1512     1.0  0.86073  0.49954  0.14703  1.0000
  C   C1513     1.0  0.86164  0.51640  0.15224  1.0000
  C   C1514     1.0  0.87092  0.52982  0.13348  1.0000
  C   C1515     1.0  0.87904  0.52645  0.10974  1.0000
  H   H2686     1.0  0.86746  0.48299  0.11900  1.0000
  H   H2687     1.0  0.85359  0.48904  0.16109  1.0000
  H   H2688     1.0  0.87171  0.54291  0.13718  1.0000
  H   H2689     1.0  0.88603  0.53690  0.09551  1.0000
  C   C1516     1.0  0.98809  0.57843  0.02762  1.0000
  H   H2690     1.0  0.95507  0.39724  0.04658  1.0000
  H   H2691     1.0  0.93512  0.49003  0.11644  1.0000
  H   H2692     1.0  0.89987  0.47379  0.08239  1.0000
  Fe  Fe173     1.0  0.91541  0.38761  0.00767  1.0000
  H   H2693     1.0  0.84187  0.46626  0.43697  1.0000
  C   C1517     1.0  0.90050  0.51294  0.23112  1.0000
  H   H2694     1.0  0.77171  0.41470  0.26863  1.0000
  H   H2695     1.0  0.92329  0.55999  0.28506  1.0000
  H   H2696     1.0  0.75370  0.42706  0.29457  1.0000
  H   H2697     1.0  0.82747  0.33683  0.11925  1.0000
  C   C1518     1.0  0.85642  0.36716  0.13953  1.0000
  C   C1519     1.0  0.85682  0.46282  0.01301  1.0000
  H   H2698     1.0  0.90722  0.48327  0.02287  1.0000
  H   H2699     1.0  0.98206  0.53454  0.05392  1.0000
  H   H2700     1.0  0.86742  0.45559  0.10911  1.0000
  C   C1520     1.0  0.87001  0.35049  0.11564  1.0000
  C   C1521     1.0  0.96610  0.40669  0.03581  1.0000
  H   H2701     1.0  0.88731  0.58094  0.22963  1.0000
  C   C1522     1.0  0.85247  0.35591  0.16277  1.0000
  H   H2702     1.0  0.89058  0.50194  0.24255  1.0000
  C   C1523     1.0  0.89420  0.55614  0.31110  1.0000
  C   C1524     1.0  0.86771  0.33933  0.37596  1.0000
  H   H2703     1.0  0.91319  0.51794  0.24353  1.0000
  C   C1525     1.0  0.89696  0.43971  0.02594  1.0000
  H   H2704     1.0  0.85265  0.37798  0.13958  1.0000
  H   H2705     1.0  0.85534  0.44054  0.20050  1.0000
  H   H2706     1.0  0.77755  0.55737  0.31055  1.0000
  C   C1526     1.0  0.93423  0.43704  0.08130  1.0000
  H   H2707     1.0  0.88352  0.34637  0.41548  1.0000
  H   H2708     1.0  0.87536  0.41175  0.13791  1.0000
  H   H2709     1.0  0.77019  0.39638  0.16951  1.0000
  N   N85       1.0  0.76256  0.42694  0.23535  1.0000
  H   H2710     1.0  0.94346  0.58583  0.23935  1.0000
  H   H2711     1.0  0.77298  0.47841  0.20662  1.0000
  H   H2712     1.0  0.89420  0.40399  0.10641  1.0000
  H   H2713     1.0  0.85929  0.45552  0.15407  1.0000
  H   H2714     1.0  0.86125  0.41670  0.10152  1.0000
  H   H2715     1.0  0.91067  0.47125  0.14485  1.0000
  H   H2716     1.0  0.86785  0.37311  0.09827  1.0000
  H   H2717     1.0  0.91033  0.44403  0.13074  1.0000
  H   H2718     1.0  0.89331  0.42209  0.16348  1.0000
  H   H2719     1.0  0.85101  0.42413  0.12879  1.0000
  H   H2720     1.0  0.89422  0.47715  0.13038  1.0000
  H   H2721     1.0  0.88267  0.52239  0.21266  1.0000
  C   C1527     1.0  0.84881  0.47228  0.03170  1.0000
  H   H2722     1.0  0.89397  0.39568  0.14165  1.0000
  C   C1528     1.0  0.99008  0.58457  0.99980  1.0000
  H   H2723     1.0  0.84524  0.45604  0.39517  1.0000
  H   H2724     1.0  0.76913  0.55043  0.34514  1.0000
  H   H2725     1.0  0.92006  0.43095  0.07501  1.0000
  H   H2726     1.0  0.77708  0.42197  0.32069  1.0000
  H   H2727     1.0  0.86270  0.47442  0.49441  1.0000
  H   H2728     1.0  0.96627  0.46239  0.08985  1.0000
  C   C1529     1.0  0.86504  0.36442  0.11605  1.0000
  H   H2729     1.0  0.85707  0.43927  0.41926  1.0000
  H   H2730     1.0  0.96334  0.47983  0.49092  1.0000
  H   H2731     1.0  0.87965  0.47263  0.16819  1.0000
  H   H2732     1.0  0.83756  0.43566  0.09081  1.0000
  Fe  Fe174     1.0  0.92778  0.51091  0.49267  1.0000
  H   H2733     1.0  0.87891  0.41955  0.42262  1.0000
  H   H2734     1.0  0.78479  0.43066  0.21055  1.0000
  C   C1530     1.0  0.97268  0.46915  0.01866  1.0000
  H   H2735     1.0  0.87217  0.48889  0.43207  1.0000
  H   H2736     1.0  0.91343  0.46255  0.09054  1.0000
  C   C1531     1.0  0.92458  0.56428  0.26278  1.0000
  C   C1532     1.0  0.89567  0.45559  0.02993  1.0000
  H   H2737     1.0  0.88280  0.45224  0.45816  1.0000
  H   H2738     1.0  0.95883  0.46464  0.01105  1.0000
  H   H2739     1.0  0.95839  0.44405  0.43794  1.0000
  H   H2740     1.0  0.91268  0.41485  0.13147  1.0000
  H   H2741     1.0  0.79190  0.40765  0.18621  1.0000
  S   S351      1.0  0.84096  0.35977  0.19106  1.0000
  H   H2742     1.0  0.85775  0.46284  0.20431  1.0000
  H   H2743     1.0  0.87763  0.44653  0.08608  1.0000
  H   H2744     1.0  0.87583  0.45780  0.21438  1.0000
  C   C1533     1.0  0.87041  0.47525  0.43646  1.0000
  H   H2745     1.0  0.83159  0.41240  0.08599  1.0000
  N   N86       1.0  0.87260  0.46653  0.40943  1.0000
  C   C1534     1.0  0.89001  0.47768  0.39698  1.0000
  C   C1535     1.0  0.85825  0.46539  0.38814  1.0000
  C   C1536     1.0  0.87074  0.44807  0.41425  1.0000
  C   C1537     1.0  0.88321  0.44599  0.43739  1.0000
  C   C1538     1.0  0.85954  0.45937  0.35713  1.0000
  C   C1539     1.0  0.90555  0.48854  0.41818  1.0000
  C   C1540     1.0  0.92264  0.49717  0.40281  1.0000
  C   C1541     1.0  0.87831  0.42653  0.44259  1.0000
  C   C1542     1.0  0.84419  0.45863  0.33798  1.0000
  H   H2746     1.0  0.89413  0.46944  0.38290  1.0000
  H   H2747     1.0  0.88880  0.48771  0.38293  1.0000
  H   H2748     1.0  0.85778  0.47847  0.38690  1.0000
  H   H2749     1.0  0.87305  0.44223  0.39428  1.0000
  H   H2750     1.0  0.89681  0.45176  0.43021  1.0000
  H   H2751     1.0  0.85925  0.44603  0.35651  1.0000
  H   H2752     1.0  0.87171  0.46861  0.34750  1.0000
  H   H2753     1.0  0.90327  0.49928  0.42878  1.0000
  H   H2754     1.0  0.90733  0.48032  0.43500  1.0000
  H   H2755     1.0  0.92609  0.48697  0.39309  1.0000
  H   H2756     1.0  0.92150  0.50586  0.38601  1.0000
  H   H2757     1.0  0.93336  0.50532  0.41836  1.0000
  H   H2758     1.0  0.98340  0.46797  0.46208  1.0000
  S   S352      1.0  0.79889  0.33780  0.23229  1.0000
  H   H2759     1.0  0.84561  0.45475  0.31581  1.0000
  H   H2760     1.0  0.83160  0.44878  0.34559  1.0000
  H   H2761     1.0  0.84389  0.47174  0.33762  1.0000
  N   N87       1.0  0.88701  0.44894  0.12993  1.0000
  C   C1543     1.0  0.88052  0.44692  0.15984  1.0000
  C   C1544     1.0  0.89614  0.43708  0.12450  1.0000
  C   C1545     1.0  0.90029  0.46782  0.12750  1.0000
  C   C1546     1.0  0.87249  0.44537  0.10772  1.0000
  C   C1547     1.0  0.85692  0.42700  0.10769  1.0000
  C   C1548     1.0  0.87094  0.45836  0.16846  1.0000
  C   C1549     1.0  0.90919  0.47256  0.09849  1.0000
  C   C1550     1.0  0.88971  0.41944  0.14032  1.0000
  C   C1551     1.0  0.89821  0.40785  0.12920  1.0000
  C   C1552     1.0  0.84260  0.42572  0.08574  1.0000
  C   C1553     1.0  0.86464  0.45459  0.19877  1.0000
  C   C1554     1.0  0.92520  0.49028  0.10052  1.0000
  H   H2762     1.0  0.89170  0.44995  0.17557  1.0000
  H   H2763     1.0  0.87131  0.43311  0.16355  1.0000
  H   H2764     1.0  0.89558  0.43388  0.10124  1.0000
  H   H2765     1.0  0.88076  0.47688  0.45293  1.0000
  C   C1555     1.0  0.79647  0.35803  0.16296  1.0000
  C   C1556     1.0  0.90843  0.56688  0.25103  1.0000
  H   H2766     1.0  0.86993  0.54482  0.28543  1.0000
  C   C1557     1.0  0.80148  0.34775  0.14059  1.0000
  C   C1558     1.0  0.77875  0.43553  0.31599  1.0000
  H   H2767     1.0  0.93603  0.44364  0.10262  1.0000
  H   H2768     1.0  0.86677  0.56989  0.24655  1.0000
  C   C1559     1.0  0.88457  0.55763  0.33728  1.0000
  H   H2769     1.0  0.79276  0.44389  0.31273  1.0000
  H   H2770     1.0  0.89667  0.54425  0.31335  1.0000
  H   H2771     1.0  0.85182  0.55680  0.20004  1.0000
  H   H2772     1.0  0.96833  0.44814  0.06315  1.0000
  C   C1560     1.0  0.74523  0.48086  0.27324  1.0000
  H   H2773     1.0  0.90211  0.50780  0.20999  1.0000
  S   S353      1.0  0.93567  0.49026  0.47672  1.0000
  H   H2774     1.0  0.74880  0.55365  0.29155  1.0000
  Fe  Fe175     1.0  0.82766  0.34456  0.23025  1.0000
  H   H2775     1.0  0.98981  0.51180  0.07419  1.0000
  H   H2776     1.0  0.90683  0.56802  0.31167  1.0000
  C   C1561     1.0  0.87121  0.34456  0.40513  1.0000
  H   H2777     1.0  0.75161  0.43999  0.18595  1.0000
  C   C1562     1.0  0.84257  0.34425  0.40700  1.0000
  H   H2778     1.0  0.88762  0.42532  0.45876  1.0000
  H   H2779     1.0  0.86507  0.54076  0.23385  1.0000
  C   C1563     1.0  0.97222  0.52058  0.05281  1.0000
  H   H2780     1.0  0.80560  0.36136  0.18202  1.0000
  H   H2781     1.0  0.97273  0.51440  0.49275  1.0000
  H   H2782     1.0  0.80996  0.33356  0.16980  1.0000
  H   H2783     1.0  0.88272  0.54991  0.21077  1.0000
  C   C1564     1.0  0.85740  0.34194  0.16237  1.0000
  H   H2784     1.0  0.90491  0.53851  0.21574  1.0000
  H   H2785     1.0  0.93051  0.45468  0.46656  1.0000
  H   H2786     1.0  0.92640  0.55408  0.24976  1.0000
  C   C1565     1.0  0.89060  0.53427  0.25573  1.0000
  C   C1566     1.0  0.87482  0.56888  0.22904  1.0000
  H   H2787     1.0  0.89217  0.55751  0.35702  1.0000
  H   H2788     1.0  0.91040  0.56914  0.22781  1.0000
  C   C1567     1.0  0.85267  0.46595  0.45074  1.0000
  H   H2789     1.0  0.88526  0.45612  0.04191  1.0000
  H   H2790     1.0  0.96190  0.48717  0.07561  1.0000
  C   C1568     1.0  0.83932  0.33962  0.37760  1.0000
  H   H2791     1.0  0.87097  0.47150  0.01232  1.0000
  H   H2792     1.0  0.77685  0.45542  0.23837  1.0000
  N   N88       1.0  0.89061  0.55227  0.25568  1.0000
  C   C1569     1.0  0.76399  0.44526  0.22981  1.0000
  Fe  Fe176     1.0  0.88555  0.36522  0.48853  1.0000
  Fe  Fe177     1.0  0.90453  0.52906  0.47926  1.0000
  H   H2793     1.0  0.84983  0.45208  0.45525  1.0000
  C   C1570     1.0  0.77069  0.40245  0.21502  1.0000
  C   C1571     1.0  0.91036  0.43915  0.00992  1.0000
  C   C1572     1.0  0.77280  0.42794  0.26292  1.0000
  H   H2794     1.0  0.90926  0.57957  0.26018  1.0000
  H   H2795     1.0  0.85524  0.45062  0.02386  1.0000
  C   C1573     1.0  0.86475  0.56839  0.20107  1.0000
  H   H2796     1.0  0.75718  0.39215  0.21672  1.0000
  H   H2797     1.0  0.96446  0.51828  0.03232  1.0000
  C   C1574     1.0  0.76286  0.45013  0.19821  1.0000
  H   H2798     1.0  0.96348  0.51850  0.07086  1.0000
  C   C1575     1.0  0.92425  0.45528  0.48599  1.0000
  H   H2799     1.0  0.93880  0.42642  0.08249  1.0000
  H   H2800     1.0  0.88292  0.57008  0.33731  1.0000
  H   H2801     1.0  0.87754  0.52425  0.26147  1.0000
  H   H2802     1.0  0.94054  0.59179  0.27542  1.0000
  C   C1576     1.0  0.89465  0.52771  0.22694  1.0000
  C   C1577     1.0  0.94130  0.58129  0.26160  1.0000
  C   C1578     1.0  0.86609  0.33925  0.13889  1.0000
  C   C1579     1.0  0.96793  0.48864  0.05450  1.0000
  H   H2803     1.0  0.85586  0.48936  0.47578  1.0000
  C   C1580     1.0  0.85280  0.47526  0.47905  1.0000
  C   C1581     1.0  0.77839  0.39754  0.18914  1.0000
  C   C1582     1.0  0.94417  0.45033  0.05917  1.0000
  H   H2804     1.0  0.84200  0.33891  0.07141  1.0000
  H   H2805     1.0  0.95710  0.48671  0.03856  1.0000
  H   H2806     1.0  0.89972  0.53347  0.27262  1.0000
  N   N89       1.0  0.97485  0.47483  0.04972  1.0000
  H   H2807     1.0  0.95269  0.57893  0.26932  1.0000
  H   H2808     1.0  0.94155  0.44302  0.03833  1.0000
  C   C1583     1.0  0.96414  0.45891  0.06656  1.0000
  H   H2809     1.0  0.88232  0.56801  0.28327  1.0000
  C   C1584     1.0  0.87805  0.55205  0.23175  1.0000
  H   H2810     1.0  0.93863  0.46017  0.05791  1.0000
  C   C1585     1.0  0.85855  0.34683  0.42096  1.0000
  H   H2811     1.0  0.87149  0.54633  0.33762  1.0000
  S   S354      1.0  0.90603  0.39285  0.48442  1.0000
  H   H2812     1.0  0.78696  0.43630  0.26020  1.0000
  H   H2813     1.0  0.86256  0.58051  0.19964  1.0000
  H   H2814     1.0  0.87220  0.56761  0.18246  1.0000
  H   H2815     1.0  0.76902  0.44897  0.28659  1.0000
  H   H2816     1.0  0.82698  0.33771  0.36724  1.0000
  C   C1586     1.0  0.98133  0.50829  0.05431  1.0000
  H   H2817     1.0  0.83448  0.46442  0.03278  1.0000
  H   H2818     1.0  0.95444  0.44926  0.48923  1.0000
  C   C1587     1.0  0.77090  0.42096  0.21204  1.0000
  C   C1588     1.0  0.98313  0.41288  0.04851  1.0000
  H   H2819     1.0  0.81522  0.35611  0.13539  1.0000
  C   C1589     1.0  0.76134  0.46759  0.19604  1.0000
  H   H2820     1.0  0.98984  0.51100  0.03601  1.0000
  C   C1590     1.0  0.97939  0.45471  0.47082  1.0000
  H   H2821     1.0  0.74963  0.51489  0.21585  1.0000
  H   H2822     1.0  0.76470  0.42083  0.19080  1.0000
  H   H2823     1.0  0.91553  0.42783  0.49379  1.0000
  H   H2824     1.0  0.74784  0.53364  0.30547  1.0000
  H   H2825     1.0  0.97835  0.44261  0.42911  1.0000
  H   H2826     1.0  0.79308  0.34605  0.12113  1.0000
  H   H2827     1.0  0.97547  0.45740  0.01559  1.0000
  H   H2828     1.0  0.77495  0.45167  0.18757  1.0000
  C   C1591     1.0  0.74828  0.50529  0.23181  1.0000
  H   H2829     1.0  0.86496  0.42005  0.45075  1.0000
  C   C1592     1.0  0.98795  0.41565  0.49077  1.0000
  H   H2830     1.0  0.98502  0.40813  0.06909  1.0000
  C   C1593     1.0  0.99363  0.48151  0.06087  1.0000
  H   H2831     1.0  0.81005  0.33549  0.09615  1.0000
  H   H2832     1.0  0.76996  0.57082  0.33125  1.0000
  H   H2833     1.0  0.85473  0.47421  0.05371  1.0000
  C   C1594     1.0  0.76758  0.55705  0.32560  1.0000
  C   C1595     1.0  0.96348  0.41211  0.00872  1.0000
  H   H2834     1.0  0.78289  0.35028  0.16952  1.0000
  H   H2835     1.0  0.98589  0.41810  0.46873  1.0000
  H   H2836     1.0  0.83976  0.46889  0.48832  1.0000
  H   H2837     1.0  0.77866  0.40205  0.23402  1.0000
  C   C1596     1.0  0.96945  0.44145  0.44658  1.0000
  H   H2838     1.0  0.77481  0.44102  0.33471  1.0000
  H   H2839     1.0  0.75407  0.44781  0.24171  1.0000
  H   H2840     1.0  0.87742  0.33716  0.36415  1.0000
  H   H2841     1.0  0.99136  0.45294  0.47693  1.0000
  H   H2842     1.0  0.76062  0.47075  0.17328  1.0000
  C   C1597     1.0  0.85180  0.33690  0.36194  1.0000
  H   H2843     1.0  0.85146  0.48546  0.02329  1.0000
  H   H2844     1.0  0.96415  0.42777  0.45415  1.0000
  C   C1598     1.0  0.74931  0.54700  0.31158  1.0000
  C   C1599     1.0  0.92082  0.47027  0.00143  1.0000
  H   H2845     1.0  0.91207  0.42721  0.00793  1.0000
  S   S355      1.0  0.95226  0.39593  0.48933  1.0000
  Fe  Fe178     1.0  0.82925  0.33295  0.29237  1.0000
  C   C1600     1.0  0.92469  0.47127  0.49574  1.0000
  H   H2846     1.0  0.98649  0.48880  0.49240  1.0000
  H   H2847     1.0  0.99457  0.48517  0.08402  1.0000
  H   H2848     1.0  0.85459  0.33327  0.18019  1.0000
  H   H2849     1.0  0.98352  0.38862  0.99920  1.0000
  H   H2850     1.0  0.97871  0.49392  0.99725  1.0000
  C   C1601     1.0  0.98340  0.48340  0.99782  1.0000
  C   C1602     1.0  0.96792  0.45183  0.49703  1.0000
  H   H2851     1.0  0.90946  0.41627  0.65206  1.0000
  H   H2852     1.0  0.97965  0.59416  0.61590  1.0000
  H   H2853     1.0  0.78771  0.47416  0.85782  1.0000
  Fe  Fe179     1.0  0.89955  0.39815  0.52842  1.0000
  S   S356      1.0  0.91937  0.39123  0.55121  1.0000
  S   S357      1.0  0.89600  0.42163  0.54505  1.0000
  H   H2854     1.0  0.94866  0.53330  0.65504  1.0000
  C   C1603     1.0  0.98110  0.58563  0.59887  1.0000
  Fe  Fe180     1.0  0.89767  0.36385  0.55099  1.0000
  S   S358      1.0  0.89218  0.34787  0.59140  1.0000
  C   C1604     1.0  0.97652  0.40180  0.53486  1.0000
  S   S359      1.0  0.87760  0.37145  0.53120  1.0000
  Fe  Fe181     1.0  0.94078  0.54906  0.51041  1.0000
  S   S360      1.0  0.91343  0.54557  0.52063  1.0000
  C   C1605     1.0  0.97573  0.49808  0.52647  1.0000
  Fe  Fe182     1.0  0.82660  0.33501  0.72415  1.0000
  C   C1606     1.0  0.89336  0.44051  0.61650  1.0000
  H   H2855     1.0  0.84880  0.38138  0.87133  1.0000
  H   H2856     1.0  0.85319  0.40726  0.66941  1.0000
  S   S361      1.0  0.89445  0.53960  0.93823  1.0000
  Fe  Fe183     1.0  0.91061  0.52070  0.54219  1.0000
  S   S362      1.0  0.90113  0.50901  0.58588  1.0000
  H   H2857     1.0  0.75751  0.51762  0.65383  1.0000
  S   S363      1.0  0.93839  0.52530  0.53431  1.0000
  Fe  Fe184     1.0  0.84125  0.50190  0.72192  1.0000
  S   S364      1.0  0.81285  0.48373  0.71339  1.0000
  S   S365      1.0  0.85497  0.51888  0.68434  1.0000
  Fe  Fe185     1.0  0.84011  0.49151  0.78548  1.0000
  S   S366      1.0  0.81159  0.47228  0.78032  1.0000
  S   S367      1.0  0.85396  0.49089  0.82847  1.0000
  Fe  Fe186     1.0  0.81899  0.46436  0.73868  1.0000
  S   S368      1.0  0.80963  0.43700  0.71877  1.0000
  Fe  Fe187     1.0  0.80758  0.49317  0.75549  1.0000
  S   S369      1.0  0.78624  0.50297  0.76236  1.0000
  S   S370      1.0  0.84766  0.48189  0.74501  1.0000
  S   S371      1.0  0.83582  0.51303  0.76288  1.0000
  Fe  Fe188     1.0  0.81692  0.35354  0.77277  1.0000
  S   S372      1.0  0.81901  0.37894  0.79341  1.0000
  S   S373      1.0  0.84202  0.35256  0.76154  1.0000
  C   C1607     1.0  0.81316  0.42127  0.73929  1.0000
  C   C1608     1.0  0.81900  0.42489  0.76791  1.0000
  C   C1609     1.0  0.82092  0.41184  0.78421  1.0000
  C   C1610     1.0  0.81724  0.39521  0.77192  1.0000
  C   C1611     1.0  0.81188  0.39175  0.74308  1.0000
  C   C1612     1.0  0.80976  0.40474  0.72686  1.0000
  H   H2858     1.0  0.82170  0.43761  0.77764  1.0000
  H   H2859     1.0  0.82510  0.41458  0.80650  1.0000
  H   H2860     1.0  0.80900  0.37896  0.73348  1.0000
  H   H2861     1.0  0.80522  0.40182  0.70480  1.0000
  C   C1613     1.0  0.83083  0.45305  0.89098  1.0000
  C   C1614     1.0  0.76288  0.49221  0.76100  1.0000
  H   H2862     1.0  0.83390  0.35421  0.89959  1.0000
  S   S374      1.0  0.96506  0.57494  0.52011  1.0000
  H   H2863     1.0  0.76053  0.46628  0.75006  1.0000
  C   C1615     1.0  0.86647  0.50531  0.85746  1.0000
  C   C1616     1.0  0.87342  0.49848  0.87934  1.0000
  C   C1617     1.0  0.88225  0.50884  0.90390  1.0000
  C   C1618     1.0  0.88438  0.52628  0.90686  1.0000
  C   C1619     1.0  0.87788  0.53327  0.88460  1.0000
  C   C1620     1.0  0.86906  0.52291  0.86001  1.0000
  H   H2864     1.0  0.87180  0.48502  0.87734  1.0000
  H   H2865     1.0  0.88727  0.50335  0.92071  1.0000
  H   H2866     1.0  0.87962  0.54679  0.88648  1.0000
  H   H2867     1.0  0.86428  0.52856  0.84314  1.0000
  C   C1621     1.0  0.88874  0.51258  0.61324  1.0000
  C   C1622     1.0  0.88695  0.50347  0.63878  1.0000
  C   C1623     1.0  0.87678  0.50528  0.66076  1.0000
  C   C1624     1.0  0.86827  0.51633  0.65757  1.0000
  C   C1625     1.0  0.87032  0.52569  0.63225  1.0000
  C   C1626     1.0  0.88038  0.52376  0.61015  1.0000
  H   H2868     1.0  0.89336  0.49482  0.64154  1.0000
  H   H2869     1.0  0.87552  0.49819  0.68022  1.0000
  H   H2870     1.0  0.86388  0.53434  0.62955  1.0000
  H   H2871     1.0  0.88152  0.53082  0.59066  1.0000
  C   C1627     1.0  0.98729  0.57836  0.51732  1.0000
  C   C1628     1.0  0.91645  0.47202  0.52071  1.0000
  Fe  Fe189     1.0  0.90871  0.53352  0.97626  1.0000
  H   H2872     1.0  0.90200  0.37633  0.85185  1.0000
  C   C1629     1.0  0.90232  0.37526  0.91444  1.0000
  C   C1630     1.0  0.85259  0.39300  0.88613  1.0000
  H   H2873     1.0  0.83184  0.34270  0.85007  1.0000
  H   H2874     1.0  0.77387  0.47048  0.80848  1.0000
  H   H2875     1.0  0.92508  0.36942  0.91209  1.0000
  H   H2876     1.0  0.84591  0.43619  0.91997  1.0000
  S   S375      1.0  0.89567  0.39471  0.98426  1.0000
  C   C1631     1.0  0.99175  0.56507  0.50733  1.0000
  H   H2877     1.0  0.92062  0.37447  0.94776  1.0000
  H   H2878     1.0  0.86318  0.38917  0.71901  1.0000
  C   C1632     1.0  0.82811  0.34106  0.54483  1.0000
  Fe  Fe190     1.0  0.87664  0.36638  0.98514  1.0000
  C   C1633     1.0  0.87588  0.34645  0.61550  1.0000
  C   C1634     1.0  0.86271  0.35171  0.60794  1.0000
  H   H2879     1.0  0.86580  0.43604  0.99053  1.0000
  C   C1635     1.0  0.84982  0.34330  0.65442  1.0000
  H   H2880     1.0  0.86250  0.35710  0.58727  1.0000
  H   H2881     1.0  0.97682  0.58932  0.57834  1.0000
  H   H2882     1.0  0.97865  0.58125  0.98569  1.0000
  H   H2883     1.0  0.98840  0.45422  0.56831  1.0000
  C   C1636     1.0  0.90707  0.44065  0.52592  1.0000
  H   H2884     1.0  0.97769  0.56114  0.61808  1.0000
  N   N90       1.0  0.88259  0.40942  0.63833  1.0000
  H   H2885     1.0  0.85629  0.33415  0.55109  1.0000
  Fe  Fe191     1.0  0.92493  0.38424  0.50750  1.0000
  C   C1637     1.0  0.90749  0.45667  0.53564  1.0000
  H   H2886     1.0  0.96377  0.58780  0.69640  1.0000
  H   H2887     1.0  0.90580  0.44059  0.60971  1.0000
  H   H2888     1.0  0.93254  0.44624  0.57599  1.0000
  H   H2889     1.0  0.90095  0.45725  0.55472  1.0000
  H   H2890     1.0  0.83767  0.41020  0.94793  1.0000
  H   H2891     1.0  0.84433  0.37925  0.69448  1.0000
  H   H2892     1.0  0.90220  0.46791  0.60510  1.0000
  C   C1638     1.0  0.99377  0.40838  0.54683  1.0000
  H   H2893     1.0  0.95373  0.56457  0.70398  1.0000
  C   C1639     1.0  0.77278  0.51800  0.69149  1.0000
  C   C1640     1.0  0.93001  0.43349  0.90253  1.0000
  H   H2894     1.0  0.88376  0.43607  0.59803  1.0000
  H   H2895     1.0  0.93665  0.42821  0.91806  1.0000
  H   H2896     1.0  0.91130  0.39309  0.80766  1.0000
  C   C1641     1.0  0.85375  0.39182  0.70500  1.0000
  C   C1642     1.0  0.94936  0.53076  0.63196  1.0000
  C   C1643     1.0  0.91638  0.57534  0.58445  1.0000
  H   H2897     1.0  0.86018  0.42021  0.93917  1.0000
  C   C1644     1.0  0.86310  0.33819  0.66217  1.0000
  C   C1645     1.0  0.87491  0.39917  0.66470  1.0000
  C   C1646     1.0  0.84109  0.34151  0.86539  1.0000
  S   S376      1.0  0.85575  0.35642  0.94857  1.0000
  H   H2898     1.0  0.82971  0.46432  0.88042  1.0000
  C   C1647     1.0  0.84287  0.39358  0.58296  1.0000
  H   H2899     1.0  0.96783  0.47003  0.56279  1.0000
  H   H2900     1.0  0.97933  0.54312  0.95106  1.0000
  H   H2901     1.0  0.86862  0.38692  0.60992  1.0000
  N   N91       1.0  0.83473  0.45489  0.63024  1.0000
  C   C1648     1.0  0.81818  0.43872  0.63514  1.0000
  C   C1649     1.0  0.83187  0.47095  0.63829  1.0000
  C   C1650     1.0  0.83900  0.45488  0.59929  1.0000
  C   C1651     1.0  0.84993  0.45509  0.64834  1.0000
  C   C1652     1.0  0.84691  0.45212  0.68058  1.0000
  C   C1653     1.0  0.81911  0.42076  0.63064  1.0000
  C   C1654     1.0  0.85447  0.47175  0.58960  1.0000
  C   C1655     1.0  0.81834  0.47441  0.61923  1.0000
  C   C1656     1.0  0.81789  0.49184  0.62802  1.0000
  C   C1657     1.0  0.86379  0.45493  0.69725  1.0000
  C   C1658     1.0  0.80159  0.40550  0.63635  1.0000
  C   C1659     1.0  0.85725  0.47044  0.55783  1.0000
  H   H2902     1.0  0.80736  0.43836  0.62057  1.0000
  H   H2903     1.0  0.81370  0.43927  0.65703  1.0000
  H   H2904     1.0  0.82733  0.47009  0.66041  1.0000
  H   H2905     1.0  0.84438  0.48297  0.63876  1.0000
  H   H2906     1.0  0.82730  0.45235  0.58509  1.0000
  H   H2907     1.0  0.84254  0.44382  0.59439  1.0000
  H   H2908     1.0  0.85415  0.44506  0.64019  1.0000
  H   H2909     1.0  0.86142  0.46797  0.64682  1.0000
  H   H2910     1.0  0.83727  0.43846  0.68411  1.0000
  H   H2911     1.0  0.84209  0.46133  0.68991  1.0000
  H   H2912     1.0  0.82217  0.41895  0.60839  1.0000
  H   H2913     1.0  0.82917  0.41961  0.64518  1.0000
  H   H2914     1.0  0.86681  0.47363  0.60124  1.0000
  H   H2915     1.0  0.85220  0.48369  0.59324  1.0000
  H   H2916     1.0  0.82153  0.47526  0.59646  1.0000
  H   H2917     1.0  0.80502  0.46381  0.62132  1.0000
  H   H2918     1.0  0.81444  0.49175  0.65064  1.0000
  H   H2919     1.0  0.83083  0.50303  0.62536  1.0000
  H   H2920     1.0  0.80796  0.49396  0.61446  1.0000
  H   H2921     1.0  0.87362  0.46881  0.69602  1.0000
  H   H2922     1.0  0.86097  0.45208  0.72004  1.0000
  H   H2923     1.0  0.86927  0.44601  0.68887  1.0000
  H   H2924     1.0  0.80277  0.39282  0.63460  1.0000
  H   H2925     1.0  0.79752  0.40689  0.65814  1.0000
  H   H2926     1.0  0.79130  0.40511  0.62060  1.0000
  H   H2927     1.0  0.84537  0.46886  0.54494  1.0000
  H   H2928     1.0  0.86831  0.48272  0.55151  1.0000
  H   H2929     1.0  0.86052  0.45919  0.55311  1.0000
  H   H2930     1.0  0.94473  0.50358  0.63867  1.0000
  H   H2931     1.0  0.88549  0.39962  0.68006  1.0000
  H   H2932     1.0  0.90712  0.35351  0.93054  1.0000
  C   C1660     1.0  0.84972  0.35003  0.62717  1.0000
  H   H2933     1.0  0.89191  0.37281  0.92977  1.0000
  H   H2934     1.0  0.91764  0.37792  0.63039  1.0000
  H   H2935     1.0  0.77722  0.48808  0.86791  1.0000
  C   C1661     1.0  0.96831  0.57084  0.66512  1.0000
  H   H2936     1.0  0.99313  0.36549  0.98183  1.0000
  H   H2937     1.0  0.88607  0.33546  0.64877  1.0000
  H   H2938     1.0  0.89086  0.37378  0.80249  1.0000
  H   H2939     1.0  0.96703  0.46997  0.96020  1.0000
  H   H2940     1.0  0.92473  0.39781  0.90015  1.0000
  C   C1662     1.0  0.88604  0.42856  0.64233  1.0000
  H   H2941     1.0  0.90167  0.41286  0.85006  1.0000
  H   H2942     1.0  0.93489  0.42632  0.58321  1.0000
  H   H2943     1.0  0.87502  0.40718  0.86231  1.0000
  S   S377      1.0  0.90471  0.35580  0.50865  1.0000
  C   C1663     1.0  0.95270  0.56892  0.64464  1.0000
  H   H2944     1.0  0.94038  0.56098  0.65541  1.0000
  H   H2945     1.0  0.87496  0.41726  0.89637  1.0000
  H   H2946     1.0  0.77548  0.50660  0.68517  1.0000
  H   H2947     1.0  0.92643  0.39985  0.61699  1.0000
  H   H2948     1.0  0.82342  0.33669  0.56642  1.0000
  H   H2949     1.0  0.83801  0.44795  0.87677  1.0000
  H   H2950     1.0  0.91577  0.40128  0.93190  1.0000
  C   C1664     1.0  0.90528  0.40327  0.86150  1.0000
  H   H2951     1.0  0.93104  0.45450  0.93177  1.0000
  H   H2952     1.0  0.92441  0.39654  0.65501  1.0000
  C   C1665     1.0  0.85132  0.41654  0.95706  1.0000
  H   H2953     1.0  0.96257  0.49494  0.53456  1.0000
  H   H2954     1.0  0.86722  0.38490  0.65897  1.0000
  N   N92       1.0  0.81126  0.51294  0.85953  1.0000
  C   C1666     1.0  0.82634  0.52563  0.84338  1.0000
  C   C1667     1.0  0.81796  0.50283  0.87920  1.0000
  C   C1668     1.0  0.79842  0.49991  0.83787  1.0000
  C   C1669     1.0  0.80195  0.52187  0.87582  1.0000
  C   C1670     1.0  0.81318  0.54100  0.88759  1.0000
  C   C1671     1.0  0.82130  0.53508  0.81887  1.0000
  C   C1672     1.0  0.78304  0.48394  0.85005  1.0000
  C   C1673     1.0  0.83085  0.51357  0.90399  1.0000
  C   C1674     1.0  0.83751  0.50206  0.92095  1.0000
  C   C1675     1.0  0.80302  0.54691  0.90833  1.0000
  C   C1676     1.0  0.83716  0.55123  0.80972  1.0000
  H   H2955     1.0  0.90606  0.42417  0.92524  1.0000
  H   H2956     1.0  0.83346  0.51854  0.83349  1.0000
  H   H2957     1.0  0.83627  0.53578  0.85789  1.0000
  H   H2958     1.0  0.80702  0.49238  0.88984  1.0000
  H   H2959     1.0  0.82433  0.49595  0.86657  1.0000
  H   H2960     1.0  0.80529  0.49453  0.82342  1.0000
  H   H2961     1.0  0.79246  0.50665  0.82380  1.0000
  H   H2962     1.0  0.79122  0.52267  0.86224  1.0000
  H   H2963     1.0  0.79524  0.51369  0.89398  1.0000
  H   H2964     1.0  0.81685  0.55037  0.86997  1.0000
  H   H2965     1.0  0.82548  0.54250  0.89879  1.0000
  H   H2966     1.0  0.81606  0.52597  0.79999  1.0000
  H   H2967     1.0  0.81101  0.53924  0.82486  1.0000
  H   H2968     1.0  0.75826  0.46255  0.83596  1.0000
  C   C1677     1.0  0.85457  0.34720  0.91376  1.0000
  H   H2969     1.0  0.84237  0.52475  0.89617  1.0000
  H   H2970     1.0  0.82414  0.51858  0.91921  1.0000
  H   H2971     1.0  0.84755  0.51031  0.93742  1.0000
  H   H2972     1.0  0.82662  0.49163  0.93171  1.0000
  H   H2973     1.0  0.84361  0.49585  0.90668  1.0000
  H   H2974     1.0  0.79978  0.53852  0.92728  1.0000
  H   H2975     1.0  0.81112  0.56076  0.91570  1.0000
  H   H2976     1.0  0.79076  0.54619  0.89772  1.0000
  H   H2977     1.0  0.83330  0.55709  0.79117  1.0000
  H   H2978     1.0  0.84228  0.56130  0.82740  1.0000
  H   H2979     1.0  0.84767  0.54745  0.80330  1.0000
  H   H2980     1.0  0.89527  0.43450  0.66113  1.0000
  H   H2981     1.0  0.85186  0.39090  0.96013  1.0000
  H   H2982     1.0  0.97618  0.42861  0.97405  1.0000
  H   H2983     1.0  0.83362  0.45115  0.98498  1.0000
  H   H2984     1.0  0.76244  0.48327  0.82011  1.0000
  H   H2985     1.0  0.92514  0.50680  0.63278  1.0000
  N   N93       1.0  0.85444  0.44894  0.96208  1.0000
  C   C1678     1.0  0.85382  0.43266  0.97651  1.0000
  S   S378      1.0  0.83283  0.34140  0.67725  1.0000
  C   C1679     1.0  0.87297  0.46110  0.95545  1.0000
  C   C1680     1.0  0.88174  0.45428  0.93288  1.0000
  C   C1681     1.0  0.84071  0.45922  0.91989  1.0000
  H   H2986     1.0  0.98058  0.58162  0.65842  1.0000
  C   C1682     1.0  0.89861  0.46908  0.92348  1.0000
  C   C1683     1.0  0.85169  0.33334  0.85722  1.0000
  C   C1684     1.0  0.76856  0.47452  0.82719  1.0000
  H   H2987     1.0  0.96302  0.53385  0.62689  1.0000
  H   H2988     1.0  0.84974  0.47167  0.97391  1.0000
  H   H2989     1.0  0.87387  0.47418  0.94910  1.0000
  H   H2990     1.0  0.88169  0.46414  0.97497  1.0000
  H   H2991     1.0  0.87329  0.44881  0.91335  1.0000
  H   H2992     1.0  0.88526  0.44407  0.94227  1.0000
  H   H2993     1.0  0.83344  0.46493  0.93265  1.0000
  H   H2994     1.0  0.85371  0.46976  0.91586  1.0000
  H   H2995     1.0  0.78383  0.53026  0.68519  1.0000
  H   H2996     1.0  0.95137  0.44715  0.59693  1.0000
  H   H2997     1.0  0.89579  0.47929  0.91250  1.0000
  H   H2998     1.0  0.90774  0.47530  0.94209  1.0000
  H   H2999     1.0  0.90504  0.46371  0.90835  1.0000
  H   H3000     1.0  0.91705  0.48442  0.52870  1.0000
  H   H3001     1.0  0.89207  0.38133  0.64770  1.0000
  C   C1685     1.0  0.84239  0.34817  0.89352  1.0000
  C   C1686     1.0  0.94272  0.56865  0.59465  1.0000
  N   N94       1.0  0.90242  0.40395  0.89305  1.0000
  H   H3002     1.0  0.90589  0.41550  0.61430  1.0000
  H   H3003     1.0  0.92289  0.58896  0.59377  1.0000
  N   N95       1.0  0.97421  0.46649  0.51956  1.0000
  C   C1687     1.0  0.75570  0.51659  0.67713  1.0000
  S   S379      1.0  0.93641  0.53616  0.97426  1.0000
  H   H3004     1.0  0.92072  0.56384  0.62279  1.0000
  C   C1688     1.0  0.94214  0.44046  0.57857  1.0000
  H   H3005     1.0  0.89401  0.38436  0.60985  1.0000
  C   C1689     1.0  0.93877  0.51097  0.62623  1.0000
  C   C1690     1.0  0.96547  0.57536  0.69562  1.0000
  C   C1691     1.0  0.89975  0.39032  0.63119  1.0000
  C   C1692     1.0  0.84225  0.44382  0.93580  1.0000
  S   S380      1.0  0.93521  0.48929  0.98547  1.0000
  H   H3006     1.0  0.82881  0.43467  0.94162  1.0000
  H   H3007     1.0  0.92840  0.53779  0.62200  1.0000
  H   H3008     1.0  0.93973  0.53636  0.59172  1.0000
  H   H3009     1.0  0.87419  0.33759  0.92130  1.0000
  C   C1693     1.0  0.94173  0.54149  0.61417  1.0000
  H   H3010     1.0  0.91521  0.54966  0.59131  1.0000
  H   H3011     1.0  0.81747  0.44259  0.89362  1.0000
  C   C1694     1.0  0.95206  0.44229  0.55130  1.0000
  H   H3012     1.0  0.85336  0.41424  0.61509  1.0000
  C   C1695     1.0  0.89583  0.38513  0.84552  1.0000
  H   H3013     1.0  0.96561  0.39364  0.54722  1.0000
  H   H3014     1.0  0.83951  0.35401  0.62095  1.0000
  C   C1696     1.0  0.92310  0.56331  0.59979  1.0000
  H   H3015     1.0  0.96867  0.55865  0.58295  1.0000
  C   C1697     1.0  0.87217  0.40457  0.88506  1.0000
  C   C1698     1.0  0.96137  0.46193  0.54314  1.0000
  H   H3016     1.0  0.94350  0.56458  0.57218  1.0000
  H   H3017     1.0  0.93061  0.45927  0.89432  1.0000
  H   H3018     1.0  0.97221  0.37536  0.93702  1.0000
  H   H3019     1.0  0.90207  0.57037  0.58684  1.0000
  C   C1699     1.0  0.86508  0.33887  0.90577  1.0000
  C   C1700     1.0  0.87597  0.33962  0.64268  1.0000
  H   H3020     1.0  0.90413  0.43043  0.88965  1.0000
  N   N96       1.0  0.95204  0.56127  0.61497  1.0000
  C   C1701     1.0  0.96991  0.56578  0.60381  1.0000
  H   H3021     1.0  0.94236  0.43453  0.53404  1.0000
  H   H3022     1.0  0.84512  0.40052  0.87910  1.0000
  H   H3023     1.0  0.96115  0.43606  0.55460  1.0000
  S   S381      1.0  0.89994  0.50413  0.50182  1.0000
  H   H3024     1.0  0.87399  0.42992  0.64743  1.0000
  C   C1702     1.0  0.89737  0.38701  0.81327  1.0000
  H   H3025     1.0  0.94934  0.58330  0.59536  1.0000
  H   H3026     1.0  0.91888  0.57562  0.56135  1.0000
  H   H3027     1.0  0.95024  0.45988  0.91146  1.0000
  H   H3028     1.0  0.95309  0.58236  0.64363  1.0000
  H   H3029     1.0  0.97699  0.57714  0.70965  1.0000
  H   H3030     1.0  0.84139  0.37992  0.57882  1.0000
  H   H3031     1.0  0.84898  0.38847  0.90805  1.0000
  H   H3032     1.0  0.97047  0.55874  0.66556  1.0000
  S   S382      1.0  0.80178  0.33753  0.73421  1.0000
  H   H3033     1.0  0.89078  0.39517  0.80521  1.0000
  C   C1703     1.0  0.90981  0.42309  0.90295  1.0000
  C   C1704     1.0  0.75353  0.47417  0.75467  1.0000
  S   S383      1.0  0.89791  0.50645  0.99383  1.0000
  H   H3034     1.0  0.87692  0.38154  0.89314  1.0000
  C   C1705     1.0  0.84795  0.45873  0.98252  1.0000
  H   H3035     1.0  0.81809  0.34397  0.53293  1.0000
  C   C1706     1.0  0.85463  0.40273  0.97395  1.0000
  C   C1707     1.0  0.87090  0.40092  0.61231  1.0000
  C   C1708     1.0  0.93574  0.45295  0.91055  1.0000
  C   C1709     1.0  0.91461  0.36778  0.92695  1.0000
  H   H3036     1.0  0.88510  0.46075  0.62999  1.0000
  H   H3037     1.0  0.88163  0.39607  0.92272  1.0000
  C   C1710     1.0  0.91823  0.39132  0.63356  1.0000
  H   H3038     1.0  0.76047  0.51609  0.77223  1.0000
  H   H3039     1.0  0.89613  0.36777  0.89448  1.0000
  S   S384      1.0  0.94263  0.40314  0.99021  1.0000
  C   C1711     1.0  0.90003  0.40890  0.63414  1.0000
  H   H3040     1.0  0.93479  0.43281  0.88107  1.0000
  H   H3041     1.0  0.90717  0.46498  0.64173  1.0000
  C   C1712     1.0  0.97352  0.40515  0.50654  1.0000
  C   C1713     1.0  0.89715  0.45966  0.62391  1.0000
  H   H3042     1.0  0.98860  0.48613  0.95279  1.0000
  C   C1714     1.0  0.91210  0.39529  0.90989  1.0000
  H   H3043     1.0  0.91941  0.40769  0.85780  1.0000
  H   H3044     1.0  0.84631  0.39696  0.71853  1.0000
  H   H3045     1.0  0.84462  0.39209  0.62830  1.0000
  C   C1715     1.0  0.86323  0.40524  0.68268  1.0000
  H   H3046     1.0  0.82964  0.39335  0.58307  1.0000
  H   H3047     1.0  0.85009  0.40200  0.56543  1.0000
  C   C1716     1.0  0.88323  0.39576  0.89926  1.0000
  H   H3048     1.0  0.87747  0.40704  0.59268  1.0000
  C   C1717     1.0  0.85257  0.40082  0.61171  1.0000
  H   H3049     1.0  0.88167  0.37865  0.84933  1.0000
  H   H3050     1.0  0.87153  0.41787  0.69427  1.0000
  H   H3051     1.0  0.84033  0.35339  0.54696  1.0000
  H   H3052     1.0  0.77212  0.51850  0.71505  1.0000
  H   H3053     1.0  0.98152  0.55239  0.50060  1.0000
  H   H3054     1.0  0.93855  0.50752  0.60320  1.0000
  H   H3055     1.0  0.95035  0.46534  0.53693  1.0000
  C   C1718     1.0  0.75343  0.50215  0.76711  1.0000
  H   H3056     1.0  0.75359  0.52806  0.68486  1.0000
  H   H3057     1.0  0.98127  0.52582  0.52656  1.0000
  H   H3058     1.0  0.98932  0.44319  0.53535  1.0000
  C   C1719     1.0  0.98682  0.38761  0.97680  1.0000
  H   H3059     1.0  0.84269  0.42748  0.99100  1.0000
  H   H3060     1.0  0.84612  0.39861  0.99246  1.0000
  H   H3061     1.0  0.86850  0.40814  0.98178  1.0000
  C   C1720     1.0  0.91563  0.44003  0.50128  1.0000
  C   C1721     1.0  0.97937  0.53905  0.97346  1.0000
  H   H3062     1.0  0.96743  0.52670  0.97612  1.0000
  H   H3063     1.0  0.93207  0.45372  0.98405  1.0000
  H   H3064     1.0  0.98486  0.50010  0.54512  1.0000
  H   H3065     1.0  0.96672  0.43918  0.50589  1.0000
  H   H3066     1.0  0.96332  0.36317  0.96868  1.0000
  C   C1722     1.0  0.96975  0.37652  0.95988  1.0000
  C   C1723     1.0  0.98159  0.51562  0.51153  1.0000
  C   C1724     1.0  0.97492  0.48301  0.50579  1.0000
  H   H3067     1.0  0.97883  0.54929  0.98804  1.0000
  H   H3068     1.0  0.99405  0.52401  0.96821  1.0000
  C   C1725     1.0  0.98105  0.47562  0.96748  1.0000
  H   H3069     1.0  0.96066  0.38292  0.96140  1.0000
  C   C1726     1.0  0.99247  0.47051  0.53097  1.0000
  H   H3070     1.0  0.98582  0.46515  0.96650  1.0000
  Fe  Fe192     1.0  0.92585  0.51013  0.99511  1.0000
  C   C1727     1.0  0.97804  0.42434  0.99504  1.0000
  H   H3071     1.0  0.99215  0.40097  0.96794  1.0000
  H   H3072     1.0  0.86332  0.33293  0.68302  1.0000
  C   C1728     1.0  0.92203  0.45433  0.99704  1.0000
