data_image0
_chemical_formula_structural       FeCSH3SH2C2H4SH2CHNHFeH5CHC2H3CHCH4C2HCH2CFeH2SCH2CH2CHCH2C3NH2CH2C3H2C2H2CH8C2H3C2H3CNHCH2CH4CH3CH2CSH3CH2S2CSCHC2HCHCHSCH2Fe2H2FeS2FeS2FeSFeS3FeS2FeS2FeSFeS3FeSFeS2FeSFeS3FeSFeS2FeSFeS3FeS2CHCH2SCSHCHCH2C3HC3H3C2SCH6C6H4C6H4C6H4C6H4C6H4C6H4CNC11H25SCH4C6H3CH3CHC3H3CHCHC2HCH4NC11H25C6H13NC12H28CH4SNHC2H9CHC2H3CH2C3H7FeH8CH3C2HC2H5CH3CH2C2HCHCHCHC2H3C3NH3C2H4CH7CH2C2SH5C2H3CHNH5CHFeH4C2H2CH3C2H3C2H4CHCHCH2N2CH2CNH3CHC4HCHNSHCHC3H6CH20CHCH6CHCHC2H11C2HCH2FeSHFeSFe2S2FeS2HFeCHFeSHSH2CH2CHC3H11C3HC2HCH2C2HC3HCSH7FeSCH2SCH5C2SH2CH2C2HC3H2CH2CH2NCH2CHSCH2SC4H5CH4CHCHCH11C2HC2HCHCH3C2H2N2CHCHCHC3H4CH6C2SH3CH4SHFeSFeCSH4FeHSC2HSHC2SH3FeS2HCH5CHC8H4C6H4C2H2C2H5CH4C2H5NHC2H4FeSNCH3SHC2H3FeH3CH2CH2C2H9CH7CH3C2HCHFeH3CHNCHC3S2H2NC2HC3H3C3H6FeH5CH5CH5CHCHCH2CHSC2HC2H2CH2FeS2FeS2FeSFeS3FeS3H2FeCFeHS2HSHFeSHSFeS2H2CFeC6H2CHCHFeSC6H5C4H2CHCHC3HSCH2CHC6H4C2HC3HCHC6H2NCHC5H2CH2SH5C2H14CH3SH4CNC12H28CHC2HCHCHC3H7CHCH2NH2CH4C2H2C2H5SH3NC9HC2H20CH2C2H6CH7CHCHSH7NH2FeH2CH3CH2C3H4CH4FeH3C2SC2HCHCSHCH7NH5FeHC2HC2H2CH2C4H4SH2FeH2SHCHCH2C2FeC2SNH2CH2CH3C2H5CHC3HCSH3CHFeH2CH2SCHC3H7SCSHFeS2FeS2FeSFeS3CSH2SHCHFeSHSFeS2FeSFeSFeS3FeS2FeS2Fe2S3H4C6H4C6H4C6HCH4SH5CHC2H2C6H4C6H4C6H4C3H3CH4NC9H11NH12NC3HC2HCH2CH6CH6CNH2CHCHC3HSH3NC5HC5H10CH10CHFeCSHC2H3CH5C2H2CHCH4C2H3CH3CH2CH2CHC2NH3CH6C2H5CH2CH3CH5C2H2N2C2HC3H5C2H6CHCH12NCH3C2HC2HC2H2CH2SCHCH4C2HCHC2H4CH4CH6CHCH2SCHCFeC4HCH2CHCH3CH5CH5C2H7CH3C2HFeCH4CH6FeS2FeSHFeSFeS3FeSFeSCFeSH2SCFeS2FeS2FeSFeS3FeS2FeS2FeSFeS3C2H2C3H2C6H4C7H4C6H4C6H4C6H4CHC3H2CH3C6H4NCHC4HC5H4NCH4CH6SH8CSH2CHC2NH10NSHC4H5CH3SCH4CH2CHCH2CH2CNC8HC2H22CH2CSH5CHC3HCH2FeH6CH5CHCH14CH2C2HCH2CH6C2HCH3C2H2CHCHCH4CHCH9CH6CH2NCHCH2CHCH2CH3CH2CH3C2H4CNHCH2C2HC2HCH2CHCHCHCH2CHCH2NH2CHCH3CHCH3CH2CHCHNH2SH2CHC2H4CH2CH2C2H2CH6CH2C3HCHCH2CHCNH3SH3CH4CH5C2FeNSFeH2SH3S2FeS2FeSCFeHFeS5HSCH3C3NHCH2CNC4HCHSH2C3HC3HCHSH4CHCHCHC7H10CHC2HCH8CHSH5C2HC2H2CH5CHSH3CH4FeH5C3HCH2CH8CHCH3CH3CHC2HCHCH10C3HCH6CH5CHC2H4CHCNC11H27CH4SHCH4C2HCSH2C2H6C2HCH3C2H2CHCH2NC5HC2HC2H2FeCHCHCH3C2H3C2H2CH4CSHCSH3CHCHC2H4C2H5CHC2H2C2HSH2CSHCFeSHFeS2Fe2S3FeS2FeS2Fe2S3FeCSC2HFeSCSHNSFeHSH4S2CNC3HCH2C6H4C6H4C6H4C2HCH7C4HCH3C4HNH4CHCH6CHFeH2CH7NHCH3CHCH3SCH8CSHCH6C3H2CH2C2FeC2HCH2CSCH6CH2SH3CH7CH2SC2H3CH4NC2HCNC7HC4H14C2HCH10NCHC3H2CH5SHCHNC2SC3H14CHCHCH3CHCHC2H2CH4CH2CH2C4H2C2H4CH2FeH3C4H2CHSH3CH5C2HCH4CH5FeHCHCHFeSCFeS2Fe2CS2FeS2FeS2HCSC6H5CH2CHCHCFeHC5HCH4SCHC2NH6C2H2C2HCH3CHCH2CH9CHSH3C3H3NHSH2CFeH3SHCH4C2H4CH2CH4C2H3CHCH3C2HCH2C2H2CH2SH4CFeS2FeS2FeSFeS3HSHCH3FeSCH3FeS2FeS2FeSFeS3FeS2FeS2FeSFeS3C6H5C4H5C5H6C8H4C6H4C6H5CNH3NC9H20NC2HSC2H6NHC2H3NC11H26CHCH5CH3CH13C2H5CHCHCH2CH2CNHNH6CH2CH9CH3CHCH2C8H2CH7CHCHC3HC2H3C2HCHC4HCH4CH6C2H3CH3CH2CHC2HSCHCH2C2H4C2H3CH2CH2FeH6CHC2H6CH2FeS2FeSFeSFeS3FeS2FeS2FeSFeS2C6H4CHCH3FeH4CHCHCH4C5HCHC2HC3H8CHCH2C3H3SHCH6SHNHCHNHCHFeH2C2SCH2SC3HNHC2H2CH5CHCH3C2HCH2CH4SCSCH2C2HC2H2CH2CH2CH3CH3CH2CH4C2H3CH2CH3C3H3CNH2CH3C2HC4H4CH9
_chemical_formula_sum              "Fe144 C1296 S288 H2304 N72"
_cell_length_a       85.9393
_cell_length_b       88.4968
_cell_length_c       33.6673
_cell_angle_alpha    89.47
_cell_angle_beta     84.4492
_cell_angle_gamma    109.885

_space_group_name_H-M_alt    "P 1"
_space_group_IT_number       1

loop_
  _space_group_symop_operation_xyz
  'x, y, z'

loop_
  _atom_site_type_symbol
  _atom_site_label
  _atom_site_symmetry_multiplicity
  _atom_site_fract_x
  _atom_site_fract_y
  _atom_site_fract_z
  _atom_site_occupancy
  Fe  Fe1       1.0  0.05617  0.48013  0.69368  1.0000
  C   C1        1.0  0.07651  0.46746  0.07690  1.0000
  S   S1        1.0  0.03283  0.45997  0.71907  1.0000
  H   H1        1.0  0.06466  0.45044  0.44066  1.0000
  H   H2        1.0  0.05227  0.46199  0.82129  1.0000
  H   H3        1.0  0.99646  0.48526  0.33515  1.0000
  S   S2        1.0  0.03044  0.44922  0.27056  1.0000
  H   H4        1.0  0.04920  0.41417  0.80370  1.0000
  H   H5        1.0  0.01671  0.47615  0.51295  1.0000
  C   C2        1.0  0.11261  0.47540  0.92257  1.0000
  C   C3        1.0  0.01050  0.45022  0.26588  1.0000
  H   H6        1.0  0.03296  0.46198  0.47709  1.0000
  H   H7        1.0  0.00183  0.43554  0.34347  1.0000
  H   H8        1.0  0.99865  0.47197  0.62244  1.0000
  H   H9        1.0  0.08534  0.44201  0.85217  1.0000
  S   S3        1.0  0.07370  0.47225  0.31024  1.0000
  H   H10       1.0  0.01801  0.47592  0.26976  1.0000
  H   H11       1.0  0.06364  0.46384  0.09237  1.0000
  C   C4        1.0  0.07719  0.44837  0.84178  1.0000
  H   H12       1.0  0.01517  0.45791  0.41096  1.0000
  N   N1        1.0  0.08877  0.47819  0.10289  1.0000
  H   H13       1.0  0.08942  0.47918  0.42658  1.0000
  Fe  Fe2       1.0  0.08553  0.49090  0.62916  1.0000
  H   H14       1.0  0.02987  0.43681  0.61627  1.0000
  H   H15       1.0  0.04966  0.46263  0.03093  1.0000
  H   H16       1.0  0.11797  0.46567  0.91826  1.0000
  H   H17       1.0  0.10004  0.45213  0.71707  1.0000
  H   H18       1.0  0.07489  0.43895  0.21003  1.0000
  C   C5        1.0  0.11134  0.46007  0.72957  1.0000
  H   H19       1.0  0.02400  0.47804  0.65763  1.0000
  C   C6        1.0  0.09427  0.46800  0.78625  1.0000
  C   C7        1.0  0.06201  0.47380  0.81280  1.0000
  H   H20       1.0  0.01729  0.42966  0.53846  1.0000
  H   H21       1.0  0.13705  0.48486  0.01350  1.0000
  H   H22       1.0  0.06583  0.47456  0.78025  1.0000
  C   C8        1.0  0.02847  0.48198  0.52605  1.0000
  H   H23       1.0  0.24273  0.46975  0.02779  1.0000
  C   C9        1.0  0.01438  0.45654  0.69569  1.0000
  H   H24       1.0  0.06835  0.45012  0.14857  1.0000
  H   H25       1.0  0.02521  0.45855  0.36109  1.0000
  H   H26       1.0  0.00603  0.44710  0.49242  1.0000
  H   H27       1.0  0.06869  0.48091  0.14318  1.0000
  C   C10       1.0  0.08840  0.48739  0.52608  1.0000
  C   C11       1.0  0.05554  0.42164  0.82767  1.0000
  H   H28       1.0  0.07886  0.45593  0.07246  1.0000
  C   C12       1.0  0.08514  0.44590  0.18724  1.0000
  H   H29       1.0  0.06694  0.45573  0.62107  1.0000
  H   H30       1.0  0.10941  0.46356  0.85117  1.0000
  C   C13       1.0  0.10807  0.46071  0.77485  1.0000
  Fe  Fe3       1.0  0.05121  0.47233  0.28096  1.0000
  H   H31       1.0  0.05776  0.43420  0.61696  1.0000
  H   H32       1.0  0.07559  0.46511  0.18484  1.0000
  S   S4        1.0  0.08179  0.47830  0.69013  1.0000
  C   C14       1.0  0.07631  0.49377  0.45463  1.0000
  H   H33       1.0  0.04879  0.45472  0.41620  1.0000
  H   H34       1.0  0.04522  0.47763  0.56313  1.0000
  C   C15       1.0  0.07939  0.45735  0.16309  1.0000
  H   H35       1.0  0.01173  0.44030  0.57854  1.0000
  H   H36       1.0  0.07141  0.47489  0.86928  1.0000
  C   C16       1.0  0.10455  0.48891  0.07922  1.0000
  H   H37       1.0  0.11994  0.46832  0.78568  1.0000
  C   C17       1.0  0.09237  0.48102  0.48987  1.0000
  H   H38       1.0  0.09245  0.48220  0.90621  1.0000
  H   H39       1.0  0.00086  0.43451  0.73011  1.0000
  C   C18       1.0  0.09725  0.47219  0.90008  1.0000
  C   C19       1.0  0.07629  0.47422  0.03426  1.0000
  C   C20       1.0  0.09354  0.46769  0.13169  1.0000
  N   N2        1.0  0.03320  0.45452  0.53887  1.0000
  H   H40       1.0  0.05215  0.44369  0.66057  1.0000
  H   H41       1.0  0.01673  0.49289  0.57235  1.0000
  C   C21       1.0  0.04521  0.44960  0.56167  1.0000
  H   H42       1.0  0.03885  0.45812  0.62075  1.0000
  H   H43       1.0  0.09853  0.45918  0.11525  1.0000
  C   C22       1.0  0.04001  0.44121  0.47376  1.0000
  C   C23       1.0  0.04110  0.44753  0.60782  1.0000
  C   C24       1.0  0.03278  0.47038  0.55450  1.0000
  H   H44       1.0  0.99490  0.48355  0.72683  1.0000
  H   H45       1.0  0.02404  0.46825  0.58218  1.0000
  C   C25       1.0  0.01634  0.44155  0.54619  1.0000
  C   C26       1.0  0.05540  0.44513  0.62767  1.0000
  H   H46       1.0  0.05295  0.46544  0.49217  1.0000
  H   H47       1.0  0.10911  0.47593  0.95498  1.0000
  C   C27       1.0  0.00773  0.46489  0.26742  1.0000
  H   H48       1.0  0.02169  0.44134  0.39398  1.0000
  H   H49       1.0  0.05807  0.45852  0.55507  1.0000
  H   H50       1.0  0.04603  0.43792  0.55219  1.0000
  H   H51       1.0  0.04971  0.43463  0.41692  1.0000
  H   H52       1.0  0.08864  0.43732  0.16753  1.0000
  H   H53       1.0  0.04336  0.48449  0.80283  1.0000
  H   H54       1.0  0.09598  0.45281  0.20301  1.0000
  H   H55       1.0  0.04434  0.43315  0.49152  1.0000
  C   C28       1.0  0.08099  0.48844  0.12773  1.0000
  C   C29       1.0  0.07690  0.47641  0.83760  1.0000
  H   H56       1.0  0.02719  0.43426  0.46699  1.0000
  H   H57       1.0  0.12157  0.45522  0.72231  1.0000
  H   H58       1.0  0.08773  0.46074  0.91243  1.0000
  C   C30       1.0  0.10172  0.47145  0.85453  1.0000
  C   C31       1.0  0.99704  0.43602  0.26213  1.0000
  H   H59       1.0  0.06806  0.44778  0.86813  1.0000
  H   H60       1.0  0.12265  0.47649  0.08149  1.0000
  H   H61       1.0  0.11016  0.48369  0.84374  1.0000
  C   C32       1.0  0.01353  0.46720  0.66576  1.0000
  N   N3        1.0  0.08723  0.46573  0.82962  1.0000
  H   H62       1.0  0.04587  0.42358  0.84938  1.0000
  C   C33       1.0  0.12913  0.49137  0.02770  1.0000
  H   H63       1.0  0.09967  0.48102  0.77742  1.0000
  H   H64       1.0  0.10471  0.44839  0.78835  1.0000
  C   C34       1.0  0.01642  0.45055  0.38512  1.0000
  H   H65       1.0  0.07544  0.48638  0.03443  1.0000
  H   H66       1.0  0.06230  0.41499  0.84295  1.0000
  H   H67       1.0  0.04911  0.48594  0.85314  1.0000
  H   H68       1.0  0.99523  0.45202  0.35904  1.0000
  C   C35       1.0  0.06760  0.43772  0.80939  1.0000
  H   H69       1.0  0.10864  0.46936  0.04397  1.0000
  H   H70       1.0  0.07645  0.43505  0.78668  1.0000
  H   H71       1.0  0.08436  0.46314  0.76637  1.0000
  C   C36       1.0  0.05144  0.44553  0.43448  1.0000
  H   H72       1.0  0.06038  0.44357  0.79339  1.0000
  H   H73       1.0  0.06227  0.45098  0.01195  1.0000
  C   C37       1.0  0.04001  0.45663  0.49534  1.0000
  S   S5        1.0  0.09523  0.48262  0.57112  1.0000
  H   H74       1.0  0.99912  0.42464  0.26063  1.0000
  H   H75       1.0  0.03843  0.48655  0.50095  1.0000
  H   H76       1.0  0.08784  0.47499  0.01521  1.0000
  C   C38       1.0  0.99913  0.46378  0.64594  1.0000
  H   H77       1.0  0.11511  0.47233  0.71522  1.0000
  H   H78       1.0  0.10383  0.47519  0.14843  1.0000
  S   S6        1.0  0.04697  0.49147  0.31880  1.0000
  S   S7        1.0  0.11206  0.49133  0.22436  1.0000
  C   C39       1.0  0.00039  0.44277  0.70675  1.0000
  S   S8        1.0  0.05944  0.49087  0.63191  1.0000
  C   C40       1.0  0.99963  0.44240  0.36944  1.0000
  H   H79       1.0  0.09998  0.47346  0.48949  1.0000
  C   C41       1.0  0.00226  0.44409  0.52474  1.0000
  C   C42       1.0  0.08643  0.48427  0.45415  1.0000
  H   H80       1.0  0.99858  0.45383  0.53887  1.0000
  C   C43       1.0  0.06165  0.46329  0.01398  1.0000
  H   H81       1.0  0.06204  0.46820  0.98327  1.0000
  C   C44       1.0  0.11595  0.48025  0.05879  1.0000
  H   H82       1.0  0.23953  0.48034  0.07150  1.0000
  S   S9        1.0  0.06608  0.48954  0.23070  1.0000
  C   C45       1.0  0.05394  0.48657  0.82113  1.0000
  H   H83       1.0  0.08504  0.48929  0.83304  1.0000
  H   H84       1.0  0.12227  0.48708  0.91197  1.0000
  Fe  Fe4       1.0  0.08843  0.49130  0.26211  1.0000
  Fe  Fe5       1.0  0.07035  0.49268  0.34569  1.0000
  H   H85       1.0  0.14003  0.49312  0.16753  1.0000
  H   H86       1.0  0.08889  0.49376  0.15190  1.0000
  Fe  Fe6       1.0  0.07094  0.62521  0.38430  1.0000
  S   S10       1.0  0.06255  0.63703  0.33440  1.0000
  S   S11       1.0  0.06103  0.62206  0.45043  1.0000
  Fe  Fe7       1.0  0.08843  0.60879  0.32537  1.0000
  S   S12       1.0  0.08132  0.61889  0.27205  1.0000
  S   S13       1.0  0.10364  0.59282  0.31425  1.0000
  Fe  Fe8       1.0  0.08859  0.64187  0.30349  1.0000
  S   S14       1.0  0.10637  0.66433  0.26880  1.0000
  Fe  Fe9       1.0  0.05616  0.61292  0.30647  1.0000
  S   S15       1.0  0.03496  0.59884  0.27184  1.0000
  S   S16       1.0  0.09739  0.63206  0.35583  1.0000
  S   S17       1.0  0.06277  0.60087  0.35749  1.0000
  Fe  Fe10      1.0  0.09912  0.61550  0.69774  1.0000
  S   S18       1.0  0.08349  0.61210  0.75646  1.0000
  S   S19       1.0  0.11445  0.60028  0.67816  1.0000
  Fe  Fe11      1.0  0.08696  0.64097  0.66568  1.0000
  S   S20       1.0  0.07021  0.64010  0.72254  1.0000
  S   S21       1.0  0.09061  0.65530  0.60679  1.0000
  Fe  Fe12      1.0  0.09190  0.63912  0.75509  1.0000
  S   S22       1.0  0.09833  0.65117  0.81428  1.0000
  Fe  Fe13      1.0  0.06314  0.61318  0.72025  1.0000
  S   S23       1.0  0.03858  0.59232  0.72924  1.0000
  S   S24       1.0  0.10912  0.64236  0.69852  1.0000
  S   S25       1.0  0.07833  0.61437  0.66163  1.0000
  Fe  Fe14      1.0  0.19434  0.70265  0.01449  1.0000
  S   S26       1.0  0.18730  0.68402  0.06612  1.0000
  Fe  Fe15      1.0  0.17275  0.67849  0.95852  1.0000
  S   S27       1.0  0.16477  0.65844  0.00513  1.0000
  S   S28       1.0  0.16695  0.67468  0.89348  1.0000
  Fe  Fe16      1.0  0.16110  0.67626  0.04915  1.0000
  S   S29       1.0  0.13621  0.66420  0.08726  1.0000
  Fe  Fe17      1.0  0.19105  0.66704  0.01960  1.0000
  S   S30       1.0  0.20121  0.64752  0.03531  1.0000
  S   S31       1.0  0.16742  0.69602  0.00093  1.0000
  S   S32       1.0  0.19983  0.68591  0.96939  1.0000
  Fe  Fe18      1.0  0.20073  0.54014  0.97851  1.0000
  S   S33       1.0  0.19019  0.55757  0.01013  1.0000
  Fe  Fe19      1.0  0.17042  0.52823  0.92873  1.0000
  S   S34       1.0  0.15849  0.54493  0.95685  1.0000
  S   S35       1.0  0.15947  0.51189  0.87829  1.0000
  Fe  Fe20      1.0  0.18413  0.56332  0.94993  1.0000
  S   S36       1.0  0.18856  0.58823  0.92342  1.0000
  Fe  Fe21      1.0  0.16519  0.53772  0.01565  1.0000
  S   S37       1.0  0.14522  0.53649  0.06744  1.0000
  S   S38       1.0  0.19597  0.54719  0.91762  1.0000
  S   S39       1.0  0.17577  0.51962  0.98801  1.0000
  Fe  Fe22      1.0  0.06973  0.51448  0.65942  1.0000
  S   S40       1.0  0.09629  0.51564  0.65301  1.0000
  S   S41       1.0  0.06082  0.53434  0.64253  1.0000
  C   C46       1.0  0.09107  0.59719  0.54684  1.0000
  H   H87       1.0  0.01907  0.59240  0.63698  1.0000
  C   C47       1.0  0.04122  0.53811  0.36198  1.0000
  H   H88       1.0  0.99793  0.61900  0.70698  1.0000
  H   H89       1.0  0.14915  0.69273  0.78535  1.0000
  S   S42       1.0  0.10252  0.51377  0.77075  1.0000
  C   C48       1.0  0.01357  0.64700  0.37341  1.0000
  S   S43       1.0  0.05695  0.52911  0.24787  1.0000
  H   H90       1.0  0.20242  0.72675  0.84685  1.0000
  C   C49       1.0  0.11620  0.64045  0.00742  1.0000
  H   H91       1.0  0.20585  0.57358  0.08234  1.0000
  C   C50       1.0  0.04535  0.64515  0.20897  1.0000
  H   H92       1.0  0.05322  0.64121  0.63982  1.0000
  H   H93       1.0  0.03562  0.64604  0.66229  1.0000
  C   C51       1.0  0.99952  0.49618  0.35296  1.0000
  C   C52       1.0  0.13746  0.52474  0.11294  1.0000
  C   C53       1.0  0.14326  0.51254  0.12453  1.0000
  H   H94       1.0  0.01862  0.54110  0.18069  1.0000
  C   C54       1.0  0.21998  0.71989  0.90100  1.0000
  C   C55       1.0  0.11678  0.51745  0.17193  1.0000
  C   C56       1.0  0.12429  0.52719  0.13711  1.0000
  H   H95       1.0  0.03714  0.54709  0.20608  1.0000
  H   H96       1.0  0.10659  0.51944  0.18997  1.0000
  H   H97       1.0  0.11966  0.53655  0.12844  1.0000
  C   C57       1.0  0.14424  0.51340  0.84758  1.0000
  C   C58       1.0  0.13261  0.52068  0.86038  1.0000
  S   S44       1.0  0.20938  0.73007  0.01391  1.0000
  C   C59       1.0  0.12679  0.64093  0.59842  1.0000
  H   H98       1.0  0.12719  0.66539  0.58661  1.0000
  H   H99       1.0  0.00302  0.66930  0.23446  1.0000
  H   H100      1.0  0.13314  0.52605  0.88918  1.0000
  H   H101      1.0  0.09713  0.62054  0.57000  1.0000
  H   H102      1.0  0.09661  0.58807  0.53705  1.0000
  H   H103      1.0  0.13415  0.63541  0.61508  1.0000
  C   C60       1.0  0.19647  0.63088  0.00460  1.0000
  C   C61       1.0  0.19707  0.63306  0.96326  1.0000
  C   C62       1.0  0.19476  0.61987  0.93874  1.0000
  C   C63       1.0  0.19125  0.60436  0.95544  1.0000
  C   C64       1.0  0.19016  0.60208  0.99692  1.0000
  C   C65       1.0  0.19308  0.61537  0.02138  1.0000
  H   H104      1.0  0.19999  0.64504  0.95012  1.0000
  H   H105      1.0  0.19594  0.62172  0.90666  1.0000
  H   H106      1.0  0.18730  0.59015  0.01014  1.0000
  H   H107      1.0  0.19266  0.61363  0.05337  1.0000
  C   C66       1.0  0.09988  0.58150  0.67005  1.0000
  C   C67       1.0  0.08310  0.57816  0.68357  1.0000
  C   C68       1.0  0.07111  0.56382  0.67430  1.0000
  C   C69       1.0  0.07591  0.55243  0.65290  1.0000
  C   C70       1.0  0.09277  0.55545  0.64054  1.0000
  C   C71       1.0  0.10476  0.57006  0.64888  1.0000
  H   H108      1.0  0.07921  0.58662  0.70106  1.0000
  H   H109      1.0  0.05813  0.56160  0.68401  1.0000
  H   H110      1.0  0.09652  0.54672  0.62364  1.0000
  H   H111      1.0  0.11772  0.57253  0.63863  1.0000
  C   C72       1.0  0.11747  0.65716  0.83604  1.0000
  C   C73       1.0  0.13239  0.65739  0.81489  1.0000
  C   C74       1.0  0.14734  0.66264  0.83306  1.0000
  C   C75       1.0  0.14759  0.66761  0.87268  1.0000
  C   C76       1.0  0.13267  0.66733  0.89389  1.0000
  C   C77       1.0  0.11773  0.66214  0.87565  1.0000
  H   H112      1.0  0.13245  0.65392  0.78418  1.0000
  H   H113      1.0  0.15884  0.66309  0.81604  1.0000
  H   H114      1.0  0.13266  0.67134  0.92413  1.0000
  H   H115      1.0  0.10629  0.66214  0.89223  1.0000
  C   C78       1.0  0.11516  0.66379  0.21893  1.0000
  C   C79       1.0  0.13043  0.67556  0.20436  1.0000
  C   C80       1.0  0.13741  0.67566  0.16451  1.0000
  C   C81       1.0  0.12890  0.66424  0.13850  1.0000
  C   C82       1.0  0.11363  0.65253  0.15310  1.0000
  C   C83       1.0  0.10693  0.65218  0.19310  1.0000
  H   H116      1.0  0.13689  0.68466  0.22398  1.0000
  H   H117      1.0  0.14911  0.68480  0.15367  1.0000
  H   H118      1.0  0.10686  0.64373  0.13322  1.0000
  H   H119      1.0  0.09518  0.64315  0.20364  1.0000
  C   C84       1.0  0.07088  0.63097  0.49252  1.0000
  C   C85       1.0  0.06465  0.62322  0.53023  1.0000
  C   C86       1.0  0.07083  0.63043  0.56516  1.0000
  C   C87       1.0  0.08330  0.64555  0.56294  1.0000
  C   C88       1.0  0.08984  0.65319  0.52513  1.0000
  C   C89       1.0  0.08376  0.64587  0.48998  1.0000
  H   H120      1.0  0.05482  0.61163  0.53250  1.0000
  H   H121      1.0  0.06568  0.62445  0.59393  1.0000
  H   H122      1.0  0.09945  0.66493  0.52306  1.0000
  H   H123      1.0  0.08858  0.65205  0.46115  1.0000
  C   C90       1.0  0.09142  0.57589  0.29118  1.0000
  C   C91       1.0  0.09769  0.56369  0.28045  1.0000
  C   C92       1.0  0.08736  0.54954  0.26511  1.0000
  C   C93       1.0  0.07077  0.54759  0.26074  1.0000
  C   C94       1.0  0.06484  0.56020  0.26924  1.0000
  C   C95       1.0  0.07513  0.57429  0.28463  1.0000
  H   H124      1.0  0.11038  0.56501  0.28479  1.0000
  H   H125      1.0  0.09224  0.54016  0.25668  1.0000
  H   H126      1.0  0.05208  0.55886  0.26554  1.0000
  H   H127      1.0  0.07026  0.58376  0.29190  1.0000
  C   C96       1.0  0.02276  0.65351  0.33231  1.0000
  N   N4        1.0  0.12674  0.61280  0.18589  1.0000
  C   C97       1.0  0.13157  0.61677  0.14167  1.0000
  C   C98       1.0  0.10826  0.60938  0.19602  1.0000
  C   C99       1.0  0.13607  0.62750  0.20760  1.0000
  C   C100      1.0  0.13154  0.59891  0.19998  1.0000
  C   C101      1.0  0.12394  0.58273  0.18003  1.0000
  C   C102      1.0  0.15030  0.62129  0.12676  1.0000
  C   C103      1.0  0.13130  0.62698  0.25346  1.0000
  C   C104      1.0  0.09654  0.60123  0.16412  1.0000
  C   C105      1.0  0.07823  0.59661  0.18050  1.0000
  C   C106      1.0  0.15316  0.62380  0.08130  1.0000
  C   C107      1.0  0.14103  0.64275  0.27146  1.0000
  H   H128      1.0  0.12773  0.62706  0.13273  1.0000
  H   H129      1.0  0.12482  0.60668  0.12367  1.0000
  H   H130      1.0  0.10371  0.60203  0.22459  1.0000
  H   H131      1.0  0.10583  0.62078  0.20144  1.0000
  H   H132      1.0  0.13441  0.63843  0.19464  1.0000
  H   H133      1.0  0.14968  0.62972  0.20357  1.0000
  H   H134      1.0  0.14531  0.60221  0.19708  1.0000
  H   H135      1.0  0.12759  0.59619  0.23248  1.0000
  H   H136      1.0  0.12574  0.58412  0.14702  1.0000
  H   H137      1.0  0.11045  0.57746  0.19030  1.0000
  H   H138      1.0  0.15777  0.63273  0.13925  1.0000
  H   H139      1.0  0.15512  0.61167  0.13494  1.0000
  H   H140      1.0  0.13420  0.61725  0.26871  1.0000
  H   H141      1.0  0.11790  0.62506  0.26079  1.0000
  H   H142      1.0  0.09864  0.60972  0.13799  1.0000
  H   H143      1.0  0.09862  0.59024  0.15334  1.0000
  H   H144      1.0  0.07531  0.58812  0.20688  1.0000
  H   H145      1.0  0.07524  0.60748  0.18910  1.0000
  H   H146      1.0  0.07020  0.59063  0.15725  1.0000
  H   H147      1.0  0.14845  0.63334  0.07159  1.0000
  H   H148      1.0  0.16668  0.62766  0.07139  1.0000
  H   H149      1.0  0.14681  0.61247  0.06672  1.0000
  H   H150      1.0  0.15461  0.64501  0.26662  1.0000
  H   H151      1.0  0.13838  0.65298  0.25793  1.0000
  H   H152      1.0  0.13723  0.64210  0.30410  1.0000
  S   S45       1.0  0.08699  0.51160  0.30031  1.0000
  C   C108      1.0  0.99745  0.52593  0.58075  1.0000
  H   H153      1.0  0.04635  0.52591  0.72964  1.0000
  H   H154      1.0  0.07578  0.50249  0.55335  1.0000
  H   H155      1.0  0.99601  0.63513  0.56737  1.0000
  H   H156      1.0  0.01196  0.63497  0.46788  1.0000
  C   C109      1.0  0.07259  0.50024  0.49075  1.0000
  C   C110      1.0  0.23266  0.58281  0.88678  1.0000
  C   C111      1.0  0.02555  0.62163  0.60676  1.0000
  C   C112      1.0  0.23798  0.59643  0.91548  1.0000
  C   C113      1.0  0.13564  0.50269  0.15924  1.0000
  C   C114      1.0  0.17182  0.72514  0.83916  1.0000
  H   H157      1.0  0.21796  0.58789  0.96305  1.0000
  H   H158      1.0  0.11586  0.60531  0.49205  1.0000
  H   H159      1.0  0.13913  0.57460  0.56160  1.0000
  C   C115      1.0  0.01002  0.58619  0.61604  1.0000
  H   H160      1.0  0.22506  0.61644  0.97468  1.0000
  H   H161      1.0  0.17369  0.72314  0.94149  1.0000
  H   H162      1.0  0.01952  0.50953  0.69758  1.0000
  C   C116      1.0  0.03910  0.53277  0.74501  1.0000
  H   H163      1.0  0.17277  0.70107  0.82512  1.0000
  C   C117      1.0  0.01280  0.51665  0.71451  1.0000
  C   C118      1.0  0.03440  0.64007  0.59963  1.0000
  C   C119      1.0  0.00132  0.51102  0.32677  1.0000
  H   H164      1.0  0.02468  0.50503  0.52670  1.0000
  H   H165      1.0  0.21644  0.70714  0.89264  1.0000
  H   H166      1.0  0.16398  0.71172  0.76562  1.0000
  C   C120      1.0  0.03664  0.64390  0.25206  1.0000
  H   H167      1.0  0.08175  0.54382  0.55669  1.0000
  C   C121      1.0  0.21882  0.57470  0.08690  1.0000
  H   H168      1.0  0.11385  0.63675  0.61307  1.0000
  C   C122      1.0  0.16349  0.70722  0.82969  1.0000
  C   C123      1.0  0.02711  0.49662  0.54794  1.0000
  H   H169      1.0  0.99941  0.63560  0.61974  1.0000
  C   C124      1.0  0.06080  0.64031  0.20862  1.0000
  H   H170      1.0  0.00502  0.57803  0.24414  1.0000
  H   H171      1.0  0.11092  0.52602  0.84707  1.0000
  H   H172      1.0  0.19711  0.71713  0.93687  1.0000
  H   H173      1.0  0.01903  0.60901  0.34169  1.0000
  N   N5        1.0  0.13399  0.61652  0.92904  1.0000
  C   C125      1.0  0.12326  0.61682  0.89626  1.0000
  C   C126      1.0  0.15125  0.62834  0.91708  1.0000
  C   C127      1.0  0.13426  0.59968  0.93452  1.0000
  C   C128      1.0  0.12730  0.62135  0.96812  1.0000
  C   C129      1.0  0.12386  0.63742  0.96676  1.0000
  C   C130      1.0  0.10439  0.60717  0.90530  1.0000
  C   C131      1.0  0.14536  0.59737  0.96613  1.0000
  C   C132      1.0  0.16143  0.62364  0.88168  1.0000
  C   C133      1.0  0.17687  0.63789  0.86624  1.0000
  C   C134      1.0  0.09479  0.60982  0.87151  1.0000
  C   C135      1.0  0.14572  0.58023  0.96690  1.0000
  H   H174      1.0  0.12743  0.61181  0.86883  1.0000
  H   H175      1.0  0.12477  0.62944  0.88722  1.0000
  H   H176      1.0  0.15055  0.64025  0.90884  1.0000
  H   H177      1.0  0.15889  0.63069  0.94276  1.0000
  H   H178      1.0  0.13814  0.59532  0.90560  1.0000
  H   H179      1.0  0.12151  0.59118  0.94403  1.0000
  H   H180      1.0  0.11574  0.61168  0.98103  1.0000
  H   H181      1.0  0.13629  0.62274  0.99070  1.0000
  H   H182      1.0  0.11511  0.63753  0.94475  1.0000
  H   H183      1.0  0.13563  0.64759  0.95886  1.0000
  H   H184      1.0  0.10220  0.59409  0.90828  1.0000
  H   H185      1.0  0.09893  0.61084  0.93314  1.0000
  H   H186      1.0  0.14049  0.59947  0.99653  1.0000
  H   H187      1.0  0.15834  0.60571  0.95995  1.0000
  H   H188      1.0  0.16559  0.61373  0.89132  1.0000
  H   H189      1.0  0.15410  0.61961  0.85610  1.0000
  H   H190      1.0  0.18497  0.63378  0.84446  1.0000
  H   H191      1.0  0.17321  0.64714  0.85099  1.0000
  H   H192      1.0  0.18410  0.64349  0.89112  1.0000
  H   H193      1.0  0.09950  0.60621  0.84258  1.0000
  H   H194      1.0  0.08138  0.60256  0.87805  1.0000
  H   H195      1.0  0.09592  0.62269  0.86867  1.0000
  H   H196      1.0  0.15082  0.57749  0.93735  1.0000
  H   H197      1.0  0.15387  0.57894  0.98946  1.0000
  H   H198      1.0  0.13305  0.57136  0.97499  1.0000
  C   C136      1.0  0.07257  0.54264  0.45710  1.0000
  C   C137      1.0  0.08933  0.56710  0.41331  1.0000
  C   C138      1.0  0.08006  0.57686  0.43774  1.0000
  C   C139      1.0  0.08370  0.54502  0.49188  1.0000
  C   C140      1.0  0.08890  0.59486  0.42900  1.0000
  C   C141      1.0  0.07345  0.54251  0.53265  1.0000
  H   H199      1.0  0.06287  0.54799  0.46559  1.0000
  H   H200      1.0  0.10453  0.54604  0.43074  1.0000
  H   H201      1.0  0.10212  0.57107  0.42282  1.0000
  H   H202      1.0  0.07982  0.57460  0.47029  1.0000
  H   H203      1.0  0.06707  0.57387  0.43079  1.0000
  H   H204      1.0  0.09022  0.53609  0.49062  1.0000
  H   H205      1.0  0.09326  0.55723  0.49001  1.0000
  H   H206      1.0  0.08216  0.60175  0.44642  1.0000
  H   H207      1.0  0.10178  0.59852  0.43702  1.0000
  H   H208      1.0  0.08947  0.59793  0.39682  1.0000
  H   H209      1.0  0.03698  0.67315  0.26544  1.0000
  H   H210      1.0  0.06718  0.55157  0.53654  1.0000
  H   H211      1.0  0.06394  0.53026  0.53611  1.0000
  N   N6        1.0  0.12752  0.57473  0.77877  1.0000
  C   C142      1.0  0.11200  0.56140  0.79646  1.0000
  C   C143      1.0  0.14173  0.57695  0.80414  1.0000
  C   C144      1.0  0.12353  0.59013  0.77915  1.0000
  C   C145      1.0  0.13247  0.57183  0.73609  1.0000
  C   C146      1.0  0.13619  0.55609  0.72895  1.0000
  C   C147      1.0  0.09688  0.55693  0.77153  1.0000
  C   C148      1.0  0.13830  0.60586  0.76609  1.0000
  C   C149      1.0  0.14287  0.56173  0.82522  1.0000
  C   C150      1.0  0.15927  0.56548  0.84373  1.0000
  C   C151      1.0  0.13701  0.55255  0.68461  1.0000
  C   C152      1.0  0.08156  0.54457  0.79448  1.0000
  C   C153      1.0  0.13293  0.62061  0.77022  1.0000
  H   H212      1.0  0.10798  0.56448  0.82687  1.0000
  H   H213      1.0  0.11439  0.55000  0.80102  1.0000
  H   H214      1.0  0.15387  0.58311  0.78600  1.0000
  H   H215      1.0  0.14108  0.58506  0.82893  1.0000
  H   H216      1.0  0.11814  0.59177  0.80958  1.0000
  H   H217      1.0  0.11385  0.58958  0.75911  1.0000
  H   H218      1.0  0.12279  0.57226  0.71689  1.0000
  H   H219      1.0  0.14390  0.58169  0.72360  1.0000
  H   H220      1.0  0.12656  0.54554  0.74479  1.0000
  H   H221      1.0  0.14845  0.55728  0.73908  1.0000
  H   H222      1.0  0.09337  0.56745  0.76391  1.0000
  H   H223      1.0  0.09970  0.55152  0.74327  1.0000
  H   H224      1.0  0.14296  0.60567  0.73426  1.0000
  H   H225      1.0  0.14878  0.60765  0.78439  1.0000
  H   H226      1.0  0.13262  0.55721  0.84983  1.0000
  H   H227      1.0  0.14198  0.55192  0.80452  1.0000
  H   H228      1.0  0.15948  0.55453  0.85982  1.0000
  H   H229      1.0  0.17000  0.56930  0.82019  1.0000
  H   H230      1.0  0.16073  0.57513  0.86540  1.0000
  H   H231      1.0  0.12463  0.55011  0.67372  1.0000
  H   H232      1.0  0.14637  0.56281  0.66673  1.0000
  H   H233      1.0  0.14057  0.54167  0.68024  1.0000
  H   H234      1.0  0.03380  0.63141  0.26435  1.0000
  H   H235      1.0  0.08437  0.53389  0.80451  1.0000
  H   H236      1.0  0.07709  0.54998  0.82087  1.0000
  H   H237      1.0  0.14363  0.63162  0.76012  1.0000
  H   H238      1.0  0.12275  0.61973  0.75143  1.0000
  H   H239      1.0  0.12860  0.62190  0.80170  1.0000
  C   C154      1.0  0.02655  0.66657  0.24795  1.0000
  H   H240      1.0  0.06557  0.52953  0.45625  1.0000
  H   H241      1.0  0.09102  0.57139  0.38151  1.0000
  H   H242      1.0  0.14086  0.63969  0.47625  1.0000
  H   H243      1.0  0.12841  0.59119  0.51980  1.0000
  S   S46       1.0  0.22567  0.53936  0.99824  1.0000
  N   N7        1.0  0.08161  0.54899  0.41641  1.0000
  H   H244      1.0  0.12693  0.54251  0.33404  1.0000
  C   C155      1.0  0.12888  0.59347  0.55203  1.0000
  C   C156      1.0  0.09532  0.54193  0.40864  1.0000
  H   H245      1.0  0.12410  0.63976  0.03111  1.0000
  H   H246      1.0  0.11522  0.65265  0.00691  1.0000
  H   H247      1.0  0.10355  0.63145  0.01485  1.0000
  H   H248      1.0  0.03363  0.52702  0.77497  1.0000
  H   H249      1.0  0.09015  0.52858  0.41264  1.0000
  H   H250      1.0  0.16469  0.70658  0.91235  1.0000
  H   H251      1.0  0.13020  0.50109  0.75707  1.0000
  H   H252      1.0  0.11085  0.55937  0.36084  1.0000
  H   H253      1.0  0.13358  0.66208  0.63427  1.0000
  C   C157      1.0  0.13192  0.57055  0.19193  1.0000
  H   H254      1.0  0.14530  0.57470  0.18027  1.0000
  C   C158      1.0  0.10564  0.54616  0.36707  1.0000
  C   C159      1.0  0.12008  0.53971  0.36443  1.0000
  H   H255      1.0  0.02430  0.57090  0.59659  1.0000
  H   H256      1.0  0.05830  0.56106  0.37541  1.0000
  H   H257      1.0  0.12325  0.49562  0.00404  1.0000
  C   C160      1.0  0.13073  0.50651  0.78581  1.0000
  H   H258      1.0  0.22323  0.58351  0.11017  1.0000
  H   H259      1.0  0.00840  0.53721  0.57682  1.0000
  C   C161      1.0  0.00355  0.62149  0.23013  1.0000
  C   C162      1.0  0.06968  0.54288  0.38525  1.0000
  C   C163      1.0  0.05435  0.54841  0.38739  1.0000
  H   H260      1.0  0.11534  0.52643  0.36991  1.0000
  H   H261      1.0  0.12887  0.54536  0.38655  1.0000
  H   H262      1.0  0.00105  0.64817  0.37650  1.0000
  H   H263      1.0  0.14354  0.58977  0.59829  1.0000
  H   H264      1.0  0.07600  0.54686  0.35469  1.0000
  H   H265      1.0  0.06524  0.52946  0.38597  1.0000
  H   H266      1.0  0.04813  0.54759  0.41803  1.0000
  Fe  Fe23      1.0  0.09037  0.50326  0.71445  1.0000
  H   H267      1.0  0.13071  0.56874  0.22492  1.0000
  H   H268      1.0  0.09791  0.54062  0.34313  1.0000
  H   H269      1.0  0.03168  0.66960  0.21614  1.0000
  H   H270      1.0  0.03110  0.54322  0.36114  1.0000
  H   H271      1.0  0.03100  0.62128  0.52646  1.0000
  H   H272      1.0  0.04337  0.64261  0.57225  1.0000
  H   H273      1.0  0.10411  0.60762  0.59798  1.0000
  H   H274      1.0  0.14561  0.61832  0.54869  1.0000
  C   C164      1.0  0.15488  0.70565  0.79151  1.0000
  H   H275      1.0  0.15459  0.59412  0.54860  1.0000
  H   H276      1.0  0.12559  0.55879  0.17915  1.0000
  H   H277      1.0  0.13648  0.69971  0.94661  1.0000
  C   C165      1.0  0.00949  0.60106  0.32537  1.0000
  C   C166      1.0  0.20452  0.72459  0.91037  1.0000
  H   H278      1.0  0.14034  0.64244  0.54097  1.0000
  C   C167      1.0  0.13250  0.61144  0.56030  1.0000
  C   C168      1.0  0.01818  0.62091  0.53702  1.0000
  H   H279      1.0  0.00719  0.60075  0.49867  1.0000
  H   H280      1.0  0.12518  0.62679  0.41958  1.0000
  H   H281      1.0  0.14466  0.72126  0.89221  1.0000
  H   H282      1.0  0.03181  0.53951  0.69060  1.0000
  H   H283      1.0  0.21701  0.59543  0.03038  1.0000
  C   C169      1.0  0.01313  0.59598  0.57573  1.0000
  H   H284      1.0  0.08705  0.60175  0.52018  1.0000
  H   H285      1.0  0.15199  0.50049  0.80012  1.0000
  H   H286      1.0  0.02435  0.66647  0.32974  1.0000
  C   C170      1.0  0.13696  0.62643  0.47413  1.0000
  H   H287      1.0  0.16203  0.73064  0.83835  1.0000
  H   H288      1.0  0.04671  0.53786  0.33093  1.0000
  C   C171      1.0  0.01401  0.59389  0.29144  1.0000
  C   C172      1.0  0.01418  0.53826  0.24579  1.0000
  H   H289      1.0  0.23298  0.57855  0.96423  1.0000
  C   C173      1.0  0.04418  0.64729  0.63458  1.0000
  H   H290      1.0  0.01409  0.64453  0.19658  1.0000
  C   C174      1.0  0.02557  0.53365  0.71986  1.0000
  H   H291      1.0  0.02620  0.61900  0.71790  1.0000
  C   C175      1.0  0.00388  0.52246  0.65164  1.0000
  H   H292      1.0  0.01076  0.63121  0.30561  1.0000
  C   C176      1.0  0.07867  0.49721  0.52607  1.0000
  C   C177      1.0  0.23037  0.74151  0.13410  1.0000
  H   H293      1.0  0.03584  0.52558  0.37480  1.0000
  H   H294      1.0  0.00762  0.56747  0.72453  1.0000
  H   H295      1.0  0.21878  0.56278  0.09770  1.0000
  C   C178      1.0  0.01878  0.59319  0.72198  1.0000
  C   C179      1.0  0.01603  0.60775  0.71692  1.0000
  C   C180      1.0  0.01299  0.64410  0.29866  1.0000
  N   N8        1.0  0.23975  0.60204  0.99045  1.0000
  H   H296      1.0  0.20881  0.73734  0.91861  1.0000
  H   H297      1.0  0.14699  0.62231  0.48303  1.0000
  H   H298      1.0  0.05731  0.62753  0.21906  1.0000
  C   C181      1.0  0.23167  0.59048  0.95962  1.0000
  C   C182      1.0  0.00545  0.57869  0.72094  1.0000
  H   H299      1.0  0.07149  0.54048  0.77465  1.0000
  H   H300      1.0  0.18919  0.70841  0.87174  1.0000
  H   H301      1.0  0.07872  0.58326  0.60155  1.0000
  H   H302      1.0  0.02566  0.52604  0.20237  1.0000
  C   C183      1.0  0.10346  0.61150  0.56676  1.0000
  H   H303      1.0  0.01421  0.55076  0.24911  1.0000
  H   H304      1.0  0.02061  0.53541  0.27020  1.0000
  H   H305      1.0  0.01274  0.53502  0.65033  1.0000
  H   H306      1.0  0.06904  0.59711  0.58514  1.0000
  H   H307      1.0  0.99652  0.61664  0.25950  1.0000
  H   H308      1.0  0.15386  0.70073  0.85413  1.0000
  H   H309      1.0  0.04623  0.65154  0.27024  1.0000
  C   C184      1.0  0.23809  0.61808  0.98019  1.0000
  H   H310      1.0  0.00333  0.58877  0.55747  1.0000
  H   H311      1.0  0.03589  0.61668  0.60584  1.0000
  C   C185      1.0  0.12716  0.63673  0.55379  1.0000
  C   C186      1.0  0.23026  0.57991  0.04785  1.0000
  S   S47       1.0  0.06427  0.50393  0.72175  1.0000
  H   H312      1.0  0.15340  0.51050  0.10640  1.0000
  H   H313      1.0  0.12756  0.71518  0.95645  1.0000
  H   H314      1.0  0.02567  0.69561  0.21718  1.0000
  H   H315      1.0  0.11694  0.58606  0.56896  1.0000
  H   H316      1.0  0.05124  0.66026  0.62777  1.0000
  C   C187      1.0  0.16774  0.71984  0.91338  1.0000
  C   C188      1.0  0.14240  0.58770  0.56601  1.0000
  H   H317      1.0  0.21892  0.57828  0.88722  1.0000
  H   H318      1.0  0.23530  0.60487  0.05406  1.0000
  H   H319      1.0  0.03702  0.63710  0.18896  1.0000
  C   C189      1.0  0.00156  0.58353  0.27055  1.0000
  H   H320      1.0  0.14705  0.62971  0.41171  1.0000
  N   N9        1.0  0.12081  0.61906  0.54519  1.0000
  H   H321      1.0  0.04945  0.65764  0.19620  1.0000
  H   H322      1.0  0.06306  0.49880  0.81307  1.0000
  H   H323      1.0  0.06668  0.57883  0.55960  1.0000
  H   H324      1.0  0.11106  0.62324  0.49100  1.0000
  H   H325      1.0  0.06968  0.64806  0.22819  1.0000
  C   C190      1.0  0.24301  0.63112  0.01163  1.0000
  H   H326      1.0  0.13238  0.60993  0.42527  1.0000
  Fe  Fe24      1.0  0.06384  0.50869  0.27121  1.0000
  H   H327      1.0  0.22683  0.72135  0.92789  1.0000
  H   H328      1.0  0.06924  0.52244  0.11942  1.0000
  H   H329      1.0  0.02903  0.69778  0.26946  1.0000
  H   H330      1.0  0.00925  0.51064  0.74464  1.0000
  C   C191      1.0  0.14313  0.50623  0.81026  1.0000
  C   C192      1.0  0.12001  0.52065  0.83636  1.0000
  H   H331      1.0  0.11987  0.64311  0.53920  1.0000
  H   H332      1.0  0.01962  0.54162  0.73524  1.0000
  C   C193      1.0  0.13422  0.65914  0.60233  1.0000
  H   H333      1.0  0.02564  0.62373  0.45422  1.0000
  H   H334      1.0  0.18128  0.73107  0.81359  1.0000
  H   H335      1.0  0.99463  0.52366  0.77570  1.0000
  C   C194      1.0  0.12031  0.61798  0.50054  1.0000
  C   C195      1.0  0.13520  0.62295  0.43006  1.0000
  H   H336      1.0  0.14747  0.66376  0.58964  1.0000
  H   H337      1.0  0.22597  0.57025  0.02670  1.0000
  H   H338      1.0  0.01430  0.61724  0.22572  1.0000
  C   C196      1.0  0.11901  0.51363  0.79890  1.0000
  C   C197      1.0  0.07544  0.58863  0.57511  1.0000
  H   H339      1.0  0.06714  0.64173  0.17775  1.0000
  H   H340      1.0  0.00500  0.52151  0.34586  1.0000
  H   H341      1.0  0.01146  0.49776  0.36538  1.0000
  H   H342      1.0  0.00225  0.54227  0.31619  1.0000
  C   C198      1.0  0.00909  0.64013  0.22791  1.0000
  H   H343      1.0  0.13220  0.61205  0.59334  1.0000
  C   C199      1.0  0.01264  0.62272  0.46470  1.0000
  H   H344      1.0  0.04770  0.54514  0.74900  1.0000
  C   C200      1.0  0.01263  0.67403  0.25529  1.0000
  H   H345      1.0  0.03524  0.65239  0.33142  1.0000
  H   H346      1.0  0.14495  0.71490  0.98194  1.0000
  N   N10       1.0  0.99772  0.51635  0.69436  1.0000
  N   N11       1.0  0.02130  0.64868  0.25661  1.0000
  C   C201      1.0  0.19389  0.72167  0.87453  1.0000
  H   H347      1.0  0.23333  0.64749  0.98163  1.0000
  H   H348      1.0  0.23308  0.62834  0.03713  1.0000
  C   C202      1.0  0.07143  0.51250  0.13566  1.0000
  N   N12       1.0  0.01306  0.61300  0.57846  1.0000
  H   H349      1.0  0.02524  0.59604  0.56031  1.0000
  H   H350      1.0  0.99856  0.61824  0.16787  1.0000
  H   H351      1.0  0.14483  0.71095  0.79489  1.0000
  C   C203      1.0  0.15126  0.72339  0.91941  1.0000
  H   H352      1.0  0.06468  0.50744  0.49176  1.0000
  C   C204      1.0  0.23021  0.59620  0.03097  1.0000
  C   C205      1.0  0.99603  0.52638  0.24609  1.0000
  C   C206      1.0  0.01971  0.69231  0.24832  1.0000
  C   C207      1.0  0.07782  0.50243  0.10589  1.0000
  H   H353      1.0  0.08069  0.51787  0.15700  1.0000
  C   C208      1.0  0.12222  0.50494  0.18289  1.0000
  H   H354      1.0  0.01144  0.51217  0.30262  1.0000
  N   N13       1.0  0.17975  0.72827  0.87782  1.0000
  S   S48       1.0  0.06699  0.49726  0.41229  1.0000
  H   H355      1.0  0.02078  0.65388  0.39703  1.0000
  C   C209      1.0  0.13939  0.71261  0.95318  1.0000
  H   H356      1.0  0.01103  0.51517  0.63722  1.0000
  C   C210      1.0  0.02445  0.53806  0.20623  1.0000
  C   C211      1.0  0.00000  0.60771  0.71084  1.0000
  C   C212      1.0  0.01156  0.56966  0.60989  1.0000
  H   H357      1.0  0.22840  0.72776  0.87624  1.0000
  H   H358      1.0  0.99692  0.54005  0.70712  1.0000
  H   H359      1.0  0.01899  0.63368  0.53701  1.0000
  H   H360      1.0  0.01965  0.61936  0.63811  1.0000
  H   H361      1.0  0.00450  0.61660  0.44175  1.0000
  H   H362      1.0  0.22897  0.73040  0.15186  1.0000
  C   C213      1.0  0.00683  0.61296  0.50437  1.0000
  H   H363      1.0  0.02557  0.64646  0.59575  1.0000
  H   H364      1.0  0.00646  0.67147  0.28628  1.0000
  H   H365      1.0  0.23263  0.60563  0.90676  1.0000
  H   H366      1.0  0.23812  0.58736  0.85589  1.0000
  H   H367      1.0  0.03890  0.50311  0.56079  1.0000
  H   H368      1.0  0.00126  0.51578  0.56976  1.0000
  H   H369      1.0  0.00914  0.56298  0.63923  1.0000
  H   H370      1.0  0.23697  0.57280  0.89491  1.0000
  H   H371      1.0  0.21893  0.74460  0.14092  1.0000
  H   H372      1.0  0.00952  0.69736  0.25324  1.0000
  H   H373      1.0  0.99761  0.55217  0.38303  1.0000
  H   H374      1.0  0.00228  0.56265  0.59020  1.0000
  H   H375      1.0  0.01221  0.63414  0.37793  1.0000
  H   H376      1.0  0.10193  0.49643  0.05606  1.0000
  H   H377      1.0  0.15377  0.73599  0.92800  1.0000
  H   H378      1.0  0.99726  0.58414  0.63038  1.0000
  H   H379      1.0  0.05951  0.50502  0.15270  1.0000
  H   H380      1.0  0.08934  0.51074  0.08910  1.0000
  H   H381      1.0  0.99745  0.64299  0.23343  1.0000
  H   H382      1.0  0.00036  0.64509  0.30175  1.0000
  C   C214      1.0  0.99572  0.61213  0.59440  1.0000
  H   H383      1.0  0.99660  0.51469  0.23527  1.0000
  C   C215      1.0  0.23063  0.74339  0.01274  1.0000
  H   H384      1.0  0.23167  0.73900  0.10189  1.0000
  H   H385      1.0  0.11215  0.49769  0.09910  1.0000
  H   H386      1.0  0.06809  0.49764  0.08552  1.0000
  H   H387      1.0  0.13727  0.50199  0.04205  1.0000
  H   H388      1.0  0.24295  0.58099  0.05480  1.0000
  H   H389      1.0  0.24154  0.72516  0.02081  1.0000
  C   C216      1.0  0.24392  0.73793  0.01716  1.0000
  H   H390      1.0  0.23627  0.77164  0.11458  1.0000
  C   C217      1.0  0.18524  0.77425  0.88142  1.0000
  H   H391      1.0  0.22413  0.76461  0.00477  1.0000
  C   C218      1.0  0.17818  0.75713  0.86719  1.0000
  C   C219      1.0  0.23419  0.76014  0.00823  1.0000
  H   H392      1.0  0.23377  0.79131  0.24362  1.0000
  H   H393      1.0  0.23394  0.80781  0.21107  1.0000
  H   H394      1.0  0.18813  0.74848  0.91608  1.0000
  H   H395      1.0  0.23978  0.79299  0.07767  1.0000
  H   H396      1.0  0.16463  0.75259  0.87637  1.0000
  H   H397      1.0  0.18010  0.75785  0.83399  1.0000
  H   H398      1.0  0.18310  0.77430  0.91450  1.0000
  H   H399      1.0  0.19881  0.77954  0.87191  1.0000
  H   H400      1.0  0.20012  0.75119  0.86906  1.0000
  H   H401      1.0  0.22798  0.77306  0.18647  1.0000
  H   H402      1.0  0.17897  0.78191  0.86831  1.0000
  C   C220      1.0  0.23393  0.78622  0.18029  1.0000
  C   C221      1.0  0.22897  0.79453  0.21647  1.0000
  H   H403      1.0  0.21519  0.79065  0.22189  1.0000
  C   C222      1.0  0.18709  0.74619  0.88375  1.0000
  H   H404      1.0  0.22847  0.78939  0.15444  1.0000
  H   H405      1.0  0.24378  0.80889  0.11303  1.0000
  Fe  Fe25      1.0  0.46380  0.08532  0.32637  1.0000
  S   S49       1.0  0.46335  0.05997  0.32769  1.0000
  H   H406      1.0  0.43326  0.11917  0.88933  1.0000
  Fe  Fe26      1.0  0.46367  0.08679  0.23413  1.0000
  S   S50       1.0  0.46324  0.06120  0.23004  1.0000
  Fe  Fe27      1.0  0.48209  0.06818  0.27413  1.0000
  Fe  Fe28      1.0  0.44445  0.05551  0.28397  1.0000
  S   S51       1.0  0.42083  0.03388  0.29537  1.0000
  S   S52       1.0  0.44332  0.08051  0.28590  1.0000
  Fe  Fe29      1.0  0.45139  0.04873  0.68993  1.0000
  S   S53       1.0  0.43828  0.06623  0.67811  1.0000
  S   S54       1.0  0.44404  0.02526  0.72667  1.0000
  H   H407      1.0  0.44138  0.09868  0.82226  1.0000
  Fe  Fe30      1.0  0.46225  0.08573  0.69095  1.0000
  C   C223      1.0  0.39066  0.06629  0.52315  1.0000
  H   H408      1.0  0.40167  0.08520  0.41035  1.0000
  Fe  Fe31      1.0  0.45035  0.06804  0.61439  1.0000
  S   S55       1.0  0.43787  0.06456  0.55665  1.0000
  H   H409      1.0  0.46943  0.09440  0.86238  1.0000
  S   S56       1.0  0.46148  0.04911  0.62607  1.0000
  H   H410      1.0  0.42462  0.06745  0.37436  1.0000
  H   H411      1.0  0.42031  0.10861  0.37057  1.0000
  C   C224      1.0  0.43221  0.11379  0.85970  1.0000
  H   H412      1.0  0.44802  0.13678  0.83101  1.0000
  H   H413      1.0  0.46179  0.11101  0.46155  1.0000
  C   C225      1.0  0.40253  0.06383  0.48906  1.0000
  H   H414      1.0  0.44168  0.06531  0.83377  1.0000
  C   C226      1.0  0.48114  0.03285  0.39337  1.0000
  C   C227      1.0  0.42716  0.00809  0.71663  1.0000
  C   C228      1.0  0.41379  0.00946  0.69811  1.0000
  H   H415      1.0  0.47314  0.06236  0.53793  1.0000
  H   H416      1.0  0.41782  0.99917  0.51126  1.0000
  H   H417      1.0  0.43142  0.10281  0.40720  1.0000
  H   H418      1.0  0.48067  0.13304  0.05142  1.0000
  H   H419      1.0  0.41394  0.02120  0.68838  1.0000
  H   H420      1.0  0.46298  0.00318  0.38884  1.0000
  H   H421      1.0  0.38592  0.06418  0.44546  1.0000
  H   H422      1.0  0.40514  0.08012  0.35902  1.0000
  H   H423      1.0  0.42605  0.13329  0.83353  1.0000
  H   H424      1.0  0.47830  0.03411  0.33046  1.0000
  H   H425      1.0  0.46778  0.13809  0.76422  1.0000
  C   C229      1.0  0.42288  0.01475  0.29221  1.0000
  C   C230      1.0  0.43718  0.01291  0.27262  1.0000
  C   C231      1.0  0.47609  0.11769  0.76433  1.0000
  H   H426      1.0  0.48201  0.99759  0.28926  1.0000
  C   C232      1.0  0.39983  0.99570  0.69400  1.0000
  C   C233      1.0  0.40965  0.00108  0.30793  1.0000
  H   H427      1.0  0.44741  0.02338  0.26036  1.0000
  C   C234      1.0  0.48928  0.12673  0.16068  1.0000
  H   H428      1.0  0.42870  0.06716  0.89700  1.0000
  H   H429      1.0  0.39856  0.00245  0.32316  1.0000
  C   C235      1.0  0.44876  0.07431  0.51084  1.0000
  C   C236      1.0  0.44435  0.10444  0.85112  1.0000
  H   H430      1.0  0.40861  0.05584  0.50126  1.0000
  C   C237      1.0  0.46003  0.08886  0.43314  1.0000
  C   C238      1.0  0.45626  0.07228  0.43951  1.0000
  C   C239      1.0  0.45060  0.06506  0.47819  1.0000
  H   H431      1.0  0.45523  0.08266  0.80437  1.0000
  C   C240      1.0  0.47294  0.11769  0.10546  1.0000
  S   S57       1.0  0.46306  0.10790  0.72718  1.0000
  H   H432      1.0  0.44723  0.05221  0.48279  1.0000
  H   H433      1.0  0.41719  0.07927  0.95018  1.0000
  H   H434      1.0  0.48003  0.13021  0.96190  1.0000
  H   H435      1.0  0.46767  0.11091  0.98522  1.0000
  H   H436      1.0  0.38928  0.99693  0.68094  1.0000
  H   H437      1.0  0.41925  0.10562  0.85802  1.0000
  H   H438      1.0  0.46474  0.05956  0.79632  1.0000
  Fe  Fe32      1.0  0.48308  0.06962  0.64188  1.0000
  S   S58       1.0  0.46546  0.09839  0.38468  1.0000
  C   C241      1.0  0.41215  0.04263  0.42982  1.0000
  H   H439      1.0  0.43536  0.12295  0.79783  1.0000
  H   H440      1.0  0.45713  0.11322  0.84459  1.0000
  S   S59       1.0  0.46187  0.09834  0.17430  1.0000
  C   C242      1.0  0.42723  0.07872  0.88793  1.0000
  H   H441      1.0  0.38752  0.06902  0.94014  1.0000
  H   H442      1.0  0.48103  0.05067  0.50333  1.0000
  H   H443      1.0  0.39778  0.07143  0.54864  1.0000
  H   H444      1.0  0.48063  0.00517  0.64945  1.0000
  H   H445      1.0  0.45795  0.12544  0.97360  1.0000
  C   C243      1.0  0.47584  0.11532  0.14515  1.0000
  C   C244      1.0  0.48320  0.13132  0.08166  1.0000
  S   S60       1.0  0.47430  0.06800  0.70703  1.0000
  H   H446      1.0  0.42131  0.01530  0.43293  1.0000
  H   H447      1.0  0.45169  0.09821  0.52948  1.0000
  C   C245      1.0  0.48577  0.02946  0.34940  1.0000
  H   H448      1.0  0.41215  0.07574  0.48065  1.0000
  H   H449      1.0  0.48635  0.03440  0.70222  1.0000
  C   C246      1.0  0.45888  0.09818  0.46611  1.0000
  C   C247      1.0  0.46703  0.06656  0.82369  1.0000
  H   H450      1.0  0.37989  0.06380  0.37937  1.0000
  C   C248      1.0  0.45706  0.08488  0.86925  1.0000
  C   C249      1.0  0.45329  0.09097  0.50474  1.0000
  C   C250      1.0  0.45412  0.07484  0.83121  1.0000
  H   H451      1.0  0.47572  0.10953  0.91263  1.0000
  H   H452      1.0  0.46613  0.05811  0.84910  1.0000
  C   C251      1.0  0.39681  0.06766  0.91643  1.0000
  H   H453      1.0  0.42187  0.07656  0.85875  1.0000
  H   H454      1.0  0.43867  0.10462  0.93516  1.0000
  C   C252      1.0  0.41372  0.08061  0.91970  1.0000
  H   H455      1.0  0.38345  0.04468  0.46358  1.0000
  H   H456      1.0  0.48711  0.09952  0.77167  1.0000
  N   N14       1.0  0.40365  0.05396  0.41664  1.0000
  C   C253      1.0  0.47649  0.01285  0.67090  1.0000
  H   H457      1.0  0.40291  0.03211  0.44724  1.0000
  H   H458      1.0  0.46256  0.10899  0.09318  1.0000
  C   C254      1.0  0.43566  0.12751  0.82851  1.0000
  H   H459      1.0  0.40062  0.04819  0.35479  1.0000
  S   S61       1.0  0.48403  0.09410  0.27481  1.0000
  C   C255      1.0  0.42512  0.09910  0.37976  1.0000
  H   H460      1.0  0.43036  0.04539  0.37684  1.0000
  H   H461      1.0  0.44013  0.03278  0.43093  1.0000
  S   S62       1.0  0.47294  0.08882  0.62604  1.0000
  C   C256      1.0  0.44821  0.09968  0.92236  1.0000
  C   C257      1.0  0.41692  0.06951  0.40081  1.0000
  C   C258      1.0  0.43790  0.99743  0.26712  1.0000
  C   C259      1.0  0.41114  0.01955  0.52950  1.0000
  H   H462      1.0  0.42161  0.04864  0.45005  1.0000
  H   H463      1.0  0.38097  0.00292  0.20304  1.0000
  H   H464      1.0  0.36640  0.03116  0.34066  1.0000
  H   H465      1.0  0.48292  0.15090  0.82139  1.0000
  H   H466      1.0  0.38787  0.03276  0.38974  1.0000
  C   C260      1.0  0.47524  0.22684  0.02361  1.0000
  H   H467      1.0  0.39245  0.06883  0.88693  1.0000
  H   H468      1.0  0.42588  0.07429  0.42311  1.0000
  H   H469      1.0  0.48688  0.09254  0.53520  1.0000
  H   H470      1.0  0.37879  0.05007  0.31474  1.0000
  C   C261      1.0  0.39291  0.04608  0.38432  1.0000
  H   H471      1.0  0.35836  0.04749  0.33904  1.0000
  C   C262      1.0  0.41078  0.08312  0.38750  1.0000
  H   H472      1.0  0.47668  0.01509  0.28210  1.0000
  C   C263      1.0  0.48619  0.11072  0.78227  1.0000
  H   H473      1.0  0.39760  0.05546  0.92026  1.0000
  H   H474      1.0  0.46750  0.03024  0.39869  1.0000
  H   H475      1.0  0.46463  0.24125  0.06011  1.0000
  H   H476      1.0  0.38096  0.05464  0.53362  1.0000
  H   H477      1.0  0.41193  0.02777  0.37778  1.0000
  H   H478      1.0  0.41218  0.09246  0.91690  1.0000
  H   H479      1.0  0.40702  0.02453  0.55715  1.0000
  H   H480      1.0  0.42361  0.02800  0.51754  1.0000
  H   H481      1.0  0.40228  0.01876  0.50714  1.0000
  H   H482      1.0  0.46452  0.22235  0.00570  1.0000
  H   H483      1.0  0.43591  0.02026  0.38857  1.0000
  C   C264      1.0  0.43015  0.02538  0.41350  1.0000
  C   C265      1.0  0.48399  0.13978  0.81056  1.0000
  H   H484      1.0  0.44813  0.09027  0.94470  1.0000
  C   C266      1.0  0.46776  0.12039  0.96325  1.0000
  C   C267      1.0  0.47538  0.13246  0.77813  1.0000
  H   H485      1.0  0.36760  0.04516  0.40511  1.0000
  C   C268      1.0  0.46513  0.11363  0.92181  1.0000
  H   H486      1.0  0.46567  0.12371  0.90126  1.0000
  C   C269      1.0  0.46527  0.00239  0.35598  1.0000
  H   H487      1.0  0.46757  0.01731  0.65702  1.0000
  H   H488      1.0  0.43434  0.09812  0.35538  1.0000
  H   H489      1.0  0.45665  0.00751  0.34252  1.0000
  C   C270      1.0  0.39307  0.05642  0.45287  1.0000
  C   C271      1.0  0.37725  0.05068  0.37973  1.0000
  H   H490      1.0  0.38463  0.07479  0.51345  1.0000
  H   H491      1.0  0.45844  0.07704  0.89382  1.0000
  N   N15       1.0  0.48316  0.01206  0.34135  1.0000
  N   N16       1.0  0.44397  0.09216  0.88286  1.0000
  C   C272      1.0  0.42108  0.03569  0.39631  1.0000
  H   H492      1.0  0.45725  0.06497  0.41454  1.0000
  C   C273      1.0  0.36977  0.04444  0.34117  1.0000
  H   H493      1.0  0.47979  0.07560  0.81939  1.0000
  C   C274      1.0  0.41218  0.00299  0.53864  1.0000
  H   H494      1.0  0.47360  0.21789  0.04842  1.0000
  C   C275      1.0  0.47631  0.24310  0.04053  1.0000
  C   C276      1.0  0.48977  0.05040  0.40271  1.0000
  C   C277      1.0  0.48536  0.01042  0.29674  1.0000
  H   H495      1.0  0.48871  0.00039  0.39252  1.0000
  H   H496      1.0  0.42051  0.00455  0.56261  1.0000
  H   H497      1.0  0.46985  0.00547  0.69828  1.0000
  H   H498      1.0  0.48643  0.05852  0.38260  1.0000
  C   C278      1.0  0.49132  0.02713  0.68127  1.0000
  H   H499      1.0  0.48682  0.22783  0.00441  1.0000
  H   H500      1.0  0.48446  0.02517  0.41485  1.0000
  H   H501      1.0  0.48569  0.05245  0.43375  1.0000
  H   H502      1.0  0.49157  0.12520  0.19122  1.0000
  H   H503      1.0  0.39031  0.99566  0.58013  1.0000
  H   H504      1.0  0.39951  0.00964  0.22830  1.0000
  C   C279      1.0  0.48464  0.06087  0.52338  1.0000
  C   C280      1.0  0.38857  0.99900  0.22302  1.0000
  S   S63       1.0  0.49368  0.17084  0.96156  1.0000
  H   H505      1.0  0.48905  0.07797  0.47417  1.0000
  H   H506      1.0  0.49343  0.10508  0.46819  1.0000
  H   H507      1.0  0.44875  0.99606  0.25063  1.0000
  C   C281      1.0  0.49342  0.13238  0.82976  1.0000
  H   H508      1.0  0.49146  0.05778  0.54677  1.0000
  H   H509      1.0  0.44512  0.39465  0.06993  1.0000
  H   H510      1.0  0.35712  0.48582  0.59249  1.0000
  H   H511      1.0  0.42881  0.39188  0.15943  1.0000
  S   S64       1.0  0.47067  0.39593  0.27609  1.0000
  H   H512      1.0  0.42660  0.40548  0.09732  1.0000
  Fe  Fe33      1.0  0.48319  0.40597  0.33110  1.0000
  S   S65       1.0  0.47079  0.40776  0.39297  1.0000
  Fe  Fe34      1.0  0.48531  0.39361  0.61566  1.0000
  C   C282      1.0  0.40493  0.42988  0.35184  1.0000
  S   S66       1.0  0.39411  0.48476  0.61151  1.0000
  H   H513      1.0  0.27114  0.47629  0.99322  1.0000
  H   H514      1.0  0.46933  0.25067  0.98598  1.0000
  H   H515      1.0  0.43562  0.44589  0.37404  1.0000
  H   H516      1.0  0.48875  0.30225  0.05987  1.0000
  Fe  Fe35      1.0  0.47526  0.41481  0.67674  1.0000
  H   H517      1.0  0.34968  0.47390  0.27967  1.0000
  S   S67       1.0  0.45915  0.42908  0.69977  1.0000
  C   C283      1.0  0.43298  0.41279  0.12142  1.0000
  C   C284      1.0  0.43869  0.28249  0.05370  1.0000
  H   H518      1.0  0.49264  0.37471  0.47528  1.0000
  S   S68       1.0  0.46619  0.38801  0.66963  1.0000
  H   H519      1.0  0.35109  0.49143  0.68180  1.0000
  C   C285      1.0  0.48201  0.38945  0.51151  1.0000
  C   C286      1.0  0.46986  0.34465  0.66011  1.0000
  S   S69       1.0  0.42978  0.46512  0.57983  1.0000
  H   H520      1.0  0.48682  0.24662  0.05925  1.0000
  H   H521      1.0  0.48597  0.46067  0.43456  1.0000
  H   H522      1.0  0.48535  0.29607  0.99034  1.0000
  Fe  Fe36      1.0  0.41106  0.47504  0.24981  1.0000
  S   S70       1.0  0.38848  0.48258  0.24861  1.0000
  S   S71       1.0  0.41002  0.44918  0.24889  1.0000
  H   H523      1.0  0.31849  0.48718  0.01521  1.0000
  C   C287      1.0  0.45242  0.44041  0.43288  1.0000
  H   H524      1.0  0.40553  0.47165  0.50121  1.0000
  H   H525      1.0  0.45681  0.26204  0.06131  1.0000
  H   H526      1.0  0.43495  0.37807  0.10332  1.0000
  H   H527      1.0  0.43594  0.46416  0.42505  1.0000
  H   H528      1.0  0.43647  0.29357  0.06379  1.0000
  C   C288      1.0  0.46439  0.45269  0.40072  1.0000
  H   H529      1.0  0.43268  0.27275  0.07708  1.0000
  C   C289      1.0  0.27740  0.48506  0.01510  1.0000
  C   C290      1.0  0.41677  0.47218  0.48112  1.0000
  C   C291      1.0  0.43807  0.45532  0.61343  1.0000
  C   C292      1.0  0.43416  0.45547  0.65466  1.0000
  C   C293      1.0  0.44072  0.44736  0.68087  1.0000
  C   C294      1.0  0.45120  0.43907  0.66602  1.0000
  C   C295      1.0  0.45529  0.43909  0.62484  1.0000
  C   C296      1.0  0.44875  0.44722  0.59864  1.0000
  H   H530      1.0  0.42583  0.46154  0.66636  1.0000
  H   H531      1.0  0.43751  0.44732  0.71277  1.0000
  H   H532      1.0  0.46340  0.43276  0.61328  1.0000
  H   H533      1.0  0.45215  0.44737  0.56696  1.0000
  C   C297      1.0  0.45908  0.43982  0.22002  1.0000
  C   C298      1.0  0.44620  0.42919  0.24581  1.0000
  C   C299      1.0  0.43115  0.43212  0.25435  1.0000
  C   C300      1.0  0.42916  0.44600  0.23850  1.0000
  C   C301      1.0  0.44221  0.45680  0.21343  1.0000
  C   C302      1.0  0.45702  0.45358  0.20373  1.0000
  H   H534      1.0  0.44761  0.41846  0.25813  1.0000
  H   H535      1.0  0.42100  0.42355  0.27306  1.0000
  H   H536      1.0  0.44072  0.46741  0.20063  1.0000
  H   H537      1.0  0.46689  0.46178  0.18352  1.0000
  C   C303      1.0  0.47623  0.40123  0.43788  1.0000
  C   C304      1.0  0.43973  0.40259  0.14834  1.0000
  H   H538      1.0  0.41417  0.40252  0.52895  1.0000
  H   H539      1.0  0.48486  0.44357  0.40435  1.0000
  C   C305      1.0  0.47458  0.40125  0.51090  1.0000
  C   C306      1.0  0.47166  0.40705  0.47427  1.0000
  H   H540      1.0  0.46204  0.27752  0.95325  1.0000
  H   H541      1.0  0.43542  0.43848  0.51800  1.0000
  H   H542      1.0  0.47060  0.40551  0.53876  1.0000
  H   H543      1.0  0.46557  0.41588  0.47419  1.0000
  H   H544      1.0  0.41634  0.44979  0.50644  1.0000
  C   C307      1.0  0.48419  0.38984  0.43839  1.0000
  H   H545      1.0  0.36239  0.49289  0.79862  1.0000
  H   H546      1.0  0.46950  0.47073  0.71663  1.0000
  H   H547      1.0  0.49106  0.49305  0.56131  1.0000
  H   H548      1.0  0.42636  0.42675  0.16887  1.0000
  C   C308      1.0  0.43145  0.42613  0.50714  1.0000
  C   C309      1.0  0.31084  0.48012  0.99257  1.0000
  H   H549      1.0  0.40844  0.44661  0.39791  1.0000
  H   H550      1.0  0.45848  0.47472  0.33349  1.0000
  H   H551      1.0  0.42996  0.42491  0.38549  1.0000
  H   H552      1.0  0.45781  0.44343  0.46174  1.0000
  H   H553      1.0  0.48108  0.32641  0.65705  1.0000
  N   N17       1.0  0.47872  0.27230  0.01915  1.0000
  H   H554      1.0  0.47874  0.35030  0.82858  1.0000
  C   C310      1.0  0.41727  0.45521  0.47611  1.0000
  C   C311      1.0  0.48239  0.29224  0.91249  1.0000
  H   H555      1.0  0.44381  0.40954  0.17524  1.0000
  H   H556      1.0  0.44374  0.46127  0.47016  1.0000
  H   H557      1.0  0.48019  0.48795  0.25413  1.0000
  H   H558      1.0  0.29506  0.48192  0.94846  1.0000
  Fe  Fe37      1.0  0.49383  0.38981  0.25734  1.0000
  S   S72       1.0  0.48200  0.36910  0.75631  1.0000
  N   N18       1.0  0.48105  0.49376  0.68429  1.0000
  C   C312      1.0  0.48179  0.48068  0.71245  1.0000
  H   H559      1.0  0.30120  0.46937  0.00791  1.0000
  H   H560      1.0  0.48639  0.31211  0.76438  1.0000
  H   H561      1.0  0.41148  0.42450  0.47090  1.0000
  S   S73       1.0  0.41922  0.48790  0.30550  1.0000
  H   H562      1.0  0.42790  0.47986  0.49472  1.0000
  C   C313      1.0  0.43360  0.45553  0.45108  1.0000
  C   C314      1.0  0.47900  0.25601  0.00646  1.0000
  H   H563      1.0  0.41536  0.42558  0.12560  1.0000
  H   H564      1.0  0.48774  0.40215  0.10003  1.0000
  H   H565      1.0  0.33320  0.47801  0.25741  1.0000
  Fe  Fe38      1.0  0.42030  0.48429  0.60531  1.0000
  H   H566      1.0  0.46213  0.44815  0.37037  1.0000
  H   H567      1.0  0.31538  0.46676  0.94108  1.0000
  H   H568      1.0  0.45711  0.33564  0.66530  1.0000
  C   C315      1.0  0.48259  0.45520  0.40566  1.0000
  H   H569      1.0  0.46999  0.47879  0.56731  1.0000
  H   H570      1.0  0.36951  0.49446  0.14781  1.0000
  C   C316      1.0  0.46100  0.27032  0.03441  1.0000
  H   H571      1.0  0.46884  0.47497  0.64540  1.0000
  H   H572      1.0  0.48382  0.27188  0.08089  1.0000
  C   C317      1.0  0.48596  0.41267  0.11455  1.0000
  C   C318      1.0  0.48505  0.28380  0.98307  1.0000
  H   H573      1.0  0.48608  0.45332  0.74459  1.0000
  H   H574      1.0  0.40113  0.42563  0.41518  1.0000
  H   H575      1.0  0.48655  0.49454  0.34217  1.0000
  H   H576      1.0  0.42468  0.41406  0.45269  1.0000
  H   H577      1.0  0.41308  0.43898  0.32901  1.0000
  H   H578      1.0  0.40756  0.41926  0.54378  1.0000
  H   H579      1.0  0.47759  0.43604  0.53913  1.0000
  H   H580      1.0  0.45319  0.42838  0.42579  1.0000
  H   H581      1.0  0.34836  0.49392  0.10159  1.0000
  C   C319      1.0  0.47898  0.48690  0.64336  1.0000
  H   H582      1.0  0.35243  0.47971  0.22730  1.0000
  H   H583      1.0  0.41616  0.47765  0.45178  1.0000
  H   H584      1.0  0.49061  0.46457  0.67443  1.0000
  H   H585      1.0  0.40979  0.40839  0.16008  1.0000
  H   H586      1.0  0.47017  0.35532  0.67754  1.0000
  H   H587      1.0  0.40594  0.44809  0.46278  1.0000
  H   H588      1.0  0.35545  0.47225  0.63420  1.0000
  C   C320      1.0  0.42034  0.41868  0.14557  1.0000
  H   H589      1.0  0.47260  0.34830  0.62779  1.0000
  H   H590      1.0  0.44270  0.35209  0.21680  1.0000
  H   H591      1.0  0.46267  0.29568  0.02390  1.0000
  C   C321      1.0  0.47538  0.27915  0.94588  1.0000
  C   C322      1.0  0.46052  0.47707  0.30064  1.0000
  H   H592      1.0  0.44239  0.42209  0.50487  1.0000
  C   C323      1.0  0.41840  0.41513  0.53855  1.0000
  H   H593      1.0  0.49044  0.48457  0.63124  1.0000
  Fe  Fe39      1.0  0.48700  0.38812  0.70596  1.0000
  H   H594      1.0  0.47649  0.26791  0.93367  1.0000
  H   H595      1.0  0.47884  0.33379  0.70563  1.0000
  H   H596      1.0  0.46269  0.46455  0.40244  1.0000
  C   C324      1.0  0.49186  0.35688  0.82095  1.0000
  H   H597      1.0  0.43286  0.27903  0.02556  1.0000
  N   N19       1.0  0.43445  0.43960  0.43700  1.0000
  C   C325      1.0  0.42822  0.43617  0.39644  1.0000
  H   H598      1.0  0.42388  0.41546  0.56725  1.0000
  C   C326      1.0  0.24869  0.47612  0.05362  1.0000
  C   C327      1.0  0.42477  0.42563  0.46577  1.0000
  C   C328      1.0  0.32236  0.47427  0.96416  1.0000
  S   S74       1.0  0.47737  0.43566  0.20529  1.0000
  S   S75       1.0  0.49257  0.42036  0.61992  1.0000
  H   H599      1.0  0.40588  0.41793  0.34522  1.0000
  H   H600      1.0  0.47565  0.28843  0.88575  1.0000
  N   N20       1.0  0.45369  0.39761  0.12872  1.0000
  C   C329      1.0  0.45889  0.38859  0.16020  1.0000
  C   C330      1.0  0.46795  0.41278  0.11372  1.0000
  H   H601      1.0  0.48770  0.38519  0.41063  1.0000
  C   C331      1.0  0.44737  0.38728  0.09424  1.0000
  C   C332      1.0  0.45887  0.37864  0.07447  1.0000
  C   C333      1.0  0.44519  0.37326  0.17996  1.0000
  H   H602      1.0  0.48405  0.48509  0.74277  1.0000
  H   H603      1.0  0.44308  0.42354  0.10748  1.0000
  H   H604      1.0  0.25199  0.46759  0.07272  1.0000
  C   C334      1.0  0.45077  0.36809  0.04123  1.0000
  C   C335      1.0  0.45276  0.36243  0.20096  1.0000
  C   C336      1.0  0.40993  0.43475  0.39340  1.0000
  H   H605      1.0  0.46377  0.39670  0.18472  1.0000
  H   H606      1.0  0.46936  0.38490  0.14786  1.0000
  H   H607      1.0  0.46662  0.41635  0.08277  1.0000
  H   H608      1.0  0.46760  0.42319  0.13170  1.0000
  H   H609      1.0  0.48476  0.47542  0.28966  1.0000
  H   H610      1.0  0.46249  0.28963  0.07554  1.0000
  Fe  Fe40      1.0  0.48536  0.42016  0.24669  1.0000
  H   H611      1.0  0.48887  0.41242  0.14596  1.0000
  H   H612      1.0  0.46159  0.37065  0.09628  1.0000
  H   H613      1.0  0.47066  0.38756  0.06060  1.0000
  H   H614      1.0  0.43691  0.37673  0.20270  1.0000
  H   H615      1.0  0.43749  0.36591  0.15788  1.0000
  C   C337      1.0  0.34692  0.48166  0.25721  1.0000
  H   H616      1.0  0.39189  0.42922  0.34993  1.0000
  H   H617      1.0  0.45535  0.46541  0.28644  1.0000
  H   H618      1.0  0.45438  0.48703  0.69686  1.0000
  H   H619      1.0  0.32786  0.46693  0.98129  1.0000
  H   H620      1.0  0.33270  0.48468  0.94932  1.0000
  C   C338      1.0  0.47776  0.49162  0.56916  1.0000
  H   H621      1.0  0.45936  0.36216  0.02750  1.0000
  H   H622      1.0  0.43899  0.35859  0.05340  1.0000
  H   H623      1.0  0.44817  0.37546  0.01756  1.0000
  H   H624      1.0  0.46020  0.35767  0.17892  1.0000
  H   H625      1.0  0.46092  0.36913  0.22317  1.0000
  C   C339      1.0  0.45741  0.28571  0.04681  1.0000
  H   H626      1.0  0.45243  0.26433  0.01207  1.0000
  C   C340      1.0  0.35127  0.48201  0.62354  1.0000
  H   H627      1.0  0.47996  0.45546  0.51726  1.0000
  C   C341      1.0  0.47903  0.48479  0.28639  1.0000
  H   H628      1.0  0.49080  0.46338  0.38114  1.0000
  H   H629      1.0  0.26599  0.49042  0.94479  1.0000
  C   C342      1.0  0.30268  0.49022  0.96939  1.0000
  H   H630      1.0  0.49111  0.25730  0.98907  1.0000
  S   S76       1.0  0.48477  0.38095  0.55702  1.0000
  C   C343      1.0  0.48245  0.33745  0.67350  1.0000
  C   C344      1.0  0.49023  0.27774  0.05151  1.0000
  H   H631      1.0  0.45369  0.48504  0.29208  1.0000
  C   C345      1.0  0.48645  0.44847  0.53226  1.0000
  C   C346      1.0  0.26415  0.49053  0.03921  1.0000
  H   H632      1.0  0.49026  0.45419  0.56068  1.0000
  H   H633      1.0  0.33752  0.47715  0.62371  1.0000
  C   C347      1.0  0.48693  0.38388  0.47509  1.0000
  H   H634      1.0  0.48082  0.30366  0.92212  1.0000
  H   H635      1.0  0.28139  0.47785  0.03664  1.0000
  Fe  Fe41      1.0  0.34976  0.53621  0.99317  1.0000
  S   S77       1.0  0.37400  0.55156  0.96030  1.0000
  S   S78       1.0  0.34699  0.51627  0.04014  1.0000
  Fe  Fe42      1.0  0.32933  0.55325  0.95162  1.0000
  S   S79       1.0  0.35278  0.57036  0.91667  1.0000
  S   S80       1.0  0.30334  0.55356  0.93779  1.0000
  Fe  Fe43      1.0  0.36055  0.54866  0.90510  1.0000
  S   S81       1.0  0.37462  0.54870  0.84306  1.0000
  Fe  Fe44      1.0  0.36499  0.57227  0.97363  1.0000
  S   S82       1.0  0.38476  0.59252  0.00152  1.0000
  S   S83       1.0  0.33665  0.53150  0.93680  1.0000
  S   S84       1.0  0.34114  0.55691  0.00965  1.0000
  Fe  Fe45      1.0  0.44210  0.68318  0.98836  1.0000
  S   S85       1.0  0.44563  0.70163  0.03559  1.0000
  S   S86       1.0  0.41761  0.66838  0.96536  1.0000
  S   S87       1.0  0.40216  0.51896  0.15760  1.0000
  H   H636      1.0  0.43453  0.62881  0.30084  1.0000
  H   H637      1.0  0.43057  0.60768  0.29519  1.0000
  Fe  Fe46      1.0  0.46427  0.69098  0.05632  1.0000
  C   C348      1.0  0.25800  0.60436  0.99114  1.0000
  Fe  Fe47      1.0  0.46706  0.71809  0.99368  1.0000
  H   H638      1.0  0.25374  0.53977  0.03898  1.0000
  S   S88       1.0  0.45931  0.67186  0.01116  1.0000
  S   S89       1.0  0.46198  0.70014  0.94482  1.0000
  H   H639      1.0  0.46439  0.50704  0.67640  1.0000
  S   S90       1.0  0.41051  0.52255  0.63354  1.0000
  H   H640      1.0  0.47405  0.49882  0.54713  1.0000
  Fe  Fe48      1.0  0.43502  0.51865  0.62671  1.0000
  S   S91       1.0  0.45947  0.53656  0.63881  1.0000
  H   H641      1.0  0.32133  0.53128  0.07216  1.0000
  S   S92       1.0  0.45198  0.60308  0.67813  1.0000
  Fe  Fe49      1.0  0.43379  0.50835  0.26232  1.0000
  S   S93       1.0  0.41329  0.51861  0.26309  1.0000
  S   S94       1.0  0.46010  0.52306  0.27173  1.0000
  H   H642      1.0  0.35856  0.51337  0.84515  1.0000
  H   H643      1.0  0.36022  0.52715  0.30674  1.0000
  C   C349      1.0  0.35974  0.50417  0.10040  1.0000
  Fe  Fe50      1.0  0.47942  0.69000  0.97095  1.0000
  C   C350      1.0  0.46228  0.54333  0.26507  1.0000
  C   C351      1.0  0.45084  0.54757  0.24481  1.0000
  C   C352      1.0  0.44962  0.56285  0.24857  1.0000
  C   C353      1.0  0.46024  0.57404  0.27151  1.0000
  C   C354      1.0  0.47309  0.57050  0.28764  1.0000
  C   C355      1.0  0.47411  0.55506  0.28426  1.0000
  H   H644      1.0  0.44268  0.53894  0.22692  1.0000
  H   H645      1.0  0.44015  0.56581  0.23471  1.0000
  C   C356      1.0  0.33470  0.52577  0.30079  1.0000
  H   H646      1.0  0.48706  0.64084  0.87662  1.0000
  C   C357      1.0  0.37662  0.53366  0.23538  1.0000
  H   H647      1.0  0.43818  0.49674  0.40459  1.0000
  Fe  Fe51      1.0  0.39810  0.49702  0.30156  1.0000
  S   S95       1.0  0.48926  0.64362  0.65910  1.0000
  C   C358      1.0  0.45628  0.55431  0.65297  1.0000
  C   C359      1.0  0.46613  0.56413  0.67985  1.0000
  C   C360      1.0  0.46430  0.57888  0.68905  1.0000
  C   C361      1.0  0.45261  0.58376  0.67137  1.0000
  C   C362      1.0  0.44234  0.57368  0.64574  1.0000
  C   C363      1.0  0.44423  0.55899  0.63640  1.0000
  H   H648      1.0  0.47536  0.56047  0.69305  1.0000
  H   H649      1.0  0.47209  0.58654  0.70949  1.0000
  H   H650      1.0  0.43349  0.57757  0.63161  1.0000
  H   H651      1.0  0.43677  0.55157  0.61531  1.0000
  H   H652      1.0  0.45903  0.65575  0.29800  1.0000
  C   C364      1.0  0.46508  0.50516  0.73900  1.0000
  C   C365      1.0  0.48737  0.49955  0.31125  1.0000
  C   C366      1.0  0.25375  0.54844  0.94069  1.0000
  C   C367      1.0  0.39034  0.51314  0.48267  1.0000
  H   H653      1.0  0.24584  0.62343  0.95174  1.0000
  H   H654      1.0  0.47104  0.65367  0.92253  1.0000
  C   C368      1.0  0.43358  0.59411  0.98699  1.0000
  H   H655      1.0  0.34879  0.50034  0.29820  1.0000
  C   C369      1.0  0.29927  0.52303  0.03994  1.0000
  H   H656      1.0  0.40075  0.54046  0.09544  1.0000
  C   C370      1.0  0.28192  0.55026  0.95566  1.0000
  C   C371      1.0  0.27087  0.55154  0.92843  1.0000
  C   C372      1.0  0.43010  0.61878  0.28050  1.0000
  H   H657      1.0  0.27554  0.55473  0.89737  1.0000
  S   S96       1.0  0.48637  0.64559  0.42144  1.0000
  C   C373      1.0  0.27553  0.54624  0.99575  1.0000
  H   H658      1.0  0.35354  0.53155  0.72346  1.0000
  H   H659      1.0  0.35272  0.55850  0.15140  1.0000
  C   C374      1.0  0.47550  0.67484  0.14640  1.0000
  H   H660      1.0  0.28378  0.54576  0.01753  1.0000
  C   C375      1.0  0.39354  0.61355  0.99029  1.0000
  C   C376      1.0  0.38742  0.62147  0.96278  1.0000
  C   C377      1.0  0.39472  0.63830  0.95578  1.0000
  C   C378      1.0  0.40826  0.64732  0.97592  1.0000
  C   C379      1.0  0.41448  0.63934  0.00294  1.0000
  C   C380      1.0  0.40712  0.62259  0.01022  1.0000
  H   H661      1.0  0.37695  0.61468  0.94731  1.0000
  H   H662      1.0  0.38987  0.64436  0.93464  1.0000
  H   H663      1.0  0.42481  0.64618  0.01860  1.0000
  H   H664      1.0  0.41187  0.61658  0.03167  1.0000
  C   C381      1.0  0.36247  0.51700  0.07243  1.0000
  C   C382      1.0  0.34606  0.53542  0.64910  1.0000
  H   H665      1.0  0.44638  0.51587  0.72794  1.0000
  C   C383      1.0  0.38658  0.51756  0.12515  1.0000
  C   C384      1.0  0.38925  0.53034  0.09720  1.0000
  C   C385      1.0  0.37729  0.53012  0.07113  1.0000
  H   H666      1.0  0.38405  0.55683  0.26487  1.0000
  C   C386      1.0  0.24730  0.54396  0.98060  1.0000
  H   H667      1.0  0.37960  0.54007  0.04983  1.0000
  C   C387      1.0  0.38183  0.50987  0.75909  1.0000
  C   C388      1.0  0.39158  0.52609  0.75227  1.0000
  C   C389      1.0  0.38930  0.53769  0.77852  1.0000
  C   C390      1.0  0.37737  0.53328  0.81224  1.0000
  C   C391      1.0  0.36778  0.51701  0.81943  1.0000
  C   C392      1.0  0.48772  0.59316  0.56642  1.0000
  H   H668      1.0  0.40087  0.52969  0.72673  1.0000
  H   H669      1.0  0.39691  0.55015  0.77271  1.0000
  N   N21       1.0  0.44554  0.61132  0.17126  1.0000
  C   C393      1.0  0.43981  0.59556  0.15066  1.0000
  H   H670      1.0  0.47186  0.68430  0.35166  1.0000
  C   C394      1.0  0.43568  0.60869  0.21198  1.0000
  C   C395      1.0  0.44219  0.62465  0.14929  1.0000
  C   C396      1.0  0.44892  0.62777  0.10463  1.0000
  C   C397      1.0  0.42138  0.58951  0.14146  1.0000
  C   C398      1.0  0.44120  0.62272  0.24079  1.0000
  H   H671      1.0  0.40756  0.55189  0.19545  1.0000
  H   H672      1.0  0.47043  0.62334  0.86656  1.0000
  C   C399      1.0  0.41759  0.57453  0.11668  1.0000
  H   H673      1.0  0.44181  0.58593  0.16902  1.0000
  H   H674      1.0  0.44742  0.59609  0.12184  1.0000
  S   S97       1.0  0.43107  0.50732  0.56781  1.0000
  H   H675      1.0  0.34729  0.53260  0.58404  1.0000
  H   H676      1.0  0.43615  0.59770  0.22750  1.0000
  H   H677      1.0  0.42229  0.60639  0.20920  1.0000
  H   H678      1.0  0.42859  0.62258  0.15211  1.0000
  H   H679      1.0  0.44771  0.63632  0.16335  1.0000
  C   C400      1.0  0.46574  0.49792  0.69746  1.0000
  C   C401      1.0  0.44966  0.50454  0.38652  1.0000
  H   H680      1.0  0.41280  0.58631  0.16940  1.0000
  H   H681      1.0  0.41849  0.59875  0.12409  1.0000
  H   H682      1.0  0.44044  0.63398  0.22786  1.0000
  H   H683      1.0  0.45416  0.62504  0.24756  1.0000
  H   H684      1.0  0.33784  0.52152  0.36297  1.0000
  H   H685      1.0  0.38032  0.52926  0.20648  1.0000
  H   H686      1.0  0.32401  0.51811  0.71390  1.0000
  H   H687      1.0  0.45851  0.61034  0.54181  1.0000
  H   H688      1.0  0.28199  0.52283  0.89756  1.0000
  H   H689      1.0  0.42480  0.57746  0.08672  1.0000
  H   H690      1.0  0.42068  0.56488  0.13185  1.0000
  H   H691      1.0  0.40413  0.56992  0.11248  1.0000
  H   H692      1.0  0.34560  0.56450  0.61633  1.0000
  H   H693      1.0  0.36444  0.54893  0.59902  1.0000
  C   C402      1.0  0.35089  0.54238  0.60535  1.0000
  H   H694      1.0  0.35175  0.54446  0.11252  1.0000
  H   H695      1.0  0.48162  0.57931  0.30456  1.0000
  H   H696      1.0  0.30231  0.52013  0.10279  1.0000
  S   S98       1.0  0.39208  0.51781  0.53355  1.0000
  H   H697      1.0  0.25491  0.63182  0.02305  1.0000
  H   H698      1.0  0.32746  0.49958  0.70238  1.0000
  H   H699      1.0  0.46074  0.50487  0.40145  1.0000
  H   H700      1.0  0.49304  0.64625  0.56500  1.0000
  C   C403      1.0  0.45140  0.63949  0.88946  1.0000
  N   N22       1.0  0.42702  0.60013  0.79390  1.0000
  C   C404      1.0  0.43116  0.58497  0.78794  1.0000
  C   C405      1.0  0.41428  0.60071  0.76640  1.0000
  C   C406      1.0  0.44277  0.61433  0.78273  1.0000
  C   C407      1.0  0.42117  0.60170  0.83686  1.0000
  C   C408      1.0  0.40524  0.58839  0.85556  1.0000
  C   C409      1.0  0.44554  0.58343  0.81025  1.0000
  C   C410      1.0  0.44070  0.63105  0.77861  1.0000
  C   C411      1.0  0.40079  0.58449  0.75827  1.0000
  C   C412      1.0  0.38694  0.58721  0.73715  1.0000
  C   C413      1.0  0.40203  0.59087  0.90003  1.0000
  C   C414      1.0  0.44756  0.56708  0.80381  1.0000
  C   C415      1.0  0.45743  0.64415  0.76613  1.0000
  H   H701      1.0  0.43459  0.58395  0.75550  1.0000
  H   H702      1.0  0.42014  0.57409  0.79668  1.0000
  H   H703      1.0  0.40789  0.60914  0.77757  1.0000
  H   H704      1.0  0.42059  0.60559  0.73608  1.0000
  H   H705      1.0  0.44914  0.61240  0.75399  1.0000
  H   H706      1.0  0.45180  0.61550  0.80506  1.0000
  H   H707      1.0  0.43118  0.60259  0.85616  1.0000
  H   H708      1.0  0.41853  0.61309  0.84036  1.0000
  H   H709      1.0  0.40617  0.57626  0.85266  1.0000
  H   H710      1.0  0.39427  0.58897  0.84158  1.0000
  H   H711      1.0  0.45756  0.59276  0.79881  1.0000
  H   H712      1.0  0.44316  0.58453  0.84286  1.0000
  H   H713      1.0  0.43556  0.63438  0.80725  1.0000
  H   H714      1.0  0.43239  0.63131  0.75557  1.0000
  H   H715      1.0  0.40651  0.57736  0.73859  1.0000
  H   H716      1.0  0.39497  0.57704  0.78580  1.0000
  H   H717      1.0  0.37751  0.57543  0.73189  1.0000
  H   H718      1.0  0.38066  0.59412  0.75600  1.0000
  H   H719      1.0  0.39207  0.59382  0.70792  1.0000
  H   H720      1.0  0.40103  0.60291  0.90488  1.0000
  H   H721      1.0  0.39015  0.58168  0.91248  1.0000
  H   H722      1.0  0.41209  0.58956  0.91652  1.0000
  H   H723      1.0  0.45012  0.56541  0.77146  1.0000
  H   H724      1.0  0.45817  0.56636  0.81918  1.0000
  H   H725      1.0  0.43611  0.55718  0.81616  1.0000
  H   H726      1.0  0.46648  0.64441  0.78772  1.0000
  H   H727      1.0  0.46255  0.64205  0.73593  1.0000
  H   H728      1.0  0.45586  0.65609  0.76504  1.0000
  C   C416      1.0  0.46558  0.60605  0.56252  1.0000
  H   H729      1.0  0.26197  0.60830  0.02102  1.0000
  C   C417      1.0  0.33187  0.51074  0.71899  1.0000
  C   C418      1.0  0.35044  0.50984  0.63770  1.0000
  H   H730      1.0  0.38206  0.55866  0.21238  1.0000
  C   C419      1.0  0.28143  0.59281  0.98958  1.0000
  H   H731      1.0  0.42168  0.59339  0.00450  1.0000
  C   C420      1.0  0.26356  0.58976  0.98042  1.0000
  H   H732      1.0  0.35116  0.52342  0.16111  1.0000
  C   C421      1.0  0.45789  0.66595  0.31546  1.0000
  C   C422      1.0  0.39801  0.50238  0.41988  1.0000
  C   C423      1.0  0.38605  0.55206  0.23521  1.0000
  H   H733      1.0  0.37503  0.55828  0.65936  1.0000
  H   H734      1.0  0.40534  0.49634  0.40305  1.0000
  H   H735      1.0  0.49334  0.52393  0.36326  1.0000
  H   H736      1.0  0.37122  0.52362  0.48015  1.0000
  H   H737      1.0  0.33723  0.50654  0.23511  1.0000
  H   H738      1.0  0.46509  0.60547  0.95661  1.0000
  H   H739      1.0  0.49379  0.70517  0.35367  1.0000
  C   C424      1.0  0.25842  0.54300  0.00794  1.0000
  H   H740      1.0  0.28236  0.59405  0.02214  1.0000
  C   C425      1.0  0.35077  0.53701  0.21541  1.0000
  H   H741      1.0  0.25173  0.60198  0.91114  1.0000
  H   H742      1.0  0.36940  0.54099  0.16247  1.0000
  N   N23       1.0  0.35793  0.52829  0.24332  1.0000
  H   H743      1.0  0.45362  0.64146  0.95289  1.0000
  H   H744      1.0  0.36788  0.50216  0.26858  1.0000
  C   C426      1.0  0.46178  0.64131  0.92540  1.0000
  H   H745      1.0  0.33243  0.52872  0.65176  1.0000
  H   H746      1.0  0.46900  0.62909  0.18303  1.0000
  H   H747      1.0  0.47343  0.59924  0.14461  1.0000
  H   H748      1.0  0.43370  0.61467  0.95250  1.0000
  C   C427      1.0  0.37875  0.51768  0.46363  1.0000
  C   C428      1.0  0.28754  0.50897  0.96676  1.0000
  H   H749      1.0  0.47411  0.72932  0.89332  1.0000
  H   H750      1.0  0.24551  0.54926  0.91910  1.0000
  C   C429      1.0  0.35573  0.53605  0.17013  1.0000
  C   C430      1.0  0.42779  0.74041  0.96166  1.0000
  H   H751      1.0  0.47922  0.53400  0.56249  1.0000
  H   H752      1.0  0.44372  0.62674  0.88661  1.0000
  H   H753      1.0  0.34753  0.54551  0.66960  1.0000
  H   H754      1.0  0.41702  0.61711  0.27575  1.0000
  H   H755      1.0  0.31566  0.49951  0.77257  1.0000
  S   S99       1.0  0.48588  0.70860  0.01775  1.0000
  H   H756      1.0  0.35407  0.54991  0.22258  1.0000
  H   H757      1.0  0.45472  0.72068  0.81987  1.0000
  H   H758      1.0  0.34546  0.55878  0.56509  1.0000
  N   N24       1.0  0.44841  0.54653  0.41938  1.0000
  C   C431      1.0  0.46423  0.55735  0.39583  1.0000
  C   C432      1.0  0.43324  0.54803  0.40252  1.0000
  C   C433      1.0  0.44847  0.55223  0.46153  1.0000
  C   C434      1.0  0.44749  0.52919  0.42104  1.0000
  C   C435      1.0  0.44912  0.52148  0.38049  1.0000
  C   C436      1.0  0.48079  0.55785  0.41167  1.0000
  C   C437      1.0  0.43249  0.54388  0.49033  1.0000
  C   C438      1.0  0.43455  0.55146  0.35682  1.0000
  C   C439      1.0  0.41756  0.54954  0.34325  1.0000
  H   H759      1.0  0.48144  0.70920  0.84527  1.0000
  C   C440      1.0  0.37642  0.51425  0.42368  1.0000
  C   C441      1.0  0.43412  0.55115  0.53136  1.0000
  H   H760      1.0  0.46423  0.56996  0.39441  1.0000
  H   H761      1.0  0.46489  0.55399  0.36435  1.0000
  H   H762      1.0  0.42211  0.53709  0.41090  1.0000
  H   H763      1.0  0.42996  0.55818  0.41593  1.0000
  H   H764      1.0  0.45079  0.56544  0.46110  1.0000
  H   H765      1.0  0.45876  0.55037  0.47607  1.0000
  H   H766      1.0  0.45695  0.52762  0.43946  1.0000
  H   H767      1.0  0.43536  0.52146  0.43668  1.0000
  H   H768      1.0  0.46064  0.52853  0.36151  1.0000
  H   H769      1.0  0.43814  0.52029  0.36434  1.0000
  H   H770      1.0  0.48310  0.51020  0.61168  1.0000
  H   H771      1.0  0.48121  0.54558  0.41622  1.0000
  H   H772      1.0  0.43033  0.53087  0.49478  1.0000
  H   H773      1.0  0.42131  0.54523  0.47899  1.0000
  H   H774      1.0  0.44277  0.56407  0.34923  1.0000
  H   H775      1.0  0.43973  0.54348  0.33917  1.0000
  H   H776      1.0  0.41181  0.55741  0.35997  1.0000
  H   H777      1.0  0.41914  0.55303  0.31102  1.0000
  H   H778      1.0  0.40914  0.53681  0.34772  1.0000
  H   H779      1.0  0.25547  0.65173  0.97003  1.0000
  C   C442      1.0  0.40475  0.55587  0.22565  1.0000
  H   H780      1.0  0.46675  0.49733  0.76287  1.0000
  H   H781      1.0  0.40949  0.54966  0.24777  1.0000
  C   C443      1.0  0.30776  0.52908  0.07744  1.0000
  C   C444      1.0  0.35433  0.49926  0.26769  1.0000
  H   H782      1.0  0.42259  0.54505  0.55150  1.0000
  H   H783      1.0  0.44476  0.54946  0.54479  1.0000
  H   H784      1.0  0.43592  0.56418  0.52911  1.0000
  H   H785      1.0  0.44065  0.74416  0.94635  1.0000
  H   H786      1.0  0.32825  0.54802  0.60128  1.0000
  H   H787      1.0  0.28583  0.52076  0.04708  1.0000
  C   C445      1.0  0.35046  0.52046  0.70611  1.0000
  H   H788      1.0  0.43404  0.64941  0.86590  1.0000
  H   H789      1.0  0.26919  0.49660  0.06621  1.0000
  H   H790      1.0  0.44819  0.51260  0.77989  1.0000
  H   H791      1.0  0.28530  0.58252  0.98012  1.0000
  H   H792      1.0  0.30413  0.53285  0.01636  1.0000
  H   H793      1.0  0.42727  0.63260  0.08659  1.0000
  H   H794      1.0  0.47335  0.61578  0.11355  1.0000
  C   C446      1.0  0.48273  0.53764  0.53028  1.0000
  H   H795      1.0  0.31628  0.51288  0.01187  1.0000
  C   C447      1.0  0.47511  0.49739  0.61110  1.0000
  H   H796      1.0  0.29894  0.51850  0.95243  1.0000
  S   S100      1.0  0.45622  0.59164  0.28303  1.0000
  H   H797      1.0  0.47764  0.56729  0.52034  1.0000
  H   H798      1.0  0.45502  0.67448  0.29542  1.0000
  H   H799      1.0  0.41138  0.56900  0.22680  1.0000
  H   H800      1.0  0.47568  0.66567  0.35574  1.0000
  H   H801      1.0  0.26315  0.58755  0.94809  1.0000
  H   H802      1.0  0.35804  0.51370  0.71725  1.0000
  H   H803      1.0  0.47660  0.74216  0.84950  1.0000
  N   N25       1.0  0.29235  0.49817  0.99451  1.0000
  H   H804      1.0  0.48550  0.72437  0.80689  1.0000
  H   H805      1.0  0.47870  0.56175  0.57000  1.0000
  Fe  Fe52      1.0  0.49269  0.63522  0.36328  1.0000
  H   H806      1.0  0.40387  0.57018  0.66967  1.0000
  H   H807      1.0  0.49356  0.51928  0.67140  1.0000
  C   C448      1.0  0.47587  0.59727  0.53941  1.0000
  H   H808      1.0  0.36706  0.51750  0.40993  1.0000
  H   H809      1.0  0.28040  0.51568  0.98326  1.0000
  H   H810      1.0  0.47576  0.67901  0.80582  1.0000
  C   C449      1.0  0.35091  0.51050  0.23663  1.0000
  H   H811      1.0  0.45742  0.66579  0.19768  1.0000
  H   H812      1.0  0.31843  0.52415  0.35538  1.0000
  C   C450      1.0  0.36999  0.50540  0.79296  1.0000
  C   C451      1.0  0.39947  0.55752  0.66064  1.0000
  C   C452      1.0  0.48662  0.56701  0.54161  1.0000
  H   H813      1.0  0.44425  0.65030  0.09732  1.0000
  H   H814      1.0  0.47552  0.65527  0.23475  1.0000
  H   H815      1.0  0.49030  0.62657  0.96076  1.0000
  H   H816      1.0  0.37828  0.53362  0.62283  1.0000
  C   C453      1.0  0.49165  0.64622  0.02482  1.0000
  H   H817      1.0  0.40269  0.55748  0.62787  1.0000
  H   H818      1.0  0.26589  0.61438  0.96989  1.0000
  H   H819      1.0  0.37834  0.54948  0.70473  1.0000
  H   H820      1.0  0.48528  0.68725  0.27840  1.0000
  Fe  Fe53      1.0  0.40091  0.49877  0.66718  1.0000
  H   H821      1.0  0.29010  0.60387  0.97310  1.0000
  H   H822      1.0  0.47476  0.51726  0.73855  1.0000
  H   H823      1.0  0.28483  0.49608  0.91076  1.0000
  C   C454      1.0  0.44103  0.63833  0.08402  1.0000
  C   C455      1.0  0.48010  0.66123  0.20571  1.0000
  S   S101      1.0  0.46226  0.68276  0.12205  1.0000
  C   C456      1.0  0.27124  0.51229  0.91022  1.0000
  C   C457      1.0  0.38070  0.54999  0.67169  1.0000
  H   H824      1.0  0.46186  0.49657  0.61629  1.0000
  C   C458      1.0  0.37379  0.53291  0.65522  1.0000
  H   H825      1.0  0.47982  0.58661  0.59366  1.0000
  C   C459      1.0  0.35353  0.53191  0.28575  1.0000
  S   S102      1.0  0.47355  0.74434  0.96850  1.0000
  H   H826      1.0  0.44627  0.61657  0.08809  1.0000
  C   C460      1.0  0.49378  0.62122  0.14897  1.0000
  H   H827      1.0  0.46253  0.63431  0.10183  1.0000
  H   H828      1.0  0.44137  0.59060  0.00719  1.0000
  H   H829      1.0  0.37020  0.50044  0.64980  1.0000
  H   H830      1.0  0.45235  0.70734  0.86288  1.0000
  H   H831      1.0  0.38011  0.52557  0.66963  1.0000
  H   H832      1.0  0.33694  0.53207  0.21980  1.0000
  H   H833      1.0  0.40614  0.55090  0.67629  1.0000
  N   N26       1.0  0.35516  0.52466  0.66203  1.0000
  H   H834      1.0  0.42607  0.73011  0.98282  1.0000
  H   H835      1.0  0.42986  0.64386  0.91820  1.0000
  H   H836      1.0  0.35796  0.54512  0.28950  1.0000
  H   H837      1.0  0.25554  0.57849  0.99675  1.0000
  H   H838      1.0  0.46705  0.58630  0.52803  1.0000
  Fe  Fe54      1.0  0.47816  0.61854  0.68551  1.0000
  H   H839      1.0  0.44729  0.72539  0.86856  1.0000
  C   C461      1.0  0.43988  0.64934  0.89383  1.0000
  C   C462      1.0  0.45848  0.61245  0.94179  1.0000
  H   H840      1.0  0.33432  0.54075  0.15005  1.0000
  C   C463      1.0  0.34196  0.55413  0.59665  1.0000
  C   C464      1.0  0.40009  0.50553  0.46069  1.0000
  H   H841      1.0  0.33734  0.54138  0.35141  1.0000
  H   H842      1.0  0.44679  0.66199  0.90061  1.0000
  C   C465      1.0  0.34812  0.54555  0.14469  1.0000
  H   H843      1.0  0.30286  0.50024  0.05121  1.0000
  H   H844      1.0  0.44570  0.64001  0.05191  1.0000
  C   C466      1.0  0.27719  0.50059  0.93284  1.0000
  C   C467      1.0  0.48507  0.67678  0.82210  1.0000
  C   C468      1.0  0.46983  0.66712  0.18447  1.0000
  C   C469      1.0  0.46380  0.61604  0.17728  1.0000
  H   H845      1.0  0.43066  0.58543  0.96284  1.0000
  H   H846      1.0  0.47128  0.53631  0.51593  1.0000
  H   H847      1.0  0.38180  0.52806  0.25810  1.0000
  H   H848      1.0  0.44735  0.66116  0.33927  1.0000
  S   S103      1.0  0.48819  0.62421  0.74441  1.0000
  H   H849      1.0  0.30597  0.54056  0.08563  1.0000
  H   H850      1.0  0.44522  0.61926  0.99498  1.0000
  Fe  Fe55      1.0  0.47860  0.60956  0.30452  1.0000
  H   H851      1.0  0.45392  0.60549  0.91527  1.0000
  H   H852      1.0  0.45042  0.49924  0.35696  1.0000
  S   S104      1.0  0.38123  0.50192  0.35192  1.0000
  H   H853      1.0  0.47916  0.50697  0.31360  1.0000
  C   C470      1.0  0.47550  0.61236  0.14363  1.0000
  H   H854      1.0  0.47558  0.68336  0.87868  1.0000
  C   C471      1.0  0.48506  0.67944  0.86326  1.0000
  H   H855      1.0  0.45982  0.64389  0.86145  1.0000
  H   H856      1.0  0.47371  0.61661  0.57711  1.0000
  C   C472      1.0  0.48909  0.68076  0.30202  1.0000
  C   C473      1.0  0.48630  0.72245  0.83917  1.0000
  Fe  Fe56      1.0  0.40544  0.50863  0.57776  1.0000
  C   C474      1.0  0.38592  0.50656  0.40150  1.0000
  C   C475      1.0  0.44252  0.61125  0.96961  1.0000
  S   S105      1.0  0.47901  0.63483  0.30925  1.0000
  N   N27       1.0  0.47042  0.62914  0.92907  1.0000
  H   H857      1.0  0.48231  0.56401  0.44032  1.0000
  H   H858      1.0  0.48341  0.55190  0.29833  1.0000
  C   C476      1.0  0.47390  0.67444  0.33440  1.0000
  H   H859      1.0  0.45662  0.59787  0.58584  1.0000
  H   H860      1.0  0.46538  0.60969  0.20458  1.0000
  C   C477      1.0  0.44836  0.50744  0.74998  1.0000
  H   H861      1.0  0.49293  0.64672  0.94590  1.0000
  H   H862      1.0  0.25998  0.49870  0.02120  1.0000
  H   H863      1.0  0.32814  0.53239  0.28470  1.0000
  C   C478      1.0  0.49159  0.67652  0.12973  1.0000
  C   C479      1.0  0.33197  0.52841  0.34536  1.0000
  H   H864      1.0  0.35611  0.50784  0.20699  1.0000
  H   H865      1.0  0.47899  0.64898  0.50554  1.0000
  H   H866      1.0  0.33672  0.50473  0.63698  1.0000
  H   H867      1.0  0.48600  0.60855  0.82862  1.0000
  H   H868      1.0  0.35567  0.51302  0.60591  1.0000
  C   C480      1.0  0.47381  0.72957  0.86064  1.0000
  H   H869      1.0  0.46884  0.64446  0.00208  1.0000
  C   C481      1.0  0.30303  0.50800  0.02480  1.0000
  C   C482      1.0  0.45598  0.72013  0.85233  1.0000
  C   C483      1.0  0.49123  0.61844  0.88703  1.0000
  H   H870      1.0  0.41877  0.73632  0.93917  1.0000
  C   C484      1.0  0.47715  0.63733  0.00121  1.0000
  S   S106      1.0  0.48937  0.60906  0.36219  1.0000
  H   H871      1.0  0.48872  0.52938  0.51637  1.0000
  H   H872      1.0  0.32873  0.51275  0.29645  1.0000
  H   H873      1.0  0.47043  0.62544  0.01675  1.0000
  C   C485      1.0  0.37171  0.50444  0.12670  1.0000
  H   H874      1.0  0.26272  0.51652  0.93044  1.0000
  Fe  Fe57      1.0  0.40544  0.50384  0.20981  1.0000
  H   H875      1.0  0.48582  0.51231  0.23136  1.0000
  H   H876      1.0  0.33351  0.51660  0.78175  1.0000
  C   C486      1.0  0.32912  0.50585  0.76349  1.0000
  H   H877      1.0  0.26437  0.50618  0.88529  1.0000
  H   H878      1.0  0.48502  0.60648  0.90263  1.0000
  S   S107      1.0  0.42597  0.49568  0.66387  1.0000
  C   C487      1.0  0.49003  0.64566  0.50188  1.0000
  H   H879      1.0  0.48301  0.60534  0.51351  1.0000
  C   C488      1.0  0.48343  0.63506  0.95784  1.0000
  C   C489      1.0  0.47948  0.62846  0.88861  1.0000
  C   C490      1.0  0.24493  0.64773  0.99403  1.0000
  H   H880      1.0  0.33593  0.49757  0.76973  1.0000
  H   H881      1.0  0.40911  0.50206  0.47520  1.0000
  H   H882      1.0  0.31282  0.49947  0.95025  1.0000
  H   H883      1.0  0.49079  0.67003  0.28776  1.0000
  H   H884      1.0  0.48688  0.64778  0.05580  1.0000
  H   H885      1.0  0.24740  0.65660  0.01781  1.0000
  H   H886      1.0  0.27033  0.74456  0.02190  1.0000
  S   S108      1.0  0.42728  0.49500  0.20679  1.0000
  C   C491      1.0  0.35645  0.49612  0.65099  1.0000
  S   S109      1.0  0.38317  0.49498  0.72480  1.0000
  H   H887      1.0  0.43797  0.49573  0.75100  1.0000
  Fe  Fe58      1.0  0.32100  0.83230  0.07444  1.0000
  S   S110      1.0  0.34172  0.84507  0.02774  1.0000
  S   S111      1.0  0.31999  0.83935  0.13969  1.0000
  Fe  Fe59      1.0  0.30383  0.80529  0.01787  1.0000
  S   S112      1.0  0.32388  0.81654  0.96670  1.0000
  S   S113      1.0  0.28468  0.77926  0.01775  1.0000
  Fe  Fe60      1.0  0.34234  0.82077  0.01210  1.0000
  S   S114      1.0  0.36644  0.81547  0.00073  1.0000
  Fe  Fe61      1.0  0.32218  0.84039  0.98509  1.0000
  S   S115      1.0  0.32676  0.86321  0.94669  1.0000
  S   S116      1.0  0.32283  0.80799  0.06178  1.0000
  S   S117      1.0  0.30083  0.82912  0.03362  1.0000
  C   C492      1.0  0.44271  0.97509  0.37209  1.0000
  S   S118      1.0  0.47004  0.85468  0.05080  1.0000
  H   H888      1.0  0.42956  0.81024  0.02561  1.0000
  H   H889      1.0  0.47643  0.88742  0.32502  1.0000
  S   S119      1.0  0.48208  0.88729  0.99094  1.0000
  H   H890      1.0  0.37478  0.83560  0.83726  1.0000
  C   C493      1.0  0.39934  0.98041  0.70718  1.0000
  H   H891      1.0  0.39966  0.94798  0.45885  1.0000
  Fe  Fe62      1.0  0.45889  0.86581  0.00636  1.0000
  S   S120      1.0  0.43486  0.87090  0.01931  1.0000
  H   H892      1.0  0.43178  0.95663  0.15127  1.0000
  S   S121      1.0  0.46401  0.85105  0.95641  1.0000
  Fe  Fe63      1.0  0.36617  0.90259  0.72704  1.0000
  S   S122      1.0  0.38566  0.89653  0.68762  1.0000
  S   S123      1.0  0.34708  0.88011  0.75964  1.0000
  Fe  Fe64      1.0  0.38243  0.93832  0.70257  1.0000
  S   S124      1.0  0.40316  0.93470  0.66288  1.0000
  Fe  Fe65      1.0  0.38348  0.91369  0.64058  1.0000
  S   S125      1.0  0.38862  0.90840  0.57538  1.0000
  Fe  Fe66      1.0  0.40365  0.91795  0.71249  1.0000
  S   S126      1.0  0.42747  0.91570  0.72900  1.0000
  S   S127      1.0  0.36227  0.91808  0.67743  1.0000
  S   S128      1.0  0.38459  0.92328  0.75487  1.0000
  Fe  Fe67      1.0  0.37700  0.92197  0.35701  1.0000
  S   S129      1.0  0.37733  0.93428  0.29737  1.0000
  S   S130      1.0  0.36302  0.92553  0.41500  1.0000
  Fe  Fe68      1.0  0.40311  0.90845  0.32548  1.0000
  S   S131      1.0  0.40582  0.91943  0.26430  1.0000
  S   S132      1.0  0.41997  0.89541  0.34190  1.0000
  Fe  Fe69      1.0  0.40511  0.94158  0.29510  1.0000
  Fe  Fe70      1.0  0.37789  0.91108  0.27021  1.0000
  S   S133      1.0  0.36864  0.90330  0.20931  1.0000
  S   S134      1.0  0.40470  0.93117  0.35611  1.0000
  S   S135      1.0  0.37522  0.89817  0.33014  1.0000
  H   H893      1.0  0.38949  0.84046  0.92781  1.0000
  H   H894      1.0  0.37439  0.97402  0.63115  1.0000
  H   H895      1.0  0.44215  0.93122  0.21845  1.0000
  H   H896      1.0  0.37931  0.95976  0.48886  1.0000
  C   C494      1.0  0.43794  0.91037  0.35467  1.0000
  C   C495      1.0  0.44248  0.92595  0.33778  1.0000
  C   C496      1.0  0.45603  0.93830  0.35011  1.0000
  C   C497      1.0  0.46494  0.93513  0.37976  1.0000
  C   C498      1.0  0.46096  0.91939  0.39529  1.0000
  C   C499      1.0  0.44748  0.90696  0.38262  1.0000
  H   H897      1.0  0.43546  0.92859  0.31538  1.0000
  H   H898      1.0  0.45938  0.95033  0.33711  1.0000
  H   H899      1.0  0.46810  0.91686  0.41757  1.0000
  H   H900      1.0  0.44405  0.89490  0.39558  1.0000
  C   C500      1.0  0.38065  0.91294  0.53187  1.0000
  C   C501      1.0  0.38658  0.90867  0.49486  1.0000
  C   C502      1.0  0.38113  0.91237  0.45913  1.0000
  C   C503      1.0  0.36957  0.92031  0.45996  1.0000
  C   C504      1.0  0.36337  0.92436  0.49706  1.0000
  C   C505      1.0  0.36889  0.92070  0.53293  1.0000
  H   H901      1.0  0.39546  0.90244  0.49374  1.0000
  H   H902      1.0  0.38587  0.90900  0.43092  1.0000
  H   H903      1.0  0.35423  0.93030  0.49803  1.0000
  H   H904      1.0  0.36387  0.92361  0.56134  1.0000
  C   C506      1.0  0.44397  0.93095  0.70257  1.0000
  C   C507      1.0  0.45798  0.92764  0.68608  1.0000
  C   C508      1.0  0.47134  0.93984  0.66539  1.0000
  C   C509      1.0  0.47086  0.95541  0.66175  1.0000
  C   C510      1.0  0.45675  0.95868  0.67765  1.0000
  C   C511      1.0  0.44327  0.94642  0.69798  1.0000
  H   H905      1.0  0.45839  0.91560  0.68886  1.0000
  C   C512      1.0  0.43787  0.79941  0.90588  1.0000
  H   H906      1.0  0.45642  0.97076  0.67526  1.0000
  H   H907      1.0  0.43250  0.94905  0.71096  1.0000
  H   H908      1.0  0.25297  0.78398  0.00478  1.0000
  H   H909      1.0  0.45534  0.98084  0.54490  1.0000
  S   S136      1.0  0.48067  0.95095  0.39821  1.0000
  H   H910      1.0  0.39938  0.90787  0.06534  1.0000
  H   H911      1.0  0.34422  0.96036  0.64857  1.0000
  H   H912      1.0  0.32664  0.92406  0.19758  1.0000
  H   H913      1.0  0.38601  0.99089  0.53071  1.0000
  H   H914      1.0  0.26426  0.82763  0.06324  1.0000
  C   C513      1.0  0.40516  0.83991  0.87323  1.0000
  H   H915      1.0  0.39403  0.97972  0.47713  1.0000
  C   C514      1.0  0.39643  0.97615  0.10717  1.0000
  C   C515      1.0  0.47843  0.77666  0.95445  1.0000
  H   H916      1.0  0.48643  0.90699  0.30076  1.0000
  H   H917      1.0  0.40291  0.98268  0.61807  1.0000
  C   C516      1.0  0.41611  0.85545  0.01272  1.0000
  C   C517      1.0  0.40133  0.85892  0.01578  1.0000
  C   C518      1.0  0.38603  0.84671  0.01288  1.0000
  C   C519      1.0  0.38538  0.83095  0.00651  1.0000
  C   C520      1.0  0.40023  0.82753  0.00277  1.0000
  C   C521      1.0  0.41559  0.83974  0.00577  1.0000
  H   H918      1.0  0.40168  0.87110  0.02029  1.0000
  H   H919      1.0  0.37482  0.84962  0.01502  1.0000
  H   H920      1.0  0.39979  0.81542  0.99747  1.0000
  H   H921      1.0  0.42697  0.83699  0.00330  1.0000
  C   C522      1.0  0.33328  0.86747  0.89479  1.0000
  C   C523      1.0  0.33054  0.85537  0.86716  1.0000
  C   C524      1.0  0.33489  0.85946  0.82595  1.0000
  C   C525      1.0  0.34248  0.87561  0.81197  1.0000
  C   C526      1.0  0.34579  0.88766  0.83976  1.0000
  C   C527      1.0  0.34100  0.88361  0.88084  1.0000
  H   H922      1.0  0.32451  0.84293  0.87737  1.0000
  H   H923      1.0  0.33221  0.85006  0.80468  1.0000
  H   H924      1.0  0.35152  0.90012  0.82946  1.0000
  H   H925      1.0  0.34309  0.89307  0.90190  1.0000
  C   C528      1.0  0.33380  0.85708  0.15862  1.0000
  C   C529      1.0  0.34359  0.87023  0.13348  1.0000
  C   C530      1.0  0.35394  0.88428  0.14972  1.0000
  C   C531      1.0  0.35501  0.88527  0.19115  1.0000
  C   C532      1.0  0.34546  0.87202  0.21628  1.0000
  C   C533      1.0  0.33480  0.85808  0.20010  1.0000
  H   H926      1.0  0.34288  0.86971  0.10158  1.0000
  H   H927      1.0  0.36110  0.89447  0.12995  1.0000
  H   H928      1.0  0.34607  0.87259  0.24821  1.0000
  H   H929      1.0  0.32725  0.84801  0.21987  1.0000
  C   C534      1.0  0.47842  0.79220  0.96437  1.0000
  C   C535      1.0  0.47341  0.79518  0.00352  1.0000
  C   C536      1.0  0.42794  0.93056  0.45241  1.0000
  H   H930      1.0  0.42034  0.89780  0.59800  1.0000
  H   H931      1.0  0.48220  0.80184  0.94167  1.0000
  H   H932      1.0  0.37160  0.81866  0.89979  1.0000
  C   C537      1.0  0.39057  0.86501  0.27195  1.0000
  H   H933      1.0  0.27409  0.77401  0.16384  1.0000
  H   H934      1.0  0.48317  0.94333  0.49739  1.0000
  H   H935      1.0  0.47975  0.91733  0.85511  1.0000
  H   H936      1.0  0.37071  0.96283  0.12306  1.0000
  N   N28       1.0  0.46149  0.88886  0.25175  1.0000
  C   C538      1.0  0.44860  0.88194  0.28678  1.0000
  C   C539      1.0  0.46381  0.90645  0.24589  1.0000
  C   C540      1.0  0.45559  0.87964  0.21541  1.0000
  C   C541      1.0  0.44568  0.86430  0.30026  1.0000
  C   C542      1.0  0.46643  0.88635  0.17544  1.0000
  C   C543      1.0  0.44868  0.91039  0.23340  1.0000
  C   C544      1.0  0.45323  0.92853  0.22601  1.0000
  C   C545      1.0  0.43304  0.85914  0.33736  1.0000
  C   C546      1.0  0.45940  0.87631  0.14054  1.0000
  H   H937      1.0  0.43630  0.88222  0.27987  1.0000
  H   H938      1.0  0.45165  0.88956  0.31297  1.0000
  H   H939      1.0  0.46701  0.91283  0.27392  1.0000
  H   H940      1.0  0.47461  0.91243  0.22352  1.0000
  H   H941      1.0  0.44255  0.87868  0.21192  1.0000
  H   H942      1.0  0.45523  0.86702  0.21918  1.0000
  H   H943      1.0  0.44065  0.85599  0.27648  1.0000
  H   H944      1.0  0.45733  0.86272  0.30776  1.0000
  H   H945      1.0  0.47920  0.88615  0.17671  1.0000
  H   H946      1.0  0.46707  0.89882  0.16846  1.0000
  H   H947      1.0  0.44441  0.90457  0.20553  1.0000
  N   N29       1.0  0.42415  0.78338  0.97288  1.0000
  H   H948      1.0  0.44410  0.97525  0.40454  1.0000
  H   H949      1.0  0.46856  0.97864  0.35587  1.0000
  H   H950      1.0  0.39837  0.96565  0.04926  1.0000
  H   H951      1.0  0.43764  0.86687  0.36256  1.0000
  H   H952      1.0  0.42092  0.86006  0.33111  1.0000
  H   H953      1.0  0.43102  0.84648  0.34653  1.0000
  H   H954      1.0  0.46791  0.88103  0.11278  1.0000
  H   H955      1.0  0.45827  0.86355  0.14582  1.0000
  H   H956      1.0  0.44711  0.87709  0.13590  1.0000
  H   H957      1.0  0.36876  0.87460  0.98516  1.0000
  H   H958      1.0  0.44617  0.90953  0.55135  1.0000
  H   H959      1.0  0.37321  0.85998  0.22813  1.0000
  N   N30       1.0  0.45899  0.93454  0.53257  1.0000
  C   C547      1.0  0.45953  0.95077  0.54723  1.0000
  C   C548      1.0  0.45050  0.92152  0.56480  1.0000
  C   C549      1.0  0.47681  0.93512  0.52377  1.0000
  H   H960      1.0  0.44105  0.78913  0.89353  1.0000
  C   C550      1.0  0.43306  0.93143  0.49484  1.0000
  C   C551      1.0  0.46753  0.96519  0.51659  1.0000
  H   H961      1.0  0.44983  0.91842  0.48539  1.0000
  C   C552      1.0  0.43569  0.92320  0.59229  1.0000
  H   H962      1.0  0.42752  0.91893  0.43955  1.0000
  H   H963      1.0  0.45753  0.98222  0.31593  1.0000
  C   C553      1.0  0.47051  0.91962  0.93484  1.0000
  H   H964      1.0  0.43893  0.78607  0.02222  1.0000
  H   H965      1.0  0.46632  0.95339  0.57438  1.0000
  H   H966      1.0  0.44691  0.95092  0.55722  1.0000
  H   H967      1.0  0.42892  0.98397  0.56621  1.0000
  H   H968      1.0  0.45952  0.92088  0.58593  1.0000
  H   H969      1.0  0.48046  0.96636  0.50571  1.0000
  C   C554      1.0  0.24857  0.77075  0.11873  1.0000
  H   H970      1.0  0.36862  0.96239  0.54678  1.0000
  H   H971      1.0  0.43321  0.98050  0.36598  1.0000
  H   H972      1.0  0.43205  0.94266  0.50716  1.0000
  H   H973      1.0  0.38910  0.85222  0.27821  1.0000
  H   H974      1.0  0.40263  0.99140  0.17631  1.0000
  H   H975      1.0  0.46029  0.96376  0.49044  1.0000
  C   C555      1.0  0.40339  0.97311  0.59726  1.0000
  N   N31       1.0  0.38334  0.95804  0.17166  1.0000
  H   H976      1.0  0.44032  0.93300  0.61318  1.0000
  H   H977      1.0  0.39722  0.96169  0.61567  1.0000
  C   C556      1.0  0.42367  0.79781  0.08262  1.0000
  H   H978      1.0  0.37006  0.97470  0.18367  1.0000
  C   C557      1.0  0.42658  0.90767  0.61735  1.0000
  H   H979      1.0  0.45754  0.93504  0.25316  1.0000
  C   C558      1.0  0.40057  0.96662  0.52556  1.0000
  C   C559      1.0  0.35172  0.94117  0.18385  1.0000
  C   C560      1.0  0.42141  0.79822  0.03819  1.0000
  H   H980      1.0  0.43125  0.98966  0.63765  1.0000
  S   S137      1.0  0.48798  0.97086  0.63801  1.0000
  H   H981      1.0  0.40265  0.87504  0.85693  1.0000
  H   H982      1.0  0.46783  0.89432  0.81373  1.0000
  H   H983      1.0  0.42472  0.96835  0.65007  1.0000
  N   N32       1.0  0.39514  0.86431  0.15477  1.0000
  C   C561      1.0  0.39809  0.86279  0.19796  1.0000
  C   C562      1.0  0.40800  0.86013  0.12728  1.0000
  C   C563      1.0  0.39716  0.88170  0.14601  1.0000
  C   C564      1.0  0.37778  0.85404  0.14708  1.0000
  C   C565      1.0  0.37322  0.83568  0.15409  1.0000
  H   H984      1.0  0.43670  0.94063  0.43277  1.0000
  C   C566      1.0  0.39687  0.88664  0.10175  1.0000
  C   C567      1.0  0.41485  0.84735  0.14326  1.0000
  C   C568      1.0  0.42504  0.84206  0.11010  1.0000
  C   C569      1.0  0.35489  0.82679  0.14934  1.0000
  C   C570      1.0  0.40035  0.90472  0.09680  1.0000
  H   H985      1.0  0.41110  0.87041  0.20217  1.0000
  H   H986      1.0  0.39705  0.85034  0.20646  1.0000
  H   H987      1.0  0.40307  0.85616  0.09829  1.0000
  H   H988      1.0  0.41924  0.87098  0.11931  1.0000
  H   H989      1.0  0.40905  0.88977  0.15611  1.0000
  H   H990      1.0  0.38708  0.88487  0.16308  1.0000
  H   H991      1.0  0.36835  0.85793  0.16489  1.0000
  H   H992      1.0  0.37574  0.85574  0.11548  1.0000
  H   H993      1.0  0.37540  0.83254  0.18449  1.0000
  H   H994      1.0  0.38058  0.83109  0.13147  1.0000
  C   C571      1.0  0.46853  0.76679  0.02248  1.0000
  H   H995      1.0  0.38450  0.88041  0.09140  1.0000
  H   H996      1.0  0.40645  0.88386  0.08171  1.0000
  H   H997      1.0  0.42314  0.85253  0.16672  1.0000
  H   H998      1.0  0.40485  0.83643  0.15648  1.0000
  H   H999      1.0  0.41680  0.83510  0.08829  1.0000
  H   H1000     1.0  0.43480  0.85260  0.09421  1.0000
  H   H1001     1.0  0.43125  0.83431  0.12304  1.0000
  H   H1002     1.0  0.35437  0.94591  0.63827  1.0000
  H   H1003     1.0  0.36264  0.97904  0.59550  1.0000
  H   H1004     1.0  0.34683  0.83007  0.17299  1.0000
  C   C572      1.0  0.29057  0.79835  0.15133  1.0000
  H   H1005     1.0  0.39120  0.90832  0.11654  1.0000
  Fe  Fe71      1.0  0.48813  0.87210  0.94274  1.0000
  C   C573      1.0  0.41297  0.97897  0.72440  1.0000
  S   S138      1.0  0.42535  0.96460  0.27064  1.0000
  H   H1006     1.0  0.34151  0.91523  0.17689  1.0000
  C   C574      1.0  0.38502  0.87683  0.92984  1.0000
  C   C575      1.0  0.39590  0.97627  0.06190  1.0000
  H   H1007     1.0  0.47760  0.87481  0.25734  1.0000
  H   H1008     1.0  0.40461  0.79340  0.96961  1.0000
  H   H1009     1.0  0.27088  0.79637  0.07474  1.0000
  C   C576      1.0  0.25522  0.81629  0.05375  1.0000
  H   H1010     1.0  0.42247  0.96271  0.57750  1.0000
  H   H1011     1.0  0.26118  0.81189  0.02776  1.0000
  H   H1012     1.0  0.41310  0.91158  0.10417  1.0000
  H   H1013     1.0  0.30063  0.78586  0.19270  1.0000
  H   H1014     1.0  0.46384  0.81528  0.89848  1.0000
  C   C577      1.0  0.26416  0.79938  0.10181  1.0000
  C   C578      1.0  0.37608  0.96334  0.57233  1.0000
  H   H1015     1.0  0.37405  0.76983  0.94645  1.0000
  H   H1016     1.0  0.47310  0.91360  0.48791  1.0000
  C   C579      1.0  0.36656  0.96921  0.60689  1.0000
  H   H1017     1.0  0.41019  0.96836  0.17307  1.0000
  C   C580      1.0  0.26386  0.76578  0.01337  1.0000
  H   H1018     1.0  0.28101  0.77881  0.11218  1.0000
  H   H1019     1.0  0.41693  0.90955  0.63890  1.0000
  H   H1020     1.0  0.39437  0.98724  0.11756  1.0000
  H   H1021     1.0  0.38774  0.88034  0.22614  1.0000
  C   C581      1.0  0.27622  0.78342  0.13981  1.0000
  C   C582      1.0  0.47925  0.91883  0.51450  1.0000
  H   H1022     1.0  0.27279  0.81084  0.11191  1.0000
  H   H1023     1.0  0.47010  0.89293  0.73910  1.0000
  H   H1024     1.0  0.41413  0.92477  0.82285  1.0000
  C   C583      1.0  0.44737  0.92900  0.82862  1.0000
  H   H1025     1.0  0.40351  0.87276  0.27582  1.0000
  H   H1026     1.0  0.47800  0.91920  0.77479  1.0000
  H   H1027     1.0  0.44883  0.80109  0.96156  1.0000
  C   C584      1.0  0.38640  0.86748  0.22978  1.0000
  H   H1028     1.0  0.29574  0.80688  0.12511  1.0000
  H   H1029     1.0  0.46471  0.75714  0.04519  1.0000
  C   C585      1.0  0.42188  0.97430  0.58874  1.0000
  H   H1030     1.0  0.44657  0.89278  0.81418  1.0000
  H   H1031     1.0  0.34158  0.92115  0.22817  1.0000
  C   C586      1.0  0.25316  0.79086  0.17275  1.0000
  H   H1032     1.0  0.42400  0.92095  0.51256  1.0000
  C   C587      1.0  0.30482  0.79361  0.16486  1.0000
  C   C588      1.0  0.39268  0.96722  0.48614  1.0000
  N   N33       1.0  0.46392  0.92639  0.82338  1.0000
  H   H1033     1.0  0.46462  0.78436  0.06278  1.0000
  H   H1034     1.0  0.40189  0.89315  0.79784  1.0000
  H   H1035     1.0  0.38246  0.88976  0.77772  1.0000
  C   C589      1.0  0.40501  0.94363  0.15828  1.0000
  H   H1036     1.0  0.38261  0.95050  0.11064  1.0000
  H   H1037     1.0  0.42407  0.94473  0.19742  1.0000
  H   H1038     1.0  0.30953  0.78710  0.14119  1.0000
  H   H1039     1.0  0.40450  0.94454  0.12562  1.0000
  H   H1040     1.0  0.48229  0.77460  0.92408  1.0000
  H   H1041     1.0  0.42593  0.93502  0.15128  1.0000
  C   C590      1.0  0.39546  0.84838  0.90082  1.0000
  C   C591      1.0  0.40113  0.96068  0.45179  1.0000
  H   H1042     1.0  0.42654  0.92606  0.57548  1.0000
  H   H1043     1.0  0.47414  0.90995  0.54007  1.0000
  H   H1044     1.0  0.39369  0.87621  0.76707  1.0000
  H   H1045     1.0  0.40011  0.97508  0.31446  1.0000
  H   H1046     1.0  0.36970  0.86427  0.81720  1.0000
  C   C592      1.0  0.26031  0.74902  0.01772  1.0000
  H   H1047     1.0  0.36337  0.86311  0.90120  1.0000
  H   H1048     1.0  0.47537  0.98306  0.56159  1.0000
  C   C593      1.0  0.46752  0.91914  0.86066  1.0000
  H   H1049     1.0  0.36462  0.88588  0.94495  1.0000
  H   H1050     1.0  0.38358  0.97620  0.05431  1.0000
  H   H1051     1.0  0.39674  0.83010  0.85717  1.0000
  C   C594      1.0  0.42280  0.94512  0.16498  1.0000
  H   H1052     1.0  0.46323  0.93302  0.20085  1.0000
  H   H1053     1.0  0.37153  0.93246  0.16431  1.0000
  H   H1054     1.0  0.40508  0.85891  0.91199  1.0000
  H   H1055     1.0  0.40230  0.98288  0.22462  1.0000
  H   H1056     1.0  0.31521  0.80462  0.17088  1.0000
  C   C595      1.0  0.45165  0.81478  0.88890  1.0000
  C   C596      1.0  0.37458  0.88337  0.95962  1.0000
  H   H1057     1.0  0.42611  0.79933  0.89473  1.0000
  H   H1058     1.0  0.39679  0.93148  0.16996  1.0000
  N   N34       1.0  0.26012  0.78609  0.13375  1.0000
  N   N35       1.0  0.39406  0.97371  0.56149  1.0000
  C   C597      1.0  0.39983  0.95681  0.18013  1.0000
  C   C598      1.0  0.39040  0.88375  0.79034  1.0000
  H   H1059     1.0  0.35215  0.81360  0.15207  1.0000
  C   C599      1.0  0.38080  0.87343  0.82729  1.0000
  C   C600      1.0  0.41533  0.83264  0.89712  1.0000
  C   C601      1.0  0.45889  0.89752  0.79661  1.0000
  H   H1060     1.0  0.41410  0.97277  0.51787  1.0000
  H   H1061     1.0  0.33773  0.81626  0.87250  1.0000
  H   H1062     1.0  0.43269  0.80933  0.96138  1.0000
  H   H1063     1.0  0.39678  0.85933  0.82342  1.0000
  H   H1064     1.0  0.44465  0.93343  0.80001  1.0000
  C   C602      1.0  0.37007  0.94200  0.18411  1.0000
  C   C603      1.0  0.41647  0.91923  0.85044  1.0000
  H   H1065     1.0  0.36852  0.85234  0.93909  1.0000
  H   H1066     1.0  0.43528  0.90411  0.63453  1.0000
  H   H1067     1.0  0.48779  0.89422  0.23481  1.0000
  H   H1068     1.0  0.48188  0.93712  0.65171  1.0000
  H   H1069     1.0  0.45622  0.93130  0.90580  1.0000
  H   H1070     1.0  0.34252  0.95067  0.60138  1.0000
  C   C604      1.0  0.37410  0.86091  0.91295  1.0000
  H   H1071     1.0  0.37663  0.88126  0.84812  1.0000
  C   C605      1.0  0.39165  0.86539  0.84746  1.0000
  H   H1072     1.0  0.38261  0.89475  0.97135  1.0000
  H   H1073     1.0  0.39966  0.95447  0.21284  1.0000
  H   H1074     1.0  0.39496  0.87497  0.94577  1.0000
  H   H1075     1.0  0.35725  0.82733  0.92355  1.0000
  H   H1076     1.0  0.37529  0.95079  0.58001  1.0000
  H   H1077     1.0  0.45797  0.91853  0.76441  1.0000
  H   H1078     1.0  0.35184  0.82973  0.11953  1.0000
  H   H1079     1.0  0.35233  0.80777  0.84775  1.0000
  H   H1080     1.0  0.40576  0.78031  0.93124  1.0000
  H   H1081     1.0  0.41398  0.84874  0.85073  1.0000
  H   H1082     1.0  0.28626  0.80474  0.17584  1.0000
  H   H1083     1.0  0.40824  0.79687  0.03570  1.0000
  N   N36       1.0  0.38280  0.85354  0.88174  1.0000
  C   C606      1.0  0.45786  0.88871  0.75759  1.0000
  H   H1084     1.0  0.43818  0.96236  0.36348  1.0000
  H   H1085     1.0  0.40906  0.97656  0.11279  1.0000
  H   H1086     1.0  0.42928  0.90552  0.81856  1.0000
  C   C607      1.0  0.47348  0.76379  0.98335  1.0000
  C   C608      1.0  0.40690  0.78196  0.96366  1.0000
  H   H1087     1.0  0.40536  0.90853  0.85979  1.0000
  C   C609      1.0  0.34791  0.81152  0.87683  1.0000
  C   C610      1.0  0.41049  0.98559  0.30302  1.0000
  H   H1088     1.0  0.45428  0.87559  0.76427  1.0000
  C   C611      1.0  0.36981  0.83938  0.86575  1.0000
  C   C612      1.0  0.46801  0.92888  0.89880  1.0000
  H   H1089     1.0  0.44782  0.93872  0.84967  1.0000
  H   H1090     1.0  0.37148  0.93816  0.21475  1.0000
  C   C613      1.0  0.36219  0.82425  0.89436  1.0000
  H   H1091     1.0  0.34280  0.80079  0.89776  1.0000
  H   H1092     1.0  0.35918  0.84289  0.85780  1.0000
  S   S139      1.0  0.38131  0.96353  0.70271  1.0000
  C   C614      1.0  0.35094  0.95567  0.62469  1.0000
  H   H1093     1.0  0.44395  0.97819  0.61925  1.0000
  C   C615      1.0  0.47730  0.94269  0.81453  1.0000
  H   H1094     1.0  0.39088  0.88624  0.90583  1.0000
  H   H1095     1.0  0.41270  0.96726  0.73475  1.0000
  H   H1096     1.0  0.46555  0.95088  0.76642  1.0000
  H   H1097     1.0  0.40695  0.82298  0.91846  1.0000
  C   C616      1.0  0.39450  0.98605  0.20391  1.0000
  C   C617      1.0  0.45081  0.93073  0.49446  1.0000
  H   H1098     1.0  0.41538  0.93138  0.45289  1.0000
  C   C618      1.0  0.43185  0.91425  0.84250  1.0000
  H   H1099     1.0  0.39897  0.95380  0.53277  1.0000
  C   C619      1.0  0.47792  0.95087  0.77297  1.0000
  C   C620      1.0  0.42449  0.98374  0.28176  1.0000
  H   H1100     1.0  0.42406  0.84202  0.91387  1.0000
  H   H1101     1.0  0.39516  0.96102  0.42410  1.0000
  H   H1102     1.0  0.45877  0.93884  0.46947  1.0000
  H   H1103     1.0  0.37399  0.96566  0.22726  1.0000
  C   C621      1.0  0.42593  0.78455  0.01705  1.0000
  H   H1104     1.0  0.38200  0.86834  0.29415  1.0000
  H   H1105     1.0  0.43330  0.90834  0.87037  1.0000
  H   H1106     1.0  0.41809  0.92794  0.87459  1.0000
  H   H1107     1.0  0.25682  0.78538  0.19865  1.0000
  C   C622      1.0  0.46488  0.91602  0.78836  1.0000
  H   H1108     1.0  0.47593  0.95129  0.83738  1.0000
  H   H1109     1.0  0.45834  0.90694  0.86833  1.0000
  H   H1110     1.0  0.42266  0.82731  0.87638  1.0000
  H   H1111     1.0  0.46000  0.90807  0.94098  1.0000
  H   H1112     1.0  0.44830  0.89080  0.74041  1.0000
  H   H1113     1.0  0.34911  0.94377  0.15342  1.0000
  C   C623      1.0  0.46853  0.78232  0.03240  1.0000
  H   H1114     1.0  0.34882  0.94981  0.20437  1.0000
  C   C624      1.0  0.43618  0.79876  0.95228  1.0000
  H   H1115     1.0  0.45263  0.81506  0.85576  1.0000
  H   H1116     1.0  0.43813  0.90643  0.25733  1.0000
  S   S140      1.0  0.47182  0.81423  0.01758  1.0000
  C   C625      1.0  0.38267  0.96120  0.12783  1.0000
  H   H1117     1.0  0.44890  0.82557  0.89920  1.0000
  C   C626      1.0  0.33967  0.92438  0.19746  1.0000
  Fe  Fe72      1.0  0.47717  0.84113  0.99949  1.0000
  C   C627      1.0  0.25061  0.77122  0.00823  1.0000
  C   C628      1.0  0.37959  0.97078  0.19663  1.0000
  C   C629      1.0  0.43093  0.97782  0.62629  1.0000
  C   C630      1.0  0.47804  0.88750  0.25898  1.0000
  H   H1118     1.0  0.43698  0.80022  0.08663  1.0000
  C   C631      1.0  0.45939  0.98415  0.34791  1.0000
  H   H1119     1.0  0.48403  0.94011  0.54937  1.0000
  H   H1120     1.0  0.44275  0.77341  0.94862  1.0000
  C   C632      1.0  0.42901  0.76950  0.95661  1.0000
  H   H1121     1.0  0.47113  0.92690  0.96173  1.0000
  C   C633      1.0  0.46810  0.98101  0.53532  1.0000
  H   H1122     1.0  0.48266  0.94458  0.74884  1.0000
  H   H1123     1.0  0.25359  0.76866  0.08851  1.0000
  H   H1124     1.0  0.48232  0.91706  0.92946  1.0000
  C   C634      1.0  0.39478  0.99070  0.55279  1.0000
  H   H1125     1.0  0.25883  0.80409  0.17581  1.0000
  H   H1126     1.0  0.25658  0.75118  0.13864  1.0000
  H   H1127     1.0  0.41600  0.78595  0.09719  1.0000
  H   H1128     1.0  0.41456  0.96792  0.44611  1.0000
  H   H1129     1.0  0.24412  0.75722  0.17687  1.0000
  C   C635      1.0  0.48485  0.89407  0.29875  1.0000
  H   H1130     1.0  0.49009  0.97370  0.74019  1.0000
  H   H1131     1.0  0.42340  0.76564  0.92830  1.0000
  H   H1132     1.0  0.47854  0.94048  0.89518  1.0000
  H   H1133     1.0  0.41968  0.80720  0.09755  1.0000
  H   H1134     1.0  0.48985  0.94184  0.81655  1.0000
  C   C636      1.0  0.48951  0.96838  0.77056  1.0000
  C   C637      1.0  0.24939  0.80362  0.08824  1.0000
  H   H1135     1.0  0.48478  0.97549  0.79256  1.0000
  H   H1136     1.0  0.24440  0.81898  0.04413  1.0000
  H   H1137     1.0  0.39224  0.75639  0.97363  1.0000
  H   H1138     1.0  0.41201  0.75004  0.99870  1.0000
  H   H1139     1.0  0.49179  0.92732  0.14816  1.0000
  H   H1140     1.0  0.47414  0.99116  0.51308  1.0000
  H   H1141     1.0  0.48712  0.89696  0.61109  1.0000
  C   C638      1.0  0.42673  0.99279  0.72954  1.0000
  H   H1142     1.0  0.43701  0.99163  0.74394  1.0000
  H   H1143     1.0  0.40560  0.98731  0.04786  1.0000
  H   H1144     1.0  0.37469  0.78104  0.99137  1.0000
  C   C639      1.0  0.24569  0.75521  0.14449  1.0000
  C   C640      1.0  0.39228  0.76804  0.98557  1.0000
  H   H1145     1.0  0.41823  0.77325  0.03393  1.0000
  Fe  Fe73      1.0  0.49380  0.87511  0.03218  1.0000
  C   C641      1.0  0.37559  0.76975  0.97883  1.0000
  H   H1146     1.0  0.39289  0.76773  0.01827  1.0000
  H   H1147     1.0  0.49156  0.91004  0.65232  1.0000
  H   H1148     1.0  0.43337  0.75696  0.00865  1.0000
  H   H1149     1.0  0.36525  0.75946  0.99404  1.0000
  C   C642      1.0  0.42498  0.75428  0.98451  1.0000
  H   H1150     1.0  0.49250  0.90878  0.09342  1.0000
  H   H1151     1.0  0.38112  0.99444  0.25222  1.0000
  H   H1152     1.0  0.62340  0.11246  0.99943  1.0000
  H   H1153     1.0  0.52990  0.08987  0.16300  1.0000
  H   H1154     1.0  0.59594  0.16117  0.02999  1.0000
  H   H1155     1.0  0.53370  0.01742  0.70270  1.0000
  Fe  Fe74      1.0  0.66489  0.19848  0.97899  1.0000
  S   S141      1.0  0.64494  0.18772  0.02951  1.0000
  S   S142      1.0  0.66850  0.18566  0.92204  1.0000
  Fe  Fe75      1.0  0.68272  0.22884  0.02456  1.0000
  S   S143      1.0  0.66379  0.22006  0.07904  1.0000
  H   H1156     1.0  0.54145  0.05238  0.67747  1.0000
  Fe  Fe76      1.0  0.66522  0.19533  0.06985  1.0000
  S   S144      1.0  0.66625  0.17773  0.11915  1.0000
  Fe  Fe77      1.0  0.64457  0.21280  0.03546  1.0000
  S   S145      1.0  0.61971  0.21593  0.04917  1.0000
  S   S146      1.0  0.68572  0.20454  0.01870  1.0000
  S   S147      1.0  0.66289  0.22317  0.98179  1.0000
  Fe  Fe78      1.0  0.51244  0.19597  0.94465  1.0000
  S   S148      1.0  0.52576  0.18661  0.89483  1.0000
  Fe  Fe79      1.0  0.51194  0.16888  0.00391  1.0000
  S   S149      1.0  0.52571  0.15840  0.95844  1.0000
  C   C643      1.0  0.72295  0.21730  0.93511  1.0000
  Fe  Fe80      1.0  0.54167  0.18375  0.94107  1.0000
  S   S150      1.0  0.56905  0.19092  0.92029  1.0000
  H   H1157     1.0  0.52565  0.09971  0.23371  1.0000
  H   H1158     1.0  0.56367  0.14645  0.94305  1.0000
  S   S151      1.0  0.52951  0.19439  0.98954  1.0000
  C   C644      1.0  0.57082  0.01707  0.32183  1.0000
  Fe  Fe81      1.0  0.58424  0.12173  0.70047  1.0000
  S   S152      1.0  0.58694  0.11201  0.75979  1.0000
  S   S153      1.0  0.56078  0.12700  0.69474  1.0000
  Fe  Fe82      1.0  0.61893  0.12489  0.66732  1.0000
  S   S154      1.0  0.62472  0.11603  0.72572  1.0000
  S   S155      1.0  0.63804  0.13163  0.61283  1.0000
  Fe  Fe83      1.0  0.59935  0.09704  0.72493  1.0000
  S   S156      1.0  0.59250  0.07080  0.74549  1.0000
  Fe  Fe84      1.0  0.61174  0.13195  0.75607  1.0000
  S   S157      1.0  0.61291  0.14742  0.81109  1.0000
  S   S158      1.0  0.59450  0.10507  0.66547  1.0000
  S   S159      1.0  0.60827  0.14229  0.69756  1.0000
  Fe  Fe85      1.0  0.57731  0.10380  0.37025  1.0000
  S   S160      1.0  0.58336  0.09568  0.30970  1.0000
  S   S161      1.0  0.55104  0.09974  0.39617  1.0000
  Fe  Fe86      1.0  0.61336  0.11773  0.38622  1.0000
  S   S162      1.0  0.62239  0.11030  0.32681  1.0000
  S   S163      1.0  0.63288  0.13194  0.42515  1.0000
  Fe  Fe87      1.0  0.60409  0.11967  0.30046  1.0000
  S   S164      1.0  0.60555  0.13537  0.24429  1.0000
  Fe  Fe88      1.0  0.60090  0.08702  0.34090  1.0000
  S   S165      1.0  0.60257  0.06201  0.33876  1.0000
  S   S166      1.0  0.59638  0.12845  0.35927  1.0000
  S   S167      1.0  0.59359  0.09383  0.40215  1.0000
  C   C645      1.0  0.58509  0.04599  0.32624  1.0000
  C   C646      1.0  0.58437  0.03004  0.33263  1.0000
  H   H1159     1.0  0.59449  0.02775  0.34532  1.0000
  H   H1160     1.0  0.51595  0.02414  0.21565  1.0000
  C   C647      1.0  0.57921  0.03882  0.73008  1.0000
  C   C648      1.0  0.58460  0.05468  0.71392  1.0000
  C   C649      1.0  0.58379  0.05726  0.67321  1.0000
  H   H1161     1.0  0.57996  0.03672  0.76145  1.0000
  H   H1162     1.0  0.58795  0.06939  0.66040  1.0000
  C   C650      1.0  0.63509  0.13186  0.56139  1.0000
  C   C651      1.0  0.64941  0.13666  0.53412  1.0000
  C   C652      1.0  0.64829  0.13649  0.49292  1.0000
  C   C653      1.0  0.63281  0.13143  0.47789  1.0000
  C   C654      1.0  0.61828  0.12682  0.50489  1.0000
  C   C655      1.0  0.61941  0.12702  0.54674  1.0000
  H   H1163     1.0  0.66154  0.14052  0.54498  1.0000
  H   H1164     1.0  0.65957  0.14029  0.47251  1.0000
  H   H1165     1.0  0.60627  0.12331  0.49355  1.0000
  H   H1166     1.0  0.60827  0.12356  0.56755  1.0000
  C   C656      1.0  0.57784  0.04407  0.64895  1.0000
  C   C657      1.0  0.60572  0.20804  0.01366  1.0000
  C   C658      1.0  0.61150  0.20753  0.97357  1.0000
  C   C659      1.0  0.60013  0.20202  0.94518  1.0000
  C   C660      1.0  0.58296  0.19676  0.95686  1.0000
  C   C661      1.0  0.57719  0.19671  0.99715  1.0000
  C   C662      1.0  0.58855  0.20261  0.02540  1.0000
  H   H1167     1.0  0.62473  0.21167  0.96432  1.0000
  H   H1168     1.0  0.60464  0.20192  0.91408  1.0000
  H   H1169     1.0  0.56396  0.19234  0.00647  1.0000
  H   H1170     1.0  0.58404  0.20288  0.05643  1.0000
  C   C663      1.0  0.64905  0.16550  0.15249  1.0000
  C   C664      1.0  0.63325  0.16684  0.15347  1.0000
  C   C665      1.0  0.62014  0.15742  0.18147  1.0000
  C   C666      1.0  0.62254  0.14647  0.20880  1.0000
  C   C667      1.0  0.63830  0.14501  0.20761  1.0000
  C   C668      1.0  0.65146  0.15450  0.17970  1.0000
  H   H1171     1.0  0.63120  0.17531  0.13301  1.0000
  H   H1172     1.0  0.60812  0.15883  0.18232  1.0000
  H   H1173     1.0  0.64039  0.13664  0.22828  1.0000
  H   H1174     1.0  0.66361  0.15335  0.17929  1.0000
  C   C669      1.0  0.65308  0.17578  0.89026  1.0000
  C   C670      1.0  0.63712  0.17680  0.89484  1.0000
  C   C671      1.0  0.62518  0.16842  0.86947  1.0000
  C   C672      1.0  0.62899  0.15886  0.83944  1.0000
  C   C673      1.0  0.64504  0.15805  0.83452  1.0000
  C   C674      1.0  0.65699  0.16648  0.85977  1.0000
  H   H1175     1.0  0.63392  0.18400  0.91791  1.0000
  H   H1176     1.0  0.61284  0.16922  0.87342  1.0000
  H   H1177     1.0  0.64816  0.15075  0.81161  1.0000
  H   H1178     1.0  0.66931  0.16564  0.85585  1.0000
  C   C675      1.0  0.52280  0.08589  0.63930  1.0000
  C   C676      1.0  0.53972  0.08841  0.63084  1.0000
  C   C677      1.0  0.55142  0.10110  0.64782  1.0000
  C   C678      1.0  0.54621  0.11123  0.67326  1.0000
  C   C679      1.0  0.52925  0.10875  0.68159  1.0000
  C   C680      1.0  0.51752  0.09600  0.66475  1.0000
  H   H1179     1.0  0.54372  0.08054  0.61126  1.0000
  H   H1180     1.0  0.56448  0.10327  0.64058  1.0000
  H   H1181     1.0  0.52518  0.11660  0.70124  1.0000
  H   H1182     1.0  0.50443  0.09415  0.67126  1.0000
  C   C681      1.0  0.53516  0.16525  0.78076  1.0000
  H   H1183     1.0  0.54066  0.10638  0.28825  1.0000
  C   C682      1.0  0.56200  0.07808  0.21890  1.0000
  C   C683      1.0  0.53057  0.10827  0.20740  1.0000
  C   C684      1.0  0.52386  0.09889  0.17033  1.0000
  H   H1184     1.0  0.52053  0.02527  0.62644  1.0000
  H   H1185     1.0  0.50722  0.07433  0.48771  1.0000
  C   C685      1.0  0.55812  0.02004  0.30363  1.0000
  H   H1186     1.0  0.55717  0.02514  0.49294  1.0000
  H   H1187     1.0  0.63007  0.16161  0.97807  1.0000
  H   H1188     1.0  0.57985  0.16166  0.91220  1.0000
  C   C686      1.0  0.51666  0.07023  0.30919  1.0000
  C   C687      1.0  0.51183  0.08094  0.33341  1.0000
  C   C688      1.0  0.52202  0.08933  0.36169  1.0000
  C   C689      1.0  0.53721  0.08722  0.36546  1.0000
  C   C690      1.0  0.54160  0.07581  0.34289  1.0000
  C   C691      1.0  0.53131  0.06728  0.31478  1.0000
  H   H1189     1.0  0.50031  0.08292  0.33032  1.0000
  H   H1190     1.0  0.51845  0.09796  0.37925  1.0000
  H   H1191     1.0  0.55296  0.07359  0.34697  1.0000
  H   H1192     1.0  0.53487  0.05869  0.29683  1.0000
  N   N37       1.0  0.51183  0.10661  0.50928  1.0000
  C   C692      1.0  0.51093  0.11962  0.53725  1.0000
  H   H1193     1.0  0.59671  0.00750  0.10243  1.0000
  C   C693      1.0  0.52431  0.01585  0.76448  1.0000
  C   C694      1.0  0.52869  0.10467  0.50601  1.0000
  C   C695      1.0  0.54385  0.11981  0.49218  1.0000
  C   C696      1.0  0.51581  0.11805  0.57989  1.0000
  H   H1194     1.0  0.51831  0.17751  0.76636  1.0000
  C   C697      1.0  0.51239  0.12767  0.45339  1.0000
  C   C698      1.0  0.50391  0.02129  0.70108  1.0000
  C   C699      1.0  0.56015  0.11713  0.49809  1.0000
  C   C700      1.0  0.51411  0.13172  0.60538  1.0000
  C   C701      1.0  0.68744  0.23453  0.86956  1.0000
  H   H1195     1.0  0.49808  0.12015  0.54021  1.0000
  H   H1196     1.0  0.51908  0.13170  0.52515  1.0000
  H   H1197     1.0  0.49655  0.99541  0.34591  1.0000
  H   H1198     1.0  0.50808  0.08080  0.75050  1.0000
  N   N38       1.0  0.52005  0.03409  0.70871  1.0000
  C   C702      1.0  0.54100  0.04493  0.59842  1.0000
  H   H1199     1.0  0.53083  0.09986  0.53494  1.0000
  H   H1200     1.0  0.52925  0.09546  0.48422  1.0000
  H   H1201     1.0  0.54375  0.13048  0.50896  1.0000
  H   H1202     1.0  0.54404  0.12242  0.45980  1.0000
  C   C703      1.0  0.49563  0.07628  0.49975  1.0000
  H   H1203     1.0  0.52890  0.11848  0.57890  1.0000
  H   H1204     1.0  0.49878  0.03724  0.34012  1.0000
  H   H1205     1.0  0.50764  0.10668  0.59550  1.0000
  H   H1206     1.0  0.50474  0.13368  0.47104  1.0000
  H   H1207     1.0  0.52563  0.13448  0.45610  1.0000
  H   H1208     1.0  0.54254  0.00358  0.76037  1.0000
  S   S168      1.0  0.50461  0.06082  0.27145  1.0000
  H   H1209     1.0  0.54511  0.22359  0.92781  1.0000
  H   H1210     1.0  0.56098  0.10648  0.48196  1.0000
  H   H1211     1.0  0.57086  0.12781  0.48609  1.0000
  H   H1212     1.0  0.56103  0.11532  0.53039  1.0000
  H   H1213     1.0  0.51101  0.01137  0.28239  1.0000
  H   H1214     1.0  0.50639  0.01175  0.68283  1.0000
  H   H1215     1.0  0.52237  0.14356  0.59179  1.0000
  H   H1216     1.0  0.59056  0.15796  0.12438  1.0000
  C   C704      1.0  0.51207  0.01786  0.36861  1.0000
  S   S169      1.0  0.56542  0.01208  0.63332  1.0000
  H   H1217     1.0  0.57248  0.06105  0.30412  1.0000
  H   H1218     1.0  0.55915  0.07313  0.18921  1.0000
  C   C705      1.0  0.57714  0.15047  0.12789  1.0000
  H   H1219     1.0  0.66387  0.22530  0.84415  1.0000
  C   C706      1.0  0.65712  0.10067  0.57845  1.0000
  C   C707      1.0  0.54572  0.16386  0.81465  1.0000
  N   N39       1.0  0.71605  0.23928  0.89561  1.0000
  H   H1220     1.0  0.62093  0.12565  0.03655  1.0000
  H   H1221     1.0  0.50351  0.05351  0.39941  1.0000
  H   H1222     1.0  0.57895  0.17493  0.69626  1.0000
  H   H1223     1.0  0.53690  0.15976  0.84220  1.0000
  H   H1224     1.0  0.66811  0.09776  0.58589  1.0000
  H   H1225     1.0  0.57546  0.14759  0.83325  1.0000
  H   H1226     1.0  0.59791  0.08941  0.02172  1.0000
  H   H1227     1.0  0.49700  0.03439  0.65325  1.0000
  H   H1228     1.0  0.55244  0.12148  0.14130  1.0000
  H   H1229     1.0  0.53700  0.13435  0.77875  1.0000
  N   N40       1.0  0.54926  0.11624  0.20534  1.0000
  S   S170      1.0  0.50759  0.21951  0.92977  1.0000
  H   H1230     1.0  0.58894  0.01075  0.49545  1.0000
  C   C708      1.0  0.55826  0.10430  0.19973  1.0000
  C   C709      1.0  0.55268  0.08968  0.22981  1.0000
  C   C710      1.0  0.55131  0.22136  0.06514  1.0000
  C   C711      1.0  0.50720  0.10984  0.46856  1.0000
  H   H1231     1.0  0.64864  0.13616  0.03573  1.0000
  H   H1232     1.0  0.54712  0.13602  0.17054  1.0000
  H   H1233     1.0  0.57467  0.22494  0.92193  1.0000
  H   H1234     1.0  0.55562  0.09371  0.26004  1.0000
  H   H1235     1.0  0.64642  0.15542  0.02902  1.0000
  C   C712      1.0  0.59857  0.11394  0.01018  1.0000
  H   H1236     1.0  0.57564  0.08425  0.21854  1.0000
  H   H1237     1.0  0.54397  0.09646  0.80177  1.0000
  H   H1238     1.0  0.52666  0.06937  0.71173  1.0000
  S   S171      1.0  0.50834  0.06998  0.61822  1.0000
  C   C713      1.0  0.52525  0.17632  0.79167  1.0000
  H   H1239     1.0  0.50052  0.08380  0.15021  1.0000
  H   H1240     1.0  0.52515  0.00084  0.36596  1.0000
  H   H1241     1.0  0.53067  0.12079  0.28131  1.0000
  H   H1242     1.0  0.51643  0.00315  0.41568  1.0000
  C   C714      1.0  0.49940  0.14046  0.13706  1.0000
  H   H1243     1.0  0.53368  0.18847  0.79823  1.0000
  H   H1244     1.0  0.69574  0.21642  0.89573  1.0000
  C   C715      1.0  0.57958  0.99777  0.42118  1.0000
  H   H1245     1.0  0.53303  0.10576  0.77225  1.0000
  C   C716      1.0  0.52921  0.04365  0.67096  1.0000
  H   H1246     1.0  0.71004  0.20866  0.93647  1.0000
  H   H1247     1.0  0.54940  0.23058  0.98894  1.0000
  C   C717      1.0  0.59905  0.16443  0.99754  1.0000
  H   H1248     1.0  0.51251  0.14185  0.40031  1.0000
  H   H1249     1.0  0.54817  0.02155  0.78881  1.0000
  C   C718      1.0  0.50512  0.08995  0.17755  1.0000
  N   N41       1.0  0.61651  0.07667  0.53097  1.0000
  C   C719      1.0  0.62402  0.07357  0.49072  1.0000
  C   C720      1.0  0.60925  0.06127  0.55679  1.0000
  C   C721      1.0  0.60241  0.08254  0.52359  1.0000
  C   C722      1.0  0.62896  0.08953  0.55201  1.0000
  C   C723      1.0  0.64466  0.08602  0.56161  1.0000
  C   C724      1.0  0.63141  0.08826  0.46047  1.0000
  C   C725      1.0  0.59139  0.08453  0.56116  1.0000
  C   C726      1.0  0.61802  0.04858  0.55166  1.0000
  H   H1250     1.0  0.61921  0.15059  0.02261  1.0000
  C   C727      1.0  0.63813  0.08340  0.42076  1.0000
  C   C728      1.0  0.57741  0.09002  0.54906  1.0000
  H   H1251     1.0  0.61448  0.06403  0.47618  1.0000
  H   H1252     1.0  0.63419  0.06873  0.49382  1.0000
  H   H1253     1.0  0.60846  0.06411  0.58900  1.0000
  H   H1254     1.0  0.59619  0.05465  0.55077  1.0000
  H   H1255     1.0  0.59404  0.07432  0.50365  1.0000
  H   H1256     1.0  0.60725  0.09450  0.50766  1.0000
  H   H1257     1.0  0.63298  0.10119  0.53462  1.0000
  H   H1258     1.0  0.62317  0.09188  0.58121  1.0000
  H   H1259     1.0  0.65115  0.08281  0.53470  1.0000
  H   H1260     1.0  0.62192  0.09348  0.45344  1.0000
  H   H1261     1.0  0.64184  0.09780  0.47220  1.0000
  H   H1262     1.0  0.59877  0.09376  0.58041  1.0000
  H   H1263     1.0  0.58554  0.07314  0.57936  1.0000
  H   H1264     1.0  0.61594  0.04302  0.52228  1.0000
  H   H1265     1.0  0.63160  0.05384  0.55302  1.0000
  H   H1266     1.0  0.65773  0.20016  0.17599  1.0000
  H   H1267     1.0  0.62799  0.07424  0.40695  1.0000
  H   H1268     1.0  0.64327  0.09413  0.39980  1.0000
  H   H1269     1.0  0.64821  0.07854  0.42509  1.0000
  H   H1270     1.0  0.58260  0.10132  0.53021  1.0000
  H   H1271     1.0  0.56869  0.08061  0.53244  1.0000
  H   H1272     1.0  0.57042  0.09245  0.57617  1.0000
  C   C729      1.0  0.56383  0.01980  0.47012  1.0000
  H   H1273     1.0  0.55723  0.01891  0.44280  1.0000
  H   H1274     1.0  0.51213  0.10317  0.44563  1.0000
  C   C730      1.0  0.57241  0.02824  0.66521  1.0000
  S   S172      1.0  0.50904  0.16095  0.07009  1.0000
  H   H1275     1.0  0.56285  0.12641  0.32102  1.0000
  H   H1276     1.0  0.57442  0.14942  0.76414  1.0000
  H   H1277     1.0  0.49620  0.12251  0.40552  1.0000
  H   H1278     1.0  0.63792  0.11905  0.91382  1.0000
  H   H1279     1.0  0.59373  0.11097  0.98084  1.0000
  C   C731      1.0  0.51465  0.06088  0.72628  1.0000
  H   H1280     1.0  0.56281  0.21916  0.98871  1.0000
  C   C732      1.0  0.57826  0.17465  0.76127  1.0000
  C   C733      1.0  0.65141  0.14663  0.01444  1.0000
  C   C734      1.0  0.55102  0.12848  0.31729  1.0000
  H   H1281     1.0  0.55634  0.12161  0.83543  1.0000
  C   C735      1.0  0.57207  0.04887  0.30933  1.0000
  H   H1282     1.0  0.67410  0.15076  0.31728  1.0000
  H   H1283     1.0  0.59546  0.16971  0.71566  1.0000
  Fe  Fe89      1.0  0.50870  0.16161  0.91447  1.0000
  H   H1284     1.0  0.57912  0.09311  0.03937  1.0000
  H   H1285     1.0  0.53491  0.01859  0.39214  1.0000
  H   H1286     1.0  0.54315  0.17023  0.75253  1.0000
  H   H1287     1.0  0.55807  0.06790  0.24146  1.0000
  H   H1288     1.0  0.70682  0.21922  0.82485  1.0000
  H   H1289     1.0  0.57423  0.14383  0.10018  1.0000
  C   C736      1.0  0.61773  0.12187  0.00607  1.0000
  H   H1290     1.0  0.50910  0.03094  0.28449  1.0000
  H   H1291     1.0  0.62520  0.12374  0.85448  1.0000
  H   H1292     1.0  0.72303  0.21735  0.00003  1.0000
  H   H1293     1.0  0.53845  0.22020  0.05938  1.0000
  H   H1294     1.0  0.51974  0.02266  0.78749  1.0000
  C   C737      1.0  0.53117  0.02587  0.72443  1.0000
  H   H1295     1.0  0.64837  0.13110  0.96538  1.0000
  C   C738      1.0  0.73005  0.21452  0.97338  1.0000
  H   H1296     1.0  0.57740  0.04612  0.61749  1.0000
  H   H1297     1.0  0.66276  0.20983  0.38745  1.0000
  H   H1298     1.0  0.54046  0.02702  0.64202  1.0000
  H   H1299     1.0  0.64120  0.07614  0.58487  1.0000
  H   H1300     1.0  0.52605  0.15335  0.77511  1.0000
  H   H1301     1.0  0.50607  0.03852  0.76194  1.0000
  H   H1302     1.0  0.58260  0.16193  0.34882  1.0000
  H   H1303     1.0  0.58872  0.15569  0.30083  1.0000
  H   H1304     1.0  0.66143  0.11097  0.55619  1.0000
  H   H1305     1.0  0.56976  0.15862  0.13176  1.0000
  H   H1306     1.0  0.54842  0.13690  0.88437  1.0000
  H   H1307     1.0  0.57263  0.05338  0.45985  1.0000
  H   H1308     1.0  0.67380  0.16555  0.98784  1.0000
  H   H1309     1.0  0.56923  0.01349  0.71853  1.0000
  C   C739      1.0  0.55401  0.12576  0.24220  1.0000
  H   H1310     1.0  0.55739  0.09964  0.16913  1.0000
  H   H1311     1.0  0.57182  0.11034  0.20175  1.0000
  C   C740      1.0  0.54640  0.99560  0.50975  1.0000
  C   C741      1.0  0.50314  0.01851  0.27547  1.0000
  H   H1312     1.0  0.55749  0.21653  0.86376  1.0000
  C   C742      1.0  0.55470  0.12795  0.16949  1.0000
  H   H1313     1.0  0.59003  0.02862  0.44196  1.0000
  H   H1314     1.0  0.65139  0.10426  0.60613  1.0000
  C   C743      1.0  0.59101  0.16603  0.32068  1.0000
  H   H1315     1.0  0.58685  0.03660  0.48956  1.0000
  H   H1316     1.0  0.59279  0.12210  0.02537  1.0000
  H   H1317     1.0  0.60597  0.15489  0.94309  1.0000
  H   H1318     1.0  0.60708  0.12905  0.93263  1.0000
  H   H1319     1.0  0.61295  0.03990  0.61417  1.0000
  H   H1320     1.0  0.56714  0.12742  0.24710  1.0000
  C   C744      1.0  0.61096  0.03507  0.58399  1.0000
  C   C745      1.0  0.60397  0.15145  0.97546  1.0000
  H   H1321     1.0  0.59741  0.02895  0.58258  1.0000
  C   C746      1.0  0.57338  0.13877  0.16417  1.0000
  H   H1322     1.0  0.58798  0.17581  0.30595  1.0000
  H   H1323     1.0  0.62699  0.14207  0.91349  1.0000
  H   H1324     1.0  0.56119  0.12435  0.78228  1.0000
  C   C747      1.0  0.67032  0.15455  0.00768  1.0000
  C   C748      1.0  0.52223  0.24350  0.98224  1.0000
  H   H1325     1.0  0.62088  0.10264  0.86446  1.0000
  H   H1326     1.0  0.58764  0.17753  0.78306  1.0000
  C   C749      1.0  0.51705  0.04516  0.74046  1.0000
  H   H1327     1.0  0.59719  0.10066  0.06617  1.0000
  C   C750      1.0  0.57306  0.02564  0.70590  1.0000
  H   H1328     1.0  0.61124  0.16194  0.34556  1.0000
  C   C751      1.0  0.51556  0.23977  0.94574  1.0000
  H   H1329     1.0  0.53271  0.05108  0.58798  1.0000
  H   H1330     1.0  0.57649  0.14060  0.90475  1.0000
  H   H1331     1.0  0.72585  0.20770  0.78842  1.0000
  H   H1332     1.0  0.60942  0.17613  0.99336  1.0000
  C   C752      1.0  0.60912  0.17198  0.33006  1.0000
  H   H1333     1.0  0.60486  0.11120  0.87689  1.0000
  C   C753      1.0  0.61843  0.11344  0.87585  1.0000
  H   H1334     1.0  0.58800  0.16585  0.98560  1.0000
  H   H1335     1.0  0.57053  0.00485  0.32604  1.0000
  H   H1336     1.0  0.58152  0.13141  0.15937  1.0000
  H   H1337     1.0  0.63455  0.15572  0.28507  1.0000
  H   H1338     1.0  0.61681  0.16946  0.26772  1.0000
  H   H1339     1.0  0.61066  0.18195  0.35080  1.0000
  H   H1340     1.0  0.57647  0.00219  0.16343  1.0000
  H   H1341     1.0  0.49681  0.00711  0.21919  1.0000
  H   H1342     1.0  0.65323  0.13934  0.30729  1.0000
  C   C754      1.0  0.62120  0.17807  0.29161  1.0000
  H   H1343     1.0  0.63570  0.16035  0.33530  1.0000
  H   H1344     1.0  0.61925  0.18931  0.28229  1.0000
  H   H1345     1.0  0.73696  0.24232  0.92984  1.0000
  H   H1346     1.0  0.57693  0.14602  0.19067  1.0000
  H   H1347     1.0  0.50101  0.13141  0.60873  1.0000
  H   H1348     1.0  0.53340  0.13316  0.83144  1.0000
  C   C755      1.0  0.64146  0.16513  0.30481  1.0000
  H   H1349     1.0  0.63232  0.17952  0.38023  1.0000
  H   H1350     1.0  0.65686  0.14967  0.35353  1.0000
  N   N42       1.0  0.63938  0.18099  0.29492  1.0000
  C   C756      1.0  0.66098  0.15034  0.32104  1.0000
  H   H1351     1.0  0.64509  0.17743  0.23238  1.0000
  C   C757      1.0  0.65968  0.16532  0.30085  1.0000
  H   H1352     1.0  0.66429  0.16548  0.26877  1.0000
  H   H1353     1.0  0.63387  0.19894  0.22493  1.0000
  C   C758      1.0  0.64871  0.18705  0.25420  1.0000
  H   H1354     1.0  0.57141  0.18323  0.76426  1.0000
  C   C759      1.0  0.64497  0.18756  0.36898  1.0000
  H   H1355     1.0  0.65357  0.18077  0.37200  1.0000
  H   H1356     1.0  0.55351  0.14156  0.31267  1.0000
  C   C760      1.0  0.54349  0.13579  0.80628  1.0000
  H   H1357     1.0  0.55399  0.17614  0.82102  1.0000
  H   H1358     1.0  0.59279  0.05684  0.43277  1.0000
  H   H1359     1.0  0.51607  0.17115  0.81807  1.0000
  C   C761      1.0  0.64614  0.19358  0.32486  1.0000
  H   H1360     1.0  0.74306  0.22010  0.81332  1.0000
  H   H1361     1.0  0.64983  0.15095  0.95137  1.0000
  C   C762      1.0  0.64638  0.20216  0.23559  1.0000
  H   H1362     1.0  0.66233  0.19004  0.25524  1.0000
  H   H1363     1.0  0.63990  0.20274  0.32446  1.0000
  H   H1364     1.0  0.66803  0.17609  0.31419  1.0000
  C   C763      1.0  0.50944  0.12901  0.40967  1.0000
  C   C764      1.0  0.54295  0.11926  0.28215  1.0000
  H   H1365     1.0  0.64779  0.21169  0.25753  1.0000
  H   H1366     1.0  0.64926  0.19697  0.42773  1.0000
  H   H1367     1.0  0.64115  0.20847  0.39627  1.0000
  H   H1368     1.0  0.65691  0.21979  0.18616  1.0000
  C   C765      1.0  0.58017  0.04783  0.44031  1.0000
  N   N43       1.0  0.55558  0.15275  0.80728  1.0000
  H   H1369     1.0  0.52445  0.11749  0.21201  1.0000
  C   C766      1.0  0.62053  0.13158  0.93461  1.0000
  H   H1370     1.0  0.57443  0.04471  0.41193  1.0000
  H   H1371     1.0  0.53921  0.08279  0.23043  1.0000
  C   C767      1.0  0.64985  0.20163  0.39664  1.0000
  C   C768      1.0  0.65906  0.20919  0.19925  1.0000
  H   H1372     1.0  0.65959  0.20043  0.31621  1.0000
  C   C769      1.0  0.56674  0.15433  0.84008  1.0000
  C   C770      1.0  0.55875  0.03596  0.29764  1.0000
  H   H1373     1.0  0.67196  0.21308  0.20778  1.0000
  C   C771      1.0  0.64390  0.14106  0.97461  1.0000
  H   H1374     1.0  0.57489  0.16708  0.84180  1.0000
  H   H1375     1.0  0.54901  0.03833  0.28342  1.0000
  C   C772      1.0  0.56635  0.15695  0.76782  1.0000
  H   H1376     1.0  0.55856  0.15397  0.74249  1.0000
  C   C773      1.0  0.57026  0.14948  0.91244  1.0000
  H   H1377     1.0  0.59609  0.19026  0.71529  1.0000
  C   C774      1.0  0.55112  0.12226  0.80685  1.0000
  H   H1378     1.0  0.55133  0.15762  0.89278  1.0000
  C   C775      1.0  0.58773  0.17752  0.71951  1.0000
  H   H1379     1.0  0.55368  0.13815  0.23794  1.0000
  H   H1380     1.0  0.55276  0.05414  0.60560  1.0000
  C   C776      1.0  0.55777  0.14917  0.88277  1.0000
  H   H1381     1.0  0.73075  0.21460  0.90992  1.0000
  C   C777      1.0  0.62437  0.11688  0.91729  1.0000
  H   H1382     1.0  0.61796  0.10590  0.93668  1.0000
  H   H1383     1.0  0.54643  0.00181  0.53850  1.0000
  N   N44       1.0  0.62514  0.13591  0.97626  1.0000
  H   H1384     1.0  0.59205  0.23352  0.98779  1.0000
  H   H1385     1.0  0.67530  0.15815  0.03674  1.0000
  C   C778      1.0  0.62018  0.15012  0.98943  1.0000
  H   H1386     1.0  0.54255  0.12417  0.34521  1.0000
  C   C779      1.0  0.58133  0.03287  0.46116  1.0000
  H   H1387     1.0  0.67612  0.14610  0.99411  1.0000
  H   H1388     1.0  0.54356  0.03499  0.72831  1.0000
  H   H1389     1.0  0.61725  0.02605  0.57955  1.0000
  C   C780      1.0  0.59292  0.09833  0.03597  1.0000
  H   H1390     1.0  0.51099  0.02719  0.38934  1.0000
  C   C781      1.0  0.56228  0.23139  0.99349  1.0000
  H   H1391     1.0  0.55273  0.22409  0.09699  1.0000
  H   H1392     1.0  0.59330  0.14008  0.98005  1.0000
  H   H1393     1.0  0.62350  0.24303  0.97490  1.0000
  C   C782      1.0  0.53770  0.01080  0.78175  1.0000
  H   H1394     1.0  0.54399  0.03774  0.57388  1.0000
  H   H1395     1.0  0.50291  0.08730  0.55473  1.0000
  C   C783      1.0  0.49461  0.00565  0.36227  1.0000
  H   H1396     1.0  0.49667  0.06160  0.77573  1.0000
  C   C784      1.0  0.50906  0.06930  0.76139  1.0000
  H   H1397     1.0  0.52287  0.23394  0.00151  1.0000
  N   N45       1.0  0.56288  0.00321  0.48457  1.0000
  H   H1398     1.0  0.60314  0.99761  0.53838  1.0000
  H   H1399     1.0  0.51774  0.13036  0.63563  1.0000
  S   S173      1.0  0.54189  0.00439  0.28528  1.0000
  H   H1400     1.0  0.58865  0.99770  0.58126  1.0000
  H   H1401     1.0  0.55322  0.20970  0.05985  1.0000
  C   C785      1.0  0.53809  0.10586  0.80144  1.0000
  H   H1402     1.0  0.71651  0.21051  0.85849  1.0000
  C   C786      1.0  0.57221  0.23651  0.92279  1.0000
  C   C787      1.0  0.49639  0.14291  0.09750  1.0000
  H   H1403     1.0  0.51903  0.02408  0.34034  1.0000
  H   H1404     1.0  0.51387  0.00471  0.75960  1.0000
  H   H1405     1.0  0.52777  0.10295  0.82594  1.0000
  H   H1406     1.0  0.58047  0.00858  0.40297  1.0000
  C   C788      1.0  0.55417  0.22760  0.86603  1.0000
  H   H1407     1.0  0.52595  0.10724  0.14398  1.0000
  H   H1408     1.0  0.52776  0.04936  0.75874  1.0000
  C   C789      1.0  0.49910  0.09097  0.52673  1.0000
  H   H1409     1.0  0.57520  0.01180  0.53709  1.0000
  H   H1410     1.0  0.66347  0.21705  0.89348  1.0000
  C   C790      1.0  0.53237  0.03384  0.63504  1.0000
  C   C791      1.0  0.59813  0.00081  0.12914  1.0000
  H   H1411     1.0  0.53233  0.00332  0.80971  1.0000
  H   H1412     1.0  0.51818  0.07199  0.78382  1.0000
  C   C792      1.0  0.71878  0.22076  0.83707  1.0000
  H   H1413     1.0  0.52240  0.05109  0.65968  1.0000
  H   H1414     1.0  0.50529  0.05859  0.70470  1.0000
  H   H1415     1.0  0.74336  0.22218  0.97248  1.0000
  H   H1416     1.0  0.56289  0.23713  0.84494  1.0000
  H   H1417     1.0  0.49714  0.01491  0.72958  1.0000
  H   H1418     1.0  0.49628  0.02738  0.22166  1.0000
  C   C793      1.0  0.57641  0.00437  0.51114  1.0000
  H   H1419     1.0  0.51746  0.12398  0.39019  1.0000
  H   H1420     1.0  0.54136  0.22482  0.85737  1.0000
  C   C794      1.0  0.52275  0.00954  0.38692  1.0000
  C   C795      1.0  0.55472  0.23325  0.90879  1.0000
  C   C796      1.0  0.72356  0.23492  0.93083  1.0000
  H   H1421     1.0  0.67365  0.21053  0.85089  1.0000
  C   C797      1.0  0.67114  0.22101  0.86430  1.0000
  H   H1422     1.0  0.58131  0.24443  0.89928  1.0000
  C   C798      1.0  0.56408  0.23482  0.03832  1.0000
  H   H1423     1.0  0.60655  0.00950  0.14794  1.0000
  H   H1424     1.0  0.69197  0.22997  0.92970  1.0000
  C   C799      1.0  0.69776  0.22938  0.89904  1.0000
  H   H1425     1.0  0.50949  0.14940  0.14971  1.0000
  C   C800      1.0  0.50296  0.01927  0.23017  1.0000
  N   N46       1.0  0.57477  0.24333  0.96359  1.0000
  H   H1426     1.0  0.71740  0.23769  0.95913  1.0000
  H   H1427     1.0  0.59078  0.00033  0.43729  1.0000
  H   H1428     1.0  0.72908  0.20172  0.97645  1.0000
  S   S174      1.0  0.50297  0.13988  0.87378  1.0000
  H   H1429     1.0  0.52503  0.99675  0.21133  1.0000
  H   H1430     1.0  0.50219  0.08073  0.20232  1.0000
  H   H1431     1.0  0.49840  0.09846  0.18491  1.0000
  C   C801      1.0  0.73106  0.21943  0.80244  1.0000
  H   H1432     1.0  0.57658  0.23569  0.04625  1.0000
  H   H1433     1.0  0.73872  0.23997  0.86028  1.0000
  H   H1434     1.0  0.60467  0.23871  0.92050  1.0000
  H   H1435     1.0  0.73331  0.22921  0.77935  1.0000
  C   C802      1.0  0.72532  0.23731  0.85655  1.0000
  H   H1436     1.0  0.50206  0.11219  0.82914  1.0000
  H   H1437     1.0  0.69453  0.23826  0.83969  1.0000
  H   H1438     1.0  0.55126  0.24423  0.90949  1.0000
  H   H1439     1.0  0.53132  0.00762  0.48078  1.0000
  H   H1440     1.0  0.51623  0.99541  0.54763  1.0000
  C   C803      1.0  0.53063  0.99537  0.49041  1.0000
  C   C804      1.0  0.49471  0.11798  0.81483  1.0000
  Fe  Fe90      1.0  0.63159  0.46484  0.00229  1.0000
  N   N47       1.0  0.52670  0.43803  0.50190  1.0000
  S   S175      1.0  0.60666  0.44462  0.00056  1.0000
  Fe  Fe91      1.0  0.66960  0.48317  0.00019  1.0000
  H   H1441     1.0  0.53886  0.37921  0.79159  1.0000
  H   H1442     1.0  0.50902  0.24973  0.89382  1.0000
  S   S176      1.0  0.50750  0.41339  0.22451  1.0000
  H   H1443     1.0  0.63317  0.25539  0.93037  1.0000
  H   H1444     1.0  0.71637  0.26457  0.14481  1.0000
  H   H1445     1.0  0.71630  0.28927  0.00494  1.0000
  S   S177      1.0  0.64852  0.47424  0.05083  1.0000
  S   S178      1.0  0.65256  0.47193  0.95282  1.0000
  Fe  Fe92      1.0  0.53297  0.31805  0.97491  1.0000
  S   S179      1.0  0.55333  0.33693  0.93594  1.0000
  S   S180      1.0  0.53252  0.29212  0.98912  1.0000
  Fe  Fe93      1.0  0.51821  0.34359  0.00743  1.0000
  S   S181      1.0  0.53720  0.36385  0.96988  1.0000
  C   C805      1.0  0.53609  0.42520  0.43919  1.0000
  Fe  Fe94      1.0  0.53327  0.34651  0.92043  1.0000
  H   H1446     1.0  0.53182  0.38319  0.24924  1.0000
  Fe  Fe95      1.0  0.55580  0.35320  0.98768  1.0000
  S   S182      1.0  0.58067  0.36802  0.00901  1.0000
  S   S183      1.0  0.51261  0.32670  0.95636  1.0000
  S   S184      1.0  0.53701  0.33383  0.02824  1.0000
  S   S185      1.0  0.54345  0.43569  0.28793  1.0000
  S   S186      1.0  0.62627  0.48780  0.99422  1.0000
  H   H1447     1.0  0.51335  0.31263  0.09651  1.0000
  S   S187      1.0  0.50523  0.39142  0.65156  1.0000
  C   C806      1.0  0.59007  0.46383  0.12184  1.0000
  H   H1448     1.0  0.54024  0.35419  0.14678  1.0000
  H   H1449     1.0  0.53718  0.40440  0.25567  1.0000
  H   H1450     1.0  0.57637  0.29161  0.96968  1.0000
  C   C807      1.0  0.53953  0.45382  0.65253  1.0000
  C   C808      1.0  0.52790  0.45882  0.63496  1.0000
  C   C809      1.0  0.52915  0.47501  0.63492  1.0000
  N   N48       1.0  0.51464  0.34378  0.67146  1.0000
  H   H1451     1.0  0.52477  0.44094  0.15851  1.0000
  C   C810      1.0  0.55233  0.46502  0.67041  1.0000
  H   H1452     1.0  0.55033  0.45393  0.47358  1.0000
  H   H1453     1.0  0.50309  0.47071  0.75741  1.0000
  C   C811      1.0  0.52062  0.36194  0.83305  1.0000
  N   N49       1.0  0.57207  0.47309  0.17563  1.0000
  C   C812      1.0  0.54456  0.44972  0.32474  1.0000
  C   C813      1.0  0.53094  0.44786  0.35320  1.0000
  C   C814      1.0  0.53095  0.46034  0.37854  1.0000
  C   C815      1.0  0.74066  0.41125  0.97392  1.0000
  H   H1454     1.0  0.54633  0.36858  0.63195  1.0000
  C   C816      1.0  0.55859  0.46362  0.32346  1.0000
  H   H1455     1.0  0.52021  0.43703  0.35488  1.0000
  S   S188      1.0  0.50474  0.39745  0.31547  1.0000
  H   H1456     1.0  0.59171  0.47606  0.24441  1.0000
  H   H1457     1.0  0.56920  0.46514  0.30192  1.0000
  C   C817      1.0  0.52622  0.27220  0.97077  1.0000
  C   C818      1.0  0.51965  0.26850  0.93414  1.0000
  C   C819      1.0  0.54464  0.47460  0.37551  1.0000
  H   H1458     1.0  0.56831  0.39780  0.84442  1.0000
  C   C820      1.0  0.49932  0.36390  0.17864  1.0000
  C   C821      1.0  0.52746  0.25955  0.99461  1.0000
  C   C822      1.0  0.50069  0.35604  0.09720  1.0000
  H   H1459     1.0  0.73515  0.49125  0.09400  1.0000
  C   C823      1.0  0.59080  0.46616  0.22379  1.0000
  H   H1460     1.0  0.50692  0.48212  0.68791  1.0000
  S   S189      1.0  0.53593  0.35709  0.85696  1.0000
  H   H1461     1.0  0.54407  0.42101  0.45721  1.0000
  H   H1462     1.0  0.52492  0.36241  0.71239  1.0000
  H   H1463     1.0  0.72536  0.24894  0.14650  1.0000
  H   H1464     1.0  0.51857  0.27799  0.91533  1.0000
  C   C824      1.0  0.57399  0.46117  0.20541  1.0000
  H   H1465     1.0  0.51653  0.43508  0.44489  1.0000
  C   C825      1.0  0.49788  0.46290  0.73286  1.0000
  H   H1466     1.0  0.55823  0.25711  0.96507  1.0000
  C   C826      1.0  0.54355  0.46651  0.52311  1.0000
  H   H1467     1.0  0.54596  0.33221  0.11190  1.0000
  C   C827      1.0  0.53760  0.37171  0.65413  1.0000
  C   C828      1.0  0.60044  0.42338  0.00164  1.0000
  C   C829      1.0  0.58477  0.41475  0.98968  1.0000
  C   C830      1.0  0.57896  0.39787  0.99008  1.0000
  C   C831      1.0  0.58841  0.38933  0.00439  1.0000
  C   C832      1.0  0.60408  0.39792  0.01672  1.0000
  C   C833      1.0  0.61020  0.41491  0.01488  1.0000
  H   H1468     1.0  0.57702  0.42117  0.98009  1.0000
  H   H1469     1.0  0.56698  0.39146  0.98019  1.0000
  H   H1470     1.0  0.61152  0.39141  0.02772  1.0000
  H   H1471     1.0  0.62227  0.42141  0.02437  1.0000
  H   H1472     1.0  0.56323  0.34305  0.13853  1.0000
  H   H1473     1.0  0.52946  0.39189  0.56996  1.0000
  H   H1474     1.0  0.57838  0.40383  0.09578  1.0000
  H   H1475     1.0  0.72689  0.28861  0.91895  1.0000
  H   H1476     1.0  0.50965  0.46092  0.49771  1.0000
  H   H1477     1.0  0.58366  0.48524  0.11866  1.0000
  C   C834      1.0  0.55861  0.47604  0.34876  1.0000
  H   H1478     1.0  0.73218  0.28868  0.86552  1.0000
  C   C835      1.0  0.70782  0.44022  0.01740  1.0000
  C   C836      1.0  0.51396  0.37618  0.77795  1.0000
  H   H1479     1.0  0.50703  0.30195  0.03078  1.0000
  C   C837      1.0  0.54761  0.38685  0.67421  1.0000
  H   H1480     1.0  0.60670  0.25959  0.92037  1.0000
  H   H1481     1.0  0.59579  0.25406  0.99744  1.0000
  H   H1482     1.0  0.72524  0.24638  0.83341  1.0000
  H   H1483     1.0  0.49918  0.31986  0.69511  1.0000
  H   H1484     1.0  0.59278  0.44227  0.22750  1.0000
  H   H1485     1.0  0.58392  0.49360  0.20990  1.0000
  H   H1486     1.0  0.56246  0.48473  0.22358  1.0000
  H   H1487     1.0  0.54851  0.40614  0.54569  1.0000
  C   C838      1.0  0.72345  0.26835  0.01168  1.0000
  H   H1488     1.0  0.55123  0.40486  0.85917  1.0000
  S   S190      1.0  0.70226  0.25476  0.01720  1.0000
  H   H1489     1.0  0.56193  0.24618  0.04576  1.0000
  H   H1490     1.0  0.52386  0.40483  0.51122  1.0000
  H   H1491     1.0  0.59512  0.27711  0.94178  1.0000
  H   H1492     1.0  0.73061  0.43020  0.04641  1.0000
  H   H1493     1.0  0.68530  0.47084  0.89130  1.0000
  C   C839      1.0  0.53856  0.45465  0.48898  1.0000
  C   C840      1.0  0.52451  0.45313  0.16512  1.0000
  H   H1494     1.0  0.52569  0.46697  0.29574  1.0000
  C   C841      1.0  0.54165  0.48613  0.65393  1.0000
  C   C842      1.0  0.52911  0.41215  0.40976  1.0000
  H   H1495     1.0  0.54409  0.43633  0.42186  1.0000
  H   H1496     1.0  0.51153  0.41705  0.47339  1.0000
  C   C843      1.0  0.74313  0.29619  0.00046  1.0000
  H   H1497     1.0  0.51381  0.44371  0.55496  1.0000
  H   H1498     1.0  0.51981  0.41485  0.39299  1.0000
  H   H1499     1.0  0.53935  0.41135  0.38801  1.0000
  H   H1500     1.0  0.52301  0.40029  0.42599  1.0000
  H   H1501     1.0  0.55302  0.39538  0.25608  1.0000
  C   C844      1.0  0.68733  0.47666  0.86091  1.0000
  H   H1502     1.0  0.55700  0.38445  0.69135  1.0000
  S   S191      1.0  0.69606  0.48115  0.98914  1.0000
  H   H1503     1.0  0.56831  0.41380  0.12896  1.0000
  H   H1504     1.0  0.55915  0.40314  0.05708  1.0000
  H   H1505     1.0  0.55201  0.38166  0.05137  1.0000
  C   C845      1.0  0.58613  0.40511  0.15468  1.0000
  H   H1506     1.0  0.51803  0.38467  0.75258  1.0000
  H   H1507     1.0  0.55553  0.47223  0.13009  1.0000
  H   H1508     1.0  0.53922  0.39115  0.69467  1.0000
  H   H1509     1.0  0.72161  0.43057  0.97433  1.0000
  Fe  Fe96      1.0  0.51671  0.42139  0.28333  1.0000
  H   H1510     1.0  0.57015  0.37661  0.09056  1.0000
  H   H1511     1.0  0.52011  0.45922  0.39911  1.0000
  H   H1512     1.0  0.54005  0.39937  0.11968  1.0000
  H   H1513     1.0  0.52971  0.40265  0.05575  1.0000
  H   H1514     1.0  0.52386  0.38157  0.04479  1.0000
  C   C846      1.0  0.54564  0.39844  0.19711  1.0000
  C   C847      1.0  0.54886  0.35736  0.11897  1.0000
  C   C848      1.0  0.52184  0.42861  0.46521  1.0000
  H   H1515     1.0  0.60161  0.47022  0.20072  1.0000
  C   C849      1.0  0.52573  0.37308  0.80017  1.0000
  H   H1516     1.0  0.53236  0.26216  0.02316  1.0000
  H   H1517     1.0  0.53247  0.37828  0.11570  1.0000
  C   C850      1.0  0.53639  0.40487  0.56286  1.0000
  H   H1518     1.0  0.59072  0.39482  0.15309  1.0000
  H   H1519     1.0  0.55957  0.38189  0.19504  1.0000
  H   H1520     1.0  0.60643  0.41976  0.11152  1.0000
  H   H1521     1.0  0.49711  0.44262  0.47699  1.0000
  H   H1522     1.0  0.58157  0.40609  0.18620  1.0000
  H   H1523     1.0  0.50451  0.34213  0.18922  1.0000
  H   H1524     1.0  0.55561  0.41034  0.19192  1.0000
  H   H1525     1.0  0.57161  0.37212  0.14093  1.0000
  C   C851      1.0  0.55616  0.34391  0.11319  1.0000
  H   H1526     1.0  0.59721  0.43112  0.14465  1.0000
  C   C852      1.0  0.53424  0.39322  0.04276  1.0000
  H   H1527     1.0  0.53426  0.39917  0.18544  1.0000
  H   H1528     1.0  0.61079  0.42162  0.16292  1.0000
  H   H1529     1.0  0.73499  0.25046  0.01736  1.0000
  C   C853      1.0  0.60102  0.42035  0.14261  1.0000
  H   H1530     1.0  0.53911  0.37400  0.18132  1.0000
  H   H1531     1.0  0.70991  0.45031  0.03797  1.0000
  H   H1532     1.0  0.53852  0.39650  0.01063  1.0000
  C   C854      1.0  0.54171  0.39509  0.24224  1.0000
  H   H1533     1.0  0.54148  0.35746  0.09372  1.0000
  C   C855      1.0  0.73540  0.26901  0.89950  1.0000
  C   C856      1.0  0.51109  0.43869  0.52528  1.0000
  H   H1534     1.0  0.54814  0.43199  0.51564  1.0000
  C   C857      1.0  0.72427  0.44069  0.99462  1.0000
  H   H1535     1.0  0.52171  0.32952  0.55305  1.0000
  C   C858      1.0  0.59242  0.45206  0.24757  1.0000
  H   H1536     1.0  0.70180  0.42864  0.03486  1.0000
  H   H1537     1.0  0.53896  0.35283  0.69342  1.0000
  H   H1538     1.0  0.56936  0.48688  0.34678  1.0000
  H   H1539     1.0  0.62595  0.26417  0.97330  1.0000
  H   H1540     1.0  0.61576  0.47824  0.10112  1.0000
  H   H1541     1.0  0.73473  0.38791  0.94749  1.0000
  H   H1542     1.0  0.55642  0.39165  0.89237  1.0000
  H   H1543     1.0  0.49719  0.32272  0.80453  1.0000
  H   H1544     1.0  0.74024  0.26788  0.92828  1.0000
  H   H1545     1.0  0.70774  0.48761  0.06948  1.0000
  C   C859      1.0  0.52402  0.47633  0.27641  1.0000
  C   C860      1.0  0.71751  0.25675  0.89882  1.0000
  C   C861      1.0  0.56170  0.40184  0.86985  1.0000
  H   H1546     1.0  0.67683  0.46985  0.84407  1.0000
  C   C862      1.0  0.55508  0.48313  0.50675  1.0000
  H   H1547     1.0  0.73460  0.29242  0.12581  1.0000
  H   H1548     1.0  0.51798  0.45025  0.62134  1.0000
  H   H1549     1.0  0.53181  0.33525  0.63522  1.0000
  H   H1550     1.0  0.50120  0.27374  0.04534  1.0000
  H   H1551     1.0  0.50600  0.33544  0.11780  1.0000
  H   H1552     1.0  0.56258  0.28342  0.93192  1.0000
  C   C863      1.0  0.59202  0.24505  0.97414  1.0000
  H   H1553     1.0  0.53609  0.48283  0.25879  1.0000
  H   H1554     1.0  0.58349  0.29687  0.91759  1.0000
  H   H1555     1.0  0.53350  0.46028  0.46606  1.0000
  H   H1556     1.0  0.72747  0.40856  0.98599  1.0000
  H   H1557     1.0  0.50208  0.42632  0.53202  1.0000
  C   C864      1.0  0.53981  0.46272  0.18518  1.0000
  H   H1558     1.0  0.60414  0.45619  0.26206  1.0000
  C   C865      1.0  0.71804  0.48721  0.04885  1.0000
  C   C866      1.0  0.72666  0.28499  0.00578  1.0000
  H   H1559     1.0  0.52047  0.32487  0.70118  1.0000
  H   H1560     1.0  0.51313  0.45176  0.18555  1.0000
  H   H1561     1.0  0.52385  0.45947  0.13703  1.0000
  H   H1562     1.0  0.53654  0.43590  0.55782  1.0000
  C   C867      1.0  0.49751  0.37003  0.10895  1.0000
  H   H1563     1.0  0.49825  0.28518  0.97349  1.0000
  C   C868      1.0  0.51609  0.31932  0.57545  1.0000
  N   N50       1.0  0.59353  0.44571  0.87336  1.0000
  C   C869      1.0  0.60115  0.45777  0.83882  1.0000
  C   C870      1.0  0.60728  0.44190  0.89125  1.0000
  C   C871      1.0  0.58122  0.43083  0.85823  1.0000
  C   C872      1.0  0.58450  0.45236  0.90550  1.0000
  C   C873      1.0  0.59441  0.46929  0.91941  1.0000
  C   C874      1.0  0.58896  0.46426  0.81895  1.0000
  C   C875      1.0  0.57364  0.41628  0.88874  1.0000
  C   C876      1.0  0.61673  0.43295  0.86457  1.0000
  C   C877      1.0  0.62953  0.42903  0.88738  1.0000
  C   C878      1.0  0.58456  0.47415  0.95414  1.0000
  C   C879      1.0  0.59829  0.47731  0.78668  1.0000
  H   H1564     1.0  0.73668  0.30217  0.18477  1.0000
  H   H1565     1.0  0.60701  0.45239  0.81459  1.0000
  H   H1566     1.0  0.61154  0.46821  0.84804  1.0000
  H   H1567     1.0  0.61688  0.45312  0.89958  1.0000
  H   H1568     1.0  0.60242  0.43471  0.91978  1.0000
  H   H1569     1.0  0.58687  0.42677  0.83107  1.0000
  H   H1570     1.0  0.57048  0.43361  0.84825  1.0000
  H   H1571     1.0  0.57260  0.45278  0.89599  1.0000
  H   H1572     1.0  0.58080  0.44416  0.93268  1.0000
  H   H1573     1.0  0.59714  0.47856  0.89492  1.0000
  H   H1574     1.0  0.60637  0.46960  0.92967  1.0000
  H   H1575     1.0  0.57974  0.45449  0.80442  1.0000
  H   H1576     1.0  0.58210  0.46960  0.84089  1.0000
  H   H1577     1.0  0.56646  0.41941  0.91455  1.0000
  H   H1578     1.0  0.58340  0.41231  0.89999  1.0000
  H   H1579     1.0  0.60817  0.42142  0.85494  1.0000
  H   H1580     1.0  0.62351  0.44050  0.83763  1.0000
  H   H1581     1.0  0.62328  0.42111  0.91427  1.0000
  H   H1582     1.0  0.63623  0.42267  0.86789  1.0000
  H   H1583     1.0  0.63878  0.44023  0.89689  1.0000
  H   H1584     1.0  0.57245  0.47420  0.94538  1.0000
  H   H1585     1.0  0.58238  0.46574  0.98047  1.0000
  H   H1586     1.0  0.59176  0.48644  0.96280  1.0000
  H   H1587     1.0  0.60772  0.48740  0.79968  1.0000
  H   H1588     1.0  0.60456  0.47236  0.76236  1.0000
  H   H1589     1.0  0.58942  0.48211  0.77365  1.0000
  H   H1590     1.0  0.51764  0.29420  0.09100  1.0000
  C   C880      1.0  0.57568  0.28698  0.93908  1.0000
  H   H1591     1.0  0.49796  0.32873  0.60214  1.0000
  H   H1592     1.0  0.50739  0.48111  0.32257  1.0000
  H   H1593     1.0  0.57913  0.45595  0.10805  1.0000
  H   H1594     1.0  0.60105  0.47680  0.06510  1.0000
  S   S192      1.0  0.53799  0.43359  0.65296  1.0000
  H   H1595     1.0  0.50680  0.31155  0.77219  1.0000
  C   C881      1.0  0.50289  0.35014  0.16679  1.0000
  H   H1596     1.0  0.69924  0.44150  0.99596  1.0000
  H   H1597     1.0  0.55413  0.39659  0.65116  1.0000
  H   H1598     1.0  0.60748  0.45992  0.07572  1.0000
  H   H1599     1.0  0.53958  0.45612  0.21350  1.0000
  C   C882      1.0  0.60632  0.24923  0.93955  1.0000
  C   C883      1.0  0.55604  0.46526  0.15735  1.0000
  H   H1600     1.0  0.51453  0.47023  0.25619  1.0000
  C   C884      1.0  0.52614  0.41185  0.53847  1.0000
  S   S193      1.0  0.49843  0.34987  0.04739  1.0000
  H   H1601     1.0  0.73813  0.31114  0.07295  1.0000
  H   H1602     1.0  0.67571  0.49379  0.87790  1.0000
  C   C885      1.0  0.58620  0.47789  0.14258  1.0000
  C   C886      1.0  0.58188  0.27270  0.93586  1.0000
  H   H1603     1.0  0.56426  0.45890  0.23108  1.0000
  H   H1604     1.0  0.59375  0.45644  0.14330  1.0000
  H   H1605     1.0  0.51403  0.40983  0.55632  1.0000
  H   H1606     1.0  0.52457  0.34871  0.60910  1.0000
  H   H1607     1.0  0.57420  0.26405  0.99652  1.0000
  H   H1608     1.0  0.53868  0.41103  0.59137  1.0000
  C   C887      1.0  0.51427  0.25241  0.92196  1.0000
  C   C888      1.0  0.52907  0.35737  0.68487  1.0000
  H   H1609     1.0  0.57178  0.44922  0.19220  1.0000
  C   C889      1.0  0.49802  0.29613  0.05694  1.0000
  H   H1610     1.0  0.71232  0.26073  0.87329  1.0000
  H   H1611     1.0  0.53251  0.46816  0.53980  1.0000
  H   H1612     1.0  0.74100  0.38824  0.99716  1.0000
  C   C890      1.0  0.71570  0.48440  0.00860  1.0000
  C   C891      1.0  0.55319  0.48110  0.67178  1.0000
  H   H1613     1.0  0.69908  0.47610  0.84519  1.0000
  H   H1614     1.0  0.56458  0.34612  0.08490  1.0000
  C   C892      1.0  0.49698  0.36777  0.78760  1.0000
  H   H1615     1.0  0.58184  0.44723  0.27122  1.0000
  C   C893      1.0  0.73710  0.26313  0.01259  1.0000
  H   H1616     1.0  0.56125  0.46116  0.68439  1.0000
  H   H1617     1.0  0.74104  0.31613  0.24777  1.0000
  N   N51       1.0  0.55738  0.38773  0.13363  1.0000
  C   C894      1.0  0.56287  0.37389  0.12058  1.0000
  C   C895      1.0  0.57224  0.40305  0.12684  1.0000
  C   C896      1.0  0.55062  0.38478  0.17716  1.0000
  C   C897      1.0  0.54388  0.38908  0.10987  1.0000
  C   C898      1.0  0.54858  0.39176  0.06411  1.0000
  H   H1618     1.0  0.55544  0.45324  0.14662  1.0000
  C   C899      1.0  0.73367  0.48927  0.06271  1.0000
  C   C900      1.0  0.57163  0.25906  0.96671  1.0000
  H   H1619     1.0  0.59777  0.48600  0.15362  1.0000
  C   C901      1.0  0.73565  0.28631  0.89529  1.0000
  C   C902      1.0  0.53516  0.43009  0.52850  1.0000
  H   H1620     1.0  0.50211  0.31395  0.63302  1.0000
  H   H1621     1.0  0.49517  0.38507  0.15810  1.0000
  Fe  Fe97      1.0  0.51122  0.41774  0.65908  1.0000
  C   C903      1.0  0.60447  0.47015  0.08895  1.0000
  H   H1622     1.0  0.62724  0.49293  0.22177  1.0000
  C   C904      1.0  0.50164  0.44824  0.50491  1.0000
  H   H1623     1.0  0.51146  0.42757  0.09532  1.0000
  C   C905      1.0  0.50378  0.34634  0.12626  1.0000
  H   H1624     1.0  0.72790  0.48179  0.95136  1.0000
  H   H1625     1.0  0.58092  0.26875  0.90480  1.0000
  H   H1626     1.0  0.55023  0.46209  0.54455  1.0000
  C   C906      1.0  0.51849  0.48805  0.30215  1.0000
  C   C907      1.0  0.57195  0.48793  0.19711  1.0000
  H   H1627     1.0  0.72912  0.45207  0.97605  1.0000
  H   H1628     1.0  0.52025  0.47886  0.62088  1.0000
  H   H1629     1.0  0.52589  0.31469  0.58378  1.0000
  C   C908      1.0  0.72943  0.48394  0.98255  1.0000
  C   C909      1.0  0.52059  0.33860  0.63193  1.0000
  H   H1630     1.0  0.53850  0.47446  0.19231  1.0000
  H   H1631     1.0  0.49582  0.29439  0.90396  1.0000
  C   C910      1.0  0.50359  0.35410  0.84387  1.0000
  H   H1632     1.0  0.54851  0.48863  0.48742  1.0000
  H   H1633     1.0  0.73827  0.32021  0.12020  1.0000
  H   H1634     1.0  0.70991  0.25831  0.92630  1.0000
  H   H1635     1.0  0.56250  0.48943  0.68760  1.0000
  C   C911      1.0  0.73705  0.44016  0.02372  1.0000
  S   S194      1.0  0.54386  0.49121  0.40204  1.0000
  H   H1636     1.0  0.52839  0.37468  0.63772  1.0000
  C   C912      1.0  0.72661  0.26061  0.13159  1.0000
  S   S195      1.0  0.49649  0.36717  0.23036  1.0000
  H   H1637     1.0  0.52861  0.49402  0.32091  1.0000
  H   H1638     1.0  0.49950  0.34544  0.86894  1.0000
  H   H1639     1.0  0.50662  0.30955  0.56148  1.0000
  C   C913      1.0  0.62324  0.25320  0.95564  1.0000
  H   H1640     1.0  0.56638  0.48231  0.48925  1.0000
  C   C914      1.0  0.50041  0.34989  0.66719  1.0000
  H   H1641     1.0  0.72532  0.25867  0.09933  1.0000
  C   C915      1.0  0.50756  0.29946  0.09378  1.0000
  C   C916      1.0  0.49733  0.37419  0.14933  1.0000
  H   H1642     1.0  0.51887  0.34125  0.75757  1.0000
  H   H1643     1.0  0.50693  0.45708  0.72148  1.0000
  H   H1644     1.0  0.73937  0.45150  0.04022  1.0000
  H   H1645     1.0  0.73686  0.33837  0.06606  1.0000
  C   C917      1.0  0.50696  0.33423  0.74593  1.0000
  C   C918      1.0  0.51024  0.32998  0.70204  1.0000
  H   H1646     1.0  0.50050  0.35931  0.68901  1.0000
  H   H1647     1.0  0.49875  0.34154  0.74814  1.0000
  H   H1648     1.0  0.49905  0.29438  0.12130  1.0000
  H   H1649     1.0  0.49768  0.43872  0.10783  1.0000
  H   H1650     1.0  0.49510  0.37759  0.08668  1.0000
  C   C919      1.0  0.49883  0.31916  0.77327  1.0000
  H   H1651     1.0  0.50206  0.35608  0.63730  1.0000
  C   C920      1.0  0.50783  0.32464  0.61236  1.0000
  C   C921      1.0  0.49871  0.42780  0.09341  1.0000
  H   H1652     1.0  0.68426  0.24494  0.88130  1.0000
  H   H1653     1.0  0.55899  0.49110  0.53194  1.0000
  C   C922      1.0  0.74338  0.39517  0.96818  1.0000
  C   C923      1.0  0.74356  0.27307  0.13731  1.0000
  H   H1654     1.0  0.74283  0.41742  0.94409  1.0000
  S   S196      1.0  0.49607  0.43061  0.30208  1.0000
  H   H1655     1.0  0.49676  0.42840  0.06137  1.0000
  H   H1656     1.0  0.63769  0.49401  0.14996  1.0000
  C   C924      1.0  0.49492  0.47283  0.69891  1.0000
  S   S197      1.0  0.49472  0.41448  0.71644  1.0000
  H   H1657     1.0  0.50895  0.49471  0.24996  1.0000
  C   C925      1.0  0.68801  0.49410  0.86359  1.0000
  Fe  Fe98      1.0  0.59308  0.52216  0.30349  1.0000
  S   S198      1.0  0.56537  0.51422  0.30233  1.0000
  H   H1658     1.0  0.56592  0.52438  0.17700  1.0000
  Fe  Fe99      1.0  0.59156  0.54326  0.37492  1.0000
  S   S199      1.0  0.56392  0.53722  0.37851  1.0000
  S   S200      1.0  0.60692  0.56059  0.41682  1.0000
  Fe  Fe100     1.0  0.56359  0.51218  0.36903  1.0000
  Fe  Fe101     1.0  0.56796  0.54001  0.31169  1.0000
  S   S201      1.0  0.55185  0.54949  0.27663  1.0000
  S   S202      1.0  0.59098  0.51788  0.37043  1.0000
  S   S203      1.0  0.59597  0.54835  0.30803  1.0000
  Fe  Fe102     1.0  0.60262  0.53945  0.64229  1.0000
  S   S204      1.0  0.57925  0.54360  0.63151  1.0000
  S   S205      1.0  0.62142  0.54181  0.58864  1.0000
  Fe  Fe103     1.0  0.59288  0.53360  0.73293  1.0000
  S   S206      1.0  0.56844  0.53758  0.72770  1.0000
  S   S207      1.0  0.59574  0.52773  0.79798  1.0000
  Fe  Fe104     1.0  0.56672  0.52255  0.67408  1.0000
  Fe  Fe105     1.0  0.58295  0.55834  0.68544  1.0000
  S   S208      1.0  0.58049  0.58285  0.67786  1.0000
  S   S209      1.0  0.59000  0.51702  0.68148  1.0000
  S   S210      1.0  0.60763  0.55583  0.69406  1.0000
  Fe  Fe106     1.0  0.51109  0.63642  0.63684  1.0000
  C   C926      1.0  0.49630  0.64296  0.46350  1.0000
  S   S211      1.0  0.52307  0.63831  0.57274  1.0000
  C   C927      1.0  0.62966  0.52071  0.47080  1.0000
  C   C928      1.0  0.50704  0.52914  0.35591  1.0000
  H   H1659     1.0  0.70124  0.52185  0.95449  1.0000
  Fe  Fe107     1.0  0.51036  0.61867  0.71621  1.0000
  S   S212      1.0  0.51854  0.60095  0.75022  1.0000
  C   C929      1.0  0.63640  0.53624  0.40349  1.0000
  S   S213      1.0  0.52436  0.64405  0.69227  1.0000
  H   H1660     1.0  0.51459  0.54259  0.19832  1.0000
  N   N52       1.0  0.49816  0.58381  0.54761  1.0000
  S   S214      1.0  0.51039  0.65764  0.21688  1.0000
  Fe  Fe108     1.0  0.51391  0.61730  0.32412  1.0000
  H   H1661     1.0  0.50755  0.56792  0.39542  1.0000
  S   S215      1.0  0.53322  0.60817  0.34643  1.0000
  H   H1662     1.0  0.50031  0.63938  0.02614  1.0000
  H   H1663     1.0  0.55696  0.58581  0.52487  1.0000
  H   H1664     1.0  0.55374  0.55105  0.56532  1.0000
  H   H1665     1.0  0.55341  0.61044  0.55541  1.0000
  S   S216      1.0  0.51773  0.64374  0.32740  1.0000
  S   S217      1.0  0.60953  0.51034  0.26753  1.0000
  C   C930      1.0  0.50930  0.66882  0.82302  1.0000
  N   N53       1.0  0.70584  0.52183  0.89018  1.0000
  C   C931      1.0  0.51247  0.64016  0.53126  1.0000
  C   C932      1.0  0.51884  0.63765  0.49281  1.0000
  C   C933      1.0  0.51063  0.63872  0.45920  1.0000
  H   H1666     1.0  0.57077  0.58003  0.44159  1.0000
  C   C934      1.0  0.65218  0.51145  0.28106  1.0000
  H   H1667     1.0  0.53017  0.63483  0.48902  1.0000
  H   H1668     1.0  0.51565  0.63665  0.42983  1.0000
  C   C935      1.0  0.56245  0.58697  0.69583  1.0000
  C   C936      1.0  0.54962  0.57602  0.72112  1.0000
  C   C937      1.0  0.53618  0.58041  0.73771  1.0000
  C   C938      1.0  0.53521  0.59552  0.72796  1.0000
  C   C939      1.0  0.54776  0.60622  0.70157  1.0000
  C   C940      1.0  0.56143  0.60202  0.68600  1.0000
  H   H1669     1.0  0.55018  0.56431  0.72843  1.0000
  H   H1670     1.0  0.52644  0.57205  0.75792  1.0000
  H   H1671     1.0  0.54714  0.61790  0.69399  1.0000
  H   H1672     1.0  0.57137  0.61058  0.66667  1.0000
  C   C941      1.0  0.54578  0.56507  0.29766  1.0000
  C   C942      1.0  0.55282  0.57277  0.33097  1.0000
  C   C943      1.0  0.54855  0.58576  0.34595  1.0000
  C   C944      1.0  0.53716  0.59109  0.32799  1.0000
  C   C945      1.0  0.52961  0.58301  0.29560  1.0000
  C   C946      1.0  0.53399  0.57006  0.28035  1.0000
  H   H1673     1.0  0.56197  0.56909  0.34435  1.0000
  H   H1674     1.0  0.55442  0.59199  0.37094  1.0000
  H   H1675     1.0  0.52079  0.58701  0.28164  1.0000
  H   H1676     1.0  0.52849  0.56416  0.25456  1.0000
  C   C947      1.0  0.61018  0.55453  0.46455  1.0000
  C   C948      1.0  0.62439  0.56402  0.48128  1.0000
  C   C949      1.0  0.62763  0.55994  0.51914  1.0000
  C   C950      1.0  0.61633  0.54672  0.54172  1.0000
  C   C951      1.0  0.60186  0.53730  0.52548  1.0000
  C   C952      1.0  0.59892  0.54104  0.48657  1.0000
  H   H1677     1.0  0.63309  0.57451  0.46466  1.0000
  H   H1678     1.0  0.63887  0.56719  0.53129  1.0000
  H   H1679     1.0  0.59318  0.52691  0.54252  1.0000
  H   H1680     1.0  0.58792  0.53361  0.47388  1.0000
  C   C953      1.0  0.50963  0.67203  0.86389  1.0000
  C   C954      1.0  0.49680  0.61579  0.84394  1.0000
  H   H1681     1.0  0.68967  0.49935  0.83289  1.0000
  C   C955      1.0  0.54938  0.53302  0.52148  1.0000
  H   H1682     1.0  0.51936  0.67044  0.87980  1.0000
  H   H1683     1.0  0.51886  0.66499  0.80751  1.0000
  H   H1684     1.0  0.62962  0.52006  0.33875  1.0000
  H   H1685     1.0  0.69494  0.57221  0.37983  1.0000
  H   H1686     1.0  0.51575  0.71638  0.96302  1.0000
  H   H1687     1.0  0.49469  0.57899  0.63273  1.0000
  H   H1688     1.0  0.53122  0.61106  0.44920  1.0000
  C   C956      1.0  0.69037  0.52600  0.88663  1.0000
  C   C957      1.0  0.62071  0.52349  0.14826  1.0000
  C   C958      1.0  0.61472  0.52289  0.18901  1.0000
  C   C959      1.0  0.61703  0.51189  0.21587  1.0000
  H   H1689     1.0  0.51007  0.54052  0.33775  1.0000
  C   C960      1.0  0.51880  0.69345  0.28226  1.0000
  H   H1690     1.0  0.68479  0.52162  0.85875  1.0000
  H   H1691     1.0  0.60849  0.53106  0.19963  1.0000
  H   H1692     1.0  0.51985  0.68154  0.27509  1.0000
  C   C961      1.0  0.63337  0.51129  0.86044  1.0000
  C   C962      1.0  0.63658  0.51603  0.81953  1.0000
  C   C963      1.0  0.62523  0.52102  0.79982  1.0000
  C   C964      1.0  0.61049  0.52134  0.82085  1.0000
  H   H1693     1.0  0.71881  0.51944  0.00582  1.0000
  N   N54       1.0  0.57846  0.57819  0.52321  1.0000
  H   H1694     1.0  0.62788  0.52459  0.76838  1.0000
  H   H1695     1.0  0.57087  0.54430  0.55117  1.0000
  H   H1696     1.0  0.67770  0.55959  0.88221  1.0000
  H   H1697     1.0  0.58190  0.60404  0.39636  1.0000
  C   C965      1.0  0.49922  0.51962  0.22826  1.0000
  H   H1698     1.0  0.53863  0.72367  0.75926  1.0000
  C   C966      1.0  0.60735  0.51670  0.86182  1.0000
  H   H1699     1.0  0.63911  0.54662  0.42305  1.0000
  H   H1700     1.0  0.67290  0.55416  0.34294  1.0000
  H   H1701     1.0  0.59688  0.61399  0.43000  1.0000
  H   H1702     1.0  0.61629  0.51929  0.47185  1.0000
  H   H1703     1.0  0.53974  0.53439  0.84518  1.0000
  H   H1704     1.0  0.52010  0.57874  0.56244  1.0000
  C   C967      1.0  0.49639  0.66340  0.18964  1.0000
  H   H1705     1.0  0.51326  0.50752  0.35497  1.0000
  Fe  Fe109     1.0  0.64424  0.49770  0.03956  1.0000
  H   H1706     1.0  0.58075  0.50696  0.14948  1.0000
  H   H1707     1.0  0.56575  0.61935  0.59480  1.0000
  C   C968      1.0  0.56694  0.51464  0.19652  1.0000
  H   H1708     1.0  0.54524  0.54189  0.79407  1.0000
  H   H1709     1.0  0.69738  0.49816  0.91972  1.0000
  H   H1710     1.0  0.61608  0.50823  0.91300  1.0000
  H   H1711     1.0  0.65682  0.51304  0.24879  1.0000
  H   H1712     1.0  0.51038  0.70797  0.83505  1.0000
  H   H1713     1.0  0.51983  0.59218  0.42905  1.0000
  H   H1714     1.0  0.53120  0.70067  0.29082  1.0000
  N   N55       1.0  0.50508  0.51001  0.29704  1.0000
  H   H1715     1.0  0.66052  0.50697  0.29730  1.0000
  C   C969      1.0  0.49721  0.67149  0.80176  1.0000
  H   H1716     1.0  0.49859  0.65839  0.01082  1.0000
  H   H1717     1.0  0.50372  0.66942  0.34864  1.0000
  H   H1718     1.0  0.74178  0.53648  0.78920  1.0000
  C   C970      1.0  0.69240  0.54409  0.88753  1.0000
  H   H1719     1.0  0.52869  0.53976  0.38808  1.0000
  C   C971      1.0  0.50202  0.67101  0.15147  1.0000
  H   H1720     1.0  0.52574  0.53256  0.74110  1.0000
  H   H1721     1.0  0.64499  0.53231  0.27689  1.0000
  H   H1722     1.0  0.51246  0.53903  0.71189  1.0000
  S   S218      1.0  0.63639  0.51458  0.08202  1.0000
  C   C972      1.0  0.62539  0.50152  0.20138  1.0000
  H   H1723     1.0  0.50977  0.54174  0.41133  1.0000
  H   H1724     1.0  0.55531  0.50986  0.21715  1.0000
  H   H1725     1.0  0.57765  0.51992  0.21410  1.0000
  H   H1726     1.0  0.49581  0.56115  0.35399  1.0000
  H   H1727     1.0  0.66688  0.54753  0.43452  1.0000
  H   H1728     1.0  0.56933  0.59767  0.46608  1.0000
  H   H1729     1.0  0.67045  0.53614  0.36997  1.0000
  H   H1730     1.0  0.50548  0.69379  0.22951  1.0000
  C   C973      1.0  0.57799  0.59152  0.45426  1.0000
  S   S219      1.0  0.66602  0.50712  0.99155  1.0000
  H   H1731     1.0  0.49785  0.71231  0.89956  1.0000
  C   C974      1.0  0.61559  0.58679  0.58948  1.0000
  H   H1732     1.0  0.62801  0.59629  0.58895  1.0000
  H   H1733     1.0  0.60824  0.58714  0.61817  1.0000
  H   H1734     1.0  0.61731  0.57494  0.58800  1.0000
  H   H1735     1.0  0.70181  0.55116  0.86330  1.0000
  H   H1736     1.0  0.65013  0.52164  0.42744  1.0000
  H   H1737     1.0  0.55805  0.56306  0.49255  1.0000
  C   C975      1.0  0.51403  0.72076  0.82420  1.0000
  C   C976      1.0  0.56010  0.60792  0.57984  1.0000
  C   C977      1.0  0.51588  0.73637  0.34363  1.0000
  H   H1738     1.0  0.59424  0.56546  0.54199  1.0000
  H   H1739     1.0  0.58362  0.57223  0.58200  1.0000
  C   C978      1.0  0.52597  0.71504  0.75627  1.0000
  H   H1740     1.0  0.69607  0.54907  0.91666  1.0000
  H   H1741     1.0  0.63946  0.50232  0.28465  1.0000
  C   C979      1.0  0.50381  0.57445  0.61639  1.0000
  C   C980      1.0  0.67111  0.55574  0.40750  1.0000
  Fe  Fe110     1.0  0.50368  0.64094  0.27281  1.0000
  C   C981      1.0  0.51505  0.53353  0.39477  1.0000
  C   C982      1.0  0.50674  0.59241  0.50820  1.0000
  H   H1742     1.0  0.57012  0.54584  0.83068  1.0000
  C   C983      1.0  0.56952  0.50135  0.17100  1.0000
  H   H1743     1.0  0.67164  0.54204  0.85265  1.0000
  H   H1744     1.0  0.69589  0.55383  0.40201  1.0000
  C   C984      1.0  0.62895  0.51304  0.13368  1.0000
  S   S220      1.0  0.54233  0.50612  0.65623  1.0000
  C   C985      1.0  0.50331  0.70705  0.32760  1.0000
  H   H1745     1.0  0.55861  0.49664  0.15390  1.0000
  H   H1746     1.0  0.53861  0.53551  0.51091  1.0000
  H   H1747     1.0  0.49755  0.53043  0.28415  1.0000
  H   H1748     1.0  0.66622  0.54015  0.90616  1.0000
  H   H1749     1.0  0.59736  0.58344  0.47307  1.0000
  H   H1750     1.0  0.58053  0.60019  0.58889  1.0000
  C   C986      1.0  0.65193  0.52750  0.29692  1.0000
  H   H1751     1.0  0.52734  0.52360  0.32385  1.0000
  H   H1752     1.0  0.50603  0.50754  0.65725  1.0000
  S   S221      1.0  0.49882  0.68197  0.93504  1.0000
  H   H1753     1.0  0.52271  0.57778  0.49144  1.0000
  H   H1754     1.0  0.49756  0.51220  0.74647  1.0000
  H   H1755     1.0  0.50582  0.55540  0.54078  1.0000
  C   C987      1.0  0.67598  0.54658  0.88174  1.0000
  H   H1756     1.0  0.61534  0.59071  0.52664  1.0000
  H   H1757     1.0  0.54315  0.71208  0.22237  1.0000
  H   H1758     1.0  0.49664  0.61818  0.17885  1.0000
  H   H1759     1.0  0.55620  0.52917  0.49606  1.0000
  H   H1760     1.0  0.52778  0.53129  0.68766  1.0000
  H   H1761     1.0  0.52949  0.70908  0.18347  1.0000
  H   H1762     1.0  0.69357  0.56950  0.43333  1.0000
  C   C988      1.0  0.58945  0.60207  0.41958  1.0000
  H   H1763     1.0  0.52698  0.57120  0.62916  1.0000
  H   H1764     1.0  0.50636  0.51314  0.21082  1.0000
  S   S222      1.0  0.49904  0.61088  0.65964  1.0000
  C   C989      1.0  0.60681  0.58971  0.55433  1.0000
  C   C990      1.0  0.57374  0.60149  0.56335  1.0000
  H   H1765     1.0  0.56228  0.55730  0.86688  1.0000
  H   H1766     1.0  0.66590  0.56549  0.41220  1.0000
  H   H1767     1.0  0.59585  0.60082  0.49616  1.0000
  C   C991      1.0  0.72989  0.52643  0.98516  1.0000
  H   H1768     1.0  0.64790  0.51581  0.80288  1.0000
  H   H1769     1.0  0.72426  0.54365  0.86304  1.0000
  H   H1770     1.0  0.72472  0.50970  0.93863  1.0000
  H   H1771     1.0  0.59604  0.51696  0.87849  1.0000
  N   N56       1.0  0.50411  0.72926  0.84883  1.0000
  C   C992      1.0  0.51896  0.72040  0.33937  1.0000
  C   C993      1.0  0.66570  0.54638  0.36938  1.0000
  H   H1772     1.0  0.55883  0.57669  0.57006  1.0000
  C   C994      1.0  0.59018  0.57567  0.55133  1.0000
  N   N57       1.0  0.58927  0.57943  0.81273  1.0000
  C   C995      1.0  0.59971  0.56900  0.80285  1.0000
  C   C996      1.0  0.57130  0.56985  0.80832  1.0000
  C   C997      1.0  0.59474  0.59327  0.78190  1.0000
  C   C998      1.0  0.59115  0.58614  0.85388  1.0000
  C   C999      1.0  0.59489  0.57575  0.88668  1.0000
  C   C1000     1.0  0.61883  0.57790  0.79759  1.0000
  C   C1001     1.0  0.58414  0.60444  0.78339  1.0000
  H   H1773     1.0  0.60505  0.60144  0.55803  1.0000
  C   C1002     1.0  0.69005  0.56325  0.40536  1.0000
  C   C1003     1.0  0.59331  0.58245  0.92796  1.0000
  C   C1004     1.0  0.62838  0.56620  0.79926  1.0000
  C   C1005     1.0  0.59235  0.61929  0.75530  1.0000
  H   H1774     1.0  0.59637  0.56281  0.77464  1.0000
  H   H1775     1.0  0.59693  0.55903  0.82556  1.0000
  H   H1776     1.0  0.56325  0.57722  0.81521  1.0000
  H   H1777     1.0  0.57000  0.56653  0.77665  1.0000
  H   H1778     1.0  0.59493  0.58866  0.75122  1.0000
  H   H1779     1.0  0.60774  0.60118  0.78481  1.0000
  H   H1780     1.0  0.60147  0.59795  0.85254  1.0000
  H   H1781     1.0  0.57981  0.58885  0.86519  1.0000
  H   H1782     1.0  0.60780  0.57570  0.88074  1.0000
  H   H1783     1.0  0.58652  0.56307  0.88815  1.0000
  H   H1784     1.0  0.62259  0.58446  0.76795  1.0000
  H   H1785     1.0  0.62275  0.58679  0.82090  1.0000
  H   H1786     1.0  0.58243  0.60853  0.81403  1.0000
  H   H1787     1.0  0.57171  0.59812  0.77350  1.0000
  C   C1006     1.0  0.53157  0.70381  0.21170  1.0000
  C   C1007     1.0  0.51874  0.53002  0.71449  1.0000
  H   H1788     1.0  0.63066  0.51019  0.48722  1.0000
  C   C1008     1.0  0.52266  0.72870  0.95009  1.0000
  H   H1789     1.0  0.52501  0.70295  0.76808  1.0000
  H   H1790     1.0  0.58035  0.58207  0.93635  1.0000
  H   H1791     1.0  0.59648  0.57506  0.95057  1.0000
  H   H1792     1.0  0.60196  0.59505  0.92842  1.0000
  H   H1793     1.0  0.62520  0.55932  0.82845  1.0000
  H   H1794     1.0  0.62539  0.55762  0.77491  1.0000
  H   H1795     1.0  0.64197  0.57295  0.79542  1.0000
  H   H1796     1.0  0.59439  0.61567  0.72424  1.0000
  H   H1797     1.0  0.58409  0.62661  0.75540  1.0000
  H   H1798     1.0  0.60446  0.62682  0.76506  1.0000
  N   N58       1.0  0.50528  0.69129  0.31624  1.0000
  C   C1009     1.0  0.50856  0.68268  0.35191  1.0000
  H   H1799     1.0  0.50313  0.62750  0.82714  1.0000
  C   C1010     1.0  0.52701  0.68643  0.35973  1.0000
  C   C1011     1.0  0.52829  0.67917  0.40013  1.0000
  C   C1012     1.0  0.63716  0.52148  0.42753  1.0000
  H   H1800     1.0  0.63633  0.53175  0.48610  1.0000
  H   H1801     1.0  0.71424  0.51525  0.80714  1.0000
  C   C1013     1.0  0.49798  0.64411  0.53566  1.0000
  H   H1802     1.0  0.51823  0.59657  0.58196  1.0000
  H   H1803     1.0  0.52197  0.71716  0.36887  1.0000
  H   H1804     1.0  0.49812  0.58903  0.48452  1.0000
  H   H1805     1.0  0.53337  0.68109  0.33642  1.0000
  H   H1806     1.0  0.53407  0.69945  0.35913  1.0000
  S   S223      1.0  0.49829  0.67056  0.74916  1.0000
  H   H1807     1.0  0.54157  0.68212  0.40506  1.0000
  C   C1014     1.0  0.50126  0.53492  0.20363  1.0000
  H   H1808     1.0  0.50187  0.61771  0.12585  1.0000
  N   N59       1.0  0.64732  0.54046  0.36419  1.0000
  C   C1015     1.0  0.64271  0.55275  0.34108  1.0000
  C   C1016     1.0  0.70184  0.50378  0.88920  1.0000
  S   S224      1.0  0.50272  0.61537  0.26592  1.0000
  C   C1017     1.0  0.64694  0.56965  0.35836  1.0000
  C   C1018     1.0  0.63985  0.58027  0.33507  1.0000
  C   C1019     1.0  0.56094  0.54790  0.53965  1.0000
  H   H1809     1.0  0.62313  0.53361  0.39856  1.0000
  H   H1810     1.0  0.64919  0.55495  0.31029  1.0000
  H   H1811     1.0  0.62914  0.54805  0.33752  1.0000
  H   H1812     1.0  0.59800  0.59611  0.40575  1.0000
  H   H1813     1.0  0.51461  0.67280  0.13876  1.0000
  H   H1814     1.0  0.64188  0.56904  0.39004  1.0000
  H   H1815     1.0  0.66064  0.57575  0.35580  1.0000
  H   H1816     1.0  0.64325  0.59236  0.34773  1.0000
  H   H1817     1.0  0.64489  0.58165  0.30307  1.0000
  H   H1818     1.0  0.54461  0.52297  0.54446  1.0000
  H   H1819     1.0  0.73069  0.52672  0.86100  1.0000
  H   H1820     1.0  0.49886  0.55762  0.49284  1.0000
  H   H1821     1.0  0.62986  0.51019  0.41398  1.0000
  H   H1822     1.0  0.61898  0.53216  0.12783  1.0000
  C   C1020     1.0  0.71168  0.52708  0.93043  1.0000
  H   H1823     1.0  0.58226  0.61063  0.54118  1.0000
  C   C1021     1.0  0.56856  0.56206  0.50799  1.0000
  H   H1824     1.0  0.62606  0.57501  0.33736  1.0000
  C   C1022     1.0  0.54535  0.54546  0.82557  1.0000
  H   H1825     1.0  0.50995  0.60563  0.51075  1.0000
  H   H1826     1.0  0.54111  0.59638  0.43853  1.0000
  H   H1827     1.0  0.52740  0.50933  0.26272  1.0000
  C   C1023     1.0  0.51667  0.70143  0.24283  1.0000
  H   H1828     1.0  0.52413  0.71417  0.72405  1.0000
  C   C1024     1.0  0.64332  0.52543  0.34042  1.0000
  H   H1829     1.0  0.51697  0.73728  0.96350  1.0000
  C   C1025     1.0  0.71577  0.52782  0.81462  1.0000
  C   C1026     1.0  0.50597  0.51296  0.71896  1.0000
  H   H1830     1.0  0.55110  0.59919  0.60222  1.0000
  H   H1831     1.0  0.71547  0.54034  0.93236  1.0000
  C   C1027     1.0  0.72675  0.52265  0.94181  1.0000
  H   H1832     1.0  0.52985  0.72253  0.31685  1.0000
  H   H1833     1.0  0.53316  0.69211  0.20517  1.0000
  H   H1834     1.0  0.51824  0.53267  0.26473  1.0000
  H   H1835     1.0  0.70439  0.53039  0.80912  1.0000
  C   C1028     1.0  0.51382  0.51719  0.33287  1.0000
  H   H1836     1.0  0.53758  0.55320  0.83068  1.0000
  H   H1837     1.0  0.68063  0.51958  0.91114  1.0000
  C   C1029     1.0  0.58823  0.58873  0.48735  1.0000
  H   H1838     1.0  0.51218  0.56951  0.67224  1.0000
  H   H1839     1.0  0.49673  0.63444  0.14579  1.0000
  C   C1030     1.0  0.51505  0.50082  0.27582  1.0000
  C   C1031     1.0  0.51270  0.72065  0.77857  1.0000
  C   C1032     1.0  0.61869  0.51170  0.88150  1.0000
  C   C1033     1.0  0.50537  0.52381  0.26984  1.0000
  H   H1840     1.0  0.50152  0.68473  0.37971  1.0000
  H   H1841     1.0  0.57646  0.55813  0.48502  1.0000
  C   C1034     1.0  0.71972  0.53049  0.85840  1.0000
  C   C1035     1.0  0.56625  0.58499  0.54479  1.0000
  H   H1842     1.0  0.53331  0.59692  0.51098  1.0000
  H   H1843     1.0  0.51559  0.71341  0.24796  1.0000
  H   H1844     1.0  0.53566  0.73218  0.95776  1.0000
  H   H1845     1.0  0.53122  0.74070  0.89216  1.0000
  C   C1036     1.0  0.51084  0.58389  0.57583  1.0000
  H   H1846     1.0  0.73277  0.53947  0.98977  1.0000
  H   H1847     1.0  0.49835  0.71201  0.30314  1.0000
  Fe  Fe111     1.0  0.50116  0.64902  0.71675  1.0000
  H   H1848     1.0  0.51282  0.50460  0.72370  1.0000
  H   H1849     1.0  0.52383  0.58901  0.64920  1.0000
  H   H1850     1.0  0.52750  0.72621  0.82798  1.0000
  C   C1037     1.0  0.52347  0.59049  0.49199  1.0000
  C   C1038     1.0  0.52921  0.59797  0.44970  1.0000
  C   C1039     1.0  0.56315  0.55430  0.83506  1.0000
  C   C1040     1.0  0.51761  0.57615  0.64319  1.0000
  H   H1851     1.0  0.52245  0.66589  0.40084  1.0000
  H   H1852     1.0  0.50573  0.60917  0.84357  1.0000
  C   C1041     1.0  0.63126  0.50202  0.16056  1.0000
  H   H1853     1.0  0.71328  0.50091  0.87991  1.0000
  S   S225      1.0  0.64817  0.50505  0.88353  1.0000
  H   H1854     1.0  0.52762  0.71948  0.89370  1.0000
  H   H1855     1.0  0.52205  0.68396  0.42484  1.0000
  H   H1856     1.0  0.51274  0.52260  0.41416  1.0000
  C   C1042     1.0  0.49656  0.50861  0.68114  1.0000
  H   H1857     1.0  0.51417  0.73280  0.76632  1.0000
  H   H1858     1.0  0.50268  0.62492  0.90114  1.0000
  H   H1859     1.0  0.49768  0.56142  0.61207  1.0000
  H   H1860     1.0  0.49596  0.60488  0.57638  1.0000
  H   H1861     1.0  0.66496  0.53589  0.29465  1.0000
  C   C1043     1.0  0.52259  0.72888  0.90479  1.0000
  C   C1044     1.0  0.50479  0.72532  0.89225  1.0000
  H   H1862     1.0  0.73191  0.55163  0.79097  1.0000
  C   C1045     1.0  0.49763  0.67752  0.88406  1.0000
  H   H1863     1.0  0.50043  0.71206  0.77223  1.0000
  H   H1864     1.0  0.51324  0.74056  0.31463  1.0000
  H   H1865     1.0  0.50523  0.73509  0.36654  1.0000
  H   H1866     1.0  0.72706  0.53641  0.75447  1.0000
  C   C1046     1.0  0.73004  0.53878  0.78569  1.0000
  H   H1867     1.0  0.49643  0.53166  0.17430  1.0000
  H   H1868     1.0  0.64684  0.51607  0.35577  1.0000
  H   H1869     1.0  0.73825  0.52967  0.92262  1.0000
  H   H1870     1.0  0.49825  0.73158  0.91246  1.0000
  H   H1871     1.0  0.74060  0.52301  0.99266  1.0000
  Fe  Fe112     1.0  0.64788  0.49533  0.94733  1.0000
  H   H1872     1.0  0.49413  0.54190  0.21924  1.0000
  C   C1047     1.0  0.49490  0.55496  0.52526  1.0000
  H   H1873     1.0  0.49618  0.68251  0.10061  1.0000
  C   C1048     1.0  0.49591  0.56720  0.38263  1.0000
  H   H1874     1.0  0.49619  0.57964  0.37667  1.0000
  Fe  Fe113     1.0  0.51792  0.94453  0.27845  1.0000
  S   S226      1.0  0.50787  0.96427  0.29541  1.0000
  C   C1049     1.0  0.51416  0.77592  0.85446  1.0000
  Fe  Fe114     1.0  0.53673  0.95013  0.35356  1.0000
  S   S227      1.0  0.52841  0.97033  0.37412  1.0000
  S   S228      1.0  0.55307  0.94236  0.39179  1.0000
  Fe  Fe115     1.0  0.50383  0.95424  0.35786  1.0000
  Fe  Fe116     1.0  0.53355  0.97866  0.30950  1.0000
  C   C1050     1.0  0.56336  0.99263  0.44992  1.0000
  S   S229      1.0  0.51159  0.93328  0.34109  1.0000
  S   S230      1.0  0.54411  0.95970  0.28924  1.0000
  Fe  Fe117     1.0  0.52996  0.95780  0.71481  1.0000
  S   S231      1.0  0.52537  0.98090  0.70058  1.0000
  S   S232      1.0  0.52642  0.94909  0.78090  1.0000
  Fe  Fe118     1.0  0.53801  0.95321  0.62589  1.0000
  S   S233      1.0  0.53352  0.97524  0.60593  1.0000
  S   S234      1.0  0.54646  0.93766  0.58207  1.0000
  H   H1875     1.0  0.52582  0.96884  0.21376  1.0000
  C   C1051     1.0  0.49998  0.90950  0.11788  1.0000
  S   S235      1.0  0.55407  0.96540  0.67346  1.0000
  C   C1052     1.0  0.55072  0.94206  0.44477  1.0000
  C   C1053     1.0  0.53985  0.94837  0.46720  1.0000
  C   C1054     1.0  0.53875  0.94775  0.50954  1.0000
  C   C1055     1.0  0.54823  0.94047  0.52937  1.0000
  C   C1056     1.0  0.55902  0.93431  0.50670  1.0000
  C   C1057     1.0  0.56038  0.93524  0.46491  1.0000
  H   H1876     1.0  0.53229  0.95364  0.45199  1.0000
  H   H1877     1.0  0.53024  0.95240  0.52676  1.0000
  H   H1878     1.0  0.56645  0.92876  0.52149  1.0000
  H   H1879     1.0  0.56884  0.93041  0.44800  1.0000
  H   H1880     1.0  0.50107  0.87971  0.29987  1.0000
  C   C1058     1.0  0.51759  0.98733  0.19244  1.0000
  H   H1881     1.0  0.56065  0.98001  0.46082  1.0000
  H   H1882     1.0  0.50420  0.98941  0.50605  1.0000
  C   C1059     1.0  0.57966  0.98461  0.39219  1.0000
  H   H1883     1.0  0.56815  0.92717  0.75352  1.0000
  C   C1060     1.0  0.55955  0.89663  0.57508  1.0000
  H   H1884     1.0  0.58349  0.98634  0.17977  1.0000
  C   C1061     1.0  0.52155  0.90576  0.66621  1.0000
  Fe  Fe119     1.0  0.51154  0.96733  0.65178  1.0000
  H   H1885     1.0  0.53177  0.92993  0.08277  1.0000
  C   C1062     1.0  0.50924  0.92115  0.18115  1.0000
  C   C1063     1.0  0.54834  0.90171  0.64415  1.0000
  C   C1064     1.0  0.51994  0.90138  0.15017  1.0000
  C   C1065     1.0  0.51950  0.91182  0.18144  1.0000
  C   C1066     1.0  0.54139  0.96002  0.11971  1.0000
  H   H1886     1.0  0.52698  0.91251  0.20586  1.0000
  C   C1067     1.0  0.51713  0.92989  0.80689  1.0000
  H   H1887     1.0  0.52364  0.93947  0.86404  1.0000
  H   H1888     1.0  0.56239  0.94479  0.74754  1.0000
  H   H1889     1.0  0.55471  0.93868  0.15668  1.0000
  H   H1890     1.0  0.51542  0.90927  0.69337  1.0000
  S   S236      1.0  0.50178  0.86114  0.98269  1.0000
  C   C1068     1.0  0.53783  0.94080  0.06275  1.0000
  H   H1891     1.0  0.50633  0.89685  0.33083  1.0000
  C   C1069     1.0  0.50329  0.85791  0.72550  1.0000
  C   C1070     1.0  0.49770  0.92107  0.50581  1.0000
  N   N60       1.0  0.55221  0.97068  0.14870  1.0000
  H   H1892     1.0  0.53177  0.94941  0.13607  1.0000
  H   H1893     1.0  0.51756  0.75883  0.89499  1.0000
  H   H1894     1.0  0.55606  0.89242  0.54513  1.0000
  H   H1895     1.0  0.55938  0.94860  0.09450  1.0000
  H   H1896     1.0  0.57036  0.93103  0.20557  1.0000
  H   H1897     1.0  0.50224  0.96914  0.77651  1.0000
  C   C1071     1.0  0.55375  0.96077  0.18377  1.0000
  C   C1072     1.0  0.50929  0.91586  0.78741  1.0000
  H   H1898     1.0  0.53227  0.90409  0.73990  1.0000
  H   H1899     1.0  0.50498  0.98157  0.20855  1.0000
  C   C1073     1.0  0.56451  0.94022  0.21297  1.0000
  C   C1074     1.0  0.50316  0.89968  0.85055  1.0000
  H   H1900     1.0  0.52067  0.87752  0.75225  1.0000
  C   C1075     1.0  0.56245  0.94833  0.17450  1.0000
  H   H1901     1.0  0.50339  0.92949  0.47949  1.0000
  H   H1902     1.0  0.50443  0.92581  0.53210  1.0000
  H   H1903     1.0  0.57986  0.97374  0.40862  1.0000
  C   C1076     1.0  0.56902  0.98054  0.12761  1.0000
  H   H1904     1.0  0.56005  0.96867  0.20711  1.0000
  C   C1077     1.0  0.49968  0.92007  0.14891  1.0000
  H   H1905     1.0  0.54819  0.92735  0.77561  1.0000
  H   H1906     1.0  0.52078  0.87419  0.66173  1.0000
  C   C1078     1.0  0.51141  0.74712  0.83819  1.0000
  H   H1907     1.0  0.55331  0.99201  0.43089  1.0000
  H   H1908     1.0  0.49827  0.88532  0.66383  1.0000
  H   H1909     1.0  0.55221  0.93412  0.23030  1.0000
  H   H1910     1.0  0.51150  0.88927  0.61803  1.0000
  H   H1911     1.0  0.52885  0.98773  0.46410  1.0000
  H   H1912     1.0  0.51637  0.99303  0.16394  1.0000
  H   H1913     1.0  0.52791  0.91720  0.64829  1.0000
  H   H1914     1.0  0.52816  0.94519  0.05253  1.0000
  H   H1915     1.0  0.56849  0.98125  0.37558  1.0000
  C   C1079     1.0  0.55029  0.95378  0.08453  1.0000
  H   H1916     1.0  0.55129  0.90136  0.72249  1.0000
  S   S237      1.0  0.51125  0.88666  0.07972  1.0000
  H   H1917     1.0  0.59105  0.97911  0.56603  1.0000
  H   H1918     1.0  0.52792  0.89420  0.15071  1.0000
  H   H1919     1.0  0.51120  0.85024  0.72424  1.0000
  C   C1080     1.0  0.51002  0.89995  0.11846  1.0000
  C   C1081     1.0  0.52686  0.88072  0.68711  1.0000
  C   C1082     1.0  0.51766  0.92873  0.84848  1.0000
  H   H1920     1.0  0.57927  0.98065  0.50331  1.0000
  H   H1921     1.0  0.50549  0.91471  0.60634  1.0000
  H   H1922     1.0  0.56032  0.92939  0.68631  1.0000
  N   N61       1.0  0.53428  0.89859  0.67725  1.0000
  H   H1923     1.0  0.52712  0.74565  0.35308  1.0000
  S   S238      1.0  0.50743  0.93403  0.22037  1.0000
  H   H1924     1.0  0.51138  0.91311  0.90208  1.0000
  H   H1925     1.0  0.49654  0.75513  0.88621  1.0000
  C   C1083     1.0  0.57694  0.98814  0.52790  1.0000
  Fe  Fe120     1.0  0.54798  0.98722  0.65587  1.0000
  H   H1926     1.0  0.53653  0.88151  0.60604  1.0000
  H   H1927     1.0  0.55819  0.89742  0.65410  1.0000
  H   H1928     1.0  0.57259  0.94920  0.23180  1.0000
  S   S239      1.0  0.51457  0.94394  0.66837  1.0000
  H   H1929     1.0  0.53676  0.90104  0.58879  1.0000
  C   C1084     1.0  0.50187  0.89247  0.30176  1.0000
  H   H1930     1.0  0.55441  0.91480  0.63702  1.0000
  H   H1931     1.0  0.54064  0.93079  0.70600  1.0000
  H   H1932     1.0  0.50571  0.77664  0.83209  1.0000
  H   H1933     1.0  0.56520  0.98116  0.54616  1.0000
  C   C1085     1.0  0.59085  0.99091  0.55496  1.0000
  C   C1086     1.0  0.52574  0.97462  0.18448  1.0000
  H   H1934     1.0  0.51274  0.97567  0.52803  1.0000
  H   H1935     1.0  0.54123  0.95369  0.19861  1.0000
  H   H1936     1.0  0.52722  0.78030  0.84034  1.0000
  H   H1937     1.0  0.51303  0.78391  0.87905  1.0000
  C   C1087     1.0  0.51070  0.91377  0.87021  1.0000
  H   H1938     1.0  0.52505  0.75084  0.82915  1.0000
  H   H1939     1.0  0.51108  0.89983  0.27743  1.0000
  C   C1088     1.0  0.55007  0.92515  0.71078  1.0000
  H   H1940     1.0  0.55708  0.96384  0.06246  1.0000
  H   H1941     1.0  0.50840  0.91660  0.75579  1.0000
  H   H1942     1.0  0.54436  0.98282  0.51788  1.0000
  H   H1943     1.0  0.49657  0.89012  0.79356  1.0000
  C   C1089     1.0  0.54187  0.90653  0.71380  1.0000
  C   C1090     1.0  0.51404  0.87567  0.72493  1.0000
  H   H1944     1.0  0.57500  0.95398  0.15822  1.0000
  H   H1945     1.0  0.50571  0.88290  0.72697  1.0000
  H   H1946     1.0  0.56756  0.90951  0.57170  1.0000
  C   C1091     1.0  0.54384  0.89452  0.60331  1.0000
  H   H1947     1.0  0.53689  0.87576  0.69176  1.0000
  C   C1092     1.0  0.55763  0.93142  0.74925  1.0000
  H   H1948     1.0  0.56672  0.88951  0.58660  1.0000
  H   H1949     1.0  0.54382  0.99079  0.13968  1.0000
  H   H1950     1.0  0.49569  0.85549  0.69986  1.0000
  C   C1093     1.0  0.50710  0.89506  0.64350  1.0000
  C   C1094     1.0  0.50253  0.90088  0.80900  1.0000
  H   H1951     1.0  0.57570  0.97273  0.11451  1.0000
  C   C1095     1.0  0.51504  0.98851  0.51999  1.0000
  H   H1952     1.0  0.51773  0.96545  0.16606  1.0000
  H   H1953     1.0  0.53423  0.96650  0.10507  1.0000
  C   C1096     1.0  0.49725  0.90485  0.62740  1.0000
  C   C1097     1.0  0.50937  0.75867  0.87134  1.0000
  H   H1954     1.0  0.49917  0.90934  0.49908  1.0000
  H   H1955     1.0  0.54439  0.93730  0.03629  1.0000
  C   C1098     1.0  0.54385  0.98230  0.16433  1.0000
  H   H1956     1.0  0.49473  0.85468  0.75360  1.0000
  H   H1957     1.0  0.56730  0.98760  0.10181  1.0000
  S   S240      1.0  0.49447  0.88031  0.87589  1.0000
  H   H1958     1.0  0.59091  0.98896  0.37022  1.0000
  H   H1959     1.0  0.55082  0.98981  0.18751  1.0000
  H   H1960     1.0  0.60398  0.99183  0.11949  1.0000
  H   H1961     1.0  0.50614  0.74997  0.81129  1.0000
  C   C1099     1.0  0.58125  0.99255  0.15328  1.0000
  Fe  Fe121     1.0  0.80271  0.36835  0.98422  1.0000
  S   S241      1.0  0.79530  0.35040  0.03631  1.0000
  S   S242      1.0  0.79157  0.38787  0.97685  1.0000
  Fe  Fe122     1.0  0.82728  0.35454  0.94278  1.0000
  S   S243      1.0  0.82217  0.33568  0.99288  1.0000
  S   S244      1.0  0.84326  0.35327  0.88492  1.0000
  Fe  Fe123     1.0  0.79476  0.33153  0.99120  1.0000
  S   S245      1.0  0.77796  0.30452  0.99582  1.0000
  Fe  Fe124     1.0  0.82291  0.35550  0.03512  1.0000
  S   S246      1.0  0.83163  0.35624  0.09764  1.0000
  S   S247      1.0  0.79995  0.34927  0.93881  1.0000
  S   S248      1.0  0.83034  0.37468  0.98539  1.0000
  H   H1962     1.0  0.96786  0.46699  0.69965  1.0000
  S   S249      1.0  0.80435  0.47958  0.99512  1.0000
  H   H1963     1.0  0.87227  0.37330  0.41783  1.0000
  C   C1100     1.0  0.87669  0.43190  0.75338  1.0000
  H   H1964     1.0  0.92933  0.46912  0.55125  1.0000
  H   H1965     1.0  0.94506  0.37993  0.30570  1.0000
  H   H1966     1.0  0.74921  0.44378  0.94516  1.0000
  Fe  Fe125     1.0  0.81937  0.47567  0.04295  1.0000
  S   S250      1.0  0.82338  0.45291  0.06363  1.0000
  C   C1101     1.0  0.88196  0.46198  0.75305  1.0000
  H   H1967     1.0  0.95655  0.47032  0.39418  1.0000
  H   H1968     1.0  0.89395  0.49107  0.82326  1.0000
  H   H1969     1.0  0.86826  0.45842  0.75887  1.0000
  Fe  Fe126     1.0  0.90422  0.40679  0.23378  1.0000
  S   S251      1.0  0.88759  0.40138  0.29199  1.0000
  S   S252      1.0  0.89729  0.40072  0.17017  1.0000
  Fe  Fe127     1.0  0.93364  0.43104  0.27239  1.0000
  S   S253      1.0  0.91896  0.42739  0.33273  1.0000
  S   S254      1.0  0.95790  0.45228  0.26550  1.0000
  Fe  Fe128     1.0  0.91033  0.40136  0.32075  1.0000
  S   S255      1.0  0.90954  0.38378  0.37120  1.0000
  Fe  Fe129     1.0  0.89785  0.42795  0.29947  1.0000
  S   S256      1.0  0.88290  0.44332  0.32003  1.0000
  S   S257      1.0  0.92649  0.40459  0.26168  1.0000
  S   S258      1.0  0.91293  0.43356  0.24022  1.0000
  Fe  Fe130     1.0  0.94137  0.42909  0.64605  1.0000
  S   S259      1.0  0.92529  0.42929  0.59712  1.0000
  S   S260      1.0  0.96806  0.44582  0.62823  1.0000
  Fe  Fe131     1.0  0.91107  0.40738  0.70323  1.0000
  S   S261      1.0  0.89318  0.40584  0.65757  1.0000
  S   S262      1.0  0.90374  0.40145  0.77067  1.0000
  Fe  Fe132     1.0  0.91299  0.40306  0.61173  1.0000
  S   S263      1.0  0.90639  0.38549  0.56167  1.0000
  Fe  Fe133     1.0  0.90710  0.43210  0.64594  1.0000
  S   S264      1.0  0.89428  0.45000  0.64015  1.0000
  S   S265      1.0  0.93012  0.40224  0.65843  1.0000
  S   S266      1.0  0.92392  0.43420  0.69367  1.0000
  C   C1102     1.0  0.90841  0.38576  0.42391  1.0000
  C   C1103     1.0  0.91335  0.40059  0.44252  1.0000
  C   C1104     1.0  0.91288  0.40104  0.48487  1.0000
  C   C1105     1.0  0.90721  0.38661  0.50859  1.0000
  C   C1106     1.0  0.90212  0.37200  0.48957  1.0000
  C   C1107     1.0  0.90287  0.37158  0.44786  1.0000
  H   H1970     1.0  0.91806  0.41160  0.42419  1.0000
  H   H1971     1.0  0.91708  0.41241  0.49913  1.0000
  H   H1972     1.0  0.89779  0.36080  0.50732  1.0000
  H   H1973     1.0  0.89912  0.36007  0.43406  1.0000
  H   H1974     1.0  0.86315  0.42901  0.76195  1.0000
  C   C1108     1.0  0.92602  0.47921  0.33280  1.0000
  C   C1109     1.0  0.91439  0.46514  0.32059  1.0000
  C   C1110     1.0  0.89732  0.46191  0.33035  1.0000
  C   C1111     1.0  0.89188  0.47324  0.35039  1.0000
  H   H1975     1.0  0.87914  0.43228  0.72031  1.0000
  H   H1976     1.0  0.76393  0.27007  0.00807  1.0000
  H   H1977     1.0  0.91876  0.45683  0.30370  1.0000
  H   H1978     1.0  0.87873  0.47089  0.35776  1.0000
  H   H1979     1.0  0.96363  0.39597  0.28575  1.0000
  C   C1112     1.0  0.89029  0.42901  0.43189  1.0000
  C   C1113     1.0  0.93822  0.48590  0.64342  1.0000
  C   C1114     1.0  0.92623  0.47067  0.64089  1.0000
  C   C1115     1.0  0.90938  0.46893  0.64242  1.0000
  C   C1116     1.0  0.90458  0.48246  0.64503  1.0000
  H   H1980     1.0  0.87334  0.49171  0.41386  1.0000
  H   H1981     1.0  0.94641  0.40521  0.33684  1.0000
  H   H1982     1.0  0.93012  0.46033  0.63766  1.0000
  H   H1983     1.0  0.98318  0.49300  0.75834  1.0000
  H   H1984     1.0  0.89469  0.42545  0.51032  1.0000
  H   H1985     1.0  0.87953  0.43516  0.56536  1.0000
  C   C1117     1.0  0.98389  0.48752  0.72915  1.0000
  C   C1118     1.0  0.74904  0.31130  0.18754  1.0000
  C   C1119     1.0  0.80109  0.40599  0.00016  1.0000
  C   C1120     1.0  0.80961  0.40622  0.03364  1.0000
  C   C1121     1.0  0.81634  0.42067  0.05300  1.0000
  C   C1122     1.0  0.81495  0.43501  0.03847  1.0000
  C   C1123     1.0  0.80683  0.43486  0.00441  1.0000
  C   C1124     1.0  0.79970  0.42035  0.98563  1.0000
  H   H1986     1.0  0.81068  0.39520  0.04512  1.0000
  H   H1987     1.0  0.82250  0.42067  0.07946  1.0000
  H   H1988     1.0  0.80625  0.44596  0.99242  1.0000
  H   H1989     1.0  0.79337  0.42026  0.95936  1.0000
  C   C1125     1.0  0.84953  0.36937  0.11783  1.0000
  C   C1126     1.0  0.85124  0.36759  0.15863  1.0000
  C   C1127     1.0  0.86557  0.37729  0.17546  1.0000
  C   C1128     1.0  0.87849  0.38873  0.15146  1.0000
  C   C1129     1.0  0.87671  0.39056  0.11073  1.0000
  C   C1130     1.0  0.86223  0.38111  0.09418  1.0000
  H   H1990     1.0  0.84151  0.35853  0.17728  1.0000
  H   H1991     1.0  0.86677  0.37564  0.20675  1.0000
  H   H1992     1.0  0.88662  0.39936  0.09188  1.0000
  H   H1993     1.0  0.86092  0.38273  0.06307  1.0000
  C   C1131     1.0  0.85806  0.36769  0.85015  1.0000
  C   C1132     1.0  0.86506  0.38393  0.85846  1.0000
  C   C1133     1.0  0.87857  0.39433  0.83293  1.0000
  C   C1134     1.0  0.88476  0.38886  0.79771  1.0000
  C   C1135     1.0  0.87712  0.37283  0.78829  1.0000
  C   C1136     1.0  0.86399  0.36231  0.81451  1.0000
  H   H1994     1.0  0.86039  0.38832  0.88519  1.0000
  H   H1995     1.0  0.88443  0.40665  0.84076  1.0000
  H   H1996     1.0  0.88187  0.36831  0.76178  1.0000
  H   H1997     1.0  0.85867  0.34980  0.80758  1.0000
  H   H1998     1.0  0.75551  0.48613  0.97557  1.0000
  C   C1137     1.0  0.75677  0.29097  0.00118  1.0000
  N   N62       1.0  0.75338  0.43875  0.00593  1.0000
  H   H1999     1.0  0.98869  0.49324  0.66663  1.0000
  H   H2000     1.0  0.85325  0.44755  0.38172  1.0000
  H   H2001     1.0  0.78274  0.46965  0.91089  1.0000
  N   N63       1.0  0.85883  0.43706  0.15092  1.0000
  C   C1138     1.0  0.85064  0.42759  0.18941  1.0000
  C   C1139     1.0  0.84959  0.44820  0.14116  1.0000
  C   C1140     1.0  0.85688  0.42515  0.11815  1.0000
  C   C1141     1.0  0.87717  0.44631  0.15234  1.0000
  C   C1142     1.0  0.88274  0.45271  0.19349  1.0000
  C   C1143     1.0  0.85671  0.41350  0.19961  1.0000
  C   C1144     1.0  0.86207  0.43239  0.07472  1.0000
  C   C1145     1.0  0.90058  0.46459  0.18917  1.0000
  C   C1146     1.0  0.86209  0.41939  0.04515  1.0000
  H   H2002     1.0  0.85505  0.45502  0.11230  1.0000
  H   H2003     1.0  0.84370  0.41690  0.11951  1.0000
  H   H2004     1.0  0.86434  0.41727  0.12257  1.0000
  H   H2005     1.0  0.88480  0.43872  0.14294  1.0000
  H   H2006     1.0  0.88140  0.45666  0.13007  1.0000
  H   H2007     1.0  0.88233  0.44262  0.21389  1.0000
  H   H2008     1.0  0.87471  0.45882  0.20864  1.0000
  H   H2009     1.0  0.85081  0.40308  0.18138  1.0000
  H   H2010     1.0  0.87040  0.41691  0.19304  1.0000
  H   H2011     1.0  0.87468  0.44168  0.07191  1.0000
  H   H2012     1.0  0.85309  0.43791  0.06543  1.0000
  H   H2013     1.0  0.86217  0.47035  0.17061  1.0000
  H   H2014     1.0  0.90928  0.45890  0.17484  1.0000
  H   H2015     1.0  0.90153  0.47549  0.17108  1.0000
  H   H2016     1.0  0.90438  0.46834  0.21922  1.0000
  H   H2017     1.0  0.85575  0.39726  0.24902  1.0000
  H   H2018     1.0  0.84980  0.40954  0.04804  1.0000
  H   H2019     1.0  0.86453  0.42469  0.01418  1.0000
  H   H2020     1.0  0.87196  0.41435  0.05032  1.0000
  H   H2021     1.0  0.85839  0.47987  0.76031  1.0000
  N   N64       1.0  0.89064  0.47842  0.76824  1.0000
  C   C1147     1.0  0.88712  0.47894  0.81294  1.0000
  C   C1148     1.0  0.86877  0.47540  0.82967  1.0000
  H   H2022     1.0  0.97874  0.40342  0.36743  1.0000
  S   S267      1.0  0.76679  0.49119  0.05657  1.0000
  C   C1149     1.0  0.86657  0.47337  0.87525  1.0000
  C   C1150     1.0  0.85851  0.49125  0.29978  1.0000
  H   H2023     1.0  0.89204  0.47070  0.82866  1.0000
  H   H2024     1.0  0.76792  0.31743  0.06562  1.0000
  H   H2025     1.0  0.86032  0.46424  0.81819  1.0000
  H   H2026     1.0  0.90000  0.46880  0.56185  1.0000
  H   H2027     1.0  0.88417  0.44668  0.80293  1.0000
  H   H2028     1.0  0.89156  0.48113  0.64612  1.0000
  N   N65       1.0  0.96990  0.42233  0.38985  1.0000
  H   H2029     1.0  0.76498  0.29678  0.18131  1.0000
  C   C1151     1.0  0.98530  0.44984  0.65625  1.0000
  C   C1152     1.0  0.90107  0.48419  0.50979  1.0000
  H   H2030     1.0  0.86908  0.46246  0.88490  1.0000
  H   H2031     1.0  0.87510  0.48405  0.88861  1.0000
  H   H2032     1.0  0.78808  0.45116  0.09172  1.0000
  N   N66       1.0  0.88305  0.36235  0.96440  1.0000
  C   C1153     1.0  0.87865  0.37600  0.94727  1.0000
  C   C1154     1.0  0.87766  0.34819  0.93792  1.0000
  C   C1155     1.0  0.87297  0.35729  0.00472  1.0000
  C   C1156     1.0  0.90135  0.36700  0.96972  1.0000
  C   C1157     1.0  0.91381  0.37979  0.93924  1.0000
  C   C1158     1.0  0.88099  0.39061  0.97422  1.0000
  C   C1159     1.0  0.87429  0.34221  0.02609  1.0000
  C   C1160     1.0  0.88637  0.35052  0.89471  1.0000
  C   C1161     1.0  0.93173  0.38088  0.94305  1.0000
  C   C1162     1.0  0.88252  0.40591  0.95031  1.0000
  C   C1163     1.0  0.86643  0.34012  0.06937  1.0000
  H   H2033     1.0  0.86536  0.37165  0.94116  1.0000
  H   H2034     1.0  0.88572  0.38043  0.91771  1.0000
  H   H2035     1.0  0.88000  0.33766  0.95071  1.0000
  H   H2036     1.0  0.86395  0.34432  0.93640  1.0000
  H   H2037     1.0  0.85951  0.35498  0.00211  1.0000
  H   H2038     1.0  0.87678  0.36721  0.02573  1.0000
  H   H2039     1.0  0.90385  0.37192  0.99975  1.0000
  H   H2040     1.0  0.90505  0.35609  0.96941  1.0000
  H   H2041     1.0  0.91305  0.39188  0.94469  1.0000
  H   H2042     1.0  0.91136  0.37724  0.90792  1.0000
  H   H2043     1.0  0.86999  0.38800  0.99669  1.0000
  H   H2044     1.0  0.89213  0.39307  0.99057  1.0000
  H   H2045     1.0  0.88746  0.34304  0.02626  1.0000
  H   H2046     1.0  0.86751  0.33114  0.01105  1.0000
  H   H2047     1.0  0.89965  0.35181  0.89512  1.0000
  H   H2048     1.0  0.88485  0.33797  0.83936  1.0000
  H   H2049     1.0  0.93499  0.38400  0.97380  1.0000
  H   H2050     1.0  0.93344  0.36928  0.93588  1.0000
  H   H2051     1.0  0.94036  0.39040  0.92175  1.0000
  H   H2052     1.0  0.88536  0.41623  0.97014  1.0000
  H   H2053     1.0  0.89272  0.40861  0.92549  1.0000
  H   H2054     1.0  0.87064  0.40460  0.93797  1.0000
  H   H2055     1.0  0.87257  0.35082  0.08649  1.0000
  H   H2056     1.0  0.85295  0.33826  0.07039  1.0000
  H   H2057     1.0  0.86778  0.32941  0.08401  1.0000
  H   H2058     1.0  0.88010  0.40528  0.52030  1.0000
  C   C1164     1.0  0.89653  0.44734  0.43747  1.0000
  H   H2059     1.0  0.96723  0.46603  0.34925  1.0000
  C   C1165     1.0  0.74578  0.32059  0.09142  1.0000
  H   H2060     1.0  0.85358  0.47204  0.88665  1.0000
  H   H2061     1.0  0.79426  0.32203  0.08470  1.0000
  H   H2062     1.0  0.86386  0.40111  0.38071  1.0000
  H   H2063     1.0  0.79104  0.45537  0.88769  1.0000
  H   H2064     1.0  0.86503  0.41482  0.57548  1.0000
  C   C1166     1.0  0.76242  0.31788  0.09673  1.0000
  H   H2065     1.0  0.85183  0.37313  0.40842  1.0000
  H   H2066     1.0  0.87875  0.39815  0.45905  1.0000
  H   H2067     1.0  0.81938  0.31486  0.08219  1.0000
  C   C1167     1.0  0.74892  0.33678  0.06977  1.0000
  H   H2068     1.0  0.91823  0.45211  0.39398  1.0000
  H   H2069     1.0  0.91941  0.46797  0.42773  1.0000
  H   H2070     1.0  0.97446  0.45470  0.40919  1.0000
  H   H2071     1.0  0.93919  0.48146  0.32579  1.0000
  H   H2072     1.0  0.78551  0.44991  0.95991  1.0000
  H   H2073     1.0  0.88457  0.46232  0.71988  1.0000
  H   H2074     1.0  0.84131  0.45332  0.42198  1.0000
  H   H2075     1.0  0.89901  0.42398  0.44455  1.0000
  H   H2076     1.0  0.76486  0.42061  0.99651  1.0000
  H   H2077     1.0  0.75316  0.26812  0.12479  1.0000
  H   H2078     1.0  0.90399  0.47925  0.48082  1.0000
  H   H2079     1.0  0.77271  0.44499  0.13453  1.0000
  H   H2080     1.0  0.75566  0.33729  0.03961  1.0000
  C   C1168     1.0  0.87129  0.39674  0.40010  1.0000
  C   C1169     1.0  0.84525  0.44332  0.41040  1.0000
  H   H2081     1.0  0.94853  0.40037  0.50306  1.0000
  H   H2082     1.0  0.89038  0.45318  0.41792  1.0000
  H   H2083     1.0  0.84638  0.43433  0.46907  1.0000
  H   H2084     1.0  0.85662  0.41445  0.50434  1.0000
  H   H2085     1.0  0.91707  0.46023  0.51186  1.0000
  C   C1170     1.0  0.88152  0.41822  0.52006  1.0000
  H   H2086     1.0  0.77453  0.46264  0.10473  1.0000
  C   C1171     1.0  0.85480  0.43821  0.44085  1.0000
  H   H2087     1.0  0.75635  0.39712  0.95514  1.0000
  C   C1172     1.0  0.75118  0.31261  0.23208  1.0000
  H   H2088     1.0  0.75059  0.30087  0.24542  1.0000
  H   H2089     1.0  0.87036  0.43454  0.49865  1.0000
  C   C1173     1.0  0.75897  0.44776  0.96581  1.0000
  H   H2090     1.0  0.92223  0.44975  0.44490  1.0000
  H   H2091     1.0  0.88043  0.42210  0.76567  1.0000
  C   C1174     1.0  0.96830  0.47257  0.72909  1.0000
  N   N67       1.0  0.76160  0.30314  0.12130  1.0000
  H   H2092     1.0  0.94552  0.45487  0.36251  1.0000
  N   N68       1.0  0.87266  0.41971  0.44876  1.0000
  H   H2093     1.0  0.76329  0.32190  0.23680  1.0000
  H   H2094     1.0  0.86538  0.42692  0.39377  1.0000
  H   H2095     1.0  0.93865  0.38493  0.46959  1.0000
  H   H2096     1.0  0.88550  0.36113  0.87870  1.0000
  H   H2097     1.0  0.89415  0.45024  0.46885  1.0000
  H   H2098     1.0  0.86761  0.37499  0.36739  1.0000
  C   C1175     1.0  0.87858  0.33586  0.87037  1.0000
  H   H2099     1.0  0.87997  0.32493  0.88375  1.0000
  H   H2100     1.0  0.97046  0.42541  0.25902  1.0000
  C   C1176     1.0  0.90961  0.47854  0.54287  1.0000
  H   H2101     1.0  0.75635  0.34683  0.08709  1.0000
  H   H2102     1.0  0.83643  0.44102  0.13698  1.0000
  H   H2103     1.0  0.97523  0.42870  0.69553  1.0000
  H   H2104     1.0  0.77858  0.44574  0.02291  1.0000
  H   H2105     1.0  0.94964  0.42763  0.36648  1.0000
  H   H2106     1.0  0.94567  0.40831  0.41882  1.0000
  H   H2107     1.0  0.95283  0.44383  0.42479  1.0000
  H   H2108     1.0  0.85211  0.43546  0.21520  1.0000
  H   H2109     1.0  0.93233  0.48032  0.50447  1.0000
  C   C1177     1.0  0.85198  0.40786  0.24353  1.0000
  H   H2110     1.0  0.82505  0.46213  0.16070  1.0000
  H   H2111     1.0  0.85852  0.41754  0.26304  1.0000
  H   H2112     1.0  0.91359  0.47453  0.77827  1.0000
  C   C1178     1.0  0.76636  0.44674  0.03359  1.0000
  H   H2113     1.0  0.97804  0.41723  0.33037  1.0000
  C   C1179     1.0  0.95759  0.46059  0.37467  1.0000
  H   H2114     1.0  0.86626  0.47805  0.71007  1.0000
  H   H2115     1.0  0.95119  0.48712  0.64317  1.0000
  C   C1180     1.0  0.77976  0.45678  0.90393  1.0000
  C   C1181     1.0  0.87191  0.48640  0.27544  1.0000
  C   C1182     1.0  0.95061  0.39175  0.48115  1.0000
  C   C1183     1.0  0.96270  0.43397  0.37243  1.0000
  C   C1184     1.0  0.95865  0.41376  0.42628  1.0000
  C   C1185     1.0  0.96226  0.44824  0.39846  1.0000
  C   C1186     1.0  0.98704  0.43092  0.40196  1.0000
  C   C1187     1.0  0.84947  0.46132  0.17114  1.0000
  H   H2116     1.0  0.83692  0.42229  0.18835  1.0000
  H   H2117     1.0  0.84861  0.41367  0.42564  1.0000
  C   C1188     1.0  0.77476  0.44618  0.94238  1.0000
  H   H2118     1.0  0.79711  0.31532  0.13307  1.0000
  H   H2119     1.0  0.77256  0.43357  0.93400  1.0000
  H   H2120     1.0  0.80451  0.30160  0.05266  1.0000
  H   H2121     1.0  0.95812  0.42246  0.44957  1.0000
  H   H2122     1.0  0.95690  0.47573  0.73567  1.0000
  H   H2123     1.0  0.86515  0.33375  0.86891  1.0000
  H   H2124     1.0  0.74837  0.29480  0.89847  1.0000
  C   C1189     1.0  0.88670  0.44792  0.76992  1.0000
  H   H2125     1.0  0.76844  0.45988  0.03397  1.0000
  C   C1190     1.0  0.96356  0.40046  0.44663  1.0000
  H   H2126     1.0  0.96938  0.43890  0.34264  1.0000
  C   C1191     1.0  0.77529  0.45036  0.10362  1.0000
  C   C1192     1.0  0.97116  0.41061  0.35843  1.0000
  C   C1193     1.0  0.97804  0.45107  0.26364  1.0000
  H   H2127     1.0  0.90004  0.44973  0.76134  1.0000
  C   C1194     1.0  0.83816  0.47039  0.15948  1.0000
  C   C1195     1.0  0.98081  0.43641  0.26130  1.0000
  H   H2128     1.0  0.95490  0.38305  0.49689  1.0000
  H   H2129     1.0  0.85717  0.39464  0.45839  1.0000
  H   H2130     1.0  0.88450  0.40144  0.38708  1.0000
  C   C1196     1.0  0.77613  0.29808  0.10582  1.0000
  C   C1197     1.0  0.95726  0.38835  0.31297  1.0000
  H   H2131     1.0  0.94744  0.39046  0.37265  1.0000
  C   C1198     1.0  0.86039  0.42413  0.42578  1.0000
  H   H2132     1.0  0.83833  0.40430  0.25134  1.0000
  C   C1199     1.0  0.86779  0.48621  0.73546  1.0000
  C   C1200     1.0  0.91525  0.45470  0.42537  1.0000
  C   C1201     1.0  0.75222  0.42139  0.00357  1.0000
  C   C1202     1.0  0.92291  0.47171  0.52628  1.0000
  H   H2133     1.0  0.91202  0.47899  0.72750  1.0000
  C   C1203     1.0  0.95441  0.39873  0.34698  1.0000
  H   H2134     1.0  0.96458  0.39126  0.42540  1.0000
  H   H2135     1.0  0.77481  0.31734  0.16729  1.0000
  H   H2136     1.0  0.86540  0.44893  0.44683  1.0000
  H   H2137     1.0  0.83871  0.48016  0.18033  1.0000
  C   C1204     1.0  0.87788  0.42220  0.56323  1.0000
  H   H2138     1.0  0.88754  0.47789  0.51716  1.0000
  H   H2139     1.0  0.87196  0.48665  0.48562  1.0000
  H   H2140     1.0  0.97564  0.40575  0.45900  1.0000
  H   H2141     1.0  0.77427  0.29314  0.07566  1.0000
  H   H2142     1.0  0.84493  0.45620  0.20195  1.0000
  H   H2143     1.0  0.75010  0.43954  0.09095  1.0000
  C   C1205     1.0  0.90352  0.48754  0.36145  1.0000
  C   C1206     1.0  0.75356  0.27433  0.00731  1.0000
  H   H2144     1.0  0.77691  0.28813  0.12506  1.0000
  H   H2145     1.0  0.88669  0.41954  0.58183  1.0000
  H   H2146     1.0  0.83398  0.43310  0.40479  1.0000
  C   C1207     1.0  0.86959  0.42202  0.49288  1.0000
  H   H2147     1.0  0.96485  0.38117  0.32184  1.0000
  H   H2148     1.0  0.77098  0.32898  0.10874  1.0000
  H   H2149     1.0  0.76961  0.45329  0.88415  1.0000
  C   C1208     1.0  0.76256  0.43996  0.07759  1.0000
  H   H2150     1.0  0.89196  0.42757  0.39912  1.0000
  H   H2151     1.0  0.84220  0.47590  0.12873  1.0000
  C   C1209     1.0  0.86535  0.37842  0.39851  1.0000
  H   H2152     1.0  0.80748  0.29468  0.10130  1.0000
  C   C1210     1.0  0.86973  0.40201  0.44379  1.0000
  C   C1211     1.0  0.79366  0.31135  0.10300  1.0000
  H   H2153     1.0  0.98198  0.42606  0.56135  1.0000
  S   S268      1.0  0.80843  0.48845  0.08914  1.0000
  C   C1212     1.0  0.76328  0.30692  0.16460  1.0000
  H   H2154     1.0  0.74525  0.30887  0.99563  1.0000
  C   C1213     1.0  0.98585  0.43945  0.68723  1.0000
  H   H2155     1.0  0.86488  0.48572  0.82185  1.0000
  H   H2156     1.0  0.96834  0.46355  0.75222  1.0000
  C   C1214     1.0  0.80703  0.30516  0.08363  1.0000
  C   C1215     1.0  0.90917  0.48211  0.75876  1.0000
  H   H2157     1.0  0.87018  0.47362  0.28279  1.0000
  H   H2158     1.0  0.87115  0.48777  0.24292  1.0000
  H   H2159     1.0  0.97672  0.43111  0.51378  1.0000
  H   H2160     1.0  0.98958  0.47667  0.26678  1.0000
  C   C1216     1.0  0.92058  0.49046  0.35316  1.0000
  C   C1217     1.0  0.88589  0.49107  0.74680  1.0000
  H   H2161     1.0  0.74757  0.41494  0.03316  1.0000
  H   H2162     1.0  0.76109  0.46079  0.96960  1.0000
  H   H2163     1.0  0.76319  0.42765  0.07933  1.0000
  C   C1218     1.0  0.74741  0.48886  0.03666  1.0000
  H   H2164     1.0  0.99282  0.42204  0.41059  1.0000
  H   H2165     1.0  0.98637  0.43776  0.42927  1.0000
  C   C1219     1.0  0.98669  0.42900  0.52924  1.0000
  H   H2166     1.0  0.74931  0.32323  0.17640  1.0000
  H   H2167     1.0  0.87376  0.49400  0.55228  1.0000
  Fe  Fe134     1.0  0.79457  0.49387  0.03990  1.0000
  H   H2168     1.0  0.81045  0.49106  0.21337  1.0000
  H   H2169     1.0  0.80697  0.48067  0.26148  1.0000
  H   H2170     1.0  0.85970  0.48942  0.33186  1.0000
  H   H2171     1.0  0.98943  0.41860  0.51614  1.0000
  H   H2172     1.0  0.88697  0.48918  0.58383  1.0000
  H   H2173     1.0  0.91517  0.48824  0.56314  1.0000
  C   C1220     1.0  0.99160  0.46529  0.26591  1.0000
  H   H2174     1.0  0.84625  0.48298  0.29281  1.0000
  C   C1221     1.0  0.74515  0.48631  0.99627  1.0000
  C   C1222     1.0  0.81110  0.49272  0.24594  1.0000
  H   H2175     1.0  0.82607  0.49293  0.31444  1.0000
  H   H2176     1.0  0.93780  0.49363  0.21975  1.0000
  H   H2177     1.0  0.88452  0.49398  0.28242  1.0000
  H   H2178     1.0  0.74429  0.27437  0.16987  1.0000
  H   H2179     1.0  0.74407  0.26718  0.87495  1.0000
  H   H2180     1.0  0.98964  0.49443  0.37816  1.0000
  C   C1223     1.0  0.74582  0.28938  0.11591  1.0000
  H   H2181     1.0  0.95880  0.49437  0.26433  1.0000
  H   H2182     1.0  0.74508  0.28717  0.08353  1.0000
  Fe  Fe135     1.0  0.94497  0.57040  0.69762  1.0000
  S   S269      1.0  0.91805  0.56796  0.71475  1.0000
  S   S270      1.0  0.96695  0.59360  0.69975  1.0000
  Fe  Fe136     1.0  0.93582  0.53575  0.67565  1.0000
  S   S271      1.0  0.90846  0.53043  0.69146  1.0000
  Fe  Fe137     1.0  0.91328  0.55401  0.65824  1.0000
  S   S272      1.0  0.89430  0.55443  0.61573  1.0000
  Fe  Fe138     1.0  0.91530  0.54432  0.74622  1.0000
  S   S273      1.0  0.90530  0.53291  0.80945  1.0000
  S   S274      1.0  0.94022  0.55836  0.63927  1.0000
  S   S275      1.0  0.94259  0.54796  0.73242  1.0000
  Fe  Fe139     1.0  0.90963  0.54030  0.28634  1.0000
  S   S276      1.0  0.93656  0.54274  0.28994  1.0000
  S   S277      1.0  0.89798  0.52808  0.23065  1.0000
  Fe  Fe140     1.0  0.90562  0.54782  0.37672  1.0000
  S   S278      1.0  0.93179  0.55049  0.38531  1.0000
  S   S279      1.0  0.88664  0.54732  0.42888  1.0000
  Fe  Fe141     1.0  0.93828  0.56432  0.32630  1.0000
  S   S280      1.0  0.95949  0.58803  0.32597  1.0000
  Fe  Fe142     1.0  0.92751  0.52887  0.34868  1.0000
  S   S281      1.0  0.91197  0.56310  0.31924  1.0000
  S   S282      1.0  0.90081  0.52512  0.34353  1.0000
  C   C1224     1.0  0.89363  0.55242  0.56322  1.0000
  C   C1225     1.0  0.87806  0.54878  0.54891  1.0000
  C   C1226     1.0  0.87634  0.54715  0.50803  1.0000
  C   C1227     1.0  0.89018  0.54935  0.48018  1.0000
  C   C1228     1.0  0.90595  0.55307  0.49404  1.0000
  C   C1229     1.0  0.90767  0.55452  0.53559  1.0000
  H   H2183     1.0  0.86717  0.54726  0.56974  1.0000
  H   H2184     1.0  0.86415  0.54441  0.49792  1.0000
  H   H2185     1.0  0.91680  0.55514  0.47280  1.0000
  H   H2186     1.0  0.91981  0.55759  0.54613  1.0000
  C   C1230     1.0  0.87896  0.53189  0.01135  1.0000
  H   H2187     1.0  0.83384  0.54601  0.94636  1.0000
  C   C1231     1.0  0.99031  0.52269  0.62460  1.0000
  H   H2188     1.0  0.91356  0.56597  0.09252  1.0000
  H   H2189     1.0  0.98533  0.53237  0.63337  1.0000
  H   H2190     1.0  0.88646  0.57096  0.93114  1.0000
  Fe  Fe143     1.0  0.82625  0.50250  0.97953  1.0000
  H   H2191     1.0  0.89930  0.49618  0.37702  1.0000
  H   H2192     1.0  0.97939  0.56736  0.71339  1.0000
  H   H2193     1.0  0.90089  0.53199  0.04098  1.0000
  H   H2194     1.0  0.93412  0.50331  0.26473  1.0000
  C   C1232     1.0  0.90188  0.56882  0.09557  1.0000
  H   H2195     1.0  0.85055  0.52505  0.43140  1.0000
  C   C1233     1.0  0.98017  0.58867  0.31514  1.0000
  H   H2196     1.0  0.99377  0.61211  0.51309  1.0000
  C   C1234     1.0  0.88616  0.50761  0.03218  1.0000
  H   H2197     1.0  0.88670  0.54202  0.93686  1.0000
  H   H2198     1.0  0.97708  0.55232  0.39984  1.0000
  H   H2199     1.0  0.97516  0.57322  0.26552  1.0000
  H   H2200     1.0  0.87022  0.52943  0.03924  1.0000
  C   C1235     1.0  0.88331  0.52879  0.19707  1.0000
  C   C1236     1.0  0.87719  0.51577  0.17231  1.0000
  C   C1237     1.0  0.86532  0.51556  0.14581  1.0000
  C   C1238     1.0  0.85947  0.52846  0.14339  1.0000
  C   C1239     1.0  0.87739  0.54164  0.19480  1.0000
  H   H2201     1.0  0.98818  0.60083  0.20097  1.0000
  C   C1240     1.0  0.96012  0.50578  0.24810  1.0000
  H   H2202     1.0  0.88212  0.55184  0.21308  1.0000
  C   C1241     1.0  0.88532  0.52674  0.83742  1.0000
  C   C1242     1.0  0.87157  0.52914  0.82306  1.0000
  H   H2203     1.0  0.86084  0.50551  0.12693  1.0000
  C   C1243     1.0  0.85412  0.51701  0.88525  1.0000
  C   C1244     1.0  0.86783  0.51444  0.89943  1.0000
  C   C1245     1.0  0.88332  0.51930  0.87566  1.0000
  H   H2204     1.0  0.87289  0.53488  0.79381  1.0000
  H   H2205     1.0  0.97278  0.49960  0.69001  1.0000
  H   H2206     1.0  0.87609  0.51269  0.42091  1.0000
  H   H2207     1.0  0.91861  0.50787  0.73993  1.0000
  H   H2208     1.0  0.89029  0.51517  0.61894  1.0000
  H   H2209     1.0  0.91300  0.50812  0.64555  1.0000
  H   H2210     1.0  0.90029  0.51869  0.46353  1.0000
  H   H2211     1.0  0.94193  0.49669  0.72865  1.0000
  C   C1246     1.0  0.96716  0.52040  0.27441  1.0000
  H   H2212     1.0  0.99086  0.53134  0.22196  1.0000
  C   C1247     1.0  0.91663  0.49771  0.64600  1.0000
  H   H2213     1.0  0.96629  0.61823  0.58586  1.0000
  H   H2214     1.0  0.92755  0.53415  0.51181  1.0000
  C   C1248     1.0  0.88462  0.49928  0.56903  1.0000
  C   C1249     1.0  0.84752  0.51384  0.35423  1.0000
  C   C1250     1.0  0.98581  0.55257  0.37306  1.0000
  H   H2215     1.0  0.95545  0.53109  0.50424  1.0000
  H   H2216     1.0  0.87550  0.51846  0.58837  1.0000
  H   H2217     1.0  0.86189  0.51099  0.25712  1.0000
  S   S283      1.0  0.83433  0.51137  0.91403  1.0000
  H   H2218     1.0  0.86130  0.55159  0.16634  1.0000
  C   C1251     1.0  0.98668  0.59316  0.70956  1.0000
  H   H2219     1.0  0.87167  0.52423  0.98889  1.0000
  H   H2220     1.0  0.97200  0.63718  0.60990  1.0000
  H   H2221     1.0  0.86047  0.51875  0.36269  1.0000
  H   H2222     1.0  0.90118  0.50070  0.44236  1.0000
  H   H2223     1.0  0.93062  0.50676  0.51718  1.0000
  H   H2224     1.0  0.96988  0.61907  0.63801  1.0000
  S   S284      1.0  0.93508  0.50823  0.36773  1.0000
  H   H2225     1.0  0.83694  0.49569  0.24097  1.0000
  N   N69       1.0  0.84745  0.51500  0.30949  1.0000
  H   H2226     1.0  0.97362  0.51306  0.76554  1.0000
  C   C1252     1.0  0.87062  0.50034  0.43471  1.0000
  H   H2227     1.0  0.91819  0.56559  0.89387  1.0000
  N   N70       1.0  0.98469  0.52374  0.28488  1.0000
  H   H2228     1.0  0.83240  0.50691  0.43325  1.0000
  C   C1253     1.0  0.83753  0.51987  0.42383  1.0000
  H   H2229     1.0  0.97450  0.50558  0.33315  1.0000
  Fe  Fe144     1.0  0.83023  0.51040  0.06767  1.0000
  H   H2230     1.0  0.86647  0.50863  0.92856  1.0000
  H   H2231     1.0  0.89680  0.56703  0.12756  1.0000
  C   C1254     1.0  0.88913  0.55777  0.07049  1.0000
  C   C1255     1.0  0.86560  0.54147  0.16812  1.0000
  S   S285      1.0  0.84517  0.52931  0.10899  1.0000
  C   C1256     1.0  0.83684  0.52217  0.37906  1.0000
  H   H2232     1.0  0.90571  0.54947  0.95778  1.0000
  H   H2233     1.0  0.87787  0.50600  0.06052  1.0000
  S   S286      1.0  0.84195  0.49736  0.02393  1.0000
  C   C1257     1.0  0.98919  0.52719  0.71370  1.0000
  C   C1258     1.0  0.84296  0.55288  0.96662  1.0000
  C   C1259     1.0  0.85112  0.53215  0.29471  1.0000
  H   H2234     1.0  0.88856  0.50213  0.76439  1.0000
  N   N71       1.0  0.88436  0.54937  0.99778  1.0000
  H   H2235     1.0  0.89866  0.52117  0.53384  1.0000
  C   C1260     1.0  0.86748  0.54468  0.30630  1.0000
  C   C1261     1.0  0.98948  0.57863  0.71468  1.0000
  H   H2236     1.0  0.90627  0.57769  0.95109  1.0000
  H   H2237     1.0  0.86470  0.50928  0.74720  1.0000
  C   C1262     1.0  0.86830  0.56179  0.29581  1.0000
  H   H2238     1.0  0.86169  0.55129  0.02770  1.0000
  H   H2239     1.0  0.85692  0.49721  0.43979  1.0000
  H   H2240     1.0  0.90963  0.58027  0.87755  1.0000
  H   H2241     1.0  0.85211  0.53297  0.26154  1.0000
  H   H2242     1.0  0.94345  0.51524  0.21912  1.0000
  C   C1263     1.0  0.90039  0.50966  0.54192  1.0000
  H   H2243     1.0  0.90133  0.52622  0.98986  1.0000
  C   C1264     1.0  0.98494  0.50931  0.30873  1.0000
  H   H2244     1.0  0.95385  0.52814  0.45126  1.0000
  H   H2245     1.0  0.89820  0.55918  0.87427  1.0000
  H   H2246     1.0  0.87839  0.54276  0.28965  1.0000
  C   C1265     1.0  0.94990  0.53385  0.47783  1.0000
  C   C1266     1.0  0.98431  0.52439  0.75940  1.0000
  H   H2247     1.0  0.84556  0.52630  0.83548  1.0000
  C   C1267     1.0  0.99205  0.61416  0.19824  1.0000
  H   H2248     1.0  0.86924  0.50118  0.62252  1.0000
  H   H2249     1.0  0.87260  0.56736  0.99297  1.0000
  C   C1268     1.0  0.89574  0.56000  0.02543  1.0000
  H   H2250     1.0  0.96965  0.54026  0.76018  1.0000
  H   H2251     1.0  0.88039  0.57051  0.30269  1.0000
  H   H2252     1.0  0.86718  0.56328  0.26353  1.0000
  H   H2253     1.0  0.85818  0.56465  0.31370  1.0000
  S   S287      1.0  0.94809  0.51823  0.65351  1.0000
  C   C1269     1.0  0.97801  0.53820  0.34787  1.0000
  S   S288      1.0  0.81569  0.51709  0.02196  1.0000
  C   C1270     1.0  0.89315  0.52532  0.01802  1.0000
  H   H2254     1.0  0.84820  0.56563  0.95531  1.0000
  H   H2255     1.0  0.86874  0.54401  0.33865  1.0000
  C   C1271     1.0  0.92373  0.50940  0.49330  1.0000
  C   C1272     1.0  0.89675  0.50554  0.46986  1.0000
  H   H2256     1.0  0.95829  0.51800  0.30178  1.0000
  C   C1273     1.0  0.97402  0.62545  0.60823  1.0000
  C   C1274     1.0  0.82894  0.50242  0.25339  1.0000
  H   H2257     1.0  0.87754  0.56068  0.07586  1.0000
  H   H2258     1.0  0.90468  0.58163  0.08630  1.0000
  C   C1275     1.0  0.93092  0.52791  0.48570  1.0000
  H   H2259     1.0  0.90810  0.55840  0.02217  1.0000
  H   H2260     1.0  0.99006  0.54922  0.77659  1.0000
  C   C1276     1.0  0.90650  0.56823  0.89259  1.0000
  H   H2261     1.0  0.92745  0.50389  0.46591  1.0000
  H   H2262     1.0  0.95464  0.54709  0.47185  1.0000
  C   C1277     1.0  0.86907  0.55411  0.99782  1.0000
  H   H2263     1.0  0.98253  0.49871  0.28978  1.0000
  H   H2264     1.0  0.87905  0.50018  0.00915  1.0000
  H   H2265     1.0  0.85081  0.53271  0.97614  1.0000
  C   C1278     1.0  0.99246  0.62826  0.59645  1.0000
  H   H2266     1.0  0.91800  0.50434  0.79267  1.0000
  H   H2267     1.0  0.84140  0.53532  0.37202  1.0000
  H   H2268     1.0  0.97585  0.52716  0.36652  1.0000
  C   C1279     1.0  0.93881  0.50148  0.75754  1.0000
  H   H2269     1.0  0.84058  0.53631  0.30464  1.0000
  H   H2270     1.0  0.99257  0.60683  0.62545  1.0000
  C   C1280     1.0  0.98547  0.49935  0.69343  1.0000
  H   H2271     1.0  0.87303  0.51632  0.29889  1.0000
  H   H2272     1.0  0.89652  0.50330  0.03756  1.0000
  H   H2273     1.0  0.83631  0.55221  0.99692  1.0000
  H   H2274     1.0  0.83257  0.51405  0.23609  1.0000
  C   C1281     1.0  0.89782  0.56803  0.93458  1.0000
  C   C1282     1.0  0.85609  0.52428  0.84684  1.0000
  H   H2275     1.0  0.88167  0.50576  0.17365  1.0000
  H   H2276     1.0  0.92633  0.53159  0.45899  1.0000
  H   H2277     1.0  0.86292  0.54679  0.93661  1.0000
  C   C1283     1.0  0.85676  0.54567  0.96749  1.0000
  H   H2278     1.0  0.88648  0.54528  0.08197  1.0000
  H   H2279     1.0  0.89842  0.57288  0.01690  1.0000
  C   C1284     1.0  0.89364  0.55142  0.95654  1.0000
  H   H2280     1.0  0.98904  0.54912  0.28967  1.0000
  H   H2281     1.0  0.82111  0.51059  0.30946  1.0000
  H   H2282     1.0  0.98628  0.60373  0.57712  1.0000
  C   C1285     1.0  0.83045  0.50499  0.29871  1.0000
  C   C1286     1.0  0.87967  0.50915  0.60168  1.0000
  C   C1287     1.0  0.92047  0.49982  0.76302  1.0000
  H   H2283     1.0  0.96624  0.53124  0.25904  1.0000
  H   H2284     1.0  0.94646  0.51440  0.75743  1.0000
  H   H2285     1.0  0.89386  0.51732  0.88700  1.0000
  C   C1288     1.0  0.86068  0.50907  0.29004  1.0000
  N   N72       1.0  0.90514  0.50214  0.50463  1.0000
  H   H2286     1.0  0.91070  0.51312  0.56147  1.0000
  H   H2287     1.0  0.97374  0.53473  0.80866  1.0000
  C   C1289     1.0  0.94283  0.50447  0.23731  1.0000
  H   H2288     1.0  0.97749  0.52588  0.70021  1.0000
  H   H2289     1.0  0.96827  0.50678  0.21985  1.0000
  H   H2290     1.0  0.97980  0.51110  0.62665  1.0000
  C   C1290     1.0  0.98466  0.58076  0.28263  1.0000
  C   C1291     1.0  0.87746  0.49935  0.47451  1.0000
  H   H2291     1.0  0.87255  0.50744  0.69629  1.0000
  C   C1292     1.0  0.99260  0.59868  0.33674  1.0000
  C   C1293     1.0  0.86381  0.50095  0.72233  1.0000
  C   C1294     1.0  0.98927  0.53879  0.30850  1.0000
  C   C1295     1.0  0.93336  0.49941  0.64671  1.0000
  H   H2292     1.0  0.96579  0.53870  0.34112  1.0000
  H   H2293     1.0  0.98839  0.56403  0.35568  1.0000
  H   H2294     1.0  0.98779  0.52714  0.56253  1.0000
  H   H2295     1.0  0.98916  0.60486  0.36184  1.0000
  C   C1296     1.0  0.97912  0.53800  0.77712  1.0000
  H   H2296     1.0  0.98068  0.61751  0.20229  1.0000
  H   H2297     1.0  0.82362  0.51714  0.37314  1.0000
  H   H2298     1.0  0.83002  0.52617  0.44083  1.0000
  H   H2299     1.0  0.84291  0.50101  0.36510  1.0000
  H   H2300     1.0  0.80251  0.49916  0.25642  1.0000
  H   H2301     1.0  0.85095  0.49714  0.71360  1.0000
  H   H2302     1.0  0.87297  0.50701  0.49536  1.0000
  H   H2303     1.0  0.89373  0.49490  0.71772  1.0000
  H   H2304     1.0  0.94185  0.49497  0.78233  1.0000
