data_image0
_chemical_formula_structural       FeHSH2CH2CSFeS2FeS2FeSFeS3FeS2FeS2FeSFeS3HC2H2C6H6C3H2C6H4CHCH2CH2CHC2H4NC3HC2HC2HC2H6CHC2H5CH3CHCH2CHC2H2CH3C2H8C3HCH2CH2C2SH2C2H5CHCH8CHC2H4C2HCHSH4C2H5C2H8CH3CH4C3HCNHNH2C2H4CH7C2H2CNCHCH2C3H2CH3CH4CH4C2SFeS2FeS2FeSFeS3FeS2FeS2FeSFeS3C3H3C2H2CH9C6H4C3HC7H5CHC2H3C2HNH2NC2HSCH2C2H11CHC2H5CH3NH3CH2CH3CH6NC12H25CNC2H6SFeC5FeC2HC2H11CH3CH3CHCHC2H3C3H2SCH6CH2C5H6CH5CHC2HCHNHFeH4CH2CHSHCHSHFeS2FeS2FeSFeS3FeS2FeS2FeSFeS3H2CH3CHCHC6H5CH2CHCHCHCHC7H4C3HCHCHC2HCH4CH5CH6CHCH2CHCHCNCHFeC2H2CH2NC12H28NHC3HCH3CH2C2H2CH3CHCH3CH4CH11C2H2CHC2H2C2H2C2HNCH3CNCH6CHC3H2CHCHCHCH2C2HNC2H8CHCH2C2HCH4NH2CH2C2H2C2HCHSH2SFeS2FeS2FeSFeS3FeS2FeS2FeSFeS3H4C3HFeHCH5CH2C8H5C6H7CHC3H4C2SHC2H2CHCH5CHCH10CHCHCH2NH2C2NC2H2C2H3CH2CH2FeCH3CH4CHCHCHC3H2CHCH4C2HCH4C4H11SCHC2H2CHCHCH3C3H3C2H5CH2CH2CHCHCH3CH3CH3NH3NH2CH5CHCFeCHCH4CH2SCH7CHSH4CHFeSHFeHFeNCSFeSC3HC5H2FeH2CHCHCHCHC2SH2SHCHCSH2CHCSCSH2C2SH4CH4C2H2CH3FeSHCH4CH3SH3CH4SH3CH2CH4SH4C4HCH4CHCH5C2HCSHCHFeC3HC2H7CH2CH3CH5CHFeCH2NH3CSC2H3CSNH5CHCNCH4C2HCH2CHSH2FeSH3CSHCH2CH3CH3CSCH2CH2CH3CNC12H21CH3CH2FeHC2H4CH4CHFeCS3HSFeH2FeHC4HCH2CHCHFeHSHSCHC2HCH6SC3H2FeCHCH2CH5C2H3NCH2CSC3H6SHSH6CHFeCSCHC2SFeHSFeH2FeSFeS2FeS2FeSFeS3FeSHFeS2FeSFeS3C6H6CHC2H3SHC3H3C2H4CHC7H6CHNSNC12H30CH3CH3C2H2CNH2C3HC3HC3H4SH4C2HCH4CHC3H3CH4CH4CHCH5C3HCHCH3NHS2NHCHCH2CHCH3C3H5CHCH2C2H5C2HCH4CH8C2HCHCH2C4H3C2H2CH5CHC2H5CH3CH3CH2C2HCH4C3HSFeS2FeS2FeSFeS3FeS2FeS2FeSFeHS2C3HC3H2C6H6NC2H6C3H4SH2C6H6C4H5CH7NH2NC9H2CH11CH8CH2C3H2C2H5C3H11CHC2H6CHC3HCNCHCH2C2H3CH4C3HCHC3HC2H4SC2H3NH3CFeH3CH3C2H2C3H4CH2CHC2H3C3H3CH2NH2CHCH3CH3CH9CNH6CHCH2CH11CHC3H7SFeSFeS2FeS2FeSFeS3FeS2FeS2FeSFeS3HCHCHC6H4C2H8C4HC6H6SCH3C2H3CH2CH2C2H2CH3NC2H4CHCH2CH8NC3HC5HC2H6CSHSH18CH3C2HCH2C3HCH4C2H2CH5NCHCH5CH2NH6NHCH2C3H3C2H6FeC3H4CHCHCH4CHCHCH8CHC2H2C2H2C2H2CHCHC3HCH5FeHSHCH6SC2SH2SFeS2FeS2FeSFeS3FeS2FeSFe2SFeS3CHCH2C3H2C6H4C2H5C9H5C3H7NC12H16C2H11CHCNC6HC2HCH10CH3NH11CH2CH4C4H5CHCHCHCH6CHCHCHCHCH7C2H3CH5C2H2CH7CH2CH2C5HNHC2H2CH5CH3C2HC2H2CH3CHC2H3CH2
_chemical_formula_sum              "Fe96 H1536 S192 C864 N48"
_cell_length_a       61.7169
_cell_length_b       61.8063
_cell_length_c       34.3082
_cell_angle_alpha    92.0371
_cell_angle_beta     91.9083
_cell_angle_gamma    88.0059

_space_group_name_H-M_alt    "P 1"
_space_group_IT_number       1

loop_
  _space_group_symop_operation_xyz
  'x, y, z'

loop_
  _atom_site_type_symbol
  _atom_site_label
  _atom_site_symmetry_multiplicity
  _atom_site_fract_x
  _atom_site_fract_y
  _atom_site_fract_z
  _atom_site_occupancy
  Fe  Fe1       1.0  0.07135  0.39621  0.02829  1.0000
  H   H1        1.0  0.00792  0.30148  0.29270  1.0000
  S   S1        1.0  0.07230  0.36619  0.06668  1.0000
  H   H2        1.0  0.03831  0.34312  0.40787  1.0000
  H   H3        1.0  0.32263  0.06388  0.12201  1.0000
  C   C1        1.0  0.00561  0.25158  0.27348  1.0000
  H   H4        1.0  0.99923  0.32954  0.30087  1.0000
  H   H5        1.0  0.15114  0.26986  0.41350  1.0000
  C   C2        1.0  0.05217  0.34390  0.46566  1.0000
  S   S2        1.0  0.05223  0.42803  0.03169  1.0000
  Fe  Fe2       1.0  0.07921  0.27429  0.34133  1.0000
  S   S3        1.0  0.07981  0.24327  0.30492  1.0000
  S   S4        1.0  0.07180  0.26524  0.40361  1.0000
  Fe  Fe3       1.0  0.08399  0.30170  0.26683  1.0000
  S   S5        1.0  0.08540  0.27205  0.22732  1.0000
  S   S6        1.0  0.08346  0.33621  0.24371  1.0000
  Fe  Fe4       1.0  0.05789  0.26117  0.26273  1.0000
  S   S7        1.0  0.02531  0.25114  0.23756  1.0000
  Fe  Fe5       1.0  0.10732  0.25713  0.27409  1.0000
  S   S8        1.0  0.14090  0.24119  0.26544  1.0000
  S   S9        1.0  0.05554  0.29129  0.30041  1.0000
  S   S10       1.0  0.10773  0.28773  0.31198  1.0000
  Fe  Fe6       1.0  0.23990  0.12980  0.37503  1.0000
  S   S11       1.0  0.21130  0.11000  0.35715  1.0000
  S   S12       1.0  0.24288  0.14683  0.43525  1.0000
  Fe  Fe7       1.0  0.25890  0.12566  0.29133  1.0000
  S   S13       1.0  0.23076  0.10627  0.26827  1.0000
  S   S14       1.0  0.29205  0.12783  0.26310  1.0000
  Fe  Fe8       1.0  0.20978  0.13029  0.30344  1.0000
  S   S15       1.0  0.17572  0.14344  0.28651  1.0000
  Fe  Fe9       1.0  0.23460  0.08797  0.32383  1.0000
  S   S16       1.0  0.24465  0.05223  0.32619  1.0000
  S   S17       1.0  0.23771  0.15100  0.32265  1.0000
  S   S18       1.0  0.26332  0.10662  0.34591  1.0000
  H   H6        1.0  0.00518  0.29433  0.16669  1.0000
  C   C3        1.0  0.07946  0.27435  0.45160  1.0000
  C   C4        1.0  0.31535  0.11198  0.40635  1.0000
  H   H7        1.0  0.02803  0.24091  0.31881  1.0000
  H   H8        1.0  0.05175  0.28780  0.13826  1.0000
  C   C5        1.0  0.15009  0.21387  0.27140  1.0000
  C   C6        1.0  0.17255  0.20899  0.27223  1.0000
  C   C7        1.0  0.18069  0.18761  0.27721  1.0000
  C   C8        1.0  0.16641  0.17077  0.28103  1.0000
  C   C9        1.0  0.14394  0.17565  0.28014  1.0000
  C   C10       1.0  0.13580  0.19708  0.27561  1.0000
  H   H9        1.0  0.18373  0.22183  0.26883  1.0000
  H   H10       1.0  0.19798  0.18410  0.27747  1.0000
  H   H11       1.0  0.13276  0.16273  0.28284  1.0000
  H   H12       1.0  0.11849  0.20054  0.27483  1.0000
  H   H13       1.0  0.00879  0.40314  0.17459  1.0000
  H   H14       1.0  0.06758  0.33565  0.45670  1.0000
  C   C11       1.0  0.23998  0.01090  0.29790  1.0000
  C   C12       1.0  0.22926  0.02920  0.31441  1.0000
  C   C13       1.0  0.20765  0.02778  0.32488  1.0000
  H   H15       1.0  0.25665  0.01191  0.28952  1.0000
  H   H16       1.0  0.19930  0.04174  0.33803  1.0000
  C   C14       1.0  0.07688  0.35855  0.11608  1.0000
  C   C15       1.0  0.07778  0.37363  0.14743  1.0000
  C   C16       1.0  0.08004  0.36652  0.18615  1.0000
  C   C17       1.0  0.08155  0.34429  0.19414  1.0000
  C   C18       1.0  0.08123  0.32925  0.16267  1.0000
  C   C19       1.0  0.07892  0.33635  0.12398  1.0000
  H   H17       1.0  0.07643  0.39075  0.14193  1.0000
  H   H18       1.0  0.08043  0.37835  0.21016  1.0000
  H   H19       1.0  0.08259  0.31213  0.16818  1.0000
  H   H20       1.0  0.07838  0.32449  0.10004  1.0000
  C   C20       1.0  0.26255  0.10671  0.05224  1.0000
  H   H21       1.0  0.00304  0.27841  0.47656  1.0000
  C   C21       1.0  0.01031  0.28122  0.41412  1.0000
  H   H22       1.0  0.01088  0.33108  0.37300  1.0000
  H   H23       1.0  0.30804  0.12558  0.35056  1.0000
  C   C22       1.0  0.19629  0.17965  0.38420  1.0000
  H   H24       1.0  0.26618  0.12602  0.10625  1.0000
  H   H25       1.0  0.28149  0.14383  0.38974  1.0000
  C   C23       1.0  0.29911  0.14686  0.15105  1.0000
  H   H26       1.0  0.29377  0.99719  0.47423  1.0000
  C   C24       1.0  0.30059  0.12965  0.21408  1.0000
  C   C25       1.0  0.28988  0.14327  0.18735  1.0000
  H   H27       1.0  0.09539  0.30288  0.43515  1.0000
  H   H28       1.0  0.16965  0.14853  0.45857  1.0000
  H   H29       1.0  0.27500  0.15179  0.19533  1.0000
  H   H30       1.0  0.28373  0.16029  0.32664  1.0000
  N   N1        1.0  0.14857  0.22310  0.39440  1.0000
  C   C26       1.0  0.12572  0.22104  0.37782  1.0000
  C   C27       1.0  0.15904  0.24164  0.37558  1.0000
  C   C28       1.0  0.16120  0.20253  0.38289  1.0000
  H   H31       1.0  0.14012  0.35319  0.13059  1.0000
  C   C29       1.0  0.26752  0.00252  0.40820  1.0000
  C   C30       1.0  0.11424  0.20021  0.38871  1.0000
  H   H32       1.0  0.14504  0.26837  0.01155  1.0000
  C   C31       1.0  0.14862  0.26450  0.38252  1.0000
  C   C32       1.0  0.15931  0.28105  0.35791  1.0000
  H   H33       1.0  0.03259  0.36042  0.19582  1.0000
  C   C33       1.0  0.08974  0.20209  0.38105  1.0000
  C   C34       1.0  0.31458  0.03000  0.12431  1.0000
  H   H34       1.0  0.12563  0.22128  0.34534  1.0000
  H   H35       1.0  0.11518  0.23522  0.38631  1.0000
  H   H36       1.0  0.17610  0.24318  0.38635  1.0000
  H   H37       1.0  0.15976  0.23836  0.34349  1.0000
  H   H38       1.0  0.15901  0.19897  0.35102  1.0000
  H   H39       1.0  0.29787  0.05717  0.09568  1.0000
  C   C35       1.0  0.28177  0.18615  0.39265  1.0000
  H   H40       1.0  0.15046  0.21002  0.45241  1.0000
  C   C36       1.0  0.02994  0.31318  0.43605  1.0000
  C   C37       1.0  0.01312  0.36097  0.14082  1.0000
  H   H41       1.0  0.12047  0.18616  0.37072  1.0000
  H   H42       1.0  0.25255  0.00787  0.46558  1.0000
  H   H43       1.0  0.29597  0.11427  0.04151  1.0000
  H   H44       1.0  0.19423  0.21332  0.37344  1.0000
  H   H45       1.0  0.13106  0.26498  0.37487  1.0000
  C   C38       1.0  0.01803  0.29840  0.14657  1.0000
  H   H46       1.0  0.15163  0.29735  0.36339  1.0000
  H   H47       1.0  0.17690  0.28183  0.36553  1.0000
  H   H48       1.0  0.15720  0.27672  0.32631  1.0000
  C   C39       1.0  0.99470  0.31245  0.30376  1.0000
  H   H49       1.0  0.28855  0.01827  0.08586  1.0000
  C   C40       1.0  0.28805  0.99456  0.15244  1.0000
  H   H50       1.0  0.08605  0.20393  0.34945  1.0000
  H   H51       1.0  0.31526  0.00985  0.07263  1.0000
  C   C41       1.0  0.03365  0.33792  0.43700  1.0000
  H   H52       1.0  0.00122  0.37265  0.12717  1.0000
  C   C42       1.0  0.31875  0.13635  0.14029  1.0000
  C   C43       1.0  0.00019  0.18056  0.28591  1.0000
  H   H53       1.0  0.28377  0.00941  0.41418  1.0000
  H   H54       1.0  0.03021  0.30847  0.46707  1.0000
  C   C44       1.0  0.25138  0.11162  0.48242  1.0000
  H   H55       1.0  0.14681  0.30578  0.03748  1.0000
  H   H56       1.0  0.03697  0.39630  0.16563  1.0000
  H   H57       1.0  0.08212  0.18716  0.39023  1.0000
  C   C45       1.0  0.02252  0.32284  0.15065  1.0000
  C   C46       1.0  0.32205  0.18147  0.39082  1.0000
  H   H58       1.0  0.02500  0.30652  0.35959  1.0000
  H   H59       1.0  0.25868  0.20751  0.47812  1.0000
  H   H60       1.0  0.04863  0.33924  0.49573  1.0000
  H   H61       1.0  0.12527  0.25370  0.44226  1.0000
  H   H62       1.0  0.10431  0.33220  0.02257  1.0000
  H   H63       1.0  0.29127  0.07360  0.01975  1.0000
  H   H64       1.0  0.01386  0.40237  0.02179  1.0000
  H   H65       1.0  0.05439  0.36166  0.46596  1.0000
  C   C47       1.0  0.13861  0.30303  0.00859  1.0000
  C   C48       1.0  0.02320  0.39332  0.18455  1.0000
  C   C49       1.0  0.09477  0.30076  0.49803  1.0000
  H   H66       1.0  0.15479  0.18838  0.39741  1.0000
  C   C50       1.0  0.01785  0.33660  0.06447  1.0000
  H   H67       1.0  0.23428  0.01141  0.42382  1.0000
  H   H68       1.0  0.24610  0.11405  0.04659  1.0000
  C   C51       1.0  0.30019  0.18543  0.26878  1.0000
  H   H69       1.0  0.02619  0.20285  0.27728  1.0000
  H   H70       1.0  0.24492  0.19490  0.43668  1.0000
  C   C52       1.0  0.01816  0.36926  0.18335  1.0000
  C   C53       1.0  0.25939  0.20417  0.44616  1.0000
  S   S19       1.0  0.10000  0.41147  0.00178  1.0000
  H   H71       1.0  0.28282  0.19955  0.31642  1.0000
  H   H72       1.0  0.03468  0.26737  0.15567  1.0000
  C   C54       1.0  0.31396  0.13141  0.37992  1.0000
  C   C55       1.0  0.99926  0.33418  0.09330  1.0000
  H   H73       1.0  0.99598  0.33989  0.01351  1.0000
  H   H74       1.0  0.19710  0.15324  0.47528  1.0000
  H   H75       1.0  0.03525  0.17567  0.28833  1.0000
  H   H76       1.0  0.18055  0.00674  0.32863  1.0000
  H   H77       1.0  0.28238  0.20229  0.37960  1.0000
  C   C56       1.0  0.03829  0.28486  0.15792  1.0000
  H   H78       1.0  0.28026  0.17620  0.45392  1.0000
  C   C57       1.0  0.19711  0.00792  0.31974  1.0000
  H   H79       1.0  0.16027  0.34968  0.02993  1.0000
  H   H80       1.0  0.03076  0.27261  0.46515  1.0000
  H   H81       1.0  0.00672  0.31263  0.02072  1.0000
  H   H82       1.0  0.02369  0.27480  0.39537  1.0000
  H   H83       1.0  0.29872  0.99930  0.17795  1.0000
  H   H84       1.0  0.03787  0.32568  0.13611  1.0000
  H   H85       1.0  0.25886  0.21986  0.43125  1.0000
  H   H86       1.0  0.31532  0.17585  0.26247  1.0000
  C   C58       1.0  0.29836  0.19026  0.31258  1.0000
  H   H87       1.0  0.06482  0.24742  0.47770  1.0000
  C   C59       1.0  0.00988  0.24644  0.45173  1.0000
  C   C60       1.0  0.99797  0.39828  0.01036  1.0000
  H   H88       1.0  0.29108  0.15806  0.13133  1.0000
  H   H89       1.0  0.28605  0.17622  0.25741  1.0000
  H   H90       1.0  0.02279  0.35367  0.06388  1.0000
  H   H91       1.0  0.26201  0.08928  0.04408  1.0000
  C   C61       1.0  0.13315  0.34863  0.06856  1.0000
  C   C62       1.0  0.14781  0.35639  0.10262  1.0000
  H   H92       1.0  0.18942  0.20685  0.42336  1.0000
  C   C63       1.0  0.30443  0.01183  0.09780  1.0000
  H   H93       1.0  0.00029  0.18413  0.31788  1.0000
  S   S20       1.0  0.09027  0.47696  0.02252  1.0000
  H   H94       1.0  0.24179  0.04619  0.45798  1.0000
  H   H95       1.0  0.04355  0.28888  0.18854  1.0000
  H   H96       1.0  0.03933  0.47676  0.03007  1.0000
  H   H97       1.0  0.25196  0.04551  0.40942  1.0000
  C   C64       1.0  0.25408  0.03839  0.43863  1.0000
  C   C65       1.0  0.29866  0.16905  0.33561  1.0000
  H   H98       1.0  0.12106  0.30091  0.01242  1.0000
  H   H99       1.0  0.32269  0.11661  0.43531  1.0000
  H   H100      1.0  0.04452  0.30497  0.42300  1.0000
  H   H101      1.0  0.16475  0.23402  0.44802  1.0000
  H   H102      1.0  0.02854  0.36239  0.12532  1.0000
  C   C66       1.0  0.02276  0.18544  0.27205  1.0000
  C   C67       1.0  0.01378  0.27072  0.45442  1.0000
  H   H103      1.0  0.11726  0.35731  0.07170  1.0000
  H   H104      1.0  0.13061  0.33119  0.07172  1.0000
  H   H105      1.0  0.16383  0.34763  0.10207  1.0000
  H   H106      1.0  0.15015  0.37409  0.10142  1.0000
  H   H107      1.0  0.27678  0.13610  0.03732  1.0000
  H   H108      1.0  0.02158  0.23818  0.43169  1.0000
  H   H109      1.0  0.28389  0.10208  0.10369  1.0000
  H   H110      1.0  0.10066  0.35836  0.00416  1.0000
  C   C68       1.0  0.01133  0.24534  0.31130  1.0000
  H   H111      1.0  0.11565  0.22859  0.45714  1.0000
  H   H112      1.0  0.31238  0.15875  0.32430  1.0000
  H   H113      1.0  0.26263  0.00788  0.37841  1.0000
  C   C69       1.0  0.25100  0.01394  0.43568  1.0000
  H   H114      1.0  0.27650  0.00863  0.14817  1.0000
  H   H115      1.0  0.27047  0.04209  0.45085  1.0000
  H   H116      1.0  0.18881  0.16721  0.40139  1.0000
  H   H117      1.0  0.32051  0.19945  0.38964  1.0000
  C   C70       1.0  0.29822  0.14949  0.39598  1.0000
  C   C71       1.0  0.02737  0.47897  0.00549  1.0000
  C   C72       1.0  0.09050  0.29348  0.45916  1.0000
  H   H118      1.0  0.19437  0.17492  0.35282  1.0000
  C   C73       1.0  0.99531  0.24390  0.33904  1.0000
  N   N2        1.0  0.00485  0.33825  0.13610  1.0000
  H   H119      1.0  0.32090  0.17745  0.45502  1.0000
  N   N3        1.0  0.00948  0.30567  0.41492  1.0000
  H   H120      1.0  0.25540  0.09971  0.11203  1.0000
  H   H121      1.0  0.08257  0.21615  0.39779  1.0000
  C   C74       1.0  0.18599  0.20216  0.39231  1.0000
  C   C75       1.0  0.17985  0.15855  0.47892  1.0000
  H   H122      1.0  0.01236  0.23951  0.48103  1.0000
  H   H123      1.0  0.03226  0.32626  0.07235  1.0000
  H   H124      1.0  0.32395  0.04927  0.07580  1.0000
  H   H125      1.0  0.02623  0.32607  0.18224  1.0000
  C   C76       1.0  0.14949  0.22602  0.43837  1.0000
  H   H126      1.0  0.30041  0.20083  0.25310  1.0000
  H   H127      1.0  0.01886  0.34730  0.44586  1.0000
  H   H128      1.0  0.25186  0.10169  0.45582  1.0000
  H   H129      1.0  0.11731  0.19658  0.41987  1.0000
  H   H130      1.0  0.26614  0.17912  0.38201  1.0000
  H   H131      1.0  0.31093  0.14420  0.01515  1.0000
  H   H132      1.0  0.21390  0.17974  0.39190  1.0000
  C   C77       1.0  0.24700  0.13392  0.48046  1.0000
  C   C78       1.0  0.26738  0.10876  0.09618  1.0000
  H   H133      1.0  0.14125  0.37183  0.02765  1.0000
  H   H134      1.0  0.17767  0.17577  0.47098  1.0000
  C   C79       1.0  0.07328  0.26232  0.48324  1.0000
  N   N4        1.0  0.30055  0.17160  0.37961  1.0000
  C   C80       1.0  0.28025  0.19115  0.43704  1.0000
  H   H135      1.0  0.01324  0.29342  0.11627  1.0000
  C   C81       1.0  0.14255  0.35379  0.02862  1.0000
  H   H136      1.0  0.29394  0.20122  0.44747  1.0000
  H   H137      1.0  0.30551  0.03306  0.15144  1.0000
  C   C82       1.0  0.27951  0.11861  0.02908  1.0000
  C   C83       1.0  0.01055  0.33006  0.02281  1.0000
  C   C84       1.0  0.13014  0.23876  0.45748  1.0000
  H   H138      1.0  0.02775  0.39863  0.21490  1.0000
  H   H139      1.0  0.32559  0.09882  0.39281  1.0000
  C   C85       1.0  0.01001  0.31318  0.37352  1.0000
  H   H140      1.0  0.31198  0.20060  0.32232  1.0000
  H   H141      1.0  0.00436  0.36725  0.20263  1.0000
  H   H142      1.0  0.25330  0.99654  0.20320  1.0000
  C   C86       1.0  0.31469  0.05133  0.10300  1.0000
  H   H143      1.0  0.99752  0.16304  0.28035  1.0000
  H   H144      1.0  0.29985  0.15001  0.42826  1.0000
  H   H145      1.0  0.29895  0.10570  0.41045  1.0000
  H   H146      1.0  0.02409  0.18132  0.24042  1.0000
  C   C87       1.0  0.32022  0.11914  0.20327  1.0000
  H   H147      1.0  0.99979  0.23825  0.36771  1.0000
  H   H148      1.0  0.02373  0.33293  0.00255  1.0000
  H   H149      1.0  0.99539  0.27464  0.40025  1.0000
  H   H150      1.0  0.00147  0.49249  0.03929  1.0000
  C   C88       1.0  0.13562  0.24521  0.49996  1.0000
  C   C89       1.0  0.28597  0.00632  0.64777  1.0000
  S   S21       1.0  0.10266  0.38694  0.89254  1.0000
  Fe  Fe10      1.0  0.08785  0.28159  0.63424  1.0000
  S   S22       1.0  0.08984  0.24539  0.63818  1.0000
  S   S23       1.0  0.09337  0.29918  0.57803  1.0000
  Fe  Fe11      1.0  0.08077  0.28903  0.72325  1.0000
  S   S24       1.0  0.08247  0.25302  0.73240  1.0000
  S   S25       1.0  0.07042  0.30979  0.77701  1.0000
  Fe  Fe12      1.0  0.11072  0.25114  0.69240  1.0000
  S   S26       1.0  0.14460  0.23629  0.70615  1.0000
  Fe  Fe13      1.0  0.06142  0.25042  0.67784  1.0000
  S   S27       1.0  0.03289  0.22811  0.67367  1.0000
  S   S28       1.0  0.11038  0.28747  0.68655  1.0000
  S   S29       1.0  0.05806  0.28630  0.67035  1.0000
  Fe  Fe14      1.0  0.24068  0.08077  0.72782  1.0000
  S   S30       1.0  0.27202  0.09386  0.70927  1.0000
  S   S31       1.0  0.24314  0.04623  0.74861  1.0000
  Fe  Fe15      1.0  0.21617  0.12457  0.71646  1.0000
  S   S32       1.0  0.24617  0.14053  0.69727  1.0000
  S   S33       1.0  0.18127  0.13859  0.71706  1.0000
  Fe  Fe16      1.0  0.25221  0.10978  0.66100  1.0000
  S   S34       1.0  0.26330  0.10271  0.59848  1.0000
  Fe  Fe17      1.0  0.26334  0.12295  0.74731  1.0000
  S   S35       1.0  0.28723  0.13909  0.79096  1.0000
  S   S36       1.0  0.22139  0.09465  0.67759  1.0000
  S   S37       1.0  0.23287  0.10911  0.76855  1.0000
  C   C90       1.0  0.25535  0.11489  0.55380  1.0000
  C   C91       1.0  0.25068  0.13712  0.55182  1.0000
  C   C92       1.0  0.30389  0.02829  0.82524  1.0000
  H   H151      1.0  0.20155  0.05706  0.58379  1.0000
  H   H152      1.0  0.24180  0.01229  0.93735  1.0000
  H   H153      1.0  0.25137  0.14707  0.57827  1.0000
  C   C93       1.0  0.22919  0.10560  0.91289  1.0000
  C   C94       1.0  0.27577  0.00749  0.88463  1.0000
  H   H154      1.0  0.14015  0.23068  0.51682  1.0000
  H   H155      1.0  0.01642  0.27115  0.69709  1.0000
  C   C95       1.0  0.08822  0.28894  0.52970  1.0000
  H   H156      1.0  0.22834  0.18937  0.67483  1.0000
  H   H157      1.0  0.25207  0.00056  0.74721  1.0000
  H   H158      1.0  0.99898  0.32475  0.81797  1.0000
  H   H159      1.0  0.19589  0.20024  0.60328  1.0000
  H   H160      1.0  0.01751  0.27984  0.56665  1.0000
  H   H161      1.0  0.12566  0.37404  0.96416  1.0000
  H   H162      1.0  0.20424  0.16236  0.54628  1.0000
  H   H163      1.0  0.32047  0.05974  0.97659  1.0000
  H   H164      1.0  0.07245  0.26030  0.54609  1.0000
  C   C96       1.0  0.15421  0.20896  0.70988  1.0000
  C   C97       1.0  0.14053  0.19145  0.70473  1.0000
  C   C98       1.0  0.14903  0.17006  0.70786  1.0000
  C   C99       1.0  0.17131  0.16589  0.71563  1.0000
  C   C100      1.0  0.18490  0.18342  0.72152  1.0000
  C   C101      1.0  0.17639  0.20481  0.71857  1.0000
  H   H165      1.0  0.12340  0.19437  0.69842  1.0000
  H   H166      1.0  0.13832  0.15661  0.70372  1.0000
  H   H167      1.0  0.20200  0.18047  0.72807  1.0000
  H   H168      1.0  0.18710  0.21823  0.72289  1.0000
  C   C102      1.0  0.21442  0.02879  0.69317  1.0000
  C   C103      1.0  0.23114  0.02496  0.72089  1.0000
  C   C104      1.0  0.23899  0.00366  0.72627  1.0000
  H   H169      1.0  0.20810  0.04513  0.68910  1.0000
  C   C105      1.0  0.24660  0.14659  0.51535  1.0000
  C   C106      1.0  0.09320  0.36587  0.86003  1.0000
  C   C107      1.0  0.07346  0.35598  0.86496  1.0000
  C   C108      1.0  0.06683  0.33900  0.83913  1.0000
  C   C109      1.0  0.07967  0.33172  0.80779  1.0000
  C   C110      1.0  0.09931  0.34177  0.80259  1.0000
  C   C111      1.0  0.10609  0.35858  0.82876  1.0000
  H   H170      1.0  0.06326  0.36142  0.88863  1.0000
  H   H171      1.0  0.05153  0.33152  0.84335  1.0000
  H   H172      1.0  0.10911  0.33690  0.77808  1.0000
  H   H173      1.0  0.12127  0.36624  0.82435  1.0000
  H   H174      1.0  0.06407  0.28699  0.85188  1.0000
  C   C112      1.0  0.15866  0.36400  0.95072  1.0000
  H   H175      1.0  0.08214  0.30194  0.88462  1.0000
  C   C113      1.0  0.30100  0.10288  0.83229  1.0000
  C   C114      1.0  0.30208  0.12527  0.82849  1.0000
  H   H176      1.0  0.29040  0.04866  0.77904  1.0000
  H   H177      1.0  0.06612  0.28090  0.90286  1.0000
  H   H178      1.0  0.29076  0.09359  0.81219  1.0000
  C   C115      1.0  0.32691  0.10414  0.88806  1.0000
  C   C116      1.0  0.25602  0.11225  0.96957  1.0000
  H   H179      1.0  0.31262  0.07509  0.86417  1.0000
  N   N5        1.0  0.28513  0.99476  0.85049  1.0000
  H   H180      1.0  0.24360  0.16390  0.51409  1.0000
  H   H181      1.0  0.31298  0.03094  0.76473  1.0000
  N   N6        1.0  0.25804  0.01468  0.59143  1.0000
  C   C117      1.0  0.26618  0.02006  0.63250  1.0000
  C   C118      1.0  0.23741  0.02773  0.58228  1.0000
  H   H182      1.0  0.99789  0.30408  0.77920  1.0000
  S   S38       1.0  0.00577  0.42390  0.94969  1.0000
  C   C119      1.0  0.30311  0.04150  0.53337  1.0000
  H   H183      1.0  0.16238  0.21264  0.60843  1.0000
  H   H184      1.0  0.28137  0.01577  0.70898  1.0000
  C   C120      1.0  0.23576  0.05129  0.59935  1.0000
  C   C121      1.0  0.21743  0.06437  0.57926  1.0000
  H   H185      1.0  0.15597  0.13158  0.57741  1.0000
  H   H186      1.0  0.17532  0.13816  0.52662  1.0000
  H   H187      1.0  0.30032  0.03187  0.68470  1.0000
  H   H188      1.0  0.25291  0.01807  0.65299  1.0000
  H   H189      1.0  0.27036  0.03732  0.63635  1.0000
  H   H190      1.0  0.23435  0.02805  0.55011  1.0000
  H   H191      1.0  0.22317  0.01984  0.59422  1.0000
  H   H192      1.0  0.15578  0.16062  0.52240  1.0000
  H   H193      1.0  0.31054  0.09931  0.98381  1.0000
  H   H194      1.0  0.28888  0.04792  0.58869  1.0000
  H   H195      1.0  0.06222  0.32205  0.94612  1.0000
  C   C122      1.0  0.30322  0.05623  0.96970  1.0000
  H   H196      1.0  0.25085  0.05995  0.59659  1.0000
  C   C123      1.0  0.14792  0.28163  0.99148  1.0000
  C   C124      1.0  0.31554  0.13704  0.85493  1.0000
  H   H197      1.0  0.11956  0.19716  0.57067  1.0000
  H   H198      1.0  0.30798  0.00467  0.69839  1.0000
  H   H199      1.0  0.23250  0.05115  0.63097  1.0000
  H   H200      1.0  0.13837  0.31682  0.95127  1.0000
  H   H201      1.0  0.21701  0.08118  0.59177  1.0000
  C   C125      1.0  0.16444  0.13183  0.60632  1.0000
  H   H202      1.0  0.30065  0.05514  0.93749  1.0000
  H   H203      1.0  0.12424  0.20468  0.62174  1.0000
  H   H204      1.0  0.02375  0.26780  0.61295  1.0000
  N   N7        1.0  0.18155  0.16891  0.59214  1.0000
  H   H205      1.0  0.23236  0.20829  0.63682  1.0000
  H   H206      1.0  0.31373  0.16489  0.93537  1.0000
  H   H207      1.0  0.32024  0.02187  0.83413  1.0000
  C   C126      1.0  0.13492  0.35844  0.95892  1.0000
  H   H208      1.0  0.19804  0.13719  0.59258  1.0000
  H   H209      1.0  0.18997  0.14704  0.63899  1.0000
  C   C127      1.0  0.27505  0.01806  0.56180  1.0000
  H   H210      1.0  0.19146  0.18555  0.64569  1.0000
  H   H211      1.0  0.15272  0.13802  0.62834  1.0000
  H   H212      1.0  0.30846  0.05842  0.53159  1.0000
  C   C128      1.0  0.15360  0.20139  0.58802  1.0000
  H   H213      1.0  0.26262  0.09535  0.91296  1.0000
  H   H214      1.0  0.27083  0.05197  0.54671  1.0000
  H   H215      1.0  0.24558  0.12641  0.97917  1.0000
  H   H216      1.0  0.26872  0.01394  0.53195  1.0000
  H   H217      1.0  0.21864  0.11951  0.92286  1.0000
  H   H218      1.0  0.24883  0.09795  0.98207  1.0000
  N   N8        1.0  0.12813  0.26268  0.82835  1.0000
  C   C129      1.0  0.13736  0.26974  0.79084  1.0000
  C   C130      1.0  0.12304  0.23896  0.82386  1.0000
  C   C131      1.0  0.10688  0.27519  0.83396  1.0000
  C   C132      1.0  0.14296  0.26694  0.86357  1.0000
  C   C133      1.0  0.16777  0.26582  0.85697  1.0000
  C   C134      1.0  0.13977  0.29449  0.78756  1.0000
  C   C135      1.0  0.09362  0.26901  0.86940  1.0000
  C   C136      1.0  0.14242  0.22281  0.81717  1.0000
  C   C137      1.0  0.13457  0.19992  0.80813  1.0000
  C   C138      1.0  0.18065  0.26698  0.89578  1.0000
  C   C139      1.0  0.15664  0.29964  0.75791  1.0000
  C   C140      1.0  0.07541  0.28578  0.87763  1.0000
  H   H219      1.0  0.12679  0.26450  0.76557  1.0000
  H   H220      1.0  0.15328  0.26157  0.78524  1.0000
  H   H221      1.0  0.11529  0.23337  0.85030  1.0000
  H   H222      1.0  0.11099  0.23651  0.79926  1.0000
  H   H223      1.0  0.09611  0.27336  0.80743  1.0000
  H   H224      1.0  0.10963  0.29287  0.83744  1.0000
  H   H225      1.0  0.13946  0.28340  0.87670  1.0000
  H   H226      1.0  0.13962  0.25552  0.88688  1.0000
  H   H227      1.0  0.17248  0.27968  0.83979  1.0000
  H   H228      1.0  0.17301  0.25081  0.84092  1.0000
  H   H229      1.0  0.12394  0.30178  0.77757  1.0000
  H   H230      1.0  0.14441  0.30242  0.81599  1.0000
  H   H231      1.0  0.10403  0.26781  0.89626  1.0000
  H   H232      1.0  0.08588  0.25324  0.86331  1.0000
  H   H233      1.0  0.15222  0.22720  0.79239  1.0000
  H   H234      1.0  0.15294  0.22204  0.84397  1.0000
  H   H235      1.0  0.12363  0.19967  0.78173  1.0000
  H   H236      1.0  0.14869  0.18875  0.80233  1.0000
  H   H237      1.0  0.12579  0.19391  0.83311  1.0000
  H   H238      1.0  0.19829  0.26646  0.89018  1.0000
  H   H239      1.0  0.17659  0.28232  0.91221  1.0000
  H   H240      1.0  0.17714  0.25300  0.91378  1.0000
  H   H241      1.0  0.17311  0.29421  0.76832  1.0000
  H   H242      1.0  0.15294  0.29142  0.72925  1.0000
  H   H243      1.0  0.15655  0.31739  0.75383  1.0000
  C   C141      1.0  0.99667  0.30726  0.81117  1.0000
  N   N9        1.0  0.27897  0.11520  0.98505  1.0000
  C   C142      1.0  0.25291  0.10944  0.92451  1.0000
  C   C143      1.0  0.20579  0.01138  0.67077  1.0000
  H   H244      1.0  0.25754  0.12414  0.90957  1.0000
  H   H245      1.0  0.22019  0.06520  0.54753  1.0000
  H   H246      1.0  0.15812  0.20435  0.55776  1.0000
  H   H247      1.0  0.22371  0.09052  0.92558  1.0000
  H   H248      1.0  0.25146  0.18593  0.64431  1.0000
  H   H249      1.0  0.29803  0.03972  0.84851  1.0000
  S   S39       1.0  0.06637  0.43576  0.93998  1.0000
  Fe  Fe18      1.0  0.08399  0.40319  0.94301  1.0000
  C   C144      1.0  0.07754  0.26958  0.52206  1.0000
  C   C145      1.0  0.25799  0.00776  0.95032  1.0000
  C   C146      1.0  0.17060  0.10846  0.61601  1.0000
  C   C147      1.0  0.23402  0.19103  0.64472  1.0000
  C   C148      1.0  0.01350  0.26652  0.58580  1.0000
  Fe  Fe19      1.0  0.04029  0.41956  0.97078  1.0000
  C   C149      1.0  0.17316  0.15566  0.52082  1.0000
  C   C150      1.0  0.18743  0.16906  0.54985  1.0000
  H   H250      1.0  0.17641  0.38370  0.91228  1.0000
  C   C151      1.0  0.22107  0.17673  0.61585  1.0000
  C   C152      1.0  0.15867  0.17751  0.59854  1.0000
  H   H251      1.0  0.31686  0.03147  0.54547  1.0000
  H   H252      1.0  0.22787  0.17852  0.58665  1.0000
  H   H253      1.0  0.29961  0.00634  0.62759  1.0000
  H   H254      1.0  0.07268  0.31315  0.99289  1.0000
  H   H255      1.0  0.28865  0.13308  0.93540  1.0000
  H   H256      1.0  0.14658  0.16753  0.58232  1.0000
  H   H257      1.0  0.29235  0.00065  0.79036  1.0000
  H   H258      1.0  0.00997  0.29785  0.82610  1.0000
  H   H259      1.0  0.18217  0.10129  0.59467  1.0000
  H   H260      1.0  0.32272  0.13131  0.97280  1.0000
  H   H261      1.0  0.31762  0.05474  0.79529  1.0000
  C   C153      1.0  0.19667  0.18369  0.61504  1.0000
  H   H262      1.0  0.15585  0.09864  0.61490  1.0000
  H   H263      1.0  0.28916  0.00667  0.56631  1.0000
  H   H264      1.0  0.22376  0.15972  0.62451  1.0000
  C   C154      1.0  0.30631  0.04139  0.78876  1.0000
  H   H265      1.0  0.15487  0.17623  0.62982  1.0000
  H   H266      1.0  0.30297  0.17760  0.97934  1.0000
  H   H267      1.0  0.27141  0.06974  0.98008  1.0000
  C   C155      1.0  0.18462  0.14628  0.60766  1.0000
  H   H268      1.0  0.22742  0.10389  0.88058  1.0000
  C   C156      1.0  0.28363  0.04118  0.55969  1.0000
  H   H269      1.0  0.12633  0.22450  0.58505  1.0000
  C   C157      1.0  0.28715  0.13538  0.96753  1.0000
  C   C158      1.0  0.30977  0.14287  0.98288  1.0000
  H   H270      1.0  0.25558  0.99822  0.97655  1.0000
  H   H271      1.0  0.15040  0.39533  0.92572  1.0000
  H   H272      1.0  0.19289  0.01439  0.64934  1.0000
  C   C159      1.0  0.28766  0.00989  0.81744  1.0000
  C   C160      1.0  0.00669  0.23843  0.68514  1.0000
  C   C161      1.0  0.12944  0.20717  0.59155  1.0000
  H   H273      1.0  0.29494  0.09525  0.94079  1.0000
  H   H274      1.0  0.01753  0.25066  0.57106  1.0000
  S   S40       1.0  0.05666  0.38678  0.96926  1.0000
  C   C162      1.0  0.25571  0.10223  0.51887  1.0000
  H   H275      1.0  0.27183  0.01805  0.80961  1.0000
  H   H276      1.0  0.18776  0.18593  0.53973  1.0000
  H   H277      1.0  0.12804  0.35137  0.93108  1.0000
  H   H278      1.0  0.09294  0.34489  0.93867  1.0000
  H   H279      1.0  0.17797  0.10777  0.64591  1.0000
  H   H280      1.0  0.16818  0.34924  0.94158  1.0000
  C   C163      1.0  0.15933  0.37995  0.91777  1.0000
  H   H281      1.0  0.12129  0.25342  0.51340  1.0000
  H   H282      1.0  0.26652  0.02269  0.95954  1.0000
  C   C164      1.0  0.31343  0.09242  0.86175  1.0000
  C   C165      1.0  0.00299  0.26038  0.69479  1.0000
  C   C166      1.0  0.31466  0.16509  0.96777  1.0000
  C   C167      1.0  0.29377  0.09643  0.97300  1.0000
  C   C168      1.0  0.29437  0.01524  0.68737  1.0000
  H   H283      1.0  0.26067  0.01658  0.87535  1.0000
  H   H284      1.0  0.15189  0.37294  0.89041  1.0000
  H   H285      1.0  0.27526  0.14916  0.97215  1.0000
  H   H286      1.0  0.31652  0.15436  0.85218  1.0000
  H   H287      1.0  0.25960  0.08510  0.51989  1.0000
  H   H288      1.0  0.28711  0.02012  0.89541  1.0000
  C   C169      1.0  0.09470  0.33262  0.96149  1.0000
  H   H289      1.0  0.29989  0.04033  0.98193  1.0000
  H   H290      1.0  0.10256  0.31776  0.94871  1.0000
  H   H291      1.0  0.06350  0.34093  0.98728  1.0000
  H   H292      1.0  0.24346  0.99811  0.81320  1.0000
  H   H293      1.0  0.16682  0.37155  0.97683  1.0000
  C   C170      1.0  0.28838  0.07393  0.98767  1.0000
  H   H294      1.0  0.03614  0.48213  0.97867  1.0000
  C   C171      1.0  0.07190  0.32684  0.97272  1.0000
  C   C172      1.0  0.10787  0.34195  0.99719  1.0000
  H   H295      1.0  0.16569  0.28253  0.98791  1.0000
  C   C173      1.0  0.14283  0.32197  0.98184  1.0000
  H   H296      1.0  0.16075  0.32343  0.98204  1.0000
  N   N10       1.0  0.13198  0.34357  0.99224  1.0000
  H   H297      1.0  0.13991  0.27761  0.96277  1.0000
  Fe  Fe20      1.0  0.07958  0.44297  0.00071  1.0000
  H   H298      1.0  0.10308  0.31574  0.50367  1.0000
  H   H299      1.0  0.99854  0.47334  0.93153  1.0000
  H   H300      1.0  0.31695  0.99668  0.87929  1.0000
  H   H301      1.0  0.14915  0.25663  0.50178  1.0000
  C   C174      1.0  0.27126  0.99422  0.92092  1.0000
  H   H302      1.0  0.29875  0.03538  0.50343  1.0000
  H   H303      1.0  0.01860  0.46368  0.00042  1.0000
  C   C175      1.0  0.27364  0.97603  0.16502  1.0000
  H   H304      1.0  0.28930  0.95230  0.38400  1.0000
  S   S41       1.0  0.11562  0.65920  0.07778  1.0000
  H   H305      1.0  0.15117  0.87181  0.34135  1.0000
  C   C176      1.0  0.19041  0.88650  0.44454  1.0000
  H   H306      1.0  0.03389  0.55931  0.01566  1.0000
  S   S42       1.0  0.06459  0.63031  0.03192  1.0000
  H   H307      1.0  0.24018  0.97864  0.37088  1.0000
  Fe  Fe21      1.0  0.24715  0.90957  0.23164  1.0000
  S   S43       1.0  0.21051  0.91044  0.23540  1.0000
  S   S44       1.0  0.25964  0.91534  0.17047  1.0000
  Fe  Fe22      1.0  0.25268  0.90691  0.32162  1.0000
  S   S45       1.0  0.21707  0.90771  0.33050  1.0000
  S   S46       1.0  0.27765  0.90721  0.37182  1.0000
  Fe  Fe23      1.0  0.21526  0.88413  0.27893  1.0000
  S   S47       1.0  0.19885  0.85177  0.28518  1.0000
  Fe  Fe24      1.0  0.21566  0.93387  0.28648  1.0000
  S   S48       1.0  0.19520  0.96429  0.30022  1.0000
  S   S49       1.0  0.25161  0.88173  0.27231  1.0000
  S   S50       1.0  0.25162  0.93444  0.28047  1.0000
  Fe  Fe25      1.0  0.09791  0.74061  0.27468  1.0000
  S   S51       1.0  0.07218  0.76333  0.25067  1.0000
  S   S52       1.0  0.11576  0.71354  0.24034  1.0000
  Fe  Fe26      1.0  0.09710  0.76369  0.35715  1.0000
  S   S53       1.0  0.07117  0.78752  0.33766  1.0000
  S   S54       1.0  0.11140  0.77226  0.41722  1.0000
  Fe  Fe27      1.0  0.05556  0.75889  0.30747  1.0000
  S   S55       1.0  0.02267  0.74494  0.31723  1.0000
  Fe  Fe28      1.0  0.09088  0.78956  0.28390  1.0000
  S   S56       1.0  0.10123  0.82163  0.26047  1.0000
  S   S57       1.0  0.08070  0.73477  0.33014  1.0000
  S   S58       1.0  0.11730  0.76684  0.30466  1.0000
  H   H308      1.0  0.26212  0.97334  0.46982  1.0000
  H   H309      1.0  0.30197  0.89587  0.19555  1.0000
  C   C177      1.0  0.03721  0.55792  0.07780  1.0000
  H   H310      1.0  0.04516  0.81925  0.40822  1.0000
  H   H311      1.0  0.16906  0.85119  0.45391  1.0000
  H   H312      1.0  0.04591  0.70193  0.03768  1.0000
  C   C178      1.0  0.03967  0.68849  0.21885  1.0000
  H   H313      1.0  0.20398  0.89484  0.43125  1.0000
  C   C179      1.0  0.28324  0.97542  0.33838  1.0000
  H   H314      1.0  0.14408  0.78973  0.49301  1.0000
  C   C180      1.0  0.17120  0.84492  0.27936  1.0000
  C   C181      1.0  0.16422  0.82692  0.29879  1.0000
  C   C182      1.0  0.14268  0.82029  0.29443  1.0000
  C   C183      1.0  0.12798  0.83096  0.26923  1.0000
  C   C184      1.0  0.13482  0.84921  0.25017  1.0000
  C   C185      1.0  0.15629  0.85631  0.25549  1.0000
  H   H315      1.0  0.17552  0.81805  0.31752  1.0000
  H   H316      1.0  0.13748  0.80690  0.31063  1.0000
  H   H317      1.0  0.12354  0.85778  0.23091  1.0000
  H   H318      1.0  0.16141  0.87022  0.24035  1.0000
  H   H319      1.0  0.07953  0.71307  0.42030  1.0000
  C   C186      1.0  0.20560  0.84363  0.40859  1.0000
  H   H320      1.0  0.16639  0.89542  0.48907  1.0000
  H   H321      1.0  0.30528  0.91283  0.05532  1.0000
  C   C187      1.0  0.10359  0.76026  0.46014  1.0000
  H   H322      1.0  0.03934  0.70739  0.27332  1.0000
  C   C188      1.0  0.27647  0.90742  0.42353  1.0000
  H   H323      1.0  0.31131  0.90608  0.42871  1.0000
  C   C189      1.0  0.06433  0.64912  0.14054  1.0000
  H   H324      1.0  0.01705  0.76693  0.40293  1.0000
  C   C190      1.0  0.04934  0.57902  0.08291  1.0000
  H   H325      1.0  0.01274  0.66414  0.17049  1.0000
  C   C191      1.0  0.32181  0.89530  0.14446  1.0000
  C   C192      1.0  0.11487  0.67625  0.12093  1.0000
  C   C193      1.0  0.12790  0.66968  0.15279  1.0000
  C   C194      1.0  0.12770  0.68140  0.18851  1.0000
  C   C195      1.0  0.11446  0.70006  0.19355  1.0000
  C   C196      1.0  0.10153  0.70717  0.16161  1.0000
  C   C197      1.0  0.10189  0.69537  0.12521  1.0000
  H   H326      1.0  0.13816  0.65518  0.15000  1.0000
  H   H327      1.0  0.13793  0.67582  0.21262  1.0000
  H   H328      1.0  0.09158  0.72183  0.16478  1.0000
  H   H329      1.0  0.09249  0.70126  0.10045  1.0000
  C   C198      1.0  0.28423  0.90878  0.14611  1.0000
  C   C199      1.0  0.28539  0.91345  0.10636  1.0000
  C   C200      1.0  0.02085  0.77166  0.43401  1.0000
  H   H330      1.0  0.18320  0.85369  0.36311  1.0000
  C   C201      1.0  0.32359  0.98095  0.12732  1.0000
  H   H331      1.0  0.03320  0.51525  0.05267  1.0000
  C   C202      1.0  0.08443  0.50377  0.00574  1.0000
  H   H332      1.0  0.04412  0.79429  0.46265  1.0000
  C   C203      1.0  0.04383  0.73886  0.43791  1.0000
  C   C204      1.0  0.05059  0.71680  0.45531  1.0000
  H   H333      1.0  0.00213  0.61506  0.14070  1.0000
  C   C205      1.0  0.03916  0.78827  0.43295  1.0000
  H   H334      1.0  0.17952  0.74247  0.45920  1.0000
  H   H335      1.0  0.28545  0.96041  0.09941  1.0000
  H   H336      1.0  0.15408  0.92066  0.32858  1.0000
  H   H337      1.0  0.20921  0.82222  0.35703  1.0000
  C   C206      1.0  0.26354  0.98141  0.20440  1.0000
  H   H338      1.0  0.03655  0.70673  0.46033  1.0000
  H   H339      1.0  0.19497  0.83217  0.42231  1.0000
  H   H340      1.0  0.21043  0.94507  0.38423  1.0000
  H   H341      1.0  0.13422  0.85785  0.38853  1.0000
  H   H342      1.0  0.05214  0.71686  0.08243  1.0000
  C   C207      1.0  0.30130  0.96984  0.04871  1.0000
  H   H343      1.0  0.05894  0.74816  0.43866  1.0000
  H   H344      1.0  0.00265  0.72652  0.23221  1.0000
  H   H345      1.0  0.31679  0.96810  0.32284  1.0000
  H   H346      1.0  0.27210  0.96694  0.01157  1.0000
  H   H347      1.0  0.02480  0.70793  0.07170  1.0000
  H   H348      1.0  0.05371  0.78097  0.41882  1.0000
  C   C208      1.0  0.06537  0.70362  0.42778  1.0000
  H   H349      1.0  0.15007  0.89856  0.40305  1.0000
  C   C209      1.0  0.99490  0.73225  0.41907  1.0000
  H   H350      1.0  0.00091  0.75548  0.22900  1.0000
  H   H351      1.0  0.10292  0.62420  0.14659  1.0000
  C   C210      1.0  0.28944  0.97603  0.08695  1.0000
  H   H352      1.0  0.12294  0.84113  0.44939  1.0000
  C   C211      1.0  0.00529  0.73939  0.45899  1.0000
  H   H353      1.0  0.28478  0.99301  0.33416  1.0000
  C   C212      1.0  0.99819  0.64690  0.00416  1.0000
  N   N11       1.0  0.00861  0.53860  0.03295  1.0000
  C   C213      1.0  0.15973  0.88716  0.34543  1.0000
  H   H354      1.0  0.00606  0.78048  0.44492  1.0000
  Fe  Fe29      1.0  0.09387  0.65046  0.02457  1.0000
  C   C214      1.0  0.09050  0.52176  0.02961  1.0000
  C   C215      1.0  0.17829  0.90341  0.47132  1.0000
  H   H355      1.0  0.03981  0.73627  0.40622  1.0000
  H   H356      1.0  0.15485  0.73896  0.48448  1.0000
  C   C216      1.0  0.06872  0.62733  0.16086  1.0000
  H   H357      1.0  0.02758  0.55634  0.10417  1.0000
  H   H358      1.0  0.02688  0.80275  0.37910  1.0000
  N   N12       1.0  0.16461  0.76816  0.20357  1.0000
  C   C217      1.0  0.16958  0.75478  0.16704  1.0000
  C   C218      1.0  0.17754  0.78858  0.20565  1.0000
  C   C219      1.0  0.17161  0.75458  0.23798  1.0000
  C   C220      1.0  0.14063  0.77349  0.20667  1.0000
  C   C221      1.0  0.12943  0.78556  0.17225  1.0000
  C   C222      1.0  0.15695  0.73355  0.16109  1.0000
  C   C223      1.0  0.17379  0.76685  0.27817  1.0000
  C   C224      1.0  0.18072  0.80027  0.16706  1.0000
  C   C225      1.0  0.19017  0.82260  0.17512  1.0000
  C   C226      1.0  0.10486  0.78326  0.17162  1.0000
  C   C227      1.0  0.16320  0.72134  0.12339  1.0000
  C   C228      1.0  0.17630  0.75112  0.31155  1.0000
  H   H359      1.0  0.18727  0.75047  0.16672  1.0000
  H   H360      1.0  0.16642  0.76409  0.14034  1.0000
  H   H361      1.0  0.17033  0.80058  0.22699  1.0000
  H   H362      1.0  0.19439  0.78494  0.21691  1.0000
  H   H363      1.0  0.18767  0.74632  0.23297  1.0000
  H   H364      1.0  0.16007  0.74134  0.24144  1.0000
  H   H365      1.0  0.13164  0.75852  0.21138  1.0000
  H   H366      1.0  0.13748  0.78387  0.23313  1.0000
  H   H367      1.0  0.13492  0.77940  0.14348  1.0000
  H   H368      1.0  0.13268  0.80312  0.17558  1.0000
  H   H369      1.0  0.16040  0.72246  0.18542  1.0000
  H   H370      1.0  0.13921  0.73712  0.15903  1.0000
  H   H371      1.0  0.15949  0.77758  0.28357  1.0000
  H   H372      1.0  0.18826  0.77707  0.27950  1.0000
  H   H373      1.0  0.19231  0.79065  0.14870  1.0000
  H   H374      1.0  0.16544  0.80256  0.14982  1.0000
  H   H375      1.0  0.20570  0.82128  0.19238  1.0000
  H   H376      1.0  0.19332  0.83024  0.14714  1.0000
  H   H377      1.0  0.17858  0.83332  0.19150  1.0000
  H   H378      1.0  0.10064  0.76600  0.16709  1.0000
  H   H379      1.0  0.09808  0.78966  0.19937  1.0000
  H   H380      1.0  0.09726  0.79266  0.14746  1.0000
  H   H381      1.0  0.15396  0.70624  0.12002  1.0000
  H   H382      1.0  0.15924  0.73137  0.09771  1.0000
  H   H383      1.0  0.18079  0.71685  0.12413  1.0000
  H   H384      1.0  0.17776  0.76039  0.33980  1.0000
  H   H385      1.0  0.16190  0.74085  0.31236  1.0000
  H   H386      1.0  0.19109  0.74055  0.30808  1.0000
  N   N13       1.0  0.04669  0.66400  0.15678  1.0000
  H   H387      1.0  0.25107  0.95224  0.37933  1.0000
  C   C229      1.0  0.04431  0.68438  0.13348  1.0000
  C   C230      1.0  0.05380  0.67055  0.19804  1.0000
  C   C231      1.0  0.04791  0.68224  0.08890  1.0000
  H   H388      1.0  0.07980  0.65771  0.14131  1.0000
  C   C232      1.0  0.27520  0.97003  0.44903  1.0000
  H   H389      1.0  0.05628  0.69646  0.14442  1.0000
  H   H390      1.0  0.07079  0.67628  0.19850  1.0000
  H   H391      1.0  0.23575  0.95052  0.44232  1.0000
  C   C233      1.0  0.08790  0.61482  0.14264  1.0000
  H   H392      1.0  0.06512  0.67791  0.08311  1.0000
  H   H393      1.0  0.00686  0.72379  0.39998  1.0000
  C   C234      1.0  0.04988  0.69495  0.25857  1.0000
  C   C235      1.0  0.29720  0.90790  0.48515  1.0000
  H   H394      1.0  0.00796  0.78983  0.30340  1.0000
  H   H395      1.0  0.26707  0.97067  0.32710  1.0000
  C   C236      1.0  0.13318  0.83201  0.42798  1.0000
  H   H396      1.0  0.20209  0.97334  0.38829  1.0000
  H   H397      1.0  0.11513  0.72816  0.44331  1.0000
  H   H398      1.0  0.05959  0.58131  0.05745  1.0000
  C   C237      1.0  0.03168  0.80788  0.40947  1.0000
  H   H399      1.0  0.03809  0.66954  0.07448  1.0000
  C   C238      1.0  0.10859  0.73842  0.46659  1.0000
  H   H400      1.0  0.09866  0.51901  0.05750  1.0000
  H   H401      1.0  0.31045  0.97611  0.45159  1.0000
  H   H402      1.0  0.16958  0.91612  0.45427  1.0000
  C   C239      1.0  0.29634  0.90706  0.44433  1.0000
  H   H403      1.0  0.28151  0.94199  0.03327  1.0000
  H   H404      1.0  0.02681  0.63930  0.17872  1.0000
  H   H405      1.0  0.29738  0.96732  0.28239  1.0000
  H   H406      1.0  0.05631  0.69900  0.40037  1.0000
  C   C240      1.0  0.32439  0.95849  0.14578  1.0000
  H   H407      1.0  0.05407  0.65647  0.21731  1.0000
  H   H408      1.0  0.02804  0.69232  0.13774  1.0000
  H   H409      1.0  0.18258  0.77938  0.48701  1.0000
  H   H410      1.0  0.06003  0.57840  0.10953  1.0000
  H   H411      1.0  0.09117  0.55675  0.03658  1.0000
  H   H412      1.0  0.02778  0.63465  0.10145  1.0000
  H   H413      1.0  0.02322  0.68268  0.22386  1.0000
  H   H414      1.0  0.03799  0.70341  0.20182  1.0000
  H   H415      1.0  0.14922  0.87227  0.44942  1.0000
  H   H416      1.0  0.00506  0.52892  0.09250  1.0000
  H   H417      1.0  0.20363  0.87226  0.37414  1.0000
  C   C241      1.0  0.25717  0.90866  0.44442  1.0000
  C   C242      1.0  0.20868  0.95926  0.40471  1.0000
  H   H418      1.0  0.29892  0.94554  0.31591  1.0000
  H   H419      1.0  0.06109  0.64484  0.10948  1.0000
  C   C243      1.0  0.04233  0.70361  0.06917  1.0000
  H   H420      1.0  0.00776  0.72463  0.47622  1.0000
  C   C244      1.0  0.09600  0.77361  0.49098  1.0000
  C   C245      1.0  0.08624  0.54326  0.01781  1.0000
  H   H421      1.0  0.12237  0.82258  0.40768  1.0000
  H   H422      1.0  0.14422  0.82035  0.44343  1.0000
  C   C246      1.0  0.14616  0.84748  0.40480  1.0000
  C   C247      1.0  0.19202  0.86171  0.38788  1.0000
  H   H423      1.0  0.23767  0.97753  0.27870  1.0000
  H   H424      1.0  0.30602  0.98427  0.03324  1.0000
  C   C248      1.0  0.21955  0.83058  0.37953  1.0000
  C   C249      1.0  0.02538  0.65287  0.15819  1.0000
  H   H425      1.0  0.17483  0.88561  0.32878  1.0000
  N   N14       1.0  0.17677  0.87536  0.41289  1.0000
  C   C250      1.0  0.02306  0.51874  0.02607  1.0000
  H   H426      1.0  0.15560  0.75856  0.44655  1.0000
  H   H427      1.0  0.20582  0.92408  0.48329  1.0000
  H   H428      1.0  0.27731  0.95204  0.44754  1.0000
  C   C251      1.0  0.32306  0.90028  0.10486  1.0000
  N   N15       1.0  0.30143  0.99035  0.11649  1.0000
  C   C252      1.0  0.01122  0.49755  0.01482  1.0000
  H   H429      1.0  0.30249  0.97732  0.39086  1.0000
  H   H430      1.0  0.03775  0.59309  0.08598  1.0000
  H   H431      1.0  0.22964  0.81817  0.39506  1.0000
  H   H432      1.0  0.04952  0.54442  0.07650  1.0000
  H   H433      1.0  0.23054  0.84136  0.36480  1.0000
  H   H434      1.0  0.31603  0.95956  0.05507  1.0000
  C   C253      1.0  0.14561  0.90505  0.32685  1.0000
  H   H435      1.0  0.17555  0.90730  0.38811  1.0000
  C   C254      1.0  0.16533  0.89278  0.38900  1.0000
  C   C255      1.0  0.16064  0.86176  0.43220  1.0000
  C   C256      1.0  0.99706  0.75847  0.31773  1.0000
  H   H436      1.0  0.15574  0.83739  0.38386  1.0000
  H   H437      1.0  0.27122  0.92028  0.09132  1.0000
  C   C257      1.0  0.30258  0.89962  0.16506  1.0000
  H   H438      1.0  0.12986  0.90705  0.34152  1.0000
  C   C258      1.0  0.25807  0.90962  0.48596  1.0000
  H   H439      1.0  0.24174  0.90902  0.42860  1.0000
  C   C259      1.0  0.01569  0.64421  0.11861  1.0000
  H   H440      1.0  0.08476  0.61163  0.11092  1.0000
  C   C260      1.0  0.30466  0.90929  0.08587  1.0000
  H   H441      1.0  0.14231  0.90070  0.29556  1.0000
  H   H442      1.0  0.21690  0.85056  0.43115  1.0000
  C   C261      1.0  0.24793  0.96844  0.39395  1.0000
  C   C262      1.0  0.16495  0.75106  0.47109  1.0000
  H   H443      1.0  0.01264  0.57326  0.04004  1.0000
  N   N16       1.0  0.02588  0.75183  0.45773  1.0000
  C   C263      1.0  0.23050  0.96450  0.42442  1.0000
  C   C264      1.0  0.99667  0.62959  0.12442  1.0000
  H   H444      1.0  0.01770  0.81654  0.42332  1.0000
  H   H445      1.0  0.00928  0.65797  0.10122  1.0000
  H   H446      1.0  0.07142  0.68863  0.44203  1.0000
  H   H447      1.0  0.05434  0.61703  0.15753  1.0000
  H   H448      1.0  0.27347  0.98391  0.07893  1.0000
  H   H449      1.0  0.19814  0.87452  0.46453  1.0000
  H   H450      1.0  0.07293  0.62978  0.19230  1.0000
  H   H451      1.0  0.03490  0.52163  0.00334  1.0000
  C   C265      1.0  0.29589  0.97944  0.46913  1.0000
  H   H452      1.0  0.09065  0.59907  0.15692  1.0000
  C   C266      1.0  0.28674  0.97020  0.38206  1.0000
  H   H453      1.0  0.05984  0.71953  0.48327  1.0000
  H   H454      1.0  0.06603  0.70196  0.25501  1.0000
  C   C267      1.0  0.02267  0.55794  0.04006  1.0000
  C   C268      1.0  0.03297  0.75934  0.49861  1.0000
  H   H455      1.0  0.28281  0.96041  0.16735  1.0000
  C   C269      1.0  0.28671  0.95703  0.02012  1.0000
  H   H456      1.0  0.05178  0.68077  0.27753  1.0000
  H   H457      1.0  0.31872  0.96001  0.17617  1.0000
  H   H458      1.0  0.99993  0.73877  0.18488  1.0000
  H   H459      1.0  0.31284  0.90755  0.50042  1.0000
  N   N17       1.0  0.26901  0.97811  0.40895  1.0000
  H   H460      1.0  0.25310  0.96798  0.21198  1.0000
  H   H461      1.0  0.31430  0.94685  0.12898  1.0000
  C   C270      1.0  0.99486  0.53495  0.06751  1.0000
  H   H462      1.0  0.19690  0.95548  0.42704  1.0000
  H   H463      1.0  0.22778  0.97865  0.44446  1.0000
  C   C271      1.0  0.30017  0.96335  0.31348  1.0000
  C   C272      1.0  0.19419  0.91482  0.49960  1.0000
  H   H464      1.0  0.26004  0.97364  0.14338  1.0000
  H   H465      1.0  0.27631  0.98329  0.22769  1.0000
  C   C273      1.0  0.20806  0.98950  0.30384  1.0000
  C   C274      1.0  0.22935  0.99128  0.29214  1.0000
  H   H466      1.0  0.09227  0.79057  0.48627  1.0000
  C   C275      1.0  0.99494  0.74005  0.21570  1.0000
  H   H467      1.0  0.05063  0.76252  0.49986  1.0000
  S   S59       1.0  0.05703  0.63210  0.93758  1.0000
  H   H468      1.0  0.14530  0.64651  0.87370  1.0000
  H   H469      1.0  0.30414  0.97204  0.88524  1.0000
  S   S60       1.0  0.09538  0.65848  0.87277  1.0000
  Fe  Fe30      1.0  0.25930  0.91147  0.60967  1.0000
  S   S61       1.0  0.22306  0.91007  0.60513  1.0000
  S   S62       1.0  0.28160  0.91125  0.55812  1.0000
  Fe  Fe31      1.0  0.26049  0.91617  0.70049  1.0000
  S   S63       1.0  0.22408  0.91553  0.70099  1.0000
  S   S64       1.0  0.27389  0.92340  0.76261  1.0000
  Fe  Fe32      1.0  0.22654  0.88816  0.65630  1.0000
  S   S65       1.0  0.21274  0.85469  0.66223  1.0000
  Fe  Fe33      1.0  0.22418  0.93747  0.65047  1.0000
  S   S66       1.0  0.20414  0.96863  0.64572  1.0000
  S   S67       1.0  0.26311  0.88764  0.65806  1.0000
  S   S68       1.0  0.26023  0.94005  0.65229  1.0000
  Fe  Fe34      1.0  0.09898  0.79863  0.67610  1.0000
  S   S69       1.0  0.11560  0.76590  0.68179  1.0000
  S   S70       1.0  0.11333  0.83176  0.66992  1.0000
  Fe  Fe35      1.0  0.05333  0.77931  0.67229  1.0000
  S   S71       1.0  0.06654  0.74518  0.67794  1.0000
  S   S72       1.0  0.01817  0.79056  0.66302  1.0000
  Fe  Fe36      1.0  0.08956  0.75899  0.72413  1.0000
  S   S73       1.0  0.09595  0.74871  0.78712  1.0000
  Fe  Fe37      1.0  0.09123  0.75496  0.63520  1.0000
  S   S74       1.0  0.10000  0.73339  0.58268  1.0000
  S   S75       1.0  0.07445  0.79274  0.72118  1.0000
  S   S76       1.0  0.07647  0.78805  0.62693  1.0000
  H   H470      1.0  0.15043  0.54964  0.95924  1.0000
  H   H471      1.0  0.27686  0.87266  0.73718  1.0000
  H   H472      1.0  0.05366  0.68654  0.72777  1.0000
  H   H473      1.0  0.21489  0.87213  0.85951  1.0000
  C   C276      1.0  0.32016  0.97328  0.83074  1.0000
  C   C277      1.0  0.09990  0.74375  0.53526  1.0000
  C   C278      1.0  0.00495  0.54378  0.95814  1.0000
  H   H474      1.0  0.05640  0.80138  0.85603  1.0000
  Fe  Fe38      1.0  0.08690  0.65164  0.93546  1.0000
  H   H475      1.0  0.08865  0.77595  0.55187  1.0000
  C   C279      1.0  0.18716  0.88460  0.75300  1.0000
  H   H476      1.0  0.01325  0.52810  0.95021  1.0000
  H   H477      1.0  0.17041  0.82425  0.77620  1.0000
  H   H478      1.0  0.16969  0.63665  0.85057  1.0000
  H   H479      1.0  0.23693  0.97006  0.70787  1.0000
  H   H480      1.0  0.28397  0.92862  0.84386  1.0000
  C   C280      1.0  0.23056  0.98635  0.70366  1.0000
  H   H481      1.0  0.16170  0.90213  0.72092  1.0000
  H   H482      1.0  0.26220  0.97943  0.91317  1.0000
  C   C281      1.0  0.29643  0.91796  0.83186  1.0000
  C   C282      1.0  0.25272  0.99094  0.58928  1.0000
  C   C283      1.0  0.18505  0.84902  0.66662  1.0000
  C   C284      1.0  0.16860  0.86464  0.65973  1.0000
  C   C285      1.0  0.14671  0.85914  0.66148  1.0000
  C   C286      1.0  0.14108  0.83801  0.67002  1.0000
  C   C287      1.0  0.15755  0.82247  0.67750  1.0000
  C   C288      1.0  0.17945  0.82797  0.67580  1.0000
  H   H483      1.0  0.17271  0.88086  0.65253  1.0000
  H   H484      1.0  0.13404  0.87126  0.65576  1.0000
  H   H485      1.0  0.15338  0.80621  0.68436  1.0000
  H   H486      1.0  0.19211  0.81579  0.68116  1.0000
  H   H487      1.0  0.00514  0.71340  0.77279  1.0000
  C   C289      1.0  0.09513  0.68378  0.84957  1.0000
  C   C290      1.0  0.09639  0.70346  0.87077  1.0000
  C   C291      1.0  0.09695  0.72309  0.85107  1.0000
  C   C292      1.0  0.09592  0.72333  0.81003  1.0000
  C   C293      1.0  0.09469  0.70363  0.78882  1.0000
  C   C294      1.0  0.09441  0.68398  0.80852  1.0000
  H   H488      1.0  0.09730  0.70356  0.90231  1.0000
  H   H489      1.0  0.09807  0.73821  0.86777  1.0000
  H   H490      1.0  0.09411  0.70354  0.75727  1.0000
  H   H491      1.0  0.09367  0.66884  0.79180  1.0000
  H   H492      1.0  0.00961  0.71400  0.84058  1.0000
  H   H493      1.0  0.18135  0.91928  0.74508  1.0000
  H   H494      1.0  0.16353  0.82089  0.82618  1.0000
  C   C295      1.0  0.23600  0.86991  0.76736  1.0000
  H   H495      1.0  0.19436  0.84256  0.84978  1.0000
  C   C296      1.0  0.07416  0.50772  0.96953  1.0000
  C   C297      1.0  0.31134  0.89761  0.77710  1.0000
  C   C298      1.0  0.29533  0.91192  0.79199  1.0000
  H   H496      1.0  0.05565  0.75380  0.57057  1.0000
  H   H497      1.0  0.31086  0.89290  0.74643  1.0000
  H   H498      1.0  0.07845  0.61547  0.84979  1.0000
  H   H499      1.0  0.28674  0.84563  0.74722  1.0000
  C   C299      1.0  0.23898  0.98326  0.55281  1.0000
  C   C300      1.0  0.03616  0.75636  0.80320  1.0000
  S   S77       1.0  0.10603  0.62863  0.97453  1.0000
  H   H500      1.0  0.22975  0.90735  0.84436  1.0000
  C   C301      1.0  0.01820  0.72954  0.84431  1.0000
  C   C302      1.0  0.04079  0.72458  0.86397  1.0000
  H   H501      1.0  0.02451  0.68583  0.72959  1.0000
  H   H502      1.0  0.04762  0.59536  0.87545  1.0000
  C   C303      1.0  0.03941  0.71055  0.76776  1.0000
  H   H503      1.0  0.27140  0.96324  0.85628  1.0000
  C   C304      1.0  0.03933  0.70862  0.89673  1.0000
  H   H504      1.0  0.18700  0.80648  0.53014  1.0000
  H   H505      1.0  0.19689  0.88243  0.72661  1.0000
  H   H506      1.0  0.14518  0.57709  0.90533  1.0000
  H   H507      1.0  0.05207  0.74787  0.80760  1.0000
  H   H508      1.0  0.15705  0.75163  0.57540  1.0000
  C   C305      1.0  0.23808  0.95863  0.54978  1.0000
  H   H509      1.0  0.99654  0.76345  0.77442  1.0000
  C   C306      1.0  0.24076  0.89282  0.84645  1.0000
  H   H510      1.0  0.20326  0.84384  0.76161  1.0000
  H   H511      1.0  0.13317  0.83738  0.53504  1.0000
  H   H512      1.0  0.04772  0.73966  0.87683  1.0000
  H   H513      1.0  0.05250  0.71757  0.84307  1.0000
  H   H514      1.0  0.23055  0.95259  0.57599  1.0000
  H   H515      1.0  0.23874  0.89191  0.90981  1.0000
  H   H516      1.0  0.03660  0.76261  0.77310  1.0000
  H   H517      1.0  0.23492  0.95025  0.82742  1.0000
  H   H518      1.0  0.05392  0.72050  0.76663  1.0000
  H   H519      1.0  0.04123  0.69924  0.79210  1.0000
  C   C307      1.0  0.03850  0.69668  0.72998  1.0000
  H   H520      1.0  0.01612  0.73366  0.74433  1.0000
  C   C308      1.0  0.27824  0.90927  0.50642  1.0000
  H   H521      1.0  0.00360  0.64397  0.91265  1.0000
  C   C309      1.0  0.27035  0.97698  0.83622  1.0000
  H   H522      1.0  0.05526  0.70705  0.91258  1.0000
  H   H523      1.0  0.99656  0.54964  0.89740  1.0000
  N   N18       1.0  0.01782  0.74100  0.80602  1.0000
  H   H524      1.0  0.09076  0.81687  0.55694  1.0000
  H   H525      1.0  0.00036  0.49951  0.98877  1.0000
  C   C310      1.0  0.17107  0.81385  0.53857  1.0000
  C   C311      1.0  0.17197  0.90443  0.74787  1.0000
  N   N19       1.0  0.11599  0.58513  0.87106  1.0000
  C   C312      1.0  0.09185  0.58612  0.87689  1.0000
  C   C313      1.0  0.12291  0.55314  0.91797  1.0000
  H   H526      1.0  0.18142  0.75995  0.52473  1.0000
  H   H527      1.0  0.26329  0.87940  0.89031  1.0000
  C   C314      1.0  0.10830  0.55188  0.82396  1.0000
  C   C315      1.0  0.07784  0.59764  0.84486  1.0000
  H   H528      1.0  0.13073  0.54165  0.89671  1.0000
  H   H529      1.0  0.21601  0.97009  0.80696  1.0000
  H   H530      1.0  0.12532  0.55907  0.98103  1.0000
  C   C316      1.0  0.11890  0.53754  0.79225  1.0000
  H   H531      1.0  0.08829  0.59501  0.90486  1.0000
  H   H532      1.0  0.08548  0.56976  0.88020  1.0000
  C   C317      1.0  0.00169  0.65787  0.89300  1.0000
  H   H533      1.0  0.02696  0.71425  0.91795  1.0000
  H   H534      1.0  0.25459  0.95114  0.54717  1.0000
  Fe  Fe39      1.0  0.04904  0.65330  0.98946  1.0000
  C   C318      1.0  0.31344  0.91026  0.85652  1.0000
  H   H535      1.0  0.09213  0.55734  0.81227  1.0000
  H   H536      1.0  0.31078  0.96062  0.81473  1.0000
  H   H537      1.0  0.08378  0.59369  0.81522  1.0000
  C   C319      1.0  0.12237  0.57167  0.83535  1.0000
  H   H538      1.0  0.10539  0.55007  0.91837  1.0000
  H   H539      1.0  0.20364  0.84395  0.53793  1.0000
  H   H540      1.0  0.15489  0.60001  0.84170  1.0000
  H   H541      1.0  0.10396  0.83885  0.58338  1.0000
  C   C320      1.0  0.09406  0.76537  0.52831  1.0000
  H   H542      1.0  0.13479  0.53073  0.80305  1.0000
  C   C321      1.0  0.23344  0.96517  0.81027  1.0000
  H   H543      1.0  0.12135  0.54695  0.76583  1.0000
  C   C322      1.0  0.17652  0.83202  0.56935  1.0000
  H   H544      1.0  0.16117  0.90665  0.77305  1.0000
  C   C323      1.0  0.06976  0.52921  0.95784  1.0000
  C   C324      1.0  0.20828  0.84730  0.79270  1.0000
  C   C325      1.0  0.22800  0.87183  0.83801  1.0000
  H   H545      1.0  0.02386  0.78891  0.82016  1.0000
  H   H546      1.0  0.31401  0.91518  0.88709  1.0000
  C   C326      1.0  0.15662  0.76461  0.59858  1.0000
  H   H547      1.0  0.23852  0.98700  0.85941  1.0000
  C   C327      1.0  0.27194  0.85578  0.74087  1.0000
  H   H548      1.0  0.24357  0.98676  0.61527  1.0000
  H   H549      1.0  0.26549  0.86002  0.80146  1.0000
  H   H550      1.0  0.16180  0.83929  0.58287  1.0000
  H   H551      1.0  0.30463  0.95175  0.50472  1.0000
  C   C328      1.0  0.14760  0.61144  0.86364  1.0000
  C   C329      1.0  0.99678  0.75414  0.80178  1.0000
  H   H552      1.0  0.32512  0.98512  0.80947  1.0000
  C   C330      1.0  0.24594  0.98349  0.83075  1.0000
  H   H553      1.0  0.28655  0.97146  0.52771  1.0000
  H   H554      1.0  0.09356  0.84241  0.53423  1.0000
  H   H555      1.0  0.24557  0.98872  0.52547  1.0000
  H   H556      1.0  0.18518  0.92634  0.51926  1.0000
  C   C331      1.0  0.05407  0.59160  0.84602  1.0000
  C   C332      1.0  0.12290  0.60813  0.86664  1.0000
  C   C333      1.0  0.03775  0.75328  0.57149  1.0000
  C   C334      1.0  0.12341  0.82284  0.53815  1.0000
  H   H557      1.0  0.20331  0.90287  0.51788  1.0000
  H   H558      1.0  0.18480  0.78083  0.57895  1.0000
  H   H559      1.0  0.12196  0.58182  0.80908  1.0000
  H   H560      1.0  0.12892  0.53112  0.96533  1.0000
  H   H561      1.0  0.25982  0.90843  0.89299  1.0000
  H   H562      1.0  0.13721  0.81469  0.59486  1.0000
  H   H563      1.0  0.27579  0.96991  0.80769  1.0000
  H   H564      1.0  0.22927  0.86558  0.73781  1.0000
  H   H565      1.0  0.03522  0.72777  0.52765  1.0000
  H   H566      1.0  0.17682  0.87035  0.75446  1.0000
  H   H567      1.0  0.17652  0.85753  0.81742  1.0000
  S   S78       1.0  0.06923  0.57391  0.96540  1.0000
  C   C335      1.0  0.18842  0.85028  0.55126  1.0000
  H   H568      1.0  0.22814  0.95363  0.52366  1.0000
  C   C336      1.0  0.16763  0.78524  0.58546  1.0000
  C   C337      1.0  0.13515  0.80647  0.56562  1.0000
  H   H569      1.0  0.03097  0.76982  0.57836  1.0000
  H   H570      1.0  0.23974  0.96152  0.78071  1.0000
  C   C338      1.0  0.99697  0.77337  0.67267  1.0000
  H   H571      1.0  0.03706  0.70709  0.70422  1.0000
  C   C339      1.0  0.25123  0.89307  0.88745  1.0000
  H   H572      1.0  0.05236  0.57406  0.83886  1.0000
  C   C340      1.0  0.18871  0.84398  0.81888  1.0000
  H   H573      1.0  0.19157  0.89009  0.81549  1.0000
  H   H574      1.0  0.25393  0.89440  0.82568  1.0000
  H   H575      1.0  0.11724  0.61861  0.89162  1.0000
  C   C341      1.0  0.13255  0.54801  0.95835  1.0000
  C   C342      1.0  0.12729  0.57673  0.90753  1.0000
  C   C343      1.0  0.16817  0.75558  0.63489  1.0000
  H   H576      1.0  0.16871  0.79642  0.61153  1.0000
  H   H577      1.0  0.16750  0.76766  0.65963  1.0000
  H   H578      1.0  0.03369  0.74263  0.59543  1.0000
  C   C344      1.0  0.01854  0.72490  0.77190  1.0000
  C   C345      1.0  0.30664  0.98458  0.86343  1.0000
  H   H579      1.0  0.18732  0.82532  0.59280  1.0000
  H   H580      1.0  0.24163  0.88671  0.76491  1.0000
  H   H581      1.0  0.12355  0.79353  0.57027  1.0000
  H   H582      1.0  0.13945  0.76814  0.60569  1.0000
  H   H583      1.0  0.06355  0.79118  0.80810  1.0000
  C   C346      1.0  0.10160  0.83066  0.55424  1.0000
  H   H584      1.0  0.06965  0.77505  0.85026  1.0000
  H   H585      1.0  0.18538  0.75117  0.62897  1.0000
  C   C347      1.0  0.07572  0.54717  0.98183  1.0000
  H   H586      1.0  0.16000  0.74082  0.64351  1.0000
  H   H587      1.0  0.23869  0.85760  0.84557  1.0000
  C   C348      1.0  0.25641  0.85494  0.77441  1.0000
  H   H588      1.0  0.25207  0.83781  0.77677  1.0000
  C   C349      1.0  0.20213  0.88732  0.78999  1.0000
  H   H589      1.0  0.02064  0.62228  0.98231  1.0000
  C   C350      1.0  0.21397  0.99013  0.67576  1.0000
  H   H590      1.0  0.18852  0.80892  0.80837  1.0000
  H   H591      1.0  0.10553  0.54165  0.84896  1.0000
  H   H592      1.0  0.01712  0.74433  0.67356  1.0000
  C   C351      1.0  0.17716  0.82322  0.80657  1.0000
  H   H593      1.0  0.04429  0.60101  0.82433  1.0000
  H   H594      1.0  0.22027  0.83410  0.79984  1.0000
  H   H595      1.0  0.26411  0.84954  0.71326  1.0000
  C   C352      1.0  0.05764  0.78659  0.83679  1.0000
  H   H596      1.0  0.03528  0.69237  0.88435  1.0000
  H   H597      1.0  0.10828  0.52386  0.78397  1.0000
  H   H598      1.0  0.06172  0.53191  0.92984  1.0000
  N   N20       1.0  0.21858  0.86909  0.79710  1.0000
  H   H599      1.0  0.21050  0.90286  0.78731  1.0000
  H   H600      1.0  0.11505  0.61514  0.84004  1.0000
  H   H601      1.0  0.13956  0.56575  0.83876  1.0000
  N   N21       1.0  0.15646  0.79669  0.55185  1.0000
  H   H602      1.0  0.11130  0.71345  0.50908  1.0000
  H   H603      1.0  0.12308  0.58752  0.93311  1.0000
  C   C353      1.0  0.15195  0.63451  0.85193  1.0000
  H   H604      1.0  0.00894  0.73924  0.86656  1.0000
  H   H605      1.0  0.28681  0.98918  0.93579  1.0000
  H   H606      1.0  0.14437  0.63782  0.82282  1.0000
  H   H607      1.0  0.03011  0.77209  0.86101  1.0000
  H   H608      1.0  0.15605  0.60912  0.89233  1.0000
  C   C354      1.0  0.00094  0.75122  0.67710  1.0000
  H   H609      1.0  0.01707  0.55663  0.95874  1.0000
  C   C355      1.0  0.02834  0.74437  0.53266  1.0000
  Fe  Fe40      1.0  0.07530  0.61021  0.97956  1.0000
  C   C356      1.0  0.15185  0.78110  0.51798  1.0000
  H   H610      1.0  0.19277  0.86257  0.57440  1.0000
  C   C357      1.0  0.00460  0.62576  0.99295  1.0000
  H   H611      1.0  0.12028  0.81540  0.50877  1.0000
  H   H612      1.0  0.29575  0.95250  0.99340  1.0000
  H   H613      1.0  0.31483  0.97709  0.52346  1.0000
  H   H614      1.0  0.17790  0.85832  0.52885  1.0000
  C   C358      1.0  0.03547  0.77639  0.83181  1.0000
  H   H615      1.0  0.26784  0.98056  0.59050  1.0000
  H   H616      1.0  0.28136  0.98933  0.65163  1.0000
  S   S79       1.0  0.07741  0.67461  0.98486  1.0000
  C   C359      1.0  0.30068  0.96933  0.50866  1.0000
  H   H617      1.0  0.22199  0.98968  0.55457  1.0000
  H   H618      1.0  0.99877  0.79882  0.54944  1.0000
  H   H619      1.0  0.00577  0.67292  0.90990  1.0000
  H   H620      1.0  0.16418  0.82130  0.51162  1.0000
  H   H621      1.0  0.01331  0.65530  0.86910  1.0000
  H   H622      1.0  0.13973  0.76924  0.52591  1.0000
  H   H623      1.0  0.02470  0.77512  0.50662  1.0000
  C   C360      1.0  0.10669  0.73019  0.50400  1.0000
  H   H624      1.0  0.01060  0.74330  0.53626  1.0000
  S   S80       1.0  0.01593  0.66794  0.99978  1.0000
  H   H625      1.0  0.99491  0.59291  0.98452  1.0000
  H   H626      1.0  0.99533  0.76640  0.82614  1.0000
  H   H627      1.0  0.06969  0.49418  0.95043  1.0000
  H   H628      1.0  0.24335  0.91065  0.50215  1.0000
  C   C361      1.0  0.17184  0.76832  0.50153  1.0000
  H   H629      1.0  0.61351  0.99651  0.04908  1.0000
  Fe  Fe41      1.0  0.37785  0.07817  0.05444  1.0000
  S   S81       1.0  0.38961  0.10879  0.08392  1.0000
  H   H630      1.0  0.47515  0.04215  0.11855  1.0000
  Fe  Fe42      1.0  0.35688  0.12260  0.06339  1.0000
  H   H631      1.0  0.57462  0.04349  0.10381  1.0000
  Fe  Fe43      1.0  0.40163  0.11581  0.02406  1.0000
  N   N22       1.0  0.54144  0.03720  0.08603  1.0000
  C   C362      1.0  0.64358  0.12032  0.22061  1.0000
  S   S82       1.0  0.59274  0.09869  0.08231  1.0000
  Fe  Fe44      1.0  0.61823  0.12103  0.06536  1.0000
  S   S83       1.0  0.64492  0.13560  0.10525  1.0000
  C   C363      1.0  0.64651  0.07134  0.11335  1.0000
  C   C364      1.0  0.51923  0.03649  0.10327  1.0000
  C   C365      1.0  0.55186  0.99735  0.10300  1.0000
  H   H632      1.0  0.62077  0.12040  0.17111  1.0000
  C   C366      1.0  0.50453  0.05743  0.10116  1.0000
  C   C367      1.0  0.63731  0.12309  0.18103  1.0000
  C   C368      1.0  0.36336  0.00641  0.05928  1.0000
  C   C369      1.0  0.48506  0.05629  0.12729  1.0000
  C   C370      1.0  0.54823  0.01465  0.07154  1.0000
  H   H633      1.0  0.52087  0.03191  0.13438  1.0000
  H   H634      1.0  0.55889  0.05357  0.04263  1.0000
  Fe  Fe45      1.0  0.60450  0.07701  0.03364  1.0000
  H   H635      1.0  0.56698  0.00041  0.12052  1.0000
  H   H636      1.0  0.55893  0.03333  0.14138  1.0000
  C   C371      1.0  0.32904  0.12212  0.16641  1.0000
  H   H637      1.0  0.65037  0.07224  0.24957  1.0000
  C   C372      1.0  0.50098  0.12304  0.00310  1.0000
  H   H638      1.0  0.51327  0.07221  0.11000  1.0000
  C   C373      1.0  0.57347  0.07259  0.16422  1.0000
  H   H639      1.0  0.35921  0.18503  0.47020  1.0000
  C   C374      1.0  0.55469  0.06721  0.13564  1.0000
  H   H640      1.0  0.64699  0.05881  0.31500  1.0000
  C   C375      1.0  0.46218  0.12154  0.01748  1.0000
  C   C376      1.0  0.60365  0.00124  0.02398  1.0000
  S   S84       1.0  0.53473  0.11457  0.05820  1.0000
  H   H641      1.0  0.51286  0.03746  0.02297  1.0000
  H   H642      1.0  0.63449  0.05961  0.12212  1.0000
  S   S85       1.0  0.63157  0.09810  0.01898  1.0000
  H   H643      1.0  0.55348  0.07989  0.11361  1.0000
  C   C377      1.0  0.65225  0.13012  0.15476  1.0000
  H   H644      1.0  0.57389  0.06160  0.18917  1.0000
  C   C378      1.0  0.52844  0.04423  0.01502  1.0000
  S   S86       1.0  0.36967  0.13263  0.00563  1.0000
  H   H645      1.0  0.64071  0.08797  0.12181  1.0000
  H   H646      1.0  0.47472  0.07128  0.12461  1.0000
  C   C379      1.0  0.49035  0.11263  0.06661  1.0000
  H   H647      1.0  0.49772  0.00067  0.00981  1.0000
  C   C380      1.0  0.43998  0.05587  0.04326  1.0000
  S   S87       1.0  0.34489  0.09133  0.03776  1.0000
  C   C381      1.0  0.33249  0.17567  0.43116  1.0000
  S   S88       1.0  0.59502  0.13827  0.02311  1.0000
  H   H648      1.0  0.33449  0.17661  0.36903  1.0000
  H   H649      1.0  0.45248  0.06345  0.06274  1.0000
  C   C382      1.0  0.55818  0.04437  0.11650  1.0000
  C   C383      1.0  0.35169  0.18993  0.44184  1.0000
  S   S89       1.0  0.38028  0.04540  0.08009  1.0000
  H   H650      1.0  0.34621  0.20721  0.44476  1.0000
  H   H651      1.0  0.42401  0.05850  0.05697  1.0000
  H   H652      1.0  0.57131  0.08954  0.17571  1.0000
  H   H653      1.0  0.36417  0.18812  0.41924  1.0000
  C   C384      1.0  0.36623  0.02764  0.04847  1.0000
  H   H654      1.0  0.45573  0.11175  0.07537  1.0000
  H   H655      1.0  0.33871  0.15860  0.43057  1.0000
  H   H656      1.0  0.63177  0.11535  0.24080  1.0000
  H   H657      1.0  0.58926  0.07103  0.14959  1.0000
  C   C385      1.0  0.59965  0.02315  0.01703  1.0000
  C   C386      1.0  0.46817  0.11469  0.05492  1.0000
  H   H658      1.0  0.65265  0.06104  0.18556  1.0000
  H   H659      1.0  0.46191  0.03016  0.02583  1.0000
  C   C387      1.0  0.50698  0.11690  0.04097  1.0000
  H   H660      1.0  0.53979  0.06789  0.15289  1.0000
  H   H661      1.0  0.64765  0.07019  0.08120  1.0000
  H   H662      1.0  0.56354  0.01514  0.05550  1.0000
  Fe  Fe46      1.0  0.57003  0.11353  0.03671  1.0000
  S   S90       1.0  0.61104  0.04240  0.04916  1.0000
  H   H663      1.0  0.50958  0.02344  0.08865  1.0000
  C   C388      1.0  0.35846  0.03434  0.01189  1.0000
  H   H664      1.0  0.49815  0.05968  0.07088  1.0000
  H   H665      1.0  0.44562  0.02420  0.06608  1.0000
  H   H666      1.0  0.49054  0.05505  0.15833  1.0000
  H   H667      1.0  0.49465  0.10813  0.09611  1.0000
  C   C389      1.0  0.54188  0.05184  0.05178  1.0000
  H   H668      1.0  0.53643  0.06858  0.05997  1.0000
  H   H669      1.0  0.53598  0.00816  0.05006  1.0000
  H   H670      1.0  0.36062  0.05067  0.00319  1.0000
  S   S91       1.0  0.43443  0.12664  0.00210  1.0000
  H   H671      1.0  0.33053  0.13734  0.37673  1.0000
  H   H672      1.0  0.65677  0.04642  0.02301  1.0000
  H   H673      1.0  0.33171  0.02568  0.13241  1.0000
  C   C390      1.0  0.44530  0.03165  0.03723  1.0000
  H   H674      1.0  0.43966  0.06419  0.01504  1.0000
  H   H675      1.0  0.53801  0.99739  0.12281  1.0000
  H   H676      1.0  0.36896  0.00138  0.08786  1.0000
  H   H677      1.0  0.34424  0.11404  0.15886  1.0000
  S   S92       1.0  0.33029  0.14242  0.09500  1.0000
  H   H678      1.0  0.41786  0.00403  0.08316  1.0000
  H   H679      1.0  0.41212  0.02526  0.01902  1.0000
  H   H680      1.0  0.65658  0.04354  0.24930  1.0000
  C   C391      1.0  0.42863  0.02091  0.00832  1.0000
  H   H681      1.0  0.51305  0.07544  0.00167  1.0000
  H   H682      1.0  0.32886  0.10882  0.22380  1.0000
  C   C392      1.0  0.59662  0.07041  0.87526  1.0000
  H   H683      1.0  0.38543  0.07249  0.89728  1.0000
  H   H684      1.0  0.62106  0.06605  0.92028  1.0000
  H   H685      1.0  0.53860  0.06987  0.97837  1.0000
  H   H686      1.0  0.48089  0.15451  0.90732  1.0000
  S   S93       1.0  0.61620  0.12176  0.91558  1.0000
  H   H687      1.0  0.41468  0.13744  0.82640  1.0000
  H   H688      1.0  0.58584  0.06069  0.85548  1.0000
  H   H689      1.0  0.64579  0.01815  0.97546  1.0000
  H   H690      1.0  0.60165  0.04486  0.91481  1.0000
  C   C393      1.0  0.40114  0.17559  0.93403  1.0000
  C   C394      1.0  0.40488  0.14662  0.84851  1.0000
  C   C395      1.0  0.63817  0.11112  0.88743  1.0000
  C   C396      1.0  0.63900  0.11634  0.84789  1.0000
  H   H691      1.0  0.33838  0.13575  0.90429  1.0000
  C   C397      1.0  0.47508  0.15585  0.87647  1.0000
  H   H692      1.0  0.63159  0.04322  0.96603  1.0000
  H   H693      1.0  0.39373  0.18889  0.78500  1.0000
  H   H694      1.0  0.62638  0.12679  0.83537  1.0000
  H   H695      1.0  0.40311  0.18661  0.90988  1.0000
  C   C398      1.0  0.47879  0.12552  0.99165  1.0000
  H   H696      1.0  0.41756  0.17926  0.84116  1.0000
  C   C399      1.0  0.40234  0.17042  0.83625  1.0000
  H   H697      1.0  0.47235  0.17324  0.86998  1.0000
  H   H698      1.0  0.58637  0.08051  0.89532  1.0000
  H   H699      1.0  0.63826  0.05535  0.86074  1.0000
  H   H700      1.0  0.58301  0.04611  0.98000  1.0000
  H   H701      1.0  0.38838  0.14004  0.84479  1.0000
  C   C400      1.0  0.62791  0.04279  0.87216  1.0000
  C   C401      1.0  0.57749  0.01345  0.95985  1.0000
  H   H702      1.0  0.40778  0.07593  0.86592  1.0000
  C   C402      1.0  0.38168  0.18411  0.95705  1.0000
  S   S94       1.0  0.39165  0.08404  0.99658  1.0000
  H   H703      1.0  0.65576  0.11158  0.79358  1.0000
  C   C403      1.0  0.61195  0.05559  0.89898  1.0000
  H   H704      1.0  0.38907  0.17879  0.85253  1.0000
  Fe  Fe47      1.0  0.35941  0.10024  0.98158  1.0000
  C   C404      1.0  0.34847  0.01962  0.98569  1.0000
  C   C405      1.0  0.39552  0.10573  0.89470  1.0000
  C   C406      1.0  0.43611  0.15221  0.89620  1.0000
  H   H705      1.0  0.56752  0.01818  0.93482  1.0000
  C   C407      1.0  0.45423  0.14348  0.86896  1.0000
  C   C408      1.0  0.52341  0.06267  0.98734  1.0000
  H   H706      1.0  0.61842  0.03615  0.84647  1.0000
  H   H707      1.0  0.60590  0.08141  0.85768  1.0000
  H   H708      1.0  0.38363  0.20152  0.96507  1.0000
  H   H709      1.0  0.34312  0.02469  0.95696  1.0000
  H   H710      1.0  0.65428  0.09347  0.93348  1.0000
  H   H711      1.0  0.41209  0.07702  0.91840  1.0000
  H   H712      1.0  0.48795  0.14896  0.85735  1.0000
  C   C409      1.0  0.65545  0.01470  0.85846  1.0000
  H   H713      1.0  0.38063  0.17526  0.98444  1.0000
  H   H714      1.0  0.38049  0.16341  0.78633  1.0000
  C   C410      1.0  0.62705  0.00765  0.90349  1.0000
  H   H715      1.0  0.41580  0.17683  0.95367  1.0000
  H   H716      1.0  0.38146  0.14928  0.90962  1.0000
  H   H717      1.0  0.45826  0.12616  0.87424  1.0000
  C   C411      1.0  0.40061  0.08131  0.89405  1.0000
  H   H718      1.0  0.42639  0.11485  0.92056  1.0000
  H   H719      1.0  0.64497  0.00704  0.83509  1.0000
  H   H720      1.0  0.42612  0.11107  0.86893  1.0000
  H   H721      1.0  0.44929  0.14521  0.83784  1.0000
  H   H722      1.0  0.38434  0.10899  0.86953  1.0000
  C   C412      1.0  0.39599  0.17167  0.79290  1.0000
  H   H723      1.0  0.43542  0.17006  0.89403  1.0000
  Fe  Fe48      1.0  0.60738  0.11356  0.97777  1.0000
  C   C413      1.0  0.39861  0.15160  0.91972  1.0000
  H   H724      1.0  0.40889  0.16403  0.77466  1.0000
  H   H725      1.0  0.61514  0.00309  0.87966  1.0000
  N   N23       1.0  0.41402  0.14275  0.88914  1.0000
  H   H726      1.0  0.46661  0.01300  0.96596  1.0000
  H   H727      1.0  0.39269  0.01212  0.96496  1.0000
  H   H728      1.0  0.38678  0.11004  0.92177  1.0000
  C   C414      1.0  0.41672  0.11851  0.89339  1.0000
  S   S95       1.0  0.34230  0.08974  0.92409  1.0000
  C   C415      1.0  0.64759  0.03467  0.96466  1.0000
  C   C416      1.0  0.58634  0.02927  0.98529  1.0000
  H   H729      1.0  0.40084  0.14222  0.94677  1.0000
  H   H730      1.0  0.44188  0.14930  0.92682  1.0000
  H   H731      1.0  0.61668  0.01410  0.92707  1.0000
  C   C417      1.0  0.65457  0.09749  0.90309  1.0000
  S   S96       1.0  0.58094  0.09029  0.98869  1.0000
  N   N24       1.0  0.64168  0.02485  0.89030  1.0000
  H   H732      1.0  0.40015  0.00823  0.89394  1.0000
  H   H733      1.0  0.36637  0.18246  0.93940  1.0000
  H   H734      1.0  0.51345  0.12642  0.98294  1.0000
  H   H735      1.0  0.47450  0.13078  0.96265  1.0000
  H   H736      1.0  0.42962  0.02965  0.98061  1.0000
  C   C418      1.0  0.65641  0.03368  0.92276  1.0000
  H   H737      1.0  0.51458  0.05642  0.96079  1.0000
  C   C419      1.0  0.65574  0.10782  0.82413  1.0000
  N   N25       1.0  0.43101  0.99665  0.00080  1.0000
  C   C420      1.0  0.34662  0.99811  0.99580  1.0000
  H   H738      1.0  0.43092  0.00045  0.93823  1.0000
  H   H739      1.0  0.53774  0.03133  0.99870  1.0000
  H   H740      1.0  0.33126  0.16956  0.97776  1.0000
  H   H741      1.0  0.50348  0.99629  0.95892  1.0000
  C   C421      1.0  0.39156  0.99560  0.90899  1.0000
  C   C422      1.0  0.46924  0.99551  0.97155  1.0000
  H   H742      1.0  0.37382  0.99893  0.90524  1.0000
  C   C423      1.0  0.39770  0.99601  0.95248  1.0000
  H   H743      1.0  0.66100  0.04092  0.81838  1.0000
  H   H744      1.0  0.65813  0.15656  0.77143  1.0000
  C   C424      1.0  0.32789  0.12656  0.88459  1.0000
  H   H745      1.0  0.35346  0.94559  0.11746  1.0000
  S   S97       1.0  0.56763  0.92992  0.01186  1.0000
  H   H746      1.0  0.35181  0.97514  0.04097  1.0000
  H   H747      1.0  0.60908  0.87726  0.24487  1.0000
  Fe  Fe49      1.0  0.60094  0.91590  0.02696  1.0000
  S   S98       1.0  0.61449  0.92479  0.08849  1.0000
  H   H748      1.0  0.41883  0.95438  0.08887  1.0000
  H   H749      1.0  0.63893  0.88302  0.08881  1.0000
  H   H750      1.0  0.65708  0.96490  0.10741  1.0000
  C   C425      1.0  0.65830  0.89090  0.00927  1.0000
  S   S99       1.0  0.34783  0.89499  0.08038  1.0000
  H   H751      1.0  0.65050  0.93183  0.03518  1.0000
  C   C426      1.0  0.65277  0.97039  0.07756  1.0000
  H   H752      1.0  0.63590  0.96577  0.06977  1.0000
  H   H753      1.0  0.41873  0.96686  0.02096  1.0000
  C   C427      1.0  0.53273  0.82935  0.14213  1.0000
  H   H754      1.0  0.59573  0.83089  0.05272  1.0000
  H   H755      1.0  0.61692  0.85020  0.04923  1.0000
  H   H756      1.0  0.51932  0.84048  0.15197  1.0000
  C   C428      1.0  0.64130  0.92534  0.15443  1.0000
  H   H757      1.0  0.61610  0.90302  0.22615  1.0000
  H   H758      1.0  0.62252  0.82507  0.07317  1.0000
  H   H759      1.0  0.35866  0.96005  0.16362  1.0000
  C   C429      1.0  0.34756  0.94889  0.14744  1.0000
  S   S100      1.0  0.37563  0.93794  0.02236  1.0000
  C   C430      1.0  0.42365  0.98766  0.07274  1.0000
  H   H760      1.0  0.59673  0.90205  0.26417  1.0000
  H   H761      1.0  0.52593  0.81745  0.12041  1.0000
  C   C431      1.0  0.35376  0.99159  0.03276  1.0000
  H   H762      1.0  0.53964  0.82040  0.16744  1.0000
  H   H763      1.0  0.63431  0.94142  0.15985  1.0000
  C   C432      1.0  0.63485  0.91340  0.12054  1.0000
  H   H764      1.0  0.66036  0.86040  0.03970  1.0000
  H   H765      1.0  0.53978  0.97005  0.06738  1.0000
  H   H766      1.0  0.33588  0.88818  0.15942  1.0000
  C   C433      1.0  0.64394  0.89257  0.11425  1.0000
  N   N26       1.0  0.57494  0.87526  0.13756  1.0000
  C   C434      1.0  0.58646  0.86753  0.10126  1.0000
  C   C435      1.0  0.56173  0.89568  0.12887  1.0000
  C   C436      1.0  0.59219  0.88119  0.16808  1.0000
  C   C437      1.0  0.56089  0.85826  0.15348  1.0000
  C   C438      1.0  0.55026  0.84203  0.12344  1.0000
  C   C439      1.0  0.60363  0.84881  0.10701  1.0000
  C   C440      1.0  0.58413  0.89206  0.20664  1.0000
  C   C441      1.0  0.54336  0.89372  0.09725  1.0000
  C   C442      1.0  0.53180  0.91564  0.09079  1.0000
  C   C443      1.0  0.55468  0.97466  0.08431  1.0000
  C   C444      1.0  0.61002  0.83812  0.06806  1.0000
  C   C445      1.0  0.60267  0.89365  0.23723  1.0000
  H   H767      1.0  0.59504  0.88118  0.08891  1.0000
  H   H768      1.0  0.57480  0.86243  0.07769  1.0000
  H   H769      1.0  0.55355  0.90211  0.15542  1.0000
  H   H770      1.0  0.57266  0.90857  0.12015  1.0000
  H   H771      1.0  0.60375  0.89239  0.15592  1.0000
  H   H772      1.0  0.60203  0.86657  0.17653  1.0000
  H   H773      1.0  0.57038  0.84804  0.17454  1.0000
  H   H774      1.0  0.54777  0.86621  0.17100  1.0000
  H   H775      1.0  0.56257  0.83006  0.11233  1.0000
  H   H776      1.0  0.54279  0.84997  0.09770  1.0000
  H   H777      1.0  0.61860  0.85517  0.12137  1.0000
  H   H778      1.0  0.59773  0.83620  0.12582  1.0000
  H   H779      1.0  0.57103  0.88278  0.21890  1.0000
  H   H780      1.0  0.57799  0.90887  0.20165  1.0000
  H   H781      1.0  0.54972  0.88778  0.06886  1.0000
  H   H782      1.0  0.53080  0.88283  0.10667  1.0000
  H   H783      1.0  0.51936  0.91395  0.06679  1.0000
  H   H784      1.0  0.52362  0.92160  0.11764  1.0000
  H   H785      1.0  0.54350  0.92772  0.08249  1.0000
  H   H786      1.0  0.56863  0.97391  0.06462  1.0000
  H   H787      1.0  0.41577  0.97434  0.12811  1.0000
  C   C446      1.0  0.65652  0.91659  0.18178  1.0000
  H   H788      1.0  0.39470  0.97170  0.09080  1.0000
  H   H789      1.0  0.48559  0.87002  0.00918  1.0000
  H   H790      1.0  0.55799  0.96274  0.10742  1.0000
  C   C447      1.0  0.41786  0.98454  0.02871  1.0000
  H   H791      1.0  0.34788  0.93330  0.16261  1.0000
  H   H792      1.0  0.64469  0.89745  0.02685  1.0000
  Fe  Fe50      1.0  0.35668  0.90739  0.02111  1.0000
  H   H793      1.0  0.65345  0.98833  0.07764  1.0000
  C   C448      1.0  0.41252  0.97100  0.09648  1.0000
  C   C449      1.0  0.65894  0.88371  0.14182  1.0000
  H   H794      1.0  0.59799  0.96854  0.00428  1.0000
  H   H795      1.0  0.46188  0.99244  0.03240  1.0000
  H   H796      1.0  0.44126  0.98575  0.07929  1.0000
  H   H797      1.0  0.33209  0.99180  0.14885  1.0000
  C   C450      1.0  0.65782  0.86620  0.00956  1.0000
  H   H798      1.0  0.40046  0.98945  0.02602  1.0000
  H   H799      1.0  0.33395  0.98005  0.10149  1.0000
  H   H800      1.0  0.44868  0.88743  0.00417  1.0000
  H   H801      1.0  0.66114  0.92592  0.20785  1.0000
  C   C451      1.0  0.45423  0.98815  0.00363  1.0000
  H   H802      1.0  0.45479  0.97007  0.00214  1.0000
  Fe  Fe51      1.0  0.60653  0.89700  0.94336  1.0000
  C   C452      1.0  0.58206  0.99153  0.96621  1.0000
  S   S101      1.0  0.63416  0.87946  0.91051  1.0000
  S   S102      1.0  0.57269  0.97188  0.93271  1.0000
  S   S103      1.0  0.57328  0.90875  0.92212  1.0000
  H   H803      1.0  0.64351  0.96948  0.86331  1.0000
  S   S104      1.0  0.37597  0.93313  0.92811  1.0000
  Fe  Fe52      1.0  0.35751  0.90285  0.93168  1.0000
  H   H804      1.0  0.41708  0.94372  0.88704  1.0000
  H   H805      1.0  0.40351  0.84417  0.76646  1.0000
  Fe  Fe53      1.0  0.39722  0.92122  0.97805  1.0000
  H   H806      1.0  0.46580  0.98623  0.94381  1.0000
  C   C453      1.0  0.41951  0.89896  0.87444  1.0000
  C   C454      1.0  0.42495  0.86916  0.82463  1.0000
  C   C455      1.0  0.45936  0.91613  0.97795  1.0000
  C   C456      1.0  0.64297  0.90358  0.80246  1.0000
  H   H807      1.0  0.49218  0.86489  0.91298  1.0000
  C   C457      1.0  0.32952  0.89607  0.84175  1.0000
  H   H808      1.0  0.43088  0.85207  0.82009  1.0000
  H   H809      1.0  0.63383  0.91347  0.78189  1.0000
  C   C458      1.0  0.49085  0.85930  0.88185  1.0000
  H   H810      1.0  0.41913  0.95104  0.83696  1.0000
  C   C459      1.0  0.63854  0.98675  0.91944  1.0000
  H   H811      1.0  0.65597  0.98892  0.92683  1.0000
  Fe  Fe54      1.0  0.58151  0.93925  0.95584  1.0000
  H   H812      1.0  0.40148  0.89831  0.87409  1.0000
  S   S105      1.0  0.37983  0.88979  0.97966  1.0000
  H   H813      1.0  0.42233  0.91258  0.81597  1.0000
  S   S106      1.0  0.43325  0.92948  0.97287  1.0000
  C   C460      1.0  0.49876  0.91710  0.96941  1.0000
  H   H814      1.0  0.39601  0.93651  0.85104  1.0000
  C   C461      1.0  0.64533  0.88628  0.86533  1.0000
  C   C462      1.0  0.42597  0.91699  0.84703  1.0000
  H   H815      1.0  0.40220  0.86266  0.89206  1.0000
  C   C463      1.0  0.34079  0.96234  0.84777  1.0000
  H   H816      1.0  0.42383  0.82971  0.95156  1.0000
  H   H817      1.0  0.43416  0.87847  0.80390  1.0000
  H   H818      1.0  0.44352  0.92015  0.85072  1.0000
  H   H819      1.0  0.42396  0.84400  0.88313  1.0000
  H   H820      1.0  0.42554  0.97380  0.95218  1.0000
  H   H821      1.0  0.38014  0.86219  0.76052  1.0000
  S   S107      1.0  0.35111  0.88603  0.87242  1.0000
  C   C464      1.0  0.39765  0.86134  0.76922  1.0000
  C   C465      1.0  0.47769  0.92674  0.96579  1.0000
  C   C466      1.0  0.41373  0.93835  0.85623  1.0000
  H   H822      1.0  0.42398  0.90469  0.90454  1.0000
  H   H823      1.0  0.49650  0.97376  0.98741  1.0000
  Fe  Fe55      1.0  0.35309  0.94674  0.97225  1.0000
  C   C467      1.0  0.63422  0.89987  0.83909  1.0000
  H   H824      1.0  0.39371  0.88679  0.81250  1.0000
  C   C468      1.0  0.41743  0.84607  0.96064  1.0000
  H   H825      1.0  0.44522  0.86154  0.94109  1.0000
  H   H826      1.0  0.45790  0.88621  0.90141  1.0000
  C   C469      1.0  0.50183  0.89653  0.98493  1.0000
  H   H827      1.0  0.64183  0.86082  0.99779  1.0000
  H   H828      1.0  0.40656  0.87124  0.74906  1.0000
  H   H829      1.0  0.39090  0.85997  0.82991  1.0000
  H   H830      1.0  0.51261  0.92551  0.95981  1.0000
  H   H831      1.0  0.46072  0.84380  0.88777  1.0000
  C   C470      1.0  0.45395  0.87809  0.87260  1.0000
  C   C471      1.0  0.46711  0.85629  0.86927  1.0000
  H   H832      1.0  0.46081  0.88861  0.85081  1.0000
  H   H833      1.0  0.42225  0.87952  0.94896  1.0000
  H   H834      1.0  0.61852  0.90691  0.84639  1.0000
  N   N27       1.0  0.42971  0.87679  0.86619  1.0000
  C   C472      1.0  0.40063  0.86998  0.81127  1.0000
  H   H835      1.0  0.61849  0.96371  0.88639  1.0000
  H   H836      1.0  0.50011  0.84364  0.87855  1.0000
  C   C473      1.0  0.42740  0.86340  0.93676  1.0000
  S   S108      1.0  0.61538  0.92854  0.97321  1.0000
  C   C474      1.0  0.42025  0.86103  0.89309  1.0000
  C   C475      1.0  0.49318  0.99129  0.98275  1.0000
  C   C476      1.0  0.63597  0.96702  0.89165  1.0000
  H   H837      1.0  0.46669  0.84994  0.83857  1.0000
  H   H838      1.0  0.63104  0.98280  0.94723  1.0000
  H   H839      1.0  0.47562  0.94250  0.95324  1.0000
  H   H840      1.0  0.49834  0.87133  0.86359  1.0000
  H   H841      1.0  0.64384  0.95253  0.90497  1.0000
  H   H842      1.0  0.65532  0.89563  0.97876  1.0000
  S   S109      1.0  0.33685  0.97914  0.96123  1.0000
  H   H843      1.0  0.39551  0.97943  0.89544  1.0000
  S   S110      1.0  0.52807  0.88338  0.98941  1.0000
  H   H844      1.0  0.35135  0.97454  0.86243  1.0000
  H   H845      1.0  0.34989  0.95382  0.82407  1.0000
  H   H846      1.0  0.34059  0.87856  0.79027  1.0000
  H   H847      1.0  0.39948  0.84654  0.95685  1.0000
  H   H848      1.0  0.38819  0.98342  0.96581  1.0000
  H   H849      1.0  0.33675  0.95022  0.86931  1.0000
  C   C477      1.0  0.32828  0.88960  0.80198  1.0000
  H   H850      1.0  0.65537  0.94610  0.56778  1.0000
  Fe  Fe56      1.0  0.56086  0.89865  0.97968  1.0000
  C   C478      1.0  0.42233  0.99125  0.95996  1.0000
  S   S111      1.0  0.33301  0.91734  0.97311  1.0000
  C   C479      1.0  0.46245  0.89566  0.99385  1.0000
  H   H851      1.0  0.42166  0.84898  0.99208  1.0000
  C   C480      1.0  0.48349  0.88589  0.99698  1.0000
  C   C481      1.0  0.59479  0.98543  0.99869  1.0000
  S   S112      1.0  0.59351  0.88355  0.99850  1.0000
  Fe  Fe57      1.0  0.86804  0.36932  0.06690  1.0000
  H   H852      1.0  0.95844  0.41849  0.08513  1.0000
  S   S113      1.0  0.84902  0.35394  0.11420  1.0000
  Fe  Fe58      1.0  0.88027  0.41440  0.03742  1.0000
  H   H853      1.0  0.96637  0.44627  0.09033  1.0000
  H   H854      1.0  0.72779  0.01756  0.47312  1.0000
  Fe  Fe59      1.0  0.91235  0.37515  0.03520  1.0000
  S   S114      1.0  0.89440  0.39225  0.08339  1.0000
  Fe  Fe60      1.0  0.88507  0.27055  0.28977  1.0000
  S   S115      1.0  0.90402  0.23889  0.29456  1.0000
  S   S116      1.0  0.88715  0.28032  0.22627  1.0000
  Fe  Fe61      1.0  0.87553  0.27052  0.37742  1.0000
  S   S117      1.0  0.89395  0.23943  0.38693  1.0000
  S   S118      1.0  0.85650  0.28717  0.42604  1.0000
  Fe  Fe62      1.0  0.91883  0.25316  0.34926  1.0000
  S   S119      1.0  0.95434  0.24853  0.36632  1.0000
  Fe  Fe63      1.0  0.87743  0.22801  0.33128  1.0000
  S   S120      1.0  0.86623  0.19349  0.32820  1.0000
  S   S121      1.0  0.90166  0.28552  0.34340  1.0000
  S   S122      1.0  0.85727  0.25836  0.32314  1.0000
  Fe  Fe64      1.0  0.70665  0.12012  0.31075  1.0000
  S   S123      1.0  0.73554  0.11587  0.27296  1.0000
  H   H855      1.0  0.77782  0.03580  0.37673  1.0000
  Fe  Fe65      1.0  0.73477  0.11848  0.38748  1.0000
  S   S124      1.0  0.76533  0.11433  0.35351  1.0000
  S   S125      1.0  0.74466  0.11647  0.45208  1.0000
  Fe  Fe66      1.0  0.75121  0.14007  0.31500  1.0000
  S   S126      1.0  0.76737  0.17055  0.29630  1.0000
  Fe  Fe67      1.0  0.74685  0.09058  0.31549  1.0000
  S   S127      1.0  0.76270  0.05794  0.29914  1.0000
  S   S128      1.0  0.72150  0.14584  0.35093  1.0000
  S   S129      1.0  0.71713  0.09328  0.35119  1.0000
  C   C482      1.0  0.83868  0.18737  0.31945  1.0000
  C   C483      1.0  0.83224  0.16596  0.32278  1.0000
  C   C484      1.0  0.81041  0.16055  0.31615  1.0000
  C   C485      1.0  0.79491  0.17650  0.30557  1.0000
  C   C486      1.0  0.80139  0.19791  0.30205  1.0000
  C   C487      1.0  0.82312  0.20338  0.30944  1.0000
  H   H856      1.0  0.84416  0.15347  0.33059  1.0000
  H   H857      1.0  0.80561  0.14400  0.31878  1.0000
  H   H858      1.0  0.78942  0.21035  0.29425  1.0000
  H   H859      1.0  0.82777  0.21998  0.30774  1.0000
  H   H860      1.0  0.93601  0.42623  0.02743  1.0000
  H   H861      1.0  0.76657  0.17134  0.42148  1.0000
  C   C488      1.0  0.79313  0.06096  0.41086  1.0000
  H   H862      1.0  0.71300  0.02372  0.23403  1.0000
  C   C489      1.0  0.93258  0.16152  0.23501  1.0000
  C   C490      1.0  0.68728  0.03364  0.19082  1.0000
  H   H863      1.0  0.74035  0.17625  0.48690  1.0000
  H   H864      1.0  0.91591  0.23998  0.47141  1.0000
  H   H865      1.0  0.92844  0.17111  0.20888  1.0000
  S   S130      1.0  0.85216  0.39249  0.02387  1.0000
  H   H866      1.0  0.74339  0.04584  0.38713  1.0000
  C   C491      1.0  0.72619  0.03572  0.31445  1.0000
  C   C492      1.0  0.74779  0.03429  0.30357  1.0000
  C   C493      1.0  0.75765  0.01375  0.29648  1.0000
  H   H867      1.0  0.71837  0.05132  0.31977  1.0000
  H   H868      1.0  0.77439  0.01249  0.28803  1.0000
  H   H869      1.0  0.67049  0.02806  0.18462  1.0000
  C   C494      1.0  0.97364  0.24973  0.32986  1.0000
  C   C495      1.0  0.96797  0.25668  0.29238  1.0000
  H   H870      1.0  0.70577  0.08577  0.18803  1.0000
  H   H871      1.0  0.95133  0.26151  0.28517  1.0000
  H   H872      1.0  0.69747  0.05558  0.26021  1.0000
  H   H873      1.0  0.80973  0.05393  0.40667  1.0000
  C   C496      1.0  0.86175  0.48157  0.00885  1.0000
  H   H874      1.0  0.98942  0.33336  0.19089  1.0000
  C   C497      1.0  0.69686  0.01872  0.22300  1.0000
  C   C498      1.0  0.86085  0.33463  0.14661  1.0000
  C   C499      1.0  0.87854  0.32117  0.13601  1.0000
  C   C500      1.0  0.88645  0.30488  0.16105  1.0000
  C   C501      1.0  0.87729  0.30222  0.19752  1.0000
  C   C502      1.0  0.85988  0.31596  0.20853  1.0000
  C   C503      1.0  0.85151  0.33183  0.18292  1.0000
  H   H875      1.0  0.88580  0.32299  0.10810  1.0000
  H   H876      1.0  0.89972  0.29419  0.15197  1.0000
  H   H877      1.0  0.85267  0.31419  0.23644  1.0000
  H   H878      1.0  0.83780  0.34212  0.19138  1.0000
  H   H879      1.0  0.72860  0.06388  0.23784  1.0000
  H   H880      1.0  0.84648  0.19467  0.41017  1.0000
  C   C504      1.0  0.80369  0.19628  0.41393  1.0000
  H   H881      1.0  0.83124  0.24349  0.42513  1.0000
  N   N28       1.0  0.81886  0.21168  0.43542  1.0000
  S   S131      1.0  0.88332  0.45063  0.05541  1.0000
  N   N29       1.0  0.82398  0.24417  0.19566  1.0000
  C   C505      1.0  0.82791  0.24684  0.15291  1.0000
  C   C506      1.0  0.80353  0.23175  0.19962  1.0000
  C   C507      1.0  0.82015  0.26664  0.21370  1.0000
  C   C508      1.0  0.84297  0.23322  0.21707  1.0000
  C   C509      1.0  0.85660  0.21589  0.19358  1.0000
  C   C510      1.0  0.84611  0.26255  0.14413  1.0000
  C   C511      1.0  0.81098  0.26782  0.25530  1.0000
  C   C512      1.0  0.80380  0.20807  0.18338  1.0000
  C   C513      1.0  0.78163  0.19813  0.18687  1.0000
  C   C514      1.0  0.87019  0.20127  0.22060  1.0000
  C   C515      1.0  0.85278  0.26025  0.10168  1.0000
  C   C516      1.0  0.81355  0.29028  0.27472  1.0000
  H   H882      1.0  0.81281  0.25312  0.13783  1.0000
  H   H883      1.0  0.83157  0.23109  0.13775  1.0000
  H   H884      1.0  0.79967  0.23042  0.23085  1.0000
  H   H885      1.0  0.78946  0.24070  0.18573  1.0000
  H   H886      1.0  0.80867  0.27638  0.19496  1.0000
  H   H887      1.0  0.83555  0.27560  0.21519  1.0000
  H   H888      1.0  0.85480  0.24529  0.22854  1.0000
  H   H889      1.0  0.83729  0.22563  0.24358  1.0000
  H   H890      1.0  0.86789  0.22396  0.17467  1.0000
  H   H891      1.0  0.84655  0.20524  0.17444  1.0000
  H   H892      1.0  0.84035  0.27962  0.14938  1.0000
  H   H893      1.0  0.86072  0.25966  0.16311  1.0000
  H   H894      1.0  0.81917  0.25564  0.27411  1.0000
  H   H895      1.0  0.79334  0.26464  0.25372  1.0000
  H   H896      1.0  0.80796  0.20697  0.15218  1.0000
  H   H897      1.0  0.81553  0.19800  0.20074  1.0000
  H   H898      1.0  0.78230  0.18105  0.17558  1.0000
  H   H899      1.0  0.77695  0.19813  0.21791  1.0000
  H   H900      1.0  0.76897  0.20721  0.16970  1.0000
  H   H901      1.0  0.85950  0.19178  0.23848  1.0000
  H   H902      1.0  0.88045  0.18976  0.20307  1.0000
  H   H903      1.0  0.88092  0.21104  0.24025  1.0000
  H   H904      1.0  0.83858  0.26327  0.08164  1.0000
  H   H905      1.0  0.86521  0.27230  0.09630  1.0000
  H   H906      1.0  0.85990  0.24379  0.09539  1.0000
  H   H907      1.0  0.83099  0.29374  0.27958  1.0000
  H   H908      1.0  0.80575  0.30297  0.25631  1.0000
  H   H909      1.0  0.80577  0.29099  0.30348  1.0000
  H   H910      1.0  0.96110  0.15355  0.27132  1.0000
  H   H911      1.0  0.75912  0.07180  0.48072  1.0000
  C   C517      1.0  0.78182  0.16209  0.41482  1.0000
  H   H912      1.0  0.80889  0.27552  0.40766  1.0000
  H   H913      1.0  0.91966  0.19330  0.31134  1.0000
  H   H914      1.0  0.69789  0.01812  0.32715  1.0000
  C   C518      1.0  0.74789  0.07330  0.19118  1.0000
  H   H915      1.0  0.93832  0.43940  0.09634  1.0000
  H   H916      1.0  0.69844  0.03299  0.42670  1.0000
  H   H917      1.0  0.79263  0.06926  0.44003  1.0000
  C   C519      1.0  0.70739  0.06771  0.18529  1.0000
  C   C520      1.0  0.93132  0.24599  0.46090  1.0000
  H   H918      1.0  0.81612  0.16329  0.42513  1.0000
  H   H919      1.0  0.68666  0.08153  0.41980  1.0000
  C   C521      1.0  0.71456  0.01689  0.31843  1.0000
  N   N30       1.0  0.95917  0.18854  0.27011  1.0000
  H   H920      1.0  0.70954  0.06372  0.15377  1.0000
  H   H921      1.0  0.78701  0.20367  0.41146  1.0000
  C   C522      1.0  0.87639  0.47741  0.03993  1.0000
  C   C523      1.0  0.80162  0.17376  0.43188  1.0000
  C   C524      1.0  0.85528  0.28488  0.47751  1.0000
  H   H922      1.0  0.75617  0.01414  0.46850  1.0000
  C   C525      1.0  0.72080  0.05665  0.45272  1.0000
  C   C526      1.0  0.84071  0.20009  0.43958  1.0000
  C   C527      1.0  0.72906  0.06075  0.20591  1.0000
  H   H923      1.0  0.78112  0.14585  0.42748  1.0000
  C   C528      1.0  0.82107  0.23102  0.41031  1.0000
  C   C529      1.0  0.79935  0.24216  0.39654  1.0000
  C   C530      1.0  0.80266  0.26506  0.38304  1.0000
  H   H924      1.0  0.83007  0.22620  0.38356  1.0000
  H   H925      1.0  0.80021  0.17514  0.46400  1.0000
  H   H926      1.0  0.79216  0.23266  0.37149  1.0000
  H   H927      1.0  0.81435  0.26473  0.35914  1.0000
  S   S132      1.0  0.88714  0.35050  0.02150  1.0000
  H   H928      1.0  0.88036  0.26011  0.48572  1.0000
  H   H929      1.0  0.97046  0.28729  0.44810  1.0000
  H   H930      1.0  0.92867  0.24136  0.21101  1.0000
  H   H931      1.0  0.77331  0.04643  0.48342  1.0000
  C   C531      1.0  0.68000  0.13060  0.20780  1.0000
  C   C532      1.0  0.93077  0.13761  0.22280  1.0000
  H   H932      1.0  0.69614  0.02960  0.16362  1.0000
  C   C533      1.0  0.84414  0.30913  0.03426  1.0000
  H   H933      1.0  0.83716  0.29305  0.02764  1.0000
  H   H934      1.0  0.93786  0.23389  0.43927  1.0000
  H   H935      1.0  0.92804  0.26158  0.44626  1.0000
  H   H936      1.0  0.80572  0.25325  0.47732  1.0000
  C   C534      1.0  0.95321  0.43554  0.07973  1.0000
  H   H937      1.0  0.96362  0.43380  0.02059  1.0000
  C   C535      1.0  0.94853  0.43807  0.03610  1.0000
  C   C536      1.0  0.96721  0.32098  0.14553  1.0000
  C   C537      1.0  0.95009  0.31858  0.17616  1.0000
  H   H938      1.0  0.96631  0.17586  0.32753  1.0000
  H   H939      1.0  0.79171  0.21723  0.47371  1.0000
  H   H940      1.0  0.68781  0.08143  0.24741  1.0000
  C   C538      1.0  0.75298  0.05159  0.41298  1.0000
  H   H941      1.0  0.81316  0.32602  0.03503  1.0000
  H   H942      1.0  0.97595  0.35315  0.16159  1.0000
  H   H943      1.0  0.93264  0.20440  0.37811  1.0000
  H   H944      1.0  0.75224  0.06956  0.41047  1.0000
  C   C539      1.0  0.81500  0.24036  0.49304  1.0000
  H   H945      1.0  0.86141  0.22852  0.44746  1.0000
  H   H946      1.0  0.97601  0.31807  0.35477  1.0000
  H   H947      1.0  0.97941  0.26214  0.23479  1.0000
  H   H948      1.0  0.69882  0.12551  0.47151  1.0000
  C   C540      1.0  0.98476  0.33708  0.16011  1.0000
  H   H949      1.0  0.76312  0.06830  0.20711  1.0000
  C   C541      1.0  0.85899  0.21281  0.46093  1.0000
  H   H950      1.0  0.95872  0.32710  0.11879  1.0000
  H   H951      1.0  0.76612  0.18938  0.48925  1.0000
  H   H952      1.0  0.94191  0.33449  0.18316  1.0000
  H   H953      1.0  0.93761  0.30731  0.16466  1.0000
  H   H954      1.0  0.95758  0.31188  0.20326  1.0000
  C   C542      1.0  0.77669  0.04299  0.40684  1.0000
  C   C543      1.0  0.74128  0.02110  0.45378  1.0000
  C   C544      1.0  0.98240  0.19469  0.26503  1.0000
  H   H955      1.0  0.94192  0.17677  0.38646  1.0000
  C   C545      1.0  0.88053  0.19984  0.45982  1.0000
  H   H956      1.0  0.80885  0.19324  0.38347  1.0000
  C   C546      1.0  0.93006  0.18711  0.36987  1.0000
  H   H957      1.0  0.69643  0.13370  0.21782  1.0000
  H   H958      1.0  0.94585  0.22124  0.27091  1.0000
  H   H959      1.0  0.73286  0.04336  0.19957  1.0000
  N   N31       1.0  0.68712  0.05786  0.19937  1.0000
  H   H960      1.0  0.78284  0.15989  0.38268  1.0000
  S   S133      1.0  0.67207  0.12042  0.28446  1.0000
  S   S134      1.0  0.94737  0.36556  0.04633  1.0000
  N   N32       1.0  0.74284  0.04534  0.45023  1.0000
  H   H961      1.0  0.67587  0.06349  0.45420  1.0000
  C   C547      1.0  0.68288  0.06442  0.42492  1.0000
  H   H962      1.0  0.94255  0.13296  0.19992  1.0000
  C   C548      1.0  0.93239  0.18316  0.32595  1.0000
  H   H963      1.0  0.74995  0.06988  0.15949  1.0000
  H   H964      1.0  0.91342  0.18313  0.37803  1.0000
  C   C549      1.0  0.96407  0.38045  0.01783  1.0000
  H   H965      1.0  0.74509  0.09099  0.19645  1.0000
  C   C550      1.0  0.94050  0.46147  0.02707  1.0000
  H   H966      1.0  0.95186  0.19736  0.19129  1.0000
  H   H967      1.0  0.97418  0.30466  0.13833  1.0000
  H   H968      1.0  0.96405  0.29797  0.40156  1.0000
  C   C551      1.0  0.68483  0.06389  0.24210  1.0000
  C   C552      1.0  0.73006  0.11540  0.49551  1.0000
  C   C553      1.0  0.94776  0.24891  0.49462  1.0000
  H   H969      1.0  0.78743  0.24314  0.42008  1.0000
  H   H970      1.0  0.68526  0.13941  0.14857  1.0000
  H   H971      1.0  0.78163  0.02978  0.42663  1.0000
  H   H972      1.0  0.88550  0.19689  0.42920  1.0000
  H   H973      1.0  0.83951  0.18515  0.45635  1.0000
  C   C554      1.0  0.74922  0.19043  0.49922  1.0000
  H   H974      1.0  0.78969  0.07307  0.38809  1.0000
  C   C555      1.0  0.95550  0.18826  0.31343  1.0000
  H   H975      1.0  0.71350  0.05394  0.48115  1.0000
  H   H976      1.0  0.68601  0.01897  0.24818  1.0000
  C   C556      1.0  0.70328  0.04979  0.42182  1.0000
  C   C557      1.0  0.80975  0.21765  0.47494  1.0000
  H   H977      1.0  0.92920  0.16582  0.31943  1.0000
  H   H978      1.0  0.70893  0.05076  0.39171  1.0000
  H   H979      1.0  0.87914  0.18404  0.47383  1.0000
  H   H980      1.0  0.99052  0.38032  0.06031  1.0000
  H   H981      1.0  0.92495  0.46456  0.04211  1.0000
  C   C558      1.0  0.83987  0.29824  0.49636  1.0000
  C   C559      1.0  0.66809  0.06817  0.17728  1.0000
  H   H982      1.0  0.98625  0.29063  0.34703  1.0000
  C   C560      1.0  0.73811  0.00733  0.41539  1.0000
  H   H983      1.0  0.80977  0.36427  0.00383  1.0000
  H   H984      1.0  0.84687  0.31102  0.06634  1.0000
  H   H985      1.0  0.91574  0.21742  0.19081  1.0000
  H   H986      1.0  0.75290  0.00712  0.39787  1.0000
  C   C561      1.0  0.66876  0.06624  0.13213  1.0000
  H   H987      1.0  0.83235  0.24390  0.49163  1.0000
  H   H988      1.0  0.82966  0.30934  0.47961  1.0000
  H   H989      1.0  0.95233  0.47237  0.04208  1.0000
  H   H990      1.0  0.78698  0.27225  0.37211  1.0000
  H   H991      1.0  0.72451  0.01368  0.39700  1.0000
  H   H992      1.0  0.99368  0.31745  0.46753  1.0000
  H   H993      1.0  0.93529  0.23083  0.16307  1.0000
  H   H994      1.0  0.67055  0.05920  0.40251  1.0000
  C   C562      1.0  0.98388  0.25719  0.26399  1.0000
  C   C563      1.0  0.96867  0.30251  0.43208  1.0000
  H   H995      1.0  0.93384  0.12723  0.24832  1.0000
  C   C564      1.0  0.75678  0.05414  0.48384  1.0000
  H   H996      1.0  0.95993  0.20414  0.32746  1.0000
  C   C565      1.0  0.98996  0.31535  0.43563  1.0000
  H   H997      1.0  0.72250  0.07452  0.45141  1.0000
  H   H998      1.0  0.92006  0.16550  0.25668  1.0000
  C   C566      1.0  0.67361  0.13381  0.16847  1.0000
  C   C567      1.0  0.94963  0.31559  0.44945  1.0000
  C   C568      1.0  0.94466  0.20607  0.25268  1.0000
  C   C569      1.0  0.74592  0.99478  0.30031  1.0000
  H   H999      1.0  0.98570  0.34544  0.08421  1.0000
  H   H1000     1.0  0.99289  0.31779  0.08768  1.0000
  H   H1001     1.0  0.96652  0.16385  0.22537  1.0000
  C   C570      1.0  0.69915  0.99523  0.20774  1.0000
  C   C571      1.0  0.99032  0.30781  0.34622  1.0000
  H   H1002     1.0  0.93480  0.30587  0.44705  1.0000
  H   H1003     1.0  0.91415  0.13466  0.21080  1.0000
  C   C572      1.0  0.95585  0.16646  0.25083  1.0000
  H   H1004     1.0  0.95305  0.31979  0.48076  1.0000
  H   H1005     1.0  0.94640  0.33069  0.43330  1.0000
  H   H1006     1.0  0.96260  0.25539  0.48258  1.0000
  H   H1007     1.0  0.92735  0.20200  0.25323  1.0000
  H   H1008     1.0  0.98469  0.21169  0.27554  1.0000
  C   C573      1.0  0.94950  0.21206  0.21039  1.0000
  H   H1009     1.0  0.97987  0.30949  0.28535  1.0000
  C   C574      1.0  0.93113  0.22626  0.19286  1.0000
  C   C575      1.0  0.98480  0.38560  0.03207  1.0000
  H   H1010     1.0  0.89332  0.20903  0.47593  1.0000
  H   H1011     1.0  0.96451  0.22150  0.21028  1.0000
  H   H1012     1.0  0.98618  0.33201  0.42542  1.0000
  H   H1013     1.0  0.85520  0.21566  0.49213  1.0000
  H   H1014     1.0  0.67398  0.04972  0.12189  1.0000
  C   C576      1.0  0.72428  0.99639  0.31126  1.0000
  H   H1015     1.0  0.66943  0.07666  0.31484  1.0000
  H   H1016     1.0  0.98630  0.19420  0.23355  1.0000
  H   H1017     1.0  0.78224  0.33891  0.00209  1.0000
  C   C577      1.0  0.70790  0.12072  0.49751  1.0000
  H   H1018     1.0  0.68018  0.07803  0.12134  1.0000
  H   H1019     1.0  0.83596  0.34288  0.02923  1.0000
  H   H1020     1.0  0.66651  0.08571  0.18533  1.0000
  C   C578      1.0  0.66494  0.12411  0.23429  1.0000
  H   H1021     1.0  0.74119  0.20541  0.48791  1.0000
  H   H1022     1.0  0.67434  0.04770  0.31533  1.0000
  C   C579      1.0  0.66248  0.05964  0.25923  1.0000
  C   C580      1.0  0.66346  0.06077  0.30383  1.0000
  H   H1023     1.0  0.86005  0.30980  0.02021  1.0000
  C   C581      1.0  0.82868  0.32726  0.02001  1.0000
  H   H1024     1.0  0.71057  0.99384  0.18338  1.0000
  H   H1025     1.0  0.81508  0.20529  0.49643  1.0000
  H   H1026     1.0  0.89756  0.49219  0.08370  1.0000
  H   H1027     1.0  0.99308  0.24333  0.44091  1.0000
  C   C582      1.0  0.86841  0.27056  0.49992  1.0000
  C   C583      1.0  0.66318  0.04634  0.99315  1.0000
  C   C584      1.0  0.69539  0.14211  0.90644  1.0000
  H   H1028     1.0  0.95667  0.30744  0.77254  1.0000
  S   S135      1.0  0.86368  0.36737  0.91554  1.0000
  Fe  Fe68      1.0  0.86580  0.26603  0.75286  1.0000
  S   S136      1.0  0.88794  0.23632  0.74833  1.0000
  S   S137      1.0  0.86275  0.27763  0.81703  1.0000
  Fe  Fe69      1.0  0.86042  0.26663  0.66226  1.0000
  S   S138      1.0  0.88262  0.23785  0.65332  1.0000
  S   S139      1.0  0.84511  0.28395  0.61027  1.0000
  Fe  Fe70      1.0  0.86412  0.22385  0.70205  1.0000
  S   S140      1.0  0.85264  0.18908  0.69303  1.0000
  Fe  Fe71      1.0  0.90395  0.25319  0.70050  1.0000
  S   S141      1.0  0.93771  0.26686  0.69983  1.0000
  S   S142      1.0  0.84091  0.25235  0.70927  1.0000
  S   S143      1.0  0.88245  0.28312  0.70655  1.0000
  Fe  Fe72      1.0  0.74845  0.11788  0.72932  1.0000
  S   S144      1.0  0.71211  0.12295  0.72641  1.0000
  S   S145      1.0  0.76513  0.14901  0.74971  1.0000
  Fe  Fe73      1.0  0.74452  0.06994  0.70204  1.0000
  S   S146      1.0  0.70822  0.07248  0.69762  1.0000
  S   S147      1.0  0.75973  0.03908  0.67563  1.0000
  Fe  Fe74      1.0  0.71365  0.10403  0.66903  1.0000
  S   S148      1.0  0.69598  0.11449  0.61299  1.0000
  Fe  Fe75      1.0  0.71035  0.09106  0.75549  1.0000
  H   H1029     1.0  0.93927  0.28141  0.51545  1.0000
  S   S149      1.0  0.74982  0.10069  0.67075  1.0000
  S   S150      1.0  0.74685  0.08671  0.76137  1.0000
  C   C585      1.0  0.70921  0.11429  0.56775  1.0000
  C   C586      1.0  0.73117  0.10835  0.56520  1.0000
  C   C587      1.0  0.92562  0.21082  0.60289  1.0000
  H   H1030     1.0  0.74021  0.10300  0.59066  1.0000
  C   C588      1.0  0.85025  0.28349  0.55945  1.0000
  C   C589      1.0  0.86580  0.26978  0.54094  1.0000
  C   C590      1.0  0.83743  0.29759  0.53669  1.0000
  H   H1031     1.0  0.87563  0.25862  0.55815  1.0000
  H   H1032     1.0  0.82536  0.30818  0.55042  1.0000
  C   C591      1.0  0.82813  0.17835  0.70899  1.0000
  C   C592      1.0  0.81324  0.19077  0.73100  1.0000
  C   C593      1.0  0.79402  0.18157  0.74298  1.0000
  C   C594      1.0  0.78940  0.15988  0.73313  1.0000
  C   C595      1.0  0.80426  0.14746  0.71114  1.0000
  C   C596      1.0  0.82343  0.15667  0.69903  1.0000
  H   H1033     1.0  0.81662  0.20744  0.73900  1.0000
  H   H1034     1.0  0.78273  0.19133  0.76015  1.0000
  H   H1035     1.0  0.80113  0.13065  0.70403  1.0000
  H   H1036     1.0  0.83488  0.14685  0.68226  1.0000
  H   H1037     1.0  0.74109  0.12526  0.90473  1.0000
  H   H1038     1.0  0.67128  0.16543  0.92937  1.0000
  N   N33       1.0  0.69990  0.99424  0.60709  1.0000
  C   C597      1.0  0.75942  0.01416  0.69926  1.0000
  C   C598      1.0  0.75657  0.01310  0.73944  1.0000
  H   H1039     1.0  0.81975  0.23149  0.55354  1.0000
  H   H1040     1.0  0.80712  0.29715  0.83975  1.0000
  H   H1041     1.0  0.93054  0.45061  0.90368  1.0000
  H   H1042     1.0  0.75427  0.02787  0.75691  1.0000
  H   H1043     1.0  0.91371  0.28735  0.84731  1.0000
  H   H1044     1.0  0.67129  0.13922  0.95045  1.0000
  C   C599      1.0  0.96776  0.23278  0.68896  1.0000
  C   C600      1.0  0.96405  0.25492  0.69691  1.0000
  C   C601      1.0  0.98175  0.26860  0.70033  1.0000
  H   H1045     1.0  0.82586  0.30727  0.90054  1.0000
  H   H1046     1.0  0.91228  0.24109  0.58265  1.0000
  H   H1047     1.0  0.95427  0.22207  0.68669  1.0000
  H   H1048     1.0  0.97904  0.28573  0.70662  1.0000
  S   S151      1.0  0.69321  0.08211  0.81109  1.0000
  H   H1049     1.0  0.70001  0.06840  0.57488  1.0000
  H   H1050     1.0  0.69682  0.02905  0.79766  1.0000
  C   C602      1.0  0.86615  0.34250  0.88782  1.0000
  C   C603      1.0  0.87159  0.32280  0.90517  1.0000
  C   C604      1.0  0.87093  0.30321  0.88281  1.0000
  C   C605      1.0  0.86539  0.30302  0.84265  1.0000
  C   C606      1.0  0.86092  0.32280  0.82492  1.0000
  C   C607      1.0  0.86111  0.34236  0.84748  1.0000
  H   H1051     1.0  0.87581  0.32258  0.93601  1.0000
  H   H1052     1.0  0.87448  0.28802  0.89683  1.0000
  H   H1053     1.0  0.85649  0.32294  0.79415  1.0000
  H   H1054     1.0  0.85686  0.35747  0.83368  1.0000
  H   H1055     1.0  0.78724  0.31344  0.97841  1.0000
  H   H1056     1.0  0.80669  0.21130  0.65812  1.0000
  C   C608      1.0  0.94299  0.28255  0.59173  1.0000
  C   C609      1.0  0.93169  0.34231  0.91909  1.0000
  C   C610      1.0  0.91852  0.28381  0.60068  1.0000
  C   C611      1.0  0.91254  0.30491  0.62290  1.0000
  H   H1057     1.0  0.76556  0.99558  0.64625  1.0000
  H   H1058     1.0  0.95153  0.28225  0.62081  1.0000
  H   H1059     1.0  0.94711  0.29813  0.57880  1.0000
  H   H1060     1.0  0.95023  0.24484  0.61764  1.0000
  H   H1061     1.0  0.67319  0.01584  0.59081  1.0000
  C   C612      1.0  0.96965  0.40078  0.96001  1.0000
  H   H1062     1.0  0.91459  0.27041  0.61957  1.0000
  H   H1063     1.0  0.92212  0.30616  0.65082  1.0000
  H   H1064     1.0  0.91552  0.31910  0.60511  1.0000
  H   H1065     1.0  0.89503  0.30518  0.62958  1.0000
  H   H1066     1.0  0.79174  0.23809  0.53929  1.0000
  H   H1067     1.0  0.78689  0.31870  0.84610  1.0000
  H   H1068     1.0  0.68285  0.99483  0.72567  1.0000
  N   N34       1.0  0.95073  0.26373  0.56588  1.0000
  H   H1069     1.0  0.76522  0.20297  0.61937  1.0000
  H   H1070     1.0  0.91597  0.26938  0.78387  1.0000
  N   N35       1.0  0.76131  0.16897  0.60418  1.0000
  C   C613      1.0  0.75960  0.17005  0.56027  1.0000
  C   C614      1.0  0.77081  0.14712  0.61573  1.0000
  C   C615      1.0  0.73850  0.17113  0.61904  1.0000
  C   C616      1.0  0.77417  0.18717  0.62283  1.0000
  C   C617      1.0  0.79758  0.18949  0.60919  1.0000
  C   C618      1.0  0.95571  0.31280  0.80387  1.0000
  C   C619      1.0  0.73605  0.16762  0.66324  1.0000
  C   C620      1.0  0.78847  0.13634  0.58945  1.0000
  C   C621      1.0  0.79826  0.11572  0.60715  1.0000
  H   H1071     1.0  0.66483  0.06340  0.98485  1.0000
  H   H1072     1.0  0.69218  0.04877  0.53741  1.0000
  C   C622      1.0  0.91700  0.31321  0.78461  1.0000
  H   H1073     1.0  0.81564  0.40587  0.95444  1.0000
  H   H1074     1.0  0.77574  0.16798  0.54714  1.0000
  H   H1075     1.0  0.77739  0.14801  0.64629  1.0000
  H   H1076     1.0  0.75781  0.13509  0.61568  1.0000
  H   H1077     1.0  0.72777  0.15944  0.60285  1.0000
  H   H1078     1.0  0.73136  0.18756  0.61376  1.0000
  H   H1079     1.0  0.93029  0.43368  0.96635  1.0000
  H   H1080     1.0  0.77596  0.18524  0.65490  1.0000
  H   H1081     1.0  0.79837  0.18973  0.57701  1.0000
  H   H1082     1.0  0.80813  0.17606  0.62042  1.0000
  H   H1083     1.0  0.90758  0.44988  0.98221  1.0000
  C   C623      1.0  0.80412  0.31379  0.85221  1.0000
  H   H1084     1.0  0.74581  0.17907  0.68147  1.0000
  H   H1085     1.0  0.74115  0.15087  0.67088  1.0000
  H   H1086     1.0  0.78122  0.13159  0.56049  1.0000
  H   H1087     1.0  0.80183  0.14725  0.58455  1.0000
  H   H1088     1.0  0.80651  0.11951  0.63569  1.0000
  H   H1089     1.0  0.78549  0.10384  0.61118  1.0000
  H   H1090     1.0  0.81044  0.10816  0.58732  1.0000
  H   H1091     1.0  0.90900  0.32653  0.70794  1.0000
  C   C624      1.0  0.79294  0.37966  0.95666  1.0000
  H   H1092     1.0  0.77717  0.37750  0.97037  1.0000
  H   H1093     1.0  0.79786  0.30338  0.90995  1.0000
  C   C625      1.0  0.74899  0.19108  0.54377  1.0000
  C   C626      1.0  0.69077  0.01332  0.58483  1.0000
  C   C627      1.0  0.69133  0.05313  0.56897  1.0000
  H   H1094     1.0  0.94106  0.38308  0.96963  1.0000
  H   H1095     1.0  0.93935  0.19917  0.59717  1.0000
  C   C628      1.0  0.80714  0.21054  0.62578  1.0000
  C   C629      1.0  0.93885  0.26475  0.52681  1.0000
  H   H1096     1.0  0.74055  0.08603  0.84673  1.0000
  H   H1097     1.0  0.70588  0.18006  0.82329  1.0000
  H   H1098     1.0  0.89962  0.35372  0.72054  1.0000
  H   H1099     1.0  0.68400  0.07868  0.89193  1.0000
  H   H1100     1.0  0.90054  0.30842  0.79262  1.0000
  C   C630      1.0  0.94822  0.24243  0.58547  1.0000
  C   C631      1.0  0.82535  0.32591  0.97492  1.0000
  C   C632      1.0  0.92672  0.23047  0.57728  1.0000
  H   H1101     1.0  0.97301  0.46830  0.98805  1.0000
  H   H1102     1.0  0.79073  0.37882  0.92448  1.0000
  H   H1103     1.0  0.82614  0.36750  0.96291  1.0000
  H   H1104     1.0  0.91018  0.20248  0.59655  1.0000
  H   H1105     1.0  0.71145  0.16994  0.70673  1.0000
  H   H1106     1.0  0.92134  0.26181  0.52949  1.0000
  H   H1107     1.0  0.92140  0.30229  0.75934  1.0000
  H   H1108     1.0  0.91776  0.24486  0.83958  1.0000
  H   H1109     1.0  0.71025  0.12058  0.84670  1.0000
  H   H1110     1.0  0.95004  0.47969  0.90963  1.0000
  H   H1111     1.0  0.96379  0.40663  0.93210  1.0000
  C   C633      1.0  0.68721  0.01757  0.81370  1.0000
  H   H1112     1.0  0.98122  0.25291  0.54090  1.0000
  C   C634      1.0  0.93226  0.24697  0.82191  1.0000
  C   C635      1.0  0.74820  0.05113  0.52536  1.0000
  H   H1113     1.0  0.76269  0.35062  0.93590  1.0000
  H   H1114     1.0  0.92619  0.21594  0.63427  1.0000
  H   H1115     1.0  0.71099  0.00238  0.72817  1.0000
  H   H1116     1.0  0.89483  0.43939  0.87693  1.0000
  H   H1117     1.0  0.82204  0.34602  0.90441  1.0000
  H   H1118     1.0  0.79370  0.34616  0.89979  1.0000
  C   C636      1.0  0.93088  0.26895  0.80285  1.0000
  H   H1119     1.0  0.93283  0.23389  0.79886  1.0000
  C   C637      1.0  0.90114  0.33689  0.73085  1.0000
  C   C638      1.0  0.71247  0.17132  0.67471  1.0000
  C   C639      1.0  0.80765  0.33755  0.91415  1.0000
  H   H1120     1.0  0.94501  0.27011  0.78405  1.0000
  C   C640      1.0  0.76490  0.33398  0.94650  1.0000
  N   N36       1.0  0.80653  0.33928  0.95809  1.0000
  C   C641      1.0  0.95667  0.38770  0.98144  1.0000
  H   H1121     1.0  0.68051  0.12486  0.53517  1.0000
  C   C642      1.0  0.80983  0.36251  0.97145  1.0000
  H   H1122     1.0  0.97677  0.28157  0.54242  1.0000
  H   H1123     1.0  0.70206  0.15899  0.65990  1.0000
  C   C643      1.0  0.68604  0.15307  0.81102  1.0000
  C   C644      1.0  0.70180  0.03526  0.59364  1.0000
  H   H1124     1.0  0.91496  0.33813  0.92624  1.0000
  H   H1125     1.0  0.75781  0.20554  0.55466  1.0000
  H   H1126     1.0  0.81476  0.32490  0.83753  1.0000
  C   C645      1.0  0.74157  0.10926  0.52952  1.0000
  H   H1127     1.0  0.70633  0.18777  0.66699  1.0000
  H   H1128     1.0  0.88460  0.33110  0.73542  1.0000
  H   H1129     1.0  0.76577  0.32281  0.92049  1.0000
  H   H1130     1.0  0.73476  0.06306  0.53134  1.0000
  C   C646      1.0  0.70879  0.16231  0.81896  1.0000
  C   C647      1.0  0.80914  0.31416  0.89614  1.0000
  C   C648      1.0  0.78563  0.33112  0.97303  1.0000
  H   H1131     1.0  0.96337  0.44795  0.95567  1.0000
  C   C649      1.0  0.97473  0.30037  0.82509  1.0000
  H   H1132     1.0  0.74575  0.31190  0.97844  1.0000
  C   C650      1.0  0.67139  0.08911  0.87940  1.0000
  C   C651      1.0  0.67437  0.16360  0.77618  1.0000
  C   C652      1.0  0.76583  0.05475  0.55707  1.0000
  H   H1133     1.0  0.81095  0.25919  0.54709  1.0000
  C   C653      1.0  0.92986  0.28786  0.83374  1.0000
  C   C654      1.0  0.91468  0.33645  0.76891  1.0000
  H   H1134     1.0  0.94118  0.30995  0.90147  1.0000
  H   H1135     1.0  0.90876  0.46961  0.91712  1.0000
  H   H1136     1.0  0.70471  0.12787  0.91778  1.0000
  H   H1137     1.0  0.73009  0.33033  0.94819  1.0000
  S   S152      1.0  0.90034  0.39851  0.99024  1.0000
  C   C655      1.0  0.80003  0.40256  0.96799  1.0000
  C   C656      1.0  0.97454  0.26668  0.55908  1.0000
  H   H1138     1.0  0.94183  0.28403  0.85748  1.0000
  H   H1139     1.0  0.93081  0.34294  0.76346  1.0000
  H   H1140     1.0  0.70199  0.17476  0.88926  1.0000
  N   N37       1.0  0.93309  0.31006  0.81838  1.0000
  H   H1141     1.0  0.90617  0.34746  0.79015  1.0000
  H   H1142     1.0  0.98301  0.45716  0.89660  1.0000
  H   H1143     1.0  0.68729  0.13543  0.80438  1.0000
  C   C657      1.0  0.80891  0.24229  0.53583  1.0000
  Fe  Fe76      1.0  0.87359  0.37494  0.97946  1.0000
  H   H1144     1.0  0.72335  0.16149  0.91525  1.0000
  H   H1145     1.0  0.77329  0.19193  0.89083  1.0000
  H   H1146     1.0  0.72308  0.09058  0.88766  1.0000
  C   C658      1.0  0.99023  0.40623  0.97471  1.0000
  H   H1147     1.0  0.77774  0.19013  0.83886  1.0000
  H   H1148     1.0  0.92546  0.22441  0.54652  1.0000
  H   H1149     1.0  0.67562  0.15653  0.83627  1.0000
  C   C659      1.0  0.71105  0.15891  0.89117  1.0000
  C   C660      1.0  0.94100  0.32615  0.88867  1.0000
  H   H1150     1.0  0.79798  0.22485  0.61430  1.0000
  H   H1151     1.0  0.74212  0.03465  0.52849  1.0000
  C   C661      1.0  0.67210  0.09416  0.83976  1.0000
  C   C662      1.0  0.91618  0.45331  0.92205  1.0000
  C   C663      1.0  0.74230  0.11821  0.87467  1.0000
  H   H1152     1.0  0.67212  0.18134  0.78165  1.0000
  H   H1153     1.0  0.75865  0.10497  0.52813  1.0000
  H   H1154     1.0  0.90642  0.42001  0.91032  1.0000
  H   H1155     1.0  0.75317  0.15752  0.82773  1.0000
  C   C664      1.0  0.68188  0.15177  0.93971  1.0000
  H   H1156     1.0  0.67888  0.00661  0.79221  1.0000
  H   H1157     1.0  0.75387  0.15820  0.87944  1.0000
  C   C665      1.0  0.96351  0.48001  0.93170  1.0000
  H   H1158     1.0  0.67410  0.05610  0.57658  1.0000
  C   C666      1.0  0.76674  0.19675  0.86174  1.0000
  C   C667      1.0  0.74390  0.16339  0.85358  1.0000
  H   H1159     1.0  0.82436  0.21132  0.61763  1.0000
  H   H1160     1.0  0.91008  0.32607  0.85672  1.0000
  H   H1161     1.0  0.75902  0.12068  0.86492  1.0000
  C   C668      1.0  0.73923  0.09384  0.87622  1.0000
  C   C669      1.0  0.92755  0.32694  0.84980  1.0000
  C   C670      1.0  0.92275  0.45026  0.96547  1.0000
  H   H1162     1.0  0.73328  0.19552  0.87742  1.0000
  H   H1163     1.0  0.69143  0.01018  0.55289  1.0000
  H   H1164     1.0  0.71928  0.03404  0.58718  1.0000
  C   C671      1.0  0.74385  0.18850  0.85433  1.0000
  H   H1165     1.0  0.73150  0.12571  0.81598  1.0000
  H   H1166     1.0  0.75192  0.08648  0.89578  1.0000
  N   N38       1.0  0.72193  0.15326  0.85299  1.0000
  H   H1167     1.0  0.68113  0.00674  0.65582  1.0000
  H   H1168     1.0  0.84080  0.33071  0.96236  1.0000
  C   C672      1.0  0.74457  0.32875  0.96813  1.0000
  H   H1169     1.0  0.70015  0.04065  0.62461  1.0000
  C   C673      1.0  0.72564  0.12919  0.84604  1.0000
  H   H1170     1.0  0.97460  0.30295  0.85710  1.0000
  H   H1171     1.0  0.78757  0.41460  0.95755  1.0000
  H   H1172     1.0  0.76638  0.21470  0.86087  1.0000
  C   C674      1.0  0.69757  0.12035  0.53363  1.0000
  H   H1173     1.0  0.73803  0.19462  0.82564  1.0000
  H   H1174     1.0  0.73329  0.00369  0.61135  1.0000
  H   H1175     1.0  0.96146  0.23056  0.57731  1.0000
  C   C675      1.0  0.95979  0.46494  0.96601  1.0000
  H   H1176     1.0  0.82359  0.30847  0.96666  1.0000
  H   H1177     1.0  0.70923  0.01273  0.65972  1.0000
  H   H1178     1.0  0.94191  0.34192  0.94636  1.0000
  H   H1179     1.0  0.75007  0.15620  0.54803  1.0000
  H   H1180     1.0  0.92970  0.34352  0.83936  1.0000
  H   H1181     1.0  0.94718  0.24543  0.84074  1.0000
  H   H1182     1.0  0.95954  0.33029  0.80451  1.0000
  H   H1183     1.0  0.95785  0.33091  0.88393  1.0000
  H   H1184     1.0  0.93138  0.35905  0.90822  1.0000
  C   C676      1.0  0.76266  0.99489  0.67705  1.0000
  N   N39       1.0  0.93777  0.46663  0.98435  1.0000
  H   H1185     1.0  0.75877  0.05375  0.58632  1.0000
  H   H1186     1.0  0.90807  0.28328  0.57387  1.0000
  H   H1187     1.0  0.77275  0.07100  0.55501  1.0000
  H   H1188     1.0  0.99180  0.20757  0.67557  1.0000
  H   H1189     1.0  0.68359  0.16056  0.74926  1.0000
  H   H1190     1.0  0.73174  0.19300  0.55173  1.0000
  C   C677      1.0  0.67058  0.03021  0.83834  1.0000
  H   H1191     1.0  0.68397  0.13593  0.88357  1.0000
  C   C678      1.0  0.89952  0.43678  0.90798  1.0000
  H   H1192     1.0  0.77903  0.04216  0.55447  1.0000
  H   H1193     1.0  0.71806  0.15995  0.79162  1.0000
  C   C679      1.0  0.69774  0.99991  0.65011  1.0000
  H   H1194     1.0  0.88467  0.43854  0.92547  1.0000
  H   H1195     1.0  0.67961  0.04051  0.85994  1.0000
  H   H1196     1.0  0.98682  0.28365  0.61254  1.0000
  H   H1197     1.0  0.95215  0.23275  0.50620  1.0000
  H   H1198     1.0  0.74232  0.34018  0.99353  1.0000
  H   H1199     1.0  0.90987  0.48847  0.99089  1.0000
  H   H1200     1.0  0.85403  0.46822  0.99336  1.0000
  H   H1201     1.0  0.66606  0.00136  0.87005  1.0000
  H   H1202     1.0  0.69855  0.00786  0.83250  1.0000
  H   H1203     1.0  0.72327  0.99711  0.53715  1.0000
  H   H1204     1.0  0.69253  0.15754  0.96440  1.0000
  C   C680      1.0  0.98435  0.47354  0.91078  1.0000
  H   H1205     1.0  0.76154  0.99956  0.56229  1.0000
  C   C681      1.0  0.98903  0.22461  0.68273  1.0000
  C   C682      1.0  0.98957  0.26803  0.59616  1.0000
  C   C683      1.0  0.92704  0.48892  0.98204  1.0000
  H   H1206     1.0  0.67194  0.02396  0.92456  1.0000
  H   H1207     1.0  0.97384  0.28269  0.81883  1.0000
  H   H1208     1.0  0.66122  0.05028  0.91612  1.0000
  H   H1209     1.0  0.98661  0.25460  0.61559  1.0000
  H   H1210     1.0  0.67940  0.03799  0.99365  1.0000
  H   H1211     1.0  0.98721  0.48525  0.88785  1.0000
  H   H1212     1.0  0.80199  0.40467  0.00021  1.0000
  S   S153      1.0  0.89911  0.58544  0.06520  1.0000
  Fe  Fe77      1.0  0.88300  0.61816  0.07858  1.0000
  S   S154      1.0  0.88126  0.62769  0.14375  1.0000
  Fe  Fe78      1.0  0.85035  0.77286  0.34089  1.0000
  S   S155      1.0  0.84943  0.73636  0.34224  1.0000
  S   S156      1.0  0.81733  0.79037  0.34770  1.0000
  Fe  Fe79      1.0  0.89954  0.77081  0.32847  1.0000
  S   S157      1.0  0.90157  0.73463  0.32861  1.0000
  S   S158      1.0  0.92886  0.79060  0.31748  1.0000
  Fe  Fe80      1.0  0.87122  0.73554  0.29055  1.0000
  S   S159      1.0  0.86636  0.72093  0.22841  1.0000
  Fe  Fe81      1.0  0.87986  0.73885  0.38032  1.0000
  S   S160      1.0  0.89057  0.72086  0.43492  1.0000
  S   S161      1.0  0.87037  0.77194  0.28757  1.0000
  S   S162      1.0  0.87951  0.77519  0.38207  1.0000
  Fe  Fe82      1.0  0.70804  0.89842  0.35587  1.0000
  S   S163      1.0  0.73693  0.91921  0.35437  1.0000
  S   S164      1.0  0.69601  0.88711  0.41379  1.0000
  Fe  Fe83      1.0  0.70146  0.89737  0.26508  1.0000
  S   S165      1.0  0.73035  0.91810  0.25864  1.0000
  S   S166      1.0  0.68355  0.88307  0.21046  1.0000
  Fe  Fe84      1.0  0.74713  0.89705  0.30410  1.0000
  S   S167      1.0  0.78230  0.88446  0.29932  1.0000
  Fe  Fe85      1.0  0.71740  0.93792  0.30967  1.0000
  S   S168      1.0  0.70820  0.97370  0.31609  1.0000
  S   S169      1.0  0.71915  0.87512  0.30773  1.0000
  S   S170      1.0  0.68757  0.91820  0.31383  1.0000
  H   H1213     1.0  0.82436  0.80290  0.25398  1.0000
  C   C684      1.0  0.82620  0.81929  0.45586  1.0000
  H   H1214     1.0  0.77319  0.87135  0.39430  1.0000
  C   C685      1.0  0.82198  0.55852  0.16526  1.0000
  H   H1215     1.0  0.75354  0.97900  0.29467  1.0000
  C   C686      1.0  0.80834  0.81682  0.33463  1.0000
  C   C687      1.0  0.82224  0.83179  0.32010  1.0000
  C   C688      1.0  0.81410  0.85249  0.30966  1.0000
  C   C689      1.0  0.79204  0.85846  0.31369  1.0000
  C   C690      1.0  0.77824  0.84352  0.32845  1.0000
  C   C691      1.0  0.78633  0.82283  0.33881  1.0000
  H   H1216     1.0  0.83924  0.82744  0.31689  1.0000
  H   H1217     1.0  0.82494  0.86396  0.29832  1.0000
  H   H1218     1.0  0.76126  0.84789  0.33137  1.0000
  H   H1219     1.0  0.77542  0.81135  0.34986  1.0000
  C   C692      1.0  0.88618  0.49514  0.05965  1.0000
  C   C693      1.0  0.70618  0.89677  0.46006  1.0000
  H   H1220     1.0  0.90157  0.54427  0.12660  1.0000
  H   H1221     1.0  0.72445  0.92246  0.43812  1.0000
  H   H1222     1.0  0.81399  0.81493  0.21108  1.0000
  H   H1223     1.0  0.68199  0.89482  0.05682  1.0000
  H   H1224     1.0  0.95699  0.53565  0.11003  1.0000
  H   H1225     1.0  0.92489  0.74211  0.49491  1.0000
  H   H1226     1.0  0.85338  0.74786  0.46028  1.0000
  H   H1227     1.0  0.98471  0.55847  0.00219  1.0000
  C   C694      1.0  0.89578  0.54788  0.15650  1.0000
  C   C695      1.0  0.95509  0.77813  0.31846  1.0000
  C   C696      1.0  0.95820  0.75630  0.32699  1.0000
  C   C697      1.0  0.97025  0.73985  0.21810  1.0000
  H   H1228     1.0  0.94459  0.74695  0.33419  1.0000
  C   C698      1.0  0.87750  0.65386  0.16667  1.0000
  C   C699      1.0  0.88004  0.65617  0.20756  1.0000
  C   C700      1.0  0.87691  0.67652  0.22705  1.0000
  C   C701      1.0  0.87097  0.69484  0.20581  1.0000
  C   C702      1.0  0.86858  0.69254  0.16491  1.0000
  C   C703      1.0  0.87188  0.67224  0.14542  1.0000
  H   H1229     1.0  0.88435  0.64208  0.22436  1.0000
  H   H1230     1.0  0.87878  0.67797  0.25849  1.0000
  H   H1231     1.0  0.86399  0.70656  0.14812  1.0000
  H   H1232     1.0  0.86982  0.67078  0.11400  1.0000
  H   H1233     1.0  0.80839  0.60289  0.10519  1.0000
  H   H1234     1.0  0.83626  0.52786  0.07900  1.0000
  S   S171      1.0  0.85563  0.61257  0.03429  1.0000
  C   C704      1.0  0.77588  0.81490  0.23433  1.0000
  H   H1235     1.0  0.74092  0.85938  0.50083  1.0000
  H   H1236     1.0  0.66825  0.92948  0.07672  1.0000
  H   H1237     1.0  0.74930  0.83762  0.24760  1.0000
  C   C705      1.0  0.83831  0.58995  0.13414  1.0000
  C   C706      1.0  0.85747  0.81224  0.20802  1.0000
  H   H1238     1.0  0.70567  0.98485  0.23146  1.0000
  H   H1239     1.0  0.73203  0.97422  0.39591  1.0000
  H   H1240     1.0  0.78584  0.76248  0.17621  1.0000
  C   C707      1.0  0.81739  0.60462  0.13361  1.0000
  H   H1241     1.0  0.73671  0.86366  0.41178  1.0000
  H   H1242     1.0  0.75637  0.88300  0.45811  1.0000
  C   C708      1.0  0.79630  0.74388  0.24420  1.0000
  H   H1243     1.0  0.97264  0.66754  0.02756  1.0000
  H   H1244     1.0  0.80600  0.56778  0.09490  1.0000
  C   C709      1.0  0.97745  0.65122  0.01823  1.0000
  C   C710      1.0  0.93746  0.76648  0.43061  1.0000
  H   H1245     1.0  0.83343  0.80953  0.43143  1.0000
  H   H1246     1.0  0.80142  0.80656  0.15123  1.0000
  C   C711      1.0  0.77245  0.87420  0.45834  1.0000
  H   H1247     1.0  0.84822  0.59451  0.10938  1.0000
  H   H1248     1.0  0.84495  0.55479  0.21472  1.0000
  H   H1249     1.0  0.80596  0.51529  0.03815  1.0000
  N   N40       1.0  0.77001  0.85092  0.46873  1.0000
  C   C712      1.0  0.97315  0.79021  0.31009  1.0000
  C   C713      1.0  0.75281  0.81986  0.24782  1.0000
  H   H1250     1.0  0.99273  0.74943  0.47459  1.0000
  H   H1251     1.0  0.75092  0.81443  0.27800  1.0000
  H   H1252     1.0  0.78577  0.79607  0.08658  1.0000
  H   H1253     1.0  0.98331  0.52187  0.06034  1.0000
  C   C714      1.0  0.73356  0.98381  0.42384  1.0000
  H   H1254     1.0  0.76840  0.78098  0.22679  1.0000
  C   C715      1.0  0.83016  0.56467  0.20720  1.0000
  H   H1255     1.0  0.86271  0.55287  0.10026  1.0000
  H   H1256     1.0  0.82114  0.54057  0.16438  1.0000
  C   C716      1.0  0.72453  0.83281  0.39294  1.0000
  H   H1257     1.0  0.75588  0.82131  0.44642  1.0000
  H   H1258     1.0  0.86205  0.81403  0.23955  1.0000
  H   H1259     1.0  0.95544  0.76638  0.43260  1.0000
  H   H1260     1.0  0.93194  0.75016  0.42093  1.0000
  H   H1261     1.0  0.74703  0.97643  0.44170  1.0000
  H   H1262     1.0  0.98266  0.70150  0.43669  1.0000
  H   H1263     1.0  0.70857  0.84016  0.38367  1.0000
  H   H1264     1.0  0.97910  0.54459  0.14216  1.0000
  N   N41       1.0  0.93767  0.71471  0.20466  1.0000
  C   C717      1.0  0.93396  0.71107  0.24721  1.0000
  C   C718      1.0  0.92251  0.73270  0.19023  1.0000
  C   C719      1.0  0.93234  0.69399  0.18199  1.0000
  H   H1265     1.0  0.70549  0.93258  0.07043  1.0000
  C   C720      1.0  0.99414  0.78044  0.30994  1.0000
  C   C721      1.0  0.94773  0.69252  0.26610  1.0000
  C   C722      1.0  0.92947  0.69563  0.13692  1.0000
  C   C723      1.0  0.91755  0.75206  0.21919  1.0000
  C   C724      1.0  0.90515  0.77048  0.19884  1.0000
  H   H1266     1.0  0.83648  0.83345  0.46241  1.0000
  C   C725      1.0  0.94220  0.69043  0.30888  1.0000
  C   C726      1.0  0.93001  0.67321  0.11653  1.0000
  H   H1267     1.0  0.91650  0.70777  0.25108  1.0000
  H   H1268     1.0  0.93704  0.72583  0.26557  1.0000
  H   H1269     1.0  0.92858  0.73922  0.16293  1.0000
  H   H1270     1.0  0.90625  0.72621  0.18233  1.0000
  H   H1271     1.0  0.91703  0.68739  0.19223  1.0000
  H   H1272     1.0  0.94511  0.68120  0.18753  1.0000
  C   C727      1.0  0.86649  0.52086  0.01796  1.0000
  S   S172      1.0  0.85843  0.54782  0.00488  1.0000
  H   H1273     1.0  0.75066  0.93420  0.02741  1.0000
  S   S173      1.0  0.90300  0.63529  0.03688  1.0000
  H   H1274     1.0  0.94460  0.67669  0.25110  1.0000
  H   H1275     1.0  0.69299  0.88920  0.01043  1.0000
  H   H1276     1.0  0.71812  0.98283  0.43931  1.0000
  H   H1277     1.0  0.91355  0.70363  0.12939  1.0000
  H   H1278     1.0  0.90720  0.74673  0.24265  1.0000
  H   H1279     1.0  0.93228  0.75878  0.23341  1.0000
  H   H1280     1.0  0.90190  0.78392  0.22045  1.0000
  H   H1281     1.0  0.91485  0.77678  0.17529  1.0000
  H   H1282     1.0  0.98362  0.63853  0.14049  1.0000
  H   H1283     1.0  0.78957  0.53914  0.05050  1.0000
  H   H1284     1.0  0.92478  0.68685  0.31143  1.0000
  H   H1285     1.0  0.96528  0.69573  0.26532  1.0000
  H   H1286     1.0  0.94570  0.70560  0.32589  1.0000
  H   H1287     1.0  0.76923  0.91095  0.41603  1.0000
  H   H1288     1.0  0.96886  0.55970  0.05907  1.0000
  H   H1289     1.0  0.94621  0.66506  0.12069  1.0000
  H   H1290     1.0  0.91750  0.66288  0.12809  1.0000
  H   H1291     1.0  0.92667  0.67480  0.08474  1.0000
  C   C728      1.0  0.82025  0.53606  0.08369  1.0000
  H   H1292     1.0  0.75966  0.90803  0.04440  1.0000
  H   H1293     1.0  0.73470  0.83087  0.36692  1.0000
  H   H1294     1.0  0.83314  0.63355  0.11554  1.0000
  C   C729      1.0  0.71984  0.91438  0.46385  1.0000
  C   C730      1.0  0.97901  0.74646  0.32605  1.0000
  H   H1295     1.0  0.84964  0.77884  0.21081  1.0000
  C   C731      1.0  0.66849  0.96028  0.04805  1.0000
  H   H1296     1.0  0.91565  0.69310  0.02038  1.0000
  H   H1297     1.0  0.95785  0.56354  0.12692  1.0000
  C   C732      1.0  0.81328  0.55975  0.23702  1.0000
  C   C733      1.0  0.85691  0.55377  0.13076  1.0000
  C   C734      1.0  0.73521  0.84749  0.42427  1.0000
  H   H1298     1.0  0.72179  0.81663  0.40458  1.0000
  C   C735      1.0  0.87605  0.56352  0.15535  1.0000
  H   H1299     1.0  0.81337  0.54125  0.02173  1.0000
  H   H1300     1.0  0.94706  0.63775  0.03146  1.0000
  H   H1301     1.0  0.80483  0.56452  0.16177  1.0000
  H   H1302     1.0  0.79691  0.90929  0.43482  1.0000
  C   C736      1.0  0.72711  0.92193  0.50112  1.0000
  C   C737      1.0  0.82277  0.62851  0.13926  1.0000
  H   H1303     1.0  0.85024  0.82786  0.19793  1.0000
  H   H1304     1.0  0.83063  0.56787  0.06936  1.0000
  C   C738      1.0  0.82274  0.56055  0.09435  1.0000
  H   H1305     1.0  0.96840  0.71310  0.39535  1.0000
  H   H1306     1.0  0.80943  0.54231  0.23527  1.0000
  H   H1307     1.0  0.77997  0.74935  0.25376  1.0000
  H   H1308     1.0  0.87239  0.80848  0.19156  1.0000
  H   H1309     1.0  0.83827  0.79234  0.16905  1.0000
  N   N42       1.0  0.80313  0.78226  0.21934  1.0000
  C   C739      1.0  0.96914  0.61333  0.00798  1.0000
  H   H1310     1.0  0.85529  0.53664  0.13903  1.0000
  C   C740      1.0  0.84150  0.79402  0.20101  1.0000
  H   H1311     1.0  0.98116  0.72942  0.33185  1.0000
  H   H1312     1.0  0.78148  0.76908  0.10237  1.0000
  H   H1313     1.0  0.81976  0.56372  0.26693  1.0000
  H   H1314     1.0  0.96348  0.72137  0.16594  1.0000
  H   H1315     1.0  0.80758  0.63869  0.13861  1.0000
  C   C741      1.0  0.70613  0.92889  0.03838  1.0000
  H   H1316     1.0  0.81651  0.76836  0.27235  1.0000
  H   H1317     1.0  0.74082  0.81170  0.22797  1.0000
  N   N43       1.0  0.83514  0.56582  0.13211  1.0000
  H   H1318     1.0  0.74649  0.92720  0.07742  1.0000
  H   H1319     1.0  0.68498  0.96556  0.05685  1.0000
  H   H1320     1.0  0.84797  0.59493  0.16056  1.0000
  H   H1321     1.0  0.68955  0.87308  0.49143  1.0000
  H   H1322     1.0  0.76719  0.83681  0.41008  1.0000
  H   H1323     1.0  0.88940  0.52998  0.06357  1.0000
  N   N44       1.0  0.68390  0.92308  0.02183  1.0000
  H   H1324     1.0  0.79391  0.81200  0.43621  1.0000
  C   C742      1.0  0.98080  0.55472  0.08207  1.0000
  H   H1325     1.0  0.80660  0.60061  0.15734  1.0000
  H   H1326     1.0  0.96641  0.74094  0.24927  1.0000
  C   C743      1.0  0.92790  0.77331  0.46988  1.0000
  C   C744      1.0  0.97637  0.71690  0.42417  1.0000
  C   C745      1.0  0.80313  0.82677  0.44396  1.0000
  H   H1327     1.0  0.97089  0.80716  0.30358  1.0000
  H   H1328     1.0  0.83358  0.58210  0.21096  1.0000
  H   H1329     1.0  0.79967  0.87074  0.41861  1.0000
  C   C746      1.0  0.86057  0.73990  0.48539  1.0000
  C   C747      1.0  0.70020  0.88663  0.49399  1.0000
  H   H1330     1.0  0.90916  0.55538  0.17408  1.0000
  H   H1331     1.0  0.79816  0.56969  0.23195  1.0000
  H   H1332     1.0  0.93187  0.77815  0.40819  1.0000
  H   H1333     1.0  0.96352  0.75452  0.20362  1.0000
  H   H1334     1.0  0.80878  0.77861  0.09897  1.0000
  H   H1335     1.0  0.88115  0.57860  0.14218  1.0000
  Fe  Fe86      1.0  0.87356  0.58086  0.01824  1.0000
  C   C748      1.0  0.75786  0.83821  0.43713  1.0000
  C   C749      1.0  0.78516  0.90225  0.41310  1.0000
  C   C750      1.0  0.82015  0.79930  0.22262  1.0000
  H   H1336     1.0  0.93300  0.50574  0.03847  1.0000
  H   H1337     1.0  0.97179  0.70521  0.20517  1.0000
  H   H1338     1.0  0.81218  0.52764  0.10690  1.0000
  H   H1339     1.0  0.87177  0.56777  0.18570  1.0000
  C   C751      1.0  0.80642  0.53284  0.04625  1.0000
  H   H1340     1.0  0.88939  0.76483  0.18641  1.0000
  C   C752      1.0  0.79188  0.78336  0.10665  1.0000
  H   H1341     1.0  0.82692  0.75597  0.22921  1.0000
  C   C753      1.0  0.87861  0.72580  0.48087  1.0000
  H   H1342     1.0  0.93333  0.78981  0.47823  1.0000
  H   H1343     1.0  0.80560  0.73461  0.30316  1.0000
  H   H1344     1.0  0.98796  0.74663  0.40410  1.0000
  H   H1345     1.0  0.89173  0.53252  0.17003  1.0000
  C   C754      1.0  0.78307  0.87804  0.41914  1.0000
  H   H1346     1.0  0.82164  0.72129  0.26535  1.0000
  C   C755      1.0  0.80510  0.72728  0.27312  1.0000
  H   H1347     1.0  0.78242  0.88281  0.48117  1.0000
  C   C756      1.0  0.81182  0.76305  0.24193  1.0000
  H   H1348     1.0  0.79106  0.90473  0.38338  1.0000
  H   H1349     1.0  0.81336  0.76572  0.16616  1.0000
  H   H1350     1.0  0.79459  0.73536  0.21528  1.0000
  H   H1351     1.0  0.79433  0.71324  0.27268  1.0000
  H   H1352     1.0  0.72397  0.84891  0.44878  1.0000
  H   H1353     1.0  0.78701  0.82488  0.25292  1.0000
  H   H1354     1.0  0.80410  0.83615  0.41728  1.0000
  H   H1355     1.0  0.78338  0.78804  0.27025  1.0000
  C   C757      1.0  0.96105  0.71935  0.19749  1.0000
  H   H1356     1.0  0.77677  0.82042  0.20418  1.0000
  C   C758      1.0  0.79877  0.77459  0.17771  1.0000
  C   C759      1.0  0.79119  0.79217  0.14881  1.0000
  H   H1357     1.0  0.95143  0.75159  0.49808  1.0000
  H   H1358     1.0  0.94226  0.70510  0.12436  1.0000
  C   C760      1.0  0.78238  0.79053  0.23812  1.0000
  C   C761      1.0  0.72482  0.91155  0.03433  1.0000
  H   H1359     1.0  0.77410  0.79725  0.15430  1.0000
  H   H1360     1.0  0.83139  0.63150  0.16781  1.0000
  C   C762      1.0  0.88154  0.51665  0.04840  1.0000
  C   C763      1.0  0.96795  0.54918  0.11749  1.0000
  H   H1361     1.0  0.90995  0.77414  0.46546  1.0000
  H   H1362     1.0  0.95212  0.67699  0.32176  1.0000
  C   C764      1.0  0.68035  0.89917  0.02554  1.0000
  H   H1363     1.0  0.96397  0.72443  0.44357  1.0000
  C   C765      1.0  0.96292  0.63440  0.02022  1.0000
  H   H1364     1.0  0.72209  0.89790  0.05368  1.0000
  C   C766      1.0  0.79198  0.84001  0.47764  1.0000
  C   C767      1.0  0.66720  0.93520  0.04621  1.0000
  C   C768      1.0  0.66531  0.89559  0.17587  1.0000
  H   H1365     1.0  0.66552  0.86741  0.13700  1.0000
  C   C769      1.0  0.74670  0.92091  0.04667  1.0000
  H   H1366     1.0  0.93819  0.54202  0.01465  1.0000
  H   H1367     1.0  0.68313  0.98909  0.19767  1.0000
  H   H1368     1.0  0.82611  0.80903  0.48179  1.0000
  H   H1369     1.0  0.71149  0.94405  0.02555  1.0000
  H   H1370     1.0  0.80365  0.85211  0.48956  1.0000
  Fe  Fe87      1.0  0.91668  0.60237  0.01993  1.0000
  H   H1371     1.0  0.66394  0.96699  0.01919  1.0000
  S   S174      1.0  0.95129  0.59206  0.00941  1.0000
  H   H1372     1.0  0.98985  0.62407  0.09549  1.0000
  C   C770      1.0  0.93790  0.50692  0.00774  1.0000
  H   H1373     1.0  0.95580  0.50506  0.00730  1.0000
  H   H1374     1.0  0.99083  0.56877  0.09059  1.0000
  H   H1375     1.0  0.72603  0.90488  0.00412  1.0000
  H   H1376     1.0  0.79072  0.82812  0.50112  1.0000
  H   H1377     1.0  0.92331  0.71100  0.98316  1.0000
  H   H1378     1.0  0.92113  0.73342  0.56106  1.0000
  S   S175      1.0  0.86767  0.65805  0.95514  1.0000
  C   C771      1.0  0.68692  0.97429  0.59725  1.0000
  C   C772      1.0  0.66569  0.87720  0.85499  1.0000
  S   S176      1.0  0.67239  0.89800  0.74372  1.0000
  H   H1379     1.0  0.96498  0.49699  0.94279  1.0000
  H   H1380     1.0  0.89479  0.76323  0.60010  1.0000
  S   S177      1.0  0.89219  0.59622  0.97157  1.0000
  Fe  Fe88      1.0  0.86564  0.73482  0.66105  1.0000
  S   S178      1.0  0.88542  0.76292  0.68257  1.0000
  S   S179      1.0  0.84870  0.73819  0.60134  1.0000
  Fe  Fe89      1.0  0.87021  0.71269  0.74205  1.0000
  S   S180      1.0  0.88962  0.73996  0.76783  1.0000
  S   S181      1.0  0.86561  0.68116  0.77398  1.0000
  Fe  Fe90      1.0  0.86546  0.76216  0.73614  1.0000
  S   S182      1.0  0.84936  0.79245  0.76416  1.0000
  Fe  Fe91      1.0  0.90721  0.73781  0.71125  1.0000
  S   S183      1.0  0.94325  0.72991  0.70887  1.0000
  S   S184      1.0  0.84487  0.73492  0.71393  1.0000
  S   S185      1.0  0.88864  0.70969  0.68624  1.0000
  Fe  Fe92      1.0  0.72854  0.90790  0.64103  1.0000
  S   S186      1.0  0.76167  0.90374  0.66943  1.0000
  S   S187      1.0  0.72944  0.92309  0.58126  1.0000
  Fe  Fe93      1.0  0.70615  0.89556  0.71729  1.0000
  S   S188      1.0  0.73812  0.88988  0.74953  1.0000
  Fe  Fe94      1.0  0.87686  0.62817  0.99108  1.0000
  Fe  Fe95      1.0  0.74755  0.92065  0.72205  1.0000
  S   S189      1.0  0.76224  0.94832  0.75744  1.0000
  Fe  Fe96      1.0  0.74941  0.87331  0.69358  1.0000
  S   S190      1.0  0.76922  0.84209  0.68039  1.0000
  S   S191      1.0  0.71543  0.92705  0.69247  1.0000
  S   S192      1.0  0.71652  0.87664  0.66259  1.0000
  C   C773      1.0  0.72100  0.91189  0.53504  1.0000
  H   H1381     1.0  0.91527  0.66132  0.84971  1.0000
  C   C774      1.0  0.70763  0.89407  0.53129  1.0000
  H   H1382     1.0  0.95562  0.76676  0.82943  1.0000
  H   H1383     1.0  0.70252  0.88637  0.55713  1.0000
  C   C775      1.0  0.86077  0.73332  0.55546  1.0000
  C   C776      1.0  0.90711  0.77319  0.54478  1.0000
  C   C777      1.0  0.87892  0.71938  0.55101  1.0000
  H   H1384     1.0  0.66336  0.92984  0.97097  1.0000
  H   H1385     1.0  0.88595  0.71127  0.57608  1.0000
  C   C778      1.0  0.82720  0.80633  0.74070  1.0000
  C   C779      1.0  0.81985  0.80009  0.70314  1.0000
  C   C780      1.0  0.80215  0.81132  0.68526  1.0000
  C   C781      1.0  0.79163  0.82897  0.70454  1.0000
  C   C782      1.0  0.79889  0.83521  0.74218  1.0000
  C   C783      1.0  0.81664  0.82396  0.76013  1.0000
  H   H1386     1.0  0.82786  0.78664  0.68774  1.0000
  H   H1387     1.0  0.79663  0.80634  0.65615  1.0000
  H   H1388     1.0  0.79066  0.84850  0.75756  1.0000
  H   H1389     1.0  0.82215  0.82882  0.78930  1.0000
  C   C784      1.0  0.95877  0.76883  0.68596  1.0000
  C   C785      1.0  0.96304  0.74684  0.69212  1.0000
  H   H1390     1.0  0.92921  0.75095  0.60061  1.0000
  H   H1391     1.0  0.94261  0.77573  0.68993  1.0000
  H   H1392     1.0  0.91008  0.78766  0.60456  1.0000
  H   H1393     1.0  0.97976  0.56470  0.93155  1.0000
  H   H1394     1.0  0.90476  0.78816  0.52782  1.0000
  C   C786      1.0  0.66860  0.94883  0.54751  1.0000
  C   C787      1.0  0.92523  0.67907  0.92255  1.0000
  C   C788      1.0  0.96822  0.78258  0.54049  1.0000
  C   C789      1.0  0.86735  0.66393  0.90449  1.0000
  C   C790      1.0  0.86972  0.64783  0.87508  1.0000
  C   C791      1.0  0.86928  0.65344  0.83545  1.0000
  C   C792      1.0  0.86699  0.67521  0.82460  1.0000
  C   C793      1.0  0.86512  0.69135  0.85407  1.0000
  C   C794      1.0  0.86498  0.68570  0.89363  1.0000
  H   H1395     1.0  0.87145  0.63102  0.88278  1.0000
  H   H1396     1.0  0.87059  0.64079  0.81295  1.0000
  H   H1397     1.0  0.86320  0.70814  0.84631  1.0000
  H   H1398     1.0  0.86313  0.69833  0.91604  1.0000
  H   H1399     1.0  0.87056  0.79454  0.61339  1.0000
  C   C795      1.0  0.68080  0.93018  0.98028  1.0000
  C   C796      1.0  0.70213  0.98112  0.67845  1.0000
  C   C797      1.0  0.99383  0.54282  0.99794  1.0000
  H   H1400     1.0  0.80263  0.94482  0.62971  1.0000
  H   H1401     1.0  0.96532  0.68279  0.91726  1.0000
  H   H1402     1.0  0.76421  0.95997  0.67669  1.0000
  H   H1403     1.0  0.75340  0.83393  0.51244  1.0000
  H   H1404     1.0  0.93764  0.79905  0.55004  1.0000
  H   H1405     1.0  0.97171  0.70669  0.59966  1.0000
  H   H1406     1.0  0.94825  0.71708  0.62491  1.0000
  N   N45       1.0  0.77448  0.75610  0.73981  1.0000
  C   C798      1.0  0.77706  0.75600  0.69615  1.0000
  C   C799      1.0  0.76691  0.77834  0.75478  1.0000
  C   C800      1.0  0.79664  0.75115  0.75824  1.0000
  C   C801      1.0  0.75953  0.73882  0.75150  1.0000
  C   C802      1.0  0.73616  0.73984  0.73376  1.0000
  C   C803      1.0  0.78413  0.73403  0.67634  1.0000
  C   C804      1.0  0.79895  0.75454  0.80330  1.0000
  C   C805      1.0  0.75041  0.79134  0.72871  1.0000
  C   C806      1.0  0.74122  0.81137  0.75073  1.0000
  C   C807      1.0  0.72435  0.71909  0.74106  1.0000
  C   C808      1.0  0.78817  0.73667  0.63306  1.0000
  C   C809      1.0  0.82118  0.74618  0.81847  1.0000
  H   H1407     1.0  0.78905  0.76818  0.68899  1.0000
  H   H1408     1.0  0.76185  0.76120  0.68058  1.0000
  H   H1409     1.0  0.76005  0.77726  0.78425  1.0000
  H   H1410     1.0  0.78101  0.78914  0.75878  1.0000
  H   H1411     1.0  0.80899  0.76140  0.74566  1.0000
  H   H1412     1.0  0.80187  0.73405  0.75171  1.0000
  H   H1413     1.0  0.76684  0.72244  0.74473  1.0000
  H   H1414     1.0  0.75768  0.73938  0.78361  1.0000
  H   H1415     1.0  0.73586  0.74191  0.70181  1.0000
  H   H1416     1.0  0.72678  0.75339  0.74801  1.0000
  H   H1417     1.0  0.79935  0.72725  0.68961  1.0000
  H   H1418     1.0  0.77130  0.72203  0.67851  1.0000
  H   H1419     1.0  0.78656  0.74584  0.81858  1.0000
  H   H1420     1.0  0.79741  0.77203  0.81179  1.0000
  H   H1421     1.0  0.75861  0.79698  0.70279  1.0000
  H   H1422     1.0  0.73662  0.78170  0.71783  1.0000
  C   C810      1.0  0.93164  0.64038  0.90902  1.0000
  C   C811      1.0  0.95579  0.73473  0.57329  1.0000
  H   H1423     1.0  0.98729  0.72093  0.69105  1.0000
  H   H1424     1.0  0.72385  0.71633  0.77284  1.0000
  H   H1425     1.0  0.70742  0.72052  0.72915  1.0000
  H   H1426     1.0  0.73256  0.70491  0.72631  1.0000
  H   H1427     1.0  0.80133  0.74820  0.62942  1.0000
  H   H1428     1.0  0.79336  0.72081  0.61953  1.0000
  H   H1429     1.0  0.77320  0.74263  0.61747  1.0000
  H   H1430     1.0  0.82333  0.72848  0.81217  1.0000
  H   H1431     1.0  0.83437  0.75467  0.80473  1.0000
  H   H1432     1.0  0.82267  0.74916  0.85054  1.0000
  H   H1433     1.0  0.93555  0.63736  0.94029  1.0000
  C   C812      1.0  0.72991  0.98473  0.55722  1.0000
  H   H1434     1.0  0.84488  0.50613  0.97489  1.0000
  C   C813      1.0  0.95505  0.71381  0.59564  1.0000
  N   N46       1.0  0.82698  0.90311  0.71933  1.0000
  C   C814      1.0  0.80936  0.90689  0.74864  1.0000
  C   C815      1.0  0.82254  0.91681  0.68399  1.0000
  C   C816      1.0  0.82647  0.87957  0.70563  1.0000
  C   C817      1.0  0.84922  0.90712  0.73716  1.0000
  C   C818      1.0  0.85269  0.92994  0.75589  1.0000
  C   C819      1.0  0.81262  0.89494  0.78754  1.0000
  H   H1435     1.0  0.86178  0.90487  0.71478  1.0000
  C   C820      1.0  0.81181  0.93966  0.69072  1.0000
  C   C821      1.0  0.81208  0.95287  0.65390  1.0000
  H   H1436     1.0  0.94064  0.62245  0.85451  1.0000
  C   C822      1.0  0.79349  0.89970  0.81404  1.0000
  H   H1437     1.0  0.68507  0.94741  0.97810  1.0000
  H   H1438     1.0  0.79341  0.90235  0.73519  1.0000
  H   H1439     1.0  0.80721  0.92429  0.75714  1.0000
  H   H1440     1.0  0.83778  0.91873  0.66813  1.0000
  H   H1441     1.0  0.81128  0.90847  0.66270  1.0000
  H   H1442     1.0  0.80963  0.87538  0.69584  1.0000
  H   H1443     1.0  0.83095  0.86867  0.72989  1.0000
  H   H1444     1.0  0.85362  0.89478  0.75921  1.0000
  H   H1445     1.0  0.66410  0.98338  0.54966  1.0000
  H   H1446     1.0  0.83962  0.93508  0.77591  1.0000
  C   C823      1.0  0.98825  0.54882  0.92551  1.0000
  H   H1447     1.0  0.81400  0.87716  0.78263  1.0000
  H   H1448     1.0  0.82744  0.90036  0.80371  1.0000
  H   H1449     1.0  0.98107  0.53062  0.99487  1.0000
  N   N47       1.0  0.93835  0.66269  0.89857  1.0000
  H   H1450     1.0  0.79462  0.93797  0.69812  1.0000
  H   H1451     1.0  0.81973  0.94909  0.71480  1.0000
  H   H1452     1.0  0.68966  0.94190  0.90480  1.0000
  H   H1453     1.0  0.70388  0.97551  0.74052  1.0000
  H   H1454     1.0  0.97506  0.64391  0.86079  1.0000
  H   H1455     1.0  0.93689  0.53213  0.96462  1.0000
  H   H1456     1.0  0.97518  0.81558  0.56084  1.0000
  H   H1457     1.0  0.75449  0.82186  0.76178  1.0000
  H   H1458     1.0  0.79138  0.91740  0.82038  1.0000
  H   H1459     1.0  0.77830  0.89365  0.80000  1.0000
  H   H1460     1.0  0.79638  0.89144  0.84205  1.0000
  C   C824      1.0  0.83886  0.84905  0.65896  1.0000
  H   H1461     1.0  0.94652  0.68156  0.78487  1.0000
  H   H1462     1.0  0.69172  0.89970  0.94984  1.0000
  C   C825      1.0  0.88764  0.71548  0.51381  1.0000
  H   H1463     1.0  0.89609  0.76124  0.53035  1.0000
  H   H1464     1.0  0.96707  0.65633  0.93481  1.0000
  H   H1465     1.0  0.94489  0.70182  0.57933  1.0000
  H   H1466     1.0  0.91988  0.69982  0.85356  1.0000
  C   C826      1.0  0.75441  0.85826  0.57840  1.0000
  C   C827      1.0  0.93301  0.74593  0.57005  1.0000
  C   C828      1.0  0.96217  0.66562  0.90849  1.0000
  C   C829      1.0  0.93377  0.68973  0.84243  1.0000
  H   H1467     1.0  0.93035  0.69579  0.91740  1.0000
  H   H1468     1.0  0.72407  0.96856  0.54767  1.0000
  H   H1469     1.0  0.80463  0.96922  0.65978  1.0000
  H   H1470     1.0  0.91802  0.66183  0.97520  1.0000
  H   H1471     1.0  0.69703  0.91511  0.88609  1.0000
  C   C830      1.0  0.97564  0.74121  0.80145  1.0000
  H   H1472     1.0  0.75865  0.97963  0.52284  1.0000
  C   C831      1.0  0.66319  0.89427  0.79183  1.0000
  H   H1473     1.0  0.87958  0.80798  0.57131  1.0000
  C   C832      1.0  0.76232  0.97468  0.69443  1.0000
  H   H1474     1.0  0.97527  0.73075  0.82702  1.0000
  C   C833      1.0  0.93109  0.52957  0.99436  1.0000
  H   H1475     1.0  0.76170  0.86714  0.60400  1.0000
  H   H1476     1.0  0.86465  0.78328  0.56532  1.0000
  H   H1477     1.0  0.91476  0.60002  0.88823  1.0000
  H   H1478     1.0  0.94682  0.78334  0.58966  1.0000
  H   H1479     1.0  0.94902  0.69715  0.85333  1.0000
  H   H1480     1.0  0.69016  0.87393  0.81099  1.0000
  C   C834      1.0  0.92644  0.67653  0.96734  1.0000
  H   H1481     1.0  0.94351  0.67539  0.97830  1.0000
  C   C835      1.0  0.93231  0.66616  0.85612  1.0000
  H   H1482     1.0  0.75475  0.84074  0.58472  1.0000
  C   C836      1.0  0.69980  0.98904  0.72079  1.0000
  H   H1483     1.0  0.95991  0.61947  0.89521  1.0000
  C   C837      1.0  0.97574  0.78207  0.67619  1.0000
  H   H1484     1.0  0.68160  0.93616  0.55166  1.0000
  C   C838      1.0  0.93235  0.59967  0.89636  1.0000
  H   H1485     1.0  0.95510  0.76700  0.77659  1.0000
  H   H1486     1.0  0.88798  0.92597  0.76055  1.0000
  H   H1487     1.0  0.94070  0.74689  0.80088  1.0000
  H   H1488     1.0  0.71153  0.92069  0.95329  1.0000
  H   H1489     1.0  0.76720  0.88004  0.53872  1.0000
  H   H1490     1.0  0.91718  0.68361  0.78614  1.0000
  H   H1491     1.0  0.68986  0.97370  0.53262  1.0000
  C   C839      1.0  0.93252  0.69060  0.79792  1.0000
  C   C840      1.0  0.91513  0.69571  0.98851  1.0000
  H   H1492     1.0  0.85353  0.94190  0.73267  1.0000
  H   H1493     1.0  0.91368  0.63922  0.90533  1.0000
  H   H1494     1.0  0.76196  0.97095  0.57233  1.0000
  C   C841      1.0  0.75455  0.98371  0.55357  1.0000
  H   H1495     1.0  0.73047  0.82097  0.73071  1.0000
  H   H1496     1.0  0.85905  0.87420  0.68150  1.0000
  H   H1497     1.0  0.78421  0.85639  0.54805  1.0000
  H   H1498     1.0  0.87655  0.94726  0.79160  1.0000
  H   H1499     1.0  0.73737  0.93577  0.50365  1.0000
  C   C842      1.0  0.94245  0.62094  0.88653  1.0000
  C   C843      1.0  0.76021  0.97357  0.73474  1.0000
  H   H1500     1.0  0.94219  0.65553  0.83649  1.0000
  H   H1501     1.0  0.93279  0.70767  0.78900  1.0000
  C   C844      1.0  0.85155  0.74340  0.52241  1.0000
  H   H1502     1.0  0.73158  0.80658  0.77561  1.0000
  H   H1503     1.0  0.96709  0.74552  0.58990  1.0000
  H   H1504     1.0  0.90785  0.67870  0.91322  1.0000
  H   H1505     1.0  0.87404  0.91941  0.80407  1.0000
  H   H1506     1.0  0.66203  0.94715  0.51706  1.0000
  H   H1507     1.0  0.72989  0.97570  0.61653  1.0000
  H   H1508     1.0  0.82899  0.95490  0.64487  1.0000
  C   C845      1.0  0.84181  0.87267  0.67195  1.0000
  H   H1509     1.0  0.84260  0.83825  0.68366  1.0000
  H   H1510     1.0  0.85007  0.84446  0.63516  1.0000
  C   C846      1.0  0.94509  0.78293  0.55717  1.0000
  H   H1511     1.0  0.97653  0.76653  0.54227  1.0000
  H   H1512     1.0  0.67235  0.97420  0.61561  1.0000
  C   C847      1.0  0.87698  0.79194  0.58365  1.0000
  C   C848      1.0  0.89826  0.77855  0.58589  1.0000
  C   C849      1.0  0.76727  0.86224  0.54220  1.0000
  C   C850      1.0  0.68721  0.92434  0.90801  1.0000
  C   C851      1.0  0.98253  0.79896  0.56245  1.0000
  H   H1513     1.0  0.89784  0.69722  0.97848  1.0000
  N   N48       1.0  0.93043  0.76487  0.54340  1.0000
  H   H1514     1.0  0.97411  0.73084  0.77456  1.0000
  C   C852      1.0  0.67764  0.97139  0.55477  1.0000
  C   C853      1.0  0.98402  0.73802  0.68685  1.0000
  H   H1515     1.0  0.73731  0.86418  0.57445  1.0000
  H   H1516     1.0  0.83862  0.88257  0.64591  1.0000
  C   C854      1.0  0.97849  0.65951  0.87607  1.0000
  H   H1517     1.0  0.94039  0.58600  0.87995  1.0000
  H   H1518     1.0  0.83738  0.75405  0.52549  1.0000
  H   H1519     1.0  0.93453  0.59675  0.92800  1.0000
  H   H1520     1.0  0.69670  0.95935  0.60459  1.0000
  H   H1521     1.0  0.75585  0.99212  0.78847  1.0000
  C   C855      1.0  0.87415  0.93059  0.77941  1.0000
  H   H1522     1.0  0.82197  0.84663  0.64785  1.0000
  H   H1523     1.0  0.97258  0.79921  0.67248  1.0000
  H   H1524     1.0  0.98478  0.79473  0.59357  1.0000
  C   C856      1.0  0.72365  0.98986  0.59988  1.0000
  C   C857      1.0  0.99003  0.60905  0.99448  1.0000
  H   H1525     1.0  0.71874  0.97412  0.67558  1.0000
  C   C858      1.0  0.69406  0.91738  0.94907  1.0000
  C   C859      1.0  0.95561  0.75648  0.80223  1.0000
  H   H1526     1.0  0.96240  0.73036  0.54435  1.0000
  H   H1527     1.0  0.66988  0.92088  0.90169  1.0000
  C   C860      1.0  0.67470  0.88135  0.81873  1.0000
  H   H1528     1.0  0.97789  0.67214  0.85381  1.0000
  H   H1529     1.0  0.90146  0.70440  0.51055  1.0000
  H   H1530     1.0  0.96737  0.78689  0.50932  1.0000
  C   C861      1.0  0.93431  0.75692  0.50195  1.0000
  H   H1531     1.0  0.69050  0.96799  0.67297  1.0000
  C   C862      1.0  0.85664  0.50315  0.99836  1.0000
  C   C863      1.0  0.75693  0.85089  0.50526  1.0000
  H   H1532     1.0  0.91315  0.53189  0.99411  1.0000
  H   H1533     1.0  0.67444  0.86663  0.87494  1.0000
  H   H1534     1.0  0.97610  0.53598  0.92256  1.0000
  C   C864      1.0  0.75745  0.99285  0.75725  1.0000
  H   H1535     1.0  0.92573  0.49438  0.95163  1.0000
  H   H1536     1.0  0.67050  0.85877  0.99060  1.0000
