data_image0
_chemical_formula_structural       HSH2C2FeS2FeS2FeSFeS3C2H3C2H2CFeHNH2C2H2CH2C6H6C3H9CFeCH2CHC3HSCHCH2CH4CH7SH2CH5CH2CHC3HC3H2N2CNC4HC3H8C2H8CH2CH5CH2CHCH7CH2CH6CH3CH5C3SHCHC2H2SH5CNH2CH2CH2C2H3CFeS2HSCFeS2FeSHC2FeS2CFeS2FeS2FeSFeS3CHC2HC2H2NCH5CHC6H7CH10CH3CHCHCNH3CSHC5H2C2H4C3H6CH7CHCHCH2C4HCH4SC2HCH2CH4CH2C2FeCHCH5CH2FeCHCH5C2HCH4C2H2C6H2CH5CHCNHCHNCH6CH9CH2C2HCH7CH2CHCHCH2SCHS2FeS2FeS2FeSFeS3CHCH2CHCHCH2C6H6C2HCH8CH5CHFeH4CFeCFeH9CH4C2NC2H4NC12H20C2H10CH5CH4C3HCHCHCH2CH5CSCHCHC3H3NC2HCH4CH4CH3CH2CH2CH2CHC2H2FeC2FeSHC2SH4C4HFeS2FeS2FeS2FeSFeS3C3H4C7H5CH3FeH15CHC2H7NC4HC3SH9CH12C2HC2H2SC2HC2HC2H3SH2C2HCH4CH2NH2CH3C2H6C3HNHCH3C3HC2HSHC2H9CH2CHCHC2H5NH2C2H2CH2C4HC2H2C2H4NHCHCHC2FeCSHCH3C2SH2CH6SHCHFeS2FeS2FeSFeS3FeS2FeS2FeCFeHS2H3CH2CHC6H6C2H6C2H7CH2CH7C2H3NH2C3H4CHC2H2CH2CHCHCH2C6H2CNH2C4H3CH4CH8CH2CH4CHSC2H4C2H2CHCH3SHC2HC2H3CHCH2C2HCHC3HC2HCHNCH6FeS2FeSHFeSFeS3FeS2FeS2FeHFeHS2CH4C6H7SC3H2C2H3NC8HC3H17CH10CHCHCH3C2H2SH5CSCH4C3HCH2CH2C2SHNHCHCH2CH3CH5C3H3CHCH3C2HC2HCH3CNHC3H3CH5C3H2C2HFeS2FeS2FeSFeHS2FeS2FeS2FeSFeS3C3HC5HC3H5C3H4C6H4C3HCH5C3H5C2H5CH2NCH2C3HCHC3H3CH8C2H2CHCH6CH2NCHC3HC2H4CH7CH8C2H7C2H2CHNC8HC2H18CH7C2HC3H2C2H2CHCH5CH3CHCH3C2H4CH2CHNHNHSH2C2HC4H6C2HCHC2HCHCNCH3FeS2FeS2FeHFeCS2FeS2FeS2FeHFeS3C2H2CH3CH3C7H2C6H4CH5C3H3CH5NCH18C2H6CHC2H4NSH2CH2C3HCNH4CH5C3H2C2HCH2CH4CHCH3CH2CH9C2HC3SCHC3HC2HCH5C2HCH2CH7C2H4CH2CSH2CFeS2FeSCFeS2FeS2FeSFeS3C4H2CH6C3H2C6H4CFeHC2HCH3CNC8HC3H16C2H4SFeCH4C2H4C3HCH2CHCH3CH9C2H2C4H4SH2CH4C3H5CHCH3C2H2S2H5N2HCHCH3CH2CHC2H2CH5CSH3SHCH2CH2CH3SHCHCH8FeS2FeSC2HNH3FeS2FeS2FeSFeS3C2HCH2CH2CH4C6H5C2HC2H2CHCNH2C2HC2H14C3H2CH2SH2C3H2C3H4CHC2HC2H2C3HC2H7NC10H13NH10CSH3CH2CHCH2C2H5CH6CH2CH4SH3CH4C3HC2H2FeCH3FeCH3C2NH7C4HCSH4FeS2FeS2FeSFeCS2C3HCH3CH2C3HCHC6H4SCHC5NH4C2H2CNHCH3CH2CHC2HCH5CHCHCHCSCH3CH2CH5CHCH3NHCH3CHCH3NC2HC8H21CHCH3NCHSC2HCH3SH2CH2C2H6CH2CHSH5CH8CH3CH9FeSHFeSHFeS2FeS2H2CHSCFeS2FeS2FeHFeS3NH4SH2SH9C6H5C3H7C2HCH2CHCH2C4H5SHCH2C2HCSH9C2HC2H2FeSHNC9HCH5CH2CFeCH3C2HNH2CHCH2C2H4CH4CH4SH2C2HCHCHCHC2H5C2H2CFeH2FeCH4C2
_chemical_formula_sum              "H1536 S192 C864 Fe96 N48"
_cell_length_a       58.3013
_cell_length_b       58.3786
_cell_length_c       36.5215
_cell_angle_alpha    89.4463
_cell_angle_beta     89.9732
_cell_angle_gamma    86.113

_space_group_name_H-M_alt    "P 1"
_space_group_IT_number       1

loop_
  _space_group_symop_operation_xyz
  'x, y, z'

loop_
  _atom_site_type_symbol
  _atom_site_label
  _atom_site_symmetry_multiplicity
  _atom_site_fract_x
  _atom_site_fract_y
  _atom_site_fract_z
  _atom_site_occupancy
  H   H1        1.0  0.03255  0.46410  0.22316  1.0000
  S   S1        1.0  0.12216  0.32135  0.04651  1.0000
  H   H2        1.0  0.15146  0.37249  0.15553  1.0000
  H   H3        1.0  0.21403  0.36697  0.19557  1.0000
  C   C1        1.0  0.20881  0.35797  0.17045  1.0000
  C   C2        1.0  0.17580  0.15095  0.07335  1.0000
  Fe  Fe1       1.0  0.11097  0.36468  0.25827  1.0000
  S   S2        1.0  0.08951  0.39717  0.24652  1.0000
  S   S3        1.0  0.11171  0.33354  0.22005  1.0000
  Fe  Fe2       1.0  0.12518  0.38204  0.33481  1.0000
  S   S4        1.0  0.10512  0.41597  0.32715  1.0000
  S   S5        1.0  0.14561  0.37598  0.38777  1.0000
  Fe  Fe3       1.0  0.07789  0.39487  0.30477  1.0000
  S   S6        1.0  0.04167  0.40569  0.32070  1.0000
  Fe  Fe4       1.0  0.11878  0.41542  0.26992  1.0000
  S   S7        1.0  0.12754  0.44690  0.23782  1.0000
  S   S8        1.0  0.09693  0.36080  0.31571  1.0000
  S   S9        1.0  0.14142  0.38300  0.27842  1.0000
  C   C3        1.0  0.02344  0.38312  0.32070  1.0000
  C   C4        1.0  0.03209  0.36037  0.31633  1.0000
  H   H4        1.0  0.04581  0.37475  0.48430  1.0000
  H   H5        1.0  0.05029  0.35635  0.31392  1.0000
  H   H6        1.0  0.20414  0.32933  0.23564  1.0000
  C   C5        1.0  0.13217  0.47227  0.26192  1.0000
  C   C6        1.0  0.14182  0.47141  0.29701  1.0000
  H   H7        1.0  0.18604  0.43540  0.49481  1.0000
  H   H8        1.0  0.18162  0.31013  0.28237  1.0000
  C   C7        1.0  0.31932  0.11338  0.10677  1.0000
  Fe  Fe5       1.0  0.30558  0.09384  0.00439  1.0000
  H   H9        1.0  0.14578  0.45498  0.31026  1.0000
  N   N1        1.0  0.19722  0.11460  0.04610  1.0000
  H   H10       1.0  0.05736  0.29480  0.11277  1.0000
  H   H11       1.0  0.02374  0.32500  0.31305  1.0000
  C   C8        1.0  0.13251  0.37110  0.43091  1.0000
  C   C9        1.0  0.10951  0.36586  0.43383  1.0000
  H   H12       1.0  0.15563  0.49099  0.34071  1.0000
  H   H13       1.0  0.04098  0.43806  0.24778  1.0000
  C   C10       1.0  0.14569  0.37207  0.46307  1.0000
  H   H14       1.0  0.09923  0.36483  0.40932  1.0000
  H   H15       1.0  0.16360  0.37562  0.46101  1.0000
  C   C11       1.0  0.11620  0.32444  0.09432  1.0000
  C   C12       1.0  0.11451  0.34658  0.10957  1.0000
  C   C13       1.0  0.11202  0.34977  0.14774  1.0000
  C   C14       1.0  0.11199  0.33078  0.17140  1.0000
  C   C15       1.0  0.11311  0.30866  0.15613  1.0000
  C   C16       1.0  0.11499  0.30550  0.11788  1.0000
  H   H16       1.0  0.11538  0.36139  0.09171  1.0000
  H   H17       1.0  0.11073  0.36690  0.15892  1.0000
  H   H18       1.0  0.11297  0.29381  0.17404  1.0000
  H   H19       1.0  0.11637  0.28835  0.10675  1.0000
  H   H20       1.0  0.14261  0.41670  0.15449  1.0000
  H   H21       1.0  0.21258  0.36983  0.14744  1.0000
  C   C17       1.0  0.17006  0.37546  0.15747  1.0000
  C   C18       1.0  0.17203  0.39771  0.17991  1.0000
  C   C19       1.0  0.17698  0.33414  0.14907  1.0000
  H   H22       1.0  0.01023  0.28689  0.21829  1.0000
  H   H23       1.0  0.16442  0.34812  0.09629  1.0000
  H   H24       1.0  0.03141  0.29371  0.16660  1.0000
  H   H25       1.0  0.17989  0.31735  0.05716  1.0000
  H   H26       1.0  0.19024  0.40079  0.18566  1.0000
  H   H27       1.0  0.26226  0.32672  0.16637  1.0000
  H   H28       1.0  0.00719  0.35020  0.19212  1.0000
  H   H29       1.0  0.04276  0.39789  0.21685  1.0000
  H   H30       1.0  0.18698  0.31807  0.15713  1.0000
  C   C20       1.0  0.04096  0.45710  0.24841  1.0000
  Fe  Fe6       1.0  0.11413  0.29230  0.00715  1.0000
  C   C21       1.0  0.15031  0.45211  0.45676  1.0000
  H   H31       1.0  0.16579  0.46173  0.45074  1.0000
  H   H32       1.0  0.31114  0.02050  0.14640  1.0000
  C   C22       1.0  0.06607  0.46315  0.24769  1.0000
  H   H33       1.0  0.04056  0.37423  0.41309  1.0000
  C   C23       1.0  0.15079  0.43177  0.42972  1.0000
  C   C24       1.0  0.22566  0.33645  0.16532  1.0000
  C   C25       1.0  0.32220  0.12181  0.14242  1.0000
  H   H34       1.0  0.18388  0.18548  0.05672  1.0000
  S   S10       1.0  0.10316  0.25742  0.02354  1.0000
  C   C26       1.0  0.14684  0.44033  0.39038  1.0000
  H   H35       1.0  0.08266  0.35587  0.46998  1.0000
  C   C27       1.0  0.16862  0.17603  0.06425  1.0000
  H   H36       1.0  0.13551  0.46397  0.44880  1.0000
  H   H37       1.0  0.00997  0.34700  0.24034  1.0000
  C   C28       1.0  0.17882  0.09963  0.05947  1.0000
  H   H38       1.0  0.06865  0.43822  0.49032  1.0000
  H   H39       1.0  0.07548  0.45565  0.27192  1.0000
  H   H40       1.0  0.15229  0.06150  0.05489  1.0000
  H   H41       1.0  0.01624  0.38436  0.48222  1.0000
  C   C29       1.0  0.02807  0.36880  0.48664  1.0000
  H   H42       1.0  0.15891  0.06648  0.10254  1.0000
  H   H43       1.0  0.16783  0.42202  0.43032  1.0000
  H   H44       1.0  0.13743  0.41982  0.43671  1.0000
  H   H45       1.0  0.31767  0.03615  0.49295  1.0000
  H   H46       1.0  0.17761  0.34088  0.28606  1.0000
  H   H47       1.0  0.27715  0.03490  0.11240  1.0000
  H   H48       1.0  0.09310  0.29145  0.24117  1.0000
  S   S11       1.0  0.32810  0.08095  0.05237  1.0000
  H   H49       1.0  0.16480  0.30486  0.09454  1.0000
  H   H50       1.0  0.15545  0.32478  0.26580  1.0000
  C   C30       1.0  0.02859  0.46631  0.28349  1.0000
  H   H51       1.0  0.10122  0.46272  0.49409  1.0000
  H   H52       1.0  0.17238  0.10550  0.08672  1.0000
  H   H53       1.0  0.12927  0.44874  0.38717  1.0000
  H   H54       1.0  0.15972  0.45266  0.38252  1.0000
  H   H55       1.0  0.14864  0.42561  0.37134  1.0000
  C   C31       1.0  0.07869  0.28230  0.25283  1.0000
  H   H56       1.0  0.18226  0.31274  0.21541  1.0000
  H   H57       1.0  0.20864  0.11658  0.10259  1.0000
  C   C32       1.0  0.25057  0.34224  0.17109  1.0000
  H   H58       1.0  0.30052  0.02903  0.08093  1.0000
  C   C33       1.0  0.14744  0.49180  0.31414  1.0000
  C   C34       1.0  0.17431  0.32600  0.26852  1.0000
  C   C35       1.0  0.18008  0.31433  0.08725  1.0000
  H   H59       1.0  0.31476  0.13868  0.14944  1.0000
  C   C36       1.0  0.18545  0.32844  0.23088  1.0000
  C   C37       1.0  0.16604  0.06011  0.07601  1.0000
  C   C38       1.0  0.10009  0.36095  0.46837  1.0000
  H   H60       1.0  0.15880  0.33041  0.15436  1.0000
  H   H61       1.0  0.30986  0.12376  0.08642  1.0000
  N   N2        1.0  0.18341  0.35415  0.17194  1.0000
  N   N3        1.0  0.02643  0.31893  0.20950  1.0000
  C   C39       1.0  0.04842  0.31256  0.23019  1.0000
  N   N4        1.0  0.14960  0.44588  0.49699  1.0000
  C   C40       1.0  0.02874  0.38600  0.21551  1.0000
  C   C41       1.0  0.02848  0.31264  0.16955  1.0000
  C   C42       1.0  0.04709  0.32420  0.14703  1.0000
  C   C43       1.0  0.25393  0.12853  0.09658  1.0000
  H   H62       1.0  0.16353  0.10142  0.04113  1.0000
  C   C44       1.0  0.03888  0.36113  0.21592  1.0000
  C   C45       1.0  0.20766  0.10580  0.01066  1.0000
  C   C46       1.0  0.05056  0.31297  0.10958  1.0000
  H   H63       1.0  0.18038  0.36486  0.22854  1.0000
  H   H64       1.0  0.08386  0.26364  0.25321  1.0000
  H   H65       1.0  0.04631  0.31767  0.25936  1.0000
  H   H66       1.0  0.06284  0.32231  0.22003  1.0000
  H   H67       1.0  0.26322  0.11154  0.09204  1.0000
  H   H68       1.0  0.18793  0.15074  0.09671  1.0000
  H   H69       1.0  0.03268  0.48455  0.28688  1.0000
  H   H70       1.0  0.10580  0.44132  0.45936  1.0000
  C   C47       1.0  0.00774  0.30528  0.22607  1.0000
  C   C48       1.0  0.23407  0.13252  0.06942  1.0000
  H   H71       1.0  0.06396  0.32296  0.16097  1.0000
  H   H72       1.0  0.04160  0.34253  0.14202  1.0000
  H   H73       1.0  0.25315  0.34807  0.19958  1.0000
  H   H74       1.0  0.17187  0.04170  0.07944  1.0000
  H   H75       1.0  0.03872  0.33924  0.45215  1.0000
  H   H76       1.0  0.17558  0.37948  0.12908  1.0000
  H   H77       1.0  0.04876  0.35844  0.24180  1.0000
  H   H78       1.0  0.05126  0.35901  0.19310  1.0000
  C   C49       1.0  0.01947  0.34420  0.21409  1.0000
  H   H79       1.0  0.06730  0.48206  0.24740  1.0000
  H   H80       1.0  0.00869  0.30549  0.25659  1.0000
  C   C50       1.0  0.13601  0.36798  0.49778  1.0000
  H   H81       1.0  0.03419  0.31358  0.09396  1.0000
  H   H82       1.0  0.06330  0.32221  0.09348  1.0000
  H   H83       1.0  0.26633  0.14198  0.09258  1.0000
  H   H84       1.0  0.07556  0.28798  0.28146  1.0000
  H   H85       1.0  0.16268  0.43428  0.17632  1.0000
  C   C51       1.0  0.01706  0.34264  0.31548  1.0000
  H   H86       1.0  0.21871  0.08977  0.01553  1.0000
  H   H87       1.0  0.15654  0.35059  0.21184  1.0000
  C   C52       1.0  0.17566  0.35048  0.21092  1.0000
  H   H88       1.0  0.06133  0.28132  0.20125  1.0000
  C   C53       1.0  0.05703  0.28681  0.22958  1.0000
  H   H89       1.0  0.01881  0.38982  0.18998  1.0000
  H   H90       1.0  0.19591  0.30362  0.09456  1.0000
  H   H91       1.0  0.24753  0.12942  0.12521  1.0000
  H   H92       1.0  0.01203  0.31702  0.15501  1.0000
  H   H93       1.0  0.19953  0.14961  0.02743  1.0000
  H   H94       1.0  0.25522  0.35590  0.15159  1.0000
  H   H95       1.0  0.17001  0.42126  0.13294  1.0000
  C   C54       1.0  0.16117  0.41870  0.15947  1.0000
  H   H96       1.0  0.27780  0.00940  0.08496  1.0000
  H   H97       1.0  0.22433  0.32978  0.13711  1.0000
  C   C55       1.0  0.17942  0.33733  0.10702  1.0000
  H   H98       1.0  0.22211  0.32232  0.18442  1.0000
  H   H99       1.0  0.28930  0.00023  0.14896  1.0000
  H   H100      1.0  0.03782  0.45676  0.30633  1.0000
  H   H101      1.0  0.04398  0.27576  0.24095  1.0000
  H   H102      1.0  0.16270  0.39661  0.20630  1.0000
  H   H103      1.0  0.19521  0.34597  0.09986  1.0000
  C   C56       1.0  0.30200  0.00779  0.13062  1.0000
  H   H104      1.0  0.22623  0.15014  0.07377  1.0000
  H   H105      1.0  0.02183  0.35395  0.39459  1.0000
  H   H106      1.0  0.01736  0.38922  0.23958  1.0000
  C   C57       1.0  0.21601  0.11439  0.07462  1.0000
  H   H107      1.0  0.15617  0.17724  0.04114  1.0000
  H   H108      1.0  0.24150  0.13183  0.04157  1.0000
  H   H109      1.0  0.22574  0.09729  0.07536  1.0000
  H   H110      1.0  0.16013  0.14262  0.08223  1.0000
  H   H111      1.0  0.00563  0.44421  0.33658  1.0000
  C   C58       1.0  0.02442  0.35278  0.45375  1.0000
  C   C59       1.0  0.28861  0.02101  0.10026  1.0000
  C   C60       1.0  0.02410  0.36602  0.41741  1.0000
  S   S12       1.0  0.03554  0.26796  0.00334  1.0000
  H   H112      1.0  0.07463  0.45602  0.22270  1.0000
  C   C61       1.0  0.10505  0.44419  0.48932  1.0000
  H   H113      1.0  0.17272  0.13851  0.01871  1.0000
  C   C62       1.0  0.18664  0.13857  0.03949  1.0000
  C   C63       1.0  0.18632  0.07373  0.06423  1.0000
  H   H114      1.0  0.19980  0.07119  0.08561  1.0000
  H   H115      1.0  0.16029  0.18443  0.08846  1.0000
  S   S13       1.0  0.26711  0.09342  0.00315  1.0000
  H   H116      1.0  0.19319  0.06612  0.03844  1.0000
  H   H117      1.0  0.00591  0.42759  0.27695  1.0000
  H   H118      1.0  0.16762  0.41262  0.48926  1.0000
  H   H119      1.0  0.11999  0.49443  0.21752  1.0000
  H   H120      1.0  0.01252  0.45819  0.39960  1.0000
  C   C64       1.0  0.11321  0.36207  0.50057  1.0000
  N   N5        1.0  0.00284  0.46409  0.28634  1.0000
  H   H121      1.0  0.12858  0.49021  0.48672  1.0000
  H   H122      1.0  0.02194  0.48431  0.34881  1.0000
  C   C65       1.0  0.32929  0.09177  0.09731  1.0000
  H   H123      1.0  0.00435  0.48774  0.41041  1.0000
  H   H124      1.0  0.00803  0.34180  0.04696  1.0000
  C   C66       1.0  0.00379  0.48016  0.35239  1.0000
  H   H125      1.0  0.00895  0.49520  0.22436  1.0000
  H   H126      1.0  0.08738  0.41278  0.49805  1.0000
  C   C67       1.0  0.00058  0.47322  0.39243  1.0000
  C   C68       1.0  0.99978  0.38808  0.32432  1.0000
  H   H127      1.0  0.00063  0.44393  0.23682  1.0000
  H   H128      1.0  0.00959  0.37936  0.41648  1.0000
  H   H129      1.0  0.00794  0.34441  0.45627  1.0000
  C   C69       1.0  0.12736  0.49366  0.24472  1.0000
  Fe  Fe7       1.0  0.12346  0.24437  0.97377  1.0000
  S   S14       1.0  0.13634  0.27899  0.95943  1.0000
  S   S15       1.0  0.14387  0.20925  0.96543  1.0000
  H   H130      1.0  0.07260  0.35047  0.75982  1.0000
  S   S16       1.0  0.08378  0.30055  0.97026  1.0000
  C   C70       1.0  0.16966  0.42867  0.50466  1.0000
  Fe  Fe8       1.0  0.10452  0.28441  0.92423  1.0000
  S   S17       1.0  0.09809  0.29440  0.86367  1.0000
  S   S18       1.0  0.09218  0.24948  0.93699  1.0000
  Fe  Fe9       1.0  0.30864  0.10217  0.92048  1.0000
  S   S19       1.0  0.27012  0.10229  0.91337  1.0000
  H   H131      1.0  0.20529  0.25752  0.84101  1.0000
  C   C71       1.0  0.02105  0.40035  0.54782  1.0000
  C   C72       1.0  0.11880  0.48678  0.70286  1.0000
  Fe  Fe10      1.0  0.27262  0.07194  0.95275  1.0000
  S   S20       1.0  0.25488  0.03890  0.94400  1.0000
  S   S21       1.0  0.24545  0.15835  0.97404  1.0000
  C   C73       1.0  0.01517  0.31158  0.75930  1.0000
  Fe  Fe11      1.0  0.12520  0.36575  0.68100  1.0000
  S   S22       1.0  0.10955  0.40144  0.69167  1.0000
  S   S23       1.0  0.14343  0.34769  0.73028  1.0000
  Fe  Fe12      1.0  0.10963  0.36785  0.59942  1.0000
  S   S24       1.0  0.09263  0.40296  0.60620  1.0000
  S   S25       1.0  0.10099  0.35409  0.54310  1.0000
  Fe  Fe13      1.0  0.12403  0.41095  0.63720  1.0000
  S   S26       1.0  0.13779  0.44441  0.61894  1.0000
  Fe  Fe14      1.0  0.07979  0.39017  0.65947  1.0000
  S   S27       1.0  0.04399  0.40195  0.67654  1.0000
  S   S28       1.0  0.14234  0.37631  0.62781  1.0000
  S   S29       1.0  0.09430  0.35399  0.65152  1.0000
  C   C74       1.0  0.02478  0.38028  0.67411  1.0000
  H   H132      1.0  0.01196  0.36607  0.75587  1.0000
  C   C75       1.0  0.03138  0.35910  0.65852  1.0000
  C   C76       1.0  0.01965  0.48984  0.67161  1.0000
  H   H133      1.0  0.04816  0.35617  0.64669  1.0000
  C   C77       1.0  0.13034  0.46882  0.64544  1.0000
  C   C78       1.0  0.22207  0.17884  0.85937  1.0000
  H   H134      1.0  0.16004  0.21336  0.84125  1.0000
  H   H135      1.0  0.20815  0.40591  0.53768  1.0000
  N   N6        1.0  0.02440  0.35858  0.52426  1.0000
  C   C79       1.0  0.12337  0.46691  0.68192  1.0000
  H   H136      1.0  0.02870  0.36958  0.58042  1.0000
  H   H137      1.0  0.04921  0.30454  0.83041  1.0000
  H   H138      1.0  0.05106  0.37648  0.55084  1.0000
  H   H139      1.0  0.12232  0.45015  0.69438  1.0000
  H   H140      1.0  0.07153  0.45720  0.67256  1.0000
  C   C80       1.0  0.32089  0.10222  0.80907  1.0000
  H   H141      1.0  0.19366  0.39604  0.57794  1.0000
  C   C81       1.0  0.11203  0.30850  0.82711  1.0000
  C   C82       1.0  0.13170  0.32061  0.83205  1.0000
  C   C83       1.0  0.14114  0.33242  0.80218  1.0000
  C   C84       1.0  0.13081  0.33272  0.76725  1.0000
  C   C85       1.0  0.11140  0.32024  0.76228  1.0000
  C   C86       1.0  0.10231  0.30804  0.79188  1.0000
  H   H142      1.0  0.13949  0.32110  0.85887  1.0000
  H   H143      1.0  0.15635  0.34172  0.80627  1.0000
  H   H144      1.0  0.10363  0.31971  0.73543  1.0000
  H   H145      1.0  0.08762  0.29810  0.78748  1.0000
  H   H146      1.0  0.21604  0.24582  0.92511  1.0000
  H   H147      1.0  0.31865  0.01057  0.54749  1.0000
  H   H148      1.0  0.05489  0.29142  0.54321  1.0000
  C   C87       1.0  0.17256  0.19601  0.96681  1.0000
  H   H149      1.0  0.08087  0.47661  0.57525  1.0000
  H   H150      1.0  0.02487  0.44637  0.70191  1.0000
  H   H151      1.0  0.03781  0.33781  0.74774  1.0000
  H   H152      1.0  0.06152  0.46110  0.75648  1.0000
  H   H153      1.0  0.29692  0.99948  0.84606  1.0000
  H   H154      1.0  0.13484  0.25252  0.88436  1.0000
  H   H155      1.0  0.31288  0.05877  0.86676  1.0000
  H   H156      1.0  0.18809  0.22317  0.99501  1.0000
  H   H157      1.0  0.04663  0.45068  0.64864  1.0000
  H   H158      1.0  0.05932  0.29520  0.59160  1.0000
  C   C88       1.0  0.19000  0.25856  0.76936  1.0000
  H   H159      1.0  0.18594  0.38579  0.53359  1.0000
  H   H160      1.0  0.14071  0.25417  0.83598  1.0000
  H   H161      1.0  0.05190  0.31361  0.76899  1.0000
  C   C89       1.0  0.26444  0.01343  0.96796  1.0000
  H   H162      1.0  0.05567  0.33175  0.88070  1.0000
  C   C90       1.0  0.05557  0.46533  0.65995  1.0000
  H   H163      1.0  0.06105  0.45494  0.58523  1.0000
  C   C91       1.0  0.00823  0.37146  0.78427  1.0000
  N   N7        1.0  0.18242  0.23572  0.86957  1.0000
  H   H164      1.0  0.32343  0.01346  0.66284  1.0000
  H   H165      1.0  0.02115  0.26524  0.84975  1.0000
  H   H166      1.0  0.02535  0.33912  0.88464  1.0000
  C   C92       1.0  0.00557  0.47516  0.64573  1.0000
  S   S30       1.0  0.30604  0.12570  0.96934  1.0000
  H   H167      1.0  0.05147  0.36349  0.83525  1.0000
  C   C93       1.0  0.11688  0.22947  0.85151  1.0000
  C   C94       1.0  0.03325  0.46038  0.71603  1.0000
  C   C95       1.0  0.03201  0.37547  0.55209  1.0000
  C   C96       1.0  0.28265  0.01302  0.99297  1.0000
  C   C97       1.0  0.20147  0.21713  0.87595  1.0000
  H   H168      1.0  0.20282  0.22761  0.79628  1.0000
  H   H169      1.0  0.02612  0.22687  0.96003  1.0000
  C   C98       1.0  0.04096  0.32427  0.56476  1.0000
  C   C99       1.0  0.05899  0.30399  0.56448  1.0000
  H   H170      1.0  0.09167  0.38637  0.76706  1.0000
  H   H171      1.0  0.06998  0.33923  0.82387  1.0000
  H   H172      1.0  0.03393  0.28165  0.73588  1.0000
  H   H173      1.0  0.01883  0.29857  0.90138  1.0000
  C   C100      1.0  0.01050  0.25307  0.99482  1.0000
  C   C101      1.0  0.12773  0.43519  0.50828  1.0000
  C   C102      1.0  0.01235  0.35127  0.81165  1.0000
  H   H174      1.0  0.02424  0.31720  0.57119  1.0000
  H   H175      1.0  0.02644  0.23481  0.84326  1.0000
  H   H176      1.0  0.02376  0.24602  0.88899  1.0000
  H   H177      1.0  0.04588  0.33577  0.58691  1.0000
  H   H178      1.0  0.02859  0.30533  0.70422  1.0000
  H   H179      1.0  0.20608  0.26749  0.77290  1.0000
  C   C103      1.0  0.19139  0.40096  0.54863  1.0000
  H   H180      1.0  0.21352  0.07535  0.95205  1.0000
  H   H181      1.0  0.19578  0.19633  0.82646  1.0000
  H   H182      1.0  0.22670  0.17580  0.88861  1.0000
  H   H183      1.0  0.29874  0.04153  0.83420  1.0000
  H   H184      1.0  0.01888  0.30887  0.83587  1.0000
  H   H185      1.0  0.32273  0.02509  0.90569  1.0000
  H   H186      1.0  0.30823  0.10214  0.75343  1.0000
  C   C104      1.0  0.15340  0.46708  0.51903  1.0000
  H   H187      1.0  0.01129  0.35916  0.83917  1.0000
  C   C105      1.0  0.21734  0.17268  0.96943  1.0000
  H   H188      1.0  0.09890  0.36677  0.80423  1.0000
  C   C106      1.0  0.32338  0.10120  0.77060  1.0000
  H   H189      1.0  0.04939  0.29117  0.89733  1.0000
  H   H190      1.0  0.04201  0.41454  0.59036  1.0000
  C   C107      1.0  0.18786  0.24024  0.79917  1.0000
  C   C108      1.0  0.19897  0.27492  0.95095  1.0000
  C   C109      1.0  0.18793  0.25105  0.83766  1.0000
  C   C110      1.0  0.02361  0.41418  0.58271  1.0000
  H   H191      1.0  0.21101  0.27068  0.89593  1.0000
  C   C111      1.0  0.20357  0.09182  0.94565  1.0000
  H   H192      1.0  0.12509  0.43691  0.53839  1.0000
  H   H193      1.0  0.05630  0.42367  0.78484  1.0000
  H   H194      1.0  0.22704  0.20289  0.99743  1.0000
  H   H195      1.0  0.15624  0.21419  0.88903  1.0000
  S   S31       1.0  0.31084  0.07054  0.95609  1.0000
  C   C112      1.0  0.32008  0.05006  0.66631  1.0000
  C   C113      1.0  0.17320  0.42100  0.54526  1.0000
  H   H196      1.0  0.16288  0.16580  0.93878  1.0000
  C   C114      1.0  0.19970  0.19398  0.85591  1.0000
  H   H197      1.0  0.17178  0.23179  0.79367  1.0000
  H   H198      1.0  0.11355  0.21746  0.87441  1.0000
  C   C115      1.0  0.01036  0.23357  0.97280  1.0000
  H   H199      1.0  0.10176  0.24200  0.84864  1.0000
  H   H200      1.0  0.15364  0.46306  0.54884  1.0000
  H   H201      1.0  0.17078  0.47302  0.51273  1.0000
  H   H202      1.0  0.17325  0.24079  0.92654  1.0000
  C   C116      1.0  0.08470  0.37772  0.79145  1.0000
  H   H203      1.0  0.07636  0.31003  0.55911  1.0000
  H   H204      1.0  0.21551  0.28095  0.96087  1.0000
  C   C117      1.0  0.19098  0.20640  0.98291  1.0000
  C   C118      1.0  0.01725  0.24807  0.86045  1.0000
  Fe  Fe15      1.0  0.07323  0.26534  0.98498  1.0000
  C   C119      1.0  0.18054  0.25050  0.90336  1.0000
  H   H205      1.0  0.19118  0.08873  0.92343  1.0000
  C   C120      1.0  0.19904  0.16256  0.95252  1.0000
  H   H206      1.0  0.00036  0.45945  0.65985  1.0000
  H   H207      1.0  0.03377  0.41824  0.75298  1.0000
  H   H208      1.0  0.16834  0.26573  0.89859  1.0000
  H   H209      1.0  0.00918  0.30066  0.78171  1.0000
  H   H210      1.0  0.29013  0.00229  0.89299  1.0000
  C   C121      1.0  0.13834  0.24227  0.85933  1.0000
  H   H211      1.0  0.20197  0.14585  0.94028  1.0000
  H   H212      1.0  0.02115  0.32539  0.64514  1.0000
  Fe  Fe16      1.0  0.26730  0.12406  0.96448  1.0000
  C   C122      1.0  0.07419  0.46559  0.59717  1.0000
  H   H213      1.0  0.01572  0.46996  0.62113  1.0000
  C   C123      1.0  0.03613  0.30525  0.90317  1.0000
  H   H214      1.0  0.31362  0.03034  0.60007  1.0000
  H   H215      1.0  0.00549  0.28800  0.71730  1.0000
  H   H216      1.0  0.07845  0.39099  0.81131  1.0000
  H   H217      1.0  0.01419  0.40645  0.60568  1.0000
  H   H218      1.0  0.13719  0.49213  0.60157  1.0000
  C   C124      1.0  0.02123  0.29570  0.72722  1.0000
  C   C125      1.0  0.03834  0.32539  0.87657  1.0000
  H   H219      1.0  0.15708  0.41524  0.55732  1.0000
  C   C126      1.0  0.15967  0.22519  0.86479  1.0000
  H   H220      1.0  0.08292  0.43375  0.53389  1.0000
  H   H221      1.0  0.06531  0.43843  0.72361  1.0000
  H   H222      1.0  0.20233  0.21214  0.90550  1.0000
  H   H223      1.0  0.21850  0.22375  0.86944  1.0000
  C   C127      1.0  0.03599  0.32524  0.77037  1.0000
  C   C128      1.0  0.03975  0.33670  0.52711  1.0000
  H   H224      1.0  0.17504  0.27142  0.77014  1.0000
  H   H225      1.0  0.05764  0.34020  0.51917  1.0000
  C   C129      1.0  0.17686  0.17404  0.95154  1.0000
  C   C130      1.0  0.06522  0.36311  0.77983  1.0000
  C   C131      1.0  0.06373  0.48045  0.62789  1.0000
  C   C132      1.0  0.21311  0.19478  0.98428  1.0000
  C   C133      1.0  0.31806  0.02205  0.87676  1.0000
  C   C134      1.0  0.01600  0.34172  0.65743  1.0000
  H   H226      1.0  0.17599  0.26679  0.83716  1.0000
  H   H227      1.0  0.01642  0.43209  0.57836  1.0000
  C   C135      1.0  0.13541  0.48781  0.51477  1.0000
  H   H228      1.0  0.21996  0.16195  0.84649  1.0000
  H   H229      1.0  0.17921  0.43520  0.56198  1.0000
  H   H230      1.0  0.21560  0.10443  0.93556  1.0000
  H   H231      1.0  0.18729  0.29020  0.94413  1.0000
  H   H232      1.0  0.03862  0.31104  0.93168  1.0000
  C   C136      1.0  0.05244  0.44848  0.74042  1.0000
  H   H233      1.0  0.02965  0.44116  0.78589  1.0000
  C   C137      1.0  0.20326  0.25995  0.91720  1.0000
  N   N8        1.0  0.03454  0.33670  0.80732  1.0000
  H   H234      1.0  0.28720  0.04533  0.87999  1.0000
  C   C138      1.0  0.03505  0.31786  0.83623  1.0000
  H   H235      1.0  0.11893  0.21970  0.82564  1.0000
  N   N9        1.0  0.04086  0.47774  0.68847  1.0000
  C   C139      1.0  0.05522  0.35058  0.81341  1.0000
  H   H236      1.0  0.19044  0.25039  0.74200  1.0000
  H   H237      1.0  0.05216  0.37438  0.76525  1.0000
  H   H238      1.0  0.30395  0.10399  0.82123  1.0000
  H   H239      1.0  0.01969  0.46825  0.73434  1.0000
  H   H240      1.0  0.08868  0.45418  0.60781  1.0000
  H   H241      1.0  0.03877  0.49615  0.76127  1.0000
  C   C140      1.0  0.04232  0.43189  0.76768  1.0000
  H   H242      1.0  0.03425  0.32372  0.50745  1.0000
  H   H243      1.0  0.11414  0.48523  0.73140  1.0000
  H   H244      1.0  0.14645  0.36843  0.52220  1.0000
  H   H245      1.0  0.01927  0.38547  0.79158  1.0000
  H   H246      1.0  0.19124  0.26499  0.97336  1.0000
  H   H247      1.0  0.18579  0.18440  0.86849  1.0000
  H   H248      1.0  0.23636  0.18704  0.84534  1.0000
  H   H249      1.0  0.18014  0.11662  0.97131  1.0000
  H   H250      1.0  0.30160  0.05122  0.65868  1.0000
  C   C141      1.0  0.30323  0.04313  0.86357  1.0000
  H   H251      1.0  0.32144  0.05012  0.69666  1.0000
  H   H252      1.0  0.12072  0.48528  0.53345  1.0000
  C   C142      1.0  0.19060  0.10086  0.97954  1.0000
  C   C143      1.0  0.30488  0.99987  0.87373  1.0000
  H   H253      1.0  0.99981  0.34480  0.58731  1.0000
  C   C144      1.0  0.13193  0.49063  0.62971  1.0000
  H   H254      1.0  0.04951  0.49160  0.61585  1.0000
  H   H255      1.0  0.07176  0.48742  0.71540  1.0000
  H   H256      1.0  0.07715  0.49158  0.63766  1.0000
  H   H257      1.0  0.29129  0.02851  0.99799  1.0000
  H   H258      1.0  0.02979  0.40932  0.52532  1.0000
  H   H259      1.0  0.32818  0.06544  0.65552  1.0000
  H   H260      1.0  0.12929  0.41634  0.50330  1.0000
  C   C145      1.0  0.00256  0.38425  0.68799  1.0000
  H   H261      1.0  0.00250  0.40046  0.54103  1.0000
  H   H262      1.0  0.00059  0.32374  0.75080  1.0000
  C   C146      1.0  0.05483  0.49536  0.70632  1.0000
  H   H263      1.0  0.17876  0.08769  0.98789  1.0000
  C   C147      1.0  0.99932  0.35363  0.52813  1.0000
  H   H264      1.0  0.00761  0.49633  0.69344  1.0000
  C   C148      1.0  0.08478  0.43145  0.50388  1.0000
  H   H265      1.0  0.21936  0.11833  0.99918  1.0000
  H   H266      1.0  0.03024  0.58856  0.48108  1.0000
  S   S32       1.0  0.28657  0.88028  0.05151  1.0000
  C   C149      1.0  0.27825  0.97234  0.00639  1.0000
  H   H267      1.0  0.26171  0.61635  0.40352  1.0000
  S   S33       1.0  0.14747  0.65399  0.05738  1.0000
  S   S34       1.0  0.13546  0.72071  0.02633  1.0000
  Fe  Fe17      1.0  0.13218  0.62047  0.26801  1.0000
  S   S35       1.0  0.12042  0.58686  0.24818  1.0000
  S   S36       1.0  0.14502  0.64964  0.23253  1.0000
  Fe  Fe18      1.0  0.11338  0.61240  0.34723  1.0000
  S   S37       1.0  0.09897  0.57926  0.33183  1.0000
  S   S38       1.0  0.10722  0.62833  0.40362  1.0000
  Fe  Fe19      1.0  0.13263  0.57217  0.30271  1.0000
  S   S39       1.0  0.15155  0.53831  0.31785  1.0000
  Fe  Fe20      1.0  0.08810  0.59688  0.27912  1.0000
  S   S40       1.0  0.05451  0.59887  0.24900  1.0000
  S   S41       1.0  0.14769  0.60495  0.32023  1.0000
  S   S42       1.0  0.09922  0.63084  0.29698  1.0000
  C   C150      1.0  0.03369  0.58168  0.26657  1.0000
  H   H268      1.0  0.00747  0.64802  0.03796  1.0000
  C   C151      1.0  0.03847  0.56673  0.29614  1.0000
  H   H269      1.0  0.18510  0.64101  0.46872  1.0000
  H   H270      1.0  0.05563  0.56465  0.30726  1.0000
  C   C152      1.0  0.11506  0.61441  0.44559  1.0000
  H   H271      1.0  0.16952  0.71724  0.08859  1.0000
  C   C153      1.0  0.18181  0.73099  0.08679  1.0000
  H   H272      1.0  0.18857  0.69637  0.21838  1.0000
  C   C154      1.0  0.21556  0.61839  0.42388  1.0000
  H   H273      1.0  0.17895  0.54224  0.41333  1.0000
  H   H274      1.0  0.12702  0.58222  0.42173  1.0000
  C   C155      1.0  0.14642  0.65350  0.10607  1.0000
  C   C156      1.0  0.14394  0.67352  0.12691  1.0000
  C   C157      1.0  0.14346  0.67205  0.16555  1.0000
  C   C158      1.0  0.14501  0.65062  0.18378  1.0000
  C   C159      1.0  0.14727  0.63066  0.16289  1.0000
  C   C160      1.0  0.14824  0.63213  0.12434  1.0000
  H   H275      1.0  0.14252  0.69007  0.11330  1.0000
  H   H276      1.0  0.14179  0.68761  0.18146  1.0000
  H   H277      1.0  0.14872  0.61406  0.17644  1.0000
  H   H278      1.0  0.15035  0.61654  0.10855  1.0000
  H   H279      1.0  0.00312  0.66433  0.19474  1.0000
  H   H280      1.0  0.02447  0.54320  0.33469  1.0000
  C   C161      1.0  0.19111  0.57480  0.39441  1.0000
  C   C162      1.0  0.20581  0.68890  0.04894  1.0000
  H   H281      1.0  0.20997  0.54350  0.41406  1.0000
  C   C163      1.0  0.02087  0.55457  0.31154  1.0000
  H   H282      1.0  0.32608  0.87872  0.19797  1.0000
  H   H283      1.0  0.22220  0.69493  0.13190  1.0000
  H   H284      1.0  0.05104  0.57429  0.41718  1.0000
  H   H285      1.0  0.32024  0.87141  0.13183  1.0000
  H   H286      1.0  0.13919  0.56422  0.48128  1.0000
  H   H287      1.0  0.18720  0.69284  0.04376  1.0000
  H   H288      1.0  0.13945  0.77253  0.11571  1.0000
  H   H289      1.0  0.30700  0.95101  0.14676  1.0000
  C   C164      1.0  0.21726  0.68111  0.01307  1.0000
  H   H290      1.0  0.17528  0.71423  0.16110  1.0000
  H   H291      1.0  0.13597  0.74280  0.10561  1.0000
  H   H292      1.0  0.01375  0.54116  0.41767  1.0000
  H   H293      1.0  0.16186  0.65605  0.42409  1.0000
  H   H294      1.0  0.22224  0.78809  0.11412  1.0000
  C   C165      1.0  0.03786  0.62577  0.04547  1.0000
  H   H295      1.0  0.10460  0.64405  0.47784  1.0000
  Fe  Fe21      1.0  0.32269  0.87001  0.03374  1.0000
  H   H296      1.0  0.30360  0.91956  0.19390  1.0000
  H   H297      1.0  0.19101  0.67524  0.18283  1.0000
  H   H298      1.0  0.18135  0.73654  0.05750  1.0000
  H   H299      1.0  0.04287  0.63416  0.07111  1.0000
  C   C166      1.0  0.22087  0.73972  0.11002  1.0000
  Fe  Fe22      1.0  0.28958  0.91093  0.01393  1.0000
  C   C167      1.0  0.19779  0.69140  0.19274  1.0000
  Fe  Fe23      1.0  0.14100  0.68302  0.01530  1.0000
  H   H300      1.0  0.14401  0.65195  0.36292  1.0000
  H   H301      1.0  0.20927  0.66561  0.00302  1.0000
  H   H302      1.0  0.15933  0.67759  0.36597  1.0000
  H   H303      1.0  0.20183  0.72594  0.17518  1.0000
  H   H304      1.0  0.04337  0.60719  0.04688  1.0000
  H   H305      1.0  0.21750  0.72263  0.04114  1.0000
  H   H306      1.0  0.25127  0.77475  0.11377  1.0000
  H   H307      1.0  0.23750  0.73169  0.12054  1.0000
  H   H308      1.0  0.24031  0.79115  0.07468  1.0000
  C   C168      1.0  0.03252  0.63956  0.42102  1.0000
  H   H309      1.0  0.16394  0.62047  0.47066  1.0000
  H   H310      1.0  0.17290  0.74939  0.13852  1.0000
  H   H311      1.0  0.01105  0.58334  0.42385  1.0000
  H   H312      1.0  0.23541  0.70474  0.07048  1.0000
  C   C169      1.0  0.21710  0.71014  0.06432  1.0000
  C   C170      1.0  0.23571  0.77916  0.09693  1.0000
  N   N10       1.0  0.20566  0.72141  0.09738  1.0000
  C   C171      1.0  0.19398  0.54871  0.39875  1.0000
  C   C172      1.0  0.11194  0.62652  0.47852  1.0000
  H   H313      1.0  0.30657  0.97182  0.18157  1.0000
  H   H314      1.0  0.05042  0.63899  0.41034  1.0000
  H   H315      1.0  0.00039  0.64839  0.15291  1.0000
  H   H316      1.0  0.18081  0.76756  0.10173  1.0000
  N   N11       1.0  0.07138  0.66075  0.16020  1.0000
  C   C173      1.0  0.07906  0.66317  0.19941  1.0000
  C   C174      1.0  0.08320  0.63947  0.14342  1.0000
  C   C175      1.0  0.07889  0.68139  0.13911  1.0000
  C   C176      1.0  0.04556  0.66068  0.15692  1.0000
  C   C177      1.0  0.03361  0.64258  0.18016  1.0000
  C   C178      1.0  0.06946  0.68515  0.21931  1.0000
  C   C179      1.0  0.07692  0.68044  0.09670  1.0000
  C   C180      1.0  0.08745  0.61803  0.16845  1.0000
  C   C181      1.0  0.09562  0.59687  0.14647  1.0000
  C   C182      1.0  0.18848  0.58681  0.43207  1.0000
  C   C183      1.0  0.07642  0.68463  0.25963  1.0000
  C   C184      1.0  0.08481  0.70242  0.07916  1.0000
  H   H317      1.0  0.09817  0.66296  0.20053  1.0000
  H   H318      1.0  0.07484  0.64824  0.21657  1.0000
  H   H319      1.0  0.07370  0.63436  0.11872  1.0000
  H   H320      1.0  0.10067  0.64317  0.13359  1.0000
  H   H321      1.0  0.09715  0.68422  0.14556  1.0000
  H   H322      1.0  0.06879  0.69731  0.14761  1.0000
  H   H323      1.0  0.03735  0.67792  0.16346  1.0000
  H   H324      1.0  0.04055  0.65778  0.12807  1.0000
  H   H325      1.0  0.03942  0.64210  0.20900  1.0000
  H   H326      1.0  0.32308  0.91763  0.23232  1.0000
  H   H327      1.0  0.07639  0.70065  0.20684  1.0000
  H   H328      1.0  0.05042  0.68693  0.21822  1.0000
  H   H329      1.0  0.05894  0.67856  0.08794  1.0000
  H   H330      1.0  0.08797  0.66597  0.08532  1.0000
  H   H331      1.0  0.10091  0.62105  0.18905  1.0000
  H   H332      1.0  0.07181  0.61391  0.18321  1.0000
  H   H333      1.0  0.11166  0.59995  0.13134  1.0000
  H   H334      1.0  0.09920  0.58206  0.16543  1.0000
  H   H335      1.0  0.08217  0.59239  0.12677  1.0000
  H   H336      1.0  0.18194  0.61747  0.37465  1.0000
  C   C185      1.0  0.20464  0.70315  0.12685  1.0000
  C   C186      1.0  0.22681  0.75757  0.08020  1.0000
  H   H337      1.0  0.06812  0.67064  0.27432  1.0000
  H   H338      1.0  0.09541  0.68198  0.26248  1.0000
  H   H339      1.0  0.07071  0.70117  0.27260  1.0000
  H   H340      1.0  0.08475  0.70079  0.04895  1.0000
  H   H341      1.0  0.07309  0.71746  0.08659  1.0000
  H   H342      1.0  0.10260  0.70546  0.08781  1.0000
  H   H343      1.0  0.19390  0.68920  0.11780  1.0000
  H   H344      1.0  0.30325  0.99259  0.03183  1.0000
  H   H345      1.0  0.30813  0.97722  0.09875  1.0000
  H   H346      1.0  0.25975  0.62591  0.45057  1.0000
  C   C187      1.0  0.18279  0.62226  0.46782  1.0000
  H   H347      1.0  0.20598  0.58071  0.37883  1.0000
  H   H348      1.0  0.24047  0.75000  0.06186  1.0000
  H   H349      1.0  0.14435  0.76239  0.06985  1.0000
  H   H350      1.0  0.06793  0.55107  0.43984  1.0000
  H   H351      1.0  0.03689  0.62533  0.16800  1.0000
  C   C188      1.0  0.00755  0.64772  0.18100  1.0000
  H   H352      1.0  0.19503  0.54069  0.37126  1.0000
  H   H353      1.0  0.08184  0.57377  0.41687  1.0000
  H   H354      1.0  0.21166  0.76281  0.06299  1.0000
  H   H355      1.0  0.21322  0.74925  0.13363  1.0000
  C   C189      1.0  0.19413  0.71063  0.16413  1.0000
  C   C190      1.0  0.06669  0.56978  0.43365  1.0000
  C   C191      1.0  0.01188  0.62926  0.03957  1.0000
  H   H356      1.0  0.20047  0.57773  0.45174  1.0000
  C   C192      1.0  0.14628  0.75767  0.09930  1.0000
  H   H357      1.0  0.20791  0.67408  0.06817  1.0000
  C   C193      1.0  0.12462  0.59179  0.44685  1.0000
  H   H358      1.0  0.12881  0.53047  0.24863  1.0000
  C   C194      1.0  0.17159  0.75206  0.10860  1.0000
  H   H359      1.0  0.21820  0.62101  0.39392  1.0000
  H   H360      1.0  0.21637  0.68817  0.19908  1.0000
  C   C195      1.0  0.04554  0.57911  0.49366  1.0000
  H   H361      1.0  0.00523  0.59969  0.07237  1.0000
  H   H362      1.0  0.23571  0.58530  0.41850  1.0000
  H   H363      1.0  0.04217  0.56073  0.49133  1.0000
  H   H364      1.0  0.21876  0.63525  0.43625  1.0000
  H   H365      1.0  0.02490  0.61032  0.38942  1.0000
  C   C196      1.0  0.14280  0.51319  0.29679  1.0000
  S   S43       1.0  0.28549  0.94788  0.03433  1.0000
  C   C197      1.0  0.13147  0.58161  0.48065  1.0000
  H   H366      1.0  0.03275  0.63063  0.44799  1.0000
  C   C198      1.0  0.28940  0.99261  0.01219  1.0000
  H   H367      1.0  0.00727  0.57458  0.37701  1.0000
  C   C199      1.0  0.17290  0.64963  0.40105  1.0000
  C   C200      1.0  0.25874  0.61091  0.43228  1.0000
  C   C201      1.0  0.23535  0.60075  0.43600  1.0000
  H   H368      1.0  0.04704  0.63357  0.02232  1.0000
  H   H369      1.0  0.33028  0.94841  0.07599  1.0000
  H   H370      1.0  0.23356  0.59491  0.46465  1.0000
  N   N12       1.0  0.19116  0.61235  0.43173  1.0000
  C   C202      1.0  0.13232  0.51409  0.26231  1.0000
  C   C203      1.0  0.16135  0.65854  0.36563  1.0000
  H   H371      1.0  0.17120  0.58322  0.44246  1.0000
  C   C204      1.0  0.06649  0.58365  0.46894  1.0000
  H   H372      1.0  0.27258  0.59778  0.44018  1.0000
  H   H373      1.0  0.17538  0.57875  0.37773  1.0000
  H   H374      1.0  0.06604  0.60211  0.46107  1.0000
  H   H375      1.0  0.01793  0.63725  0.36755  1.0000
  C   C205      1.0  0.17560  0.62299  0.40213  1.0000
  H   H376      1.0  0.18984  0.65711  0.40312  1.0000
  H   H377      1.0  0.02635  0.65782  0.42464  1.0000
  H   H378      1.0  0.15801  0.61676  0.40462  1.0000
  H   H379      1.0  0.17188  0.65321  0.34141  1.0000
  C   C206      1.0  0.31373  0.92969  0.21289  1.0000
  H   H380      1.0  0.23591  0.67671  0.01726  1.0000
  H   H381      1.0  0.00797  0.59519  0.22842  1.0000
  H   H382      1.0  0.08286  0.57936  0.48358  1.0000
  C   C207      1.0  0.01716  0.62785  0.39404  1.0000
  H   H383      1.0  0.99943  0.63398  0.19661  1.0000
  H   H384      1.0  0.00405  0.62542  0.09741  1.0000
  C   C208      1.0  0.01160  0.58384  0.25157  1.0000
  H   H385      1.0  0.00716  0.62852  0.29004  1.0000
  H   H386      1.0  0.00785  0.62170  0.01278  1.0000
  C   C209      1.0  0.31845  0.96060  0.16464  1.0000
  H   H387      1.0  0.30186  0.94145  0.22887  1.0000
  H   H388      1.0  0.32822  0.94831  0.33435  1.0000
  C   C210      1.0  0.31888  0.98875  0.11450  1.0000
  H   H389      1.0  0.32692  0.82628  0.19303  1.0000
  C   C211      1.0  0.99861  0.61801  0.07111  1.0000
  C   C212      1.0  0.99934  0.57551  0.40449  1.0000
  H   H390      1.0  0.99896  0.60492  0.34259  1.0000
  H   H391      1.0  0.32970  0.99680  0.09347  1.0000
  Fe  Fe24      1.0  0.27521  0.86086  0.00161  1.0000
  C   C213      1.0  0.33098  0.94319  0.19157  1.0000
  C   C214      1.0  0.99848  0.55786  0.29782  1.0000
  Fe  Fe25      1.0  0.31180  0.88139  0.95203  1.0000
  S   S44       1.0  0.27514  0.89294  0.96599  1.0000
  H   H392      1.0  0.05553  0.53718  0.53935  1.0000
  C   C215      1.0  0.31249  0.83833  0.78256  1.0000
  C   C216      1.0  0.14771  0.61416  0.90959  1.0000
  S   S45       1.0  0.19238  0.74494  0.98049  1.0000
  H   H393      1.0  0.30124  0.99590  0.61915  1.0000
  H   H394      1.0  0.06306  0.68749  0.99674  1.0000
  H   H395      1.0  0.25811  0.88450  0.88695  1.0000
  H   H396      1.0  0.30293  0.80884  0.81310  1.0000
  C   C217      1.0  0.03795  0.64994  0.80195  1.0000
  C   C218      1.0  0.01181  0.60787  0.66899  1.0000
  C   C219      1.0  0.28318  0.95530  0.89955  1.0000
  C   C220      1.0  0.12070  0.50860  0.68716  1.0000
  H   H397      1.0  0.12856  0.52726  0.63809  1.0000
  Fe  Fe26      1.0  0.13375  0.69004  0.93097  1.0000
  S   S46       1.0  0.12166  0.67155  0.87992  1.0000
  S   S47       1.0  0.12850  0.72846  0.93743  1.0000
  Fe  Fe27      1.0  0.09019  0.60981  0.66112  1.0000
  S   S48       1.0  0.12014  0.62718  0.63743  1.0000
  S   S49       1.0  0.05414  0.62527  0.66574  1.0000
  Fe  Fe28      1.0  0.11875  0.56659  0.68341  1.0000
  S   S50       1.0  0.15115  0.58023  0.66180  1.0000
  S   S51       1.0  0.11533  0.53322  0.71397  1.0000
  Fe  Fe29      1.0  0.13851  0.61352  0.68862  1.0000
  S   S52       1.0  0.16101  0.63243  0.72774  1.0000
  Fe  Fe30      1.0  0.12981  0.59246  0.61275  1.0000
  S   S53       1.0  0.13953  0.58104  0.55472  1.0000
  S   S54       1.0  0.10765  0.59878  0.71303  1.0000
  S   S55       1.0  0.09847  0.57631  0.63326  1.0000
  C   C221      1.0  0.04447  0.58056  0.67727  1.0000
  C   C222      1.0  0.03558  0.60315  0.67149  1.0000
  C   C223      1.0  0.30706  0.82668  0.81892  1.0000
  H   H398      1.0  0.06262  0.57688  0.68147  1.0000
  H   H399      1.0  0.26123  0.94010  0.85936  1.0000
  H   H400      1.0  0.01573  0.64347  0.86720  1.0000
  H   H401      1.0  0.11697  0.62603  0.53732  1.0000
  C   C224      1.0  0.16901  0.57161  0.78945  1.0000
  C   C225      1.0  0.13329  0.66214  0.83720  1.0000
  C   C226      1.0  0.11821  0.65413  0.81091  1.0000
  C   C227      1.0  0.12643  0.64546  0.77716  1.0000
  C   C228      1.0  0.14996  0.64436  0.76934  1.0000
  C   C229      1.0  0.16509  0.65251  0.79550  1.0000
  C   C230      1.0  0.15682  0.66141  0.82926  1.0000
  H   H402      1.0  0.10000  0.65467  0.81655  1.0000
  H   H403      1.0  0.11451  0.63973  0.75712  1.0000
  H   H404      1.0  0.18332  0.65185  0.78969  1.0000
  H   H405      1.0  0.16865  0.66746  0.84920  1.0000
  H   H406      1.0  0.10386  0.54153  0.57130  1.0000
  C   C231      1.0  0.31172  0.98152  0.60656  1.0000
  H   H407      1.0  0.11003  0.51461  0.85757  1.0000
  H   H408      1.0  0.17793  0.58688  0.79827  1.0000
  H   H409      1.0  0.03689  0.54509  0.68061  1.0000
  Fe  Fe31      1.0  0.15853  0.72582  0.97736  1.0000
  H   H410      1.0  0.02904  0.70653  0.86560  1.0000
  H   H411      1.0  0.23921  0.99330  0.94284  1.0000
  H   H412      1.0  0.30517  0.80196  0.87580  1.0000
  H   H413      1.0  0.05079  0.53388  0.77925  1.0000
  H   H414      1.0  0.01370  0.66250  0.90465  1.0000
  H   H415      1.0  0.01167  0.59651  0.53869  1.0000
  H   H416      1.0  0.03508  0.69463  0.90935  1.0000
  H   H417      1.0  0.06381  0.53804  0.73513  1.0000
  H   H418      1.0  0.02586  0.59008  0.58109  1.0000
  H   H419      1.0  0.13205  0.52465  0.52433  1.0000
  H   H420      1.0  0.24413  0.82677  0.85214  1.0000
  H   H421      1.0  0.05914  0.50876  0.68607  1.0000
  H   H422      1.0  0.25129  0.95730  0.97669  1.0000
  H   H423      1.0  0.03881  0.63740  0.74612  1.0000
  H   H424      1.0  0.11632  0.53570  0.79915  1.0000
  C   C232      1.0  0.04287  0.67178  0.82378  1.0000
  H   H425      1.0  0.28537  0.85851  0.90783  1.0000
  C   C233      1.0  0.28719  0.84021  0.83941  1.0000
  C   C234      1.0  0.25190  0.86707  0.88353  1.0000
  H   H426      1.0  0.32421  0.96620  0.80587  1.0000
  H   H427      1.0  0.18795  0.64224  0.53719  1.0000
  H   H428      1.0  0.24478  0.76497  0.82444  1.0000
  H   H429      1.0  0.15355  0.50941  0.55241  1.0000
  H   H430      1.0  0.02591  0.54928  0.57358  1.0000
  H   H431      1.0  0.24942  0.81105  0.89289  1.0000
  H   H432      1.0  0.25423  0.93424  0.90650  1.0000
  N   N13       1.0  0.13054  0.57895  0.82423  1.0000
  C   C235      1.0  0.14268  0.57764  0.78771  1.0000
  C   C236      1.0  0.10617  0.58887  0.81837  1.0000
  C   C237      1.0  0.14282  0.59561  0.84751  1.0000
  C   C238      1.0  0.13093  0.55601  0.84391  1.0000
  H   H433      1.0  0.27910  0.91957  0.88598  1.0000
  C   C239      1.0  0.13111  0.60273  0.88423  1.0000
  C   C240      1.0  0.08988  0.57403  0.79679  1.0000
  C   C241      1.0  0.06721  0.58762  0.78767  1.0000
  S   S56       1.0  0.31155  0.84869  0.98571  1.0000
  H   H434      1.0  0.14036  0.59446  0.77308  1.0000
  H   H435      1.0  0.13496  0.56531  0.76925  1.0000
  H   H436      1.0  0.09729  0.59204  0.84491  1.0000
  H   H437      1.0  0.10640  0.60594  0.80449  1.0000
  H   H438      1.0  0.14528  0.61173  0.83185  1.0000
  H   H439      1.0  0.16047  0.58837  0.85439  1.0000
  H   H440      1.0  0.14673  0.55318  0.86097  1.0000
  H   H441      1.0  0.11643  0.55595  0.86377  1.0000
  H   H442      1.0  0.28842  0.95676  0.62677  1.0000
  C   C242      1.0  0.06382  0.64607  0.56880  1.0000
  H   H443      1.0  0.17342  0.55745  0.80918  1.0000
  H   H444      1.0  0.12472  0.58770  0.89889  1.0000
  H   H445      1.0  0.11644  0.61549  0.87890  1.0000
  H   H446      1.0  0.09753  0.56784  0.77072  1.0000
  H   H447      1.0  0.08563  0.55897  0.81364  1.0000
  H   H448      1.0  0.05616  0.57693  0.77107  1.0000
  H   H449      1.0  0.05783  0.59262  0.81314  1.0000
  H   H450      1.0  0.07033  0.60326  0.77136  1.0000
  H   H451      1.0  0.29699  0.95953  0.84558  1.0000
  H   H452      1.0  0.17615  0.57938  0.73245  1.0000
  H   H453      1.0  0.32768  0.82912  0.76965  1.0000
  H   H454      1.0  0.05634  0.63619  0.86962  1.0000
  C   C243      1.0  0.02488  0.58449  0.55210  1.0000
  C   C244      1.0  0.02981  0.56255  0.67776  1.0000
  H   H455      1.0  0.19739  0.56004  0.75425  1.0000
  C   C245      1.0  0.07876  0.63464  0.93502  1.0000
  C   C246      1.0  0.19441  0.61200  0.50294  1.0000
  H   H456      1.0  0.26004  0.79132  0.99112  1.0000
  H   H457      1.0  0.23656  0.77434  0.86975  1.0000
  S   S57       1.0  0.32135  0.89034  0.89280  1.0000
  C   C247      1.0  0.07138  0.54642  0.54160  1.0000
  C   C248      1.0  0.04108  0.69405  0.88040  1.0000
  H   H458      1.0  0.01447  0.55221  0.52745  1.0000
  C   C249      1.0  0.04508  0.72050  0.98879  1.0000
  C   C250      1.0  0.30402  0.95786  0.87384  1.0000
  H   H459      1.0  0.05507  0.73270  0.91475  1.0000
  C   C251      1.0  0.26858  0.93611  0.88692  1.0000
  C   C252      1.0  0.01524  0.56047  0.55455  1.0000
  H   H460      1.0  0.30571  0.97953  0.57800  1.0000
  H   H461      1.0  0.14091  0.51005  0.86338  1.0000
  H   H462      1.0  0.06114  0.65617  0.75642  1.0000
  S   S58       1.0  0.06982  0.73652  0.99345  1.0000
  H   H463      1.0  0.07672  0.69506  0.89998  1.0000
  H   H464      1.0  0.02734  0.51826  0.73047  1.0000
  C   C253      1.0  0.01647  0.66188  0.87449  1.0000
  C   C254      1.0  0.05340  0.61091  0.53345  1.0000
  H   H465      1.0  0.31775  0.77527  0.92626  1.0000
  C   C255      1.0  0.22897  0.81326  0.99399  1.0000
  H   H466      1.0  0.31137  0.82654  0.90100  1.0000
  H   H467      1.0  0.14659  0.53105  0.80455  1.0000
  H   H468      1.0  0.03181  0.66780  0.74964  1.0000
  H   H469      1.0  0.07550  0.51565  0.76566  1.0000
  C   C256      1.0  0.32577  0.97750  0.92164  1.0000
  H   H470      1.0  0.04903  0.63494  0.81150  1.0000
  H   H471      1.0  0.07541  0.65844  0.87097  1.0000
  N   N14       1.0  0.04780  0.58598  0.53319  1.0000
  H   H472      1.0  0.21616  0.87942  0.89051  1.0000
  H   H473      1.0  0.21297  0.61484  0.50293  1.0000
  C   C257      1.0  0.00540  0.69542  0.98001  1.0000
  H   H474      1.0  0.29388  0.85731  0.84505  1.0000
  H   H475      1.0  0.06405  0.65383  0.59645  1.0000
  H   H476      1.0  0.27702  0.79034  0.92322  1.0000
  C   C258      1.0  0.13022  0.53423  0.81974  1.0000
  C   C259      1.0  0.30705  0.95960  0.62775  1.0000
  H   H477      1.0  0.05397  0.73941  0.86633  1.0000
  H   H478      1.0  0.06086  0.67554  0.81714  1.0000
  H   H479      1.0  0.02399  0.50558  0.65637  1.0000
  H   H480      1.0  0.07870  0.63315  0.96536  1.0000
  H   H481      1.0  0.26656  0.79924  0.81482  1.0000
  H   H482      1.0  0.06606  0.61162  0.59028  1.0000
  C   C260      1.0  0.08736  0.53319  0.56878  1.0000
  C   C261      1.0  0.20474  0.81339  0.99368  1.0000
  C   C262      1.0  0.05461  0.62222  0.57161  1.0000
  H   H483      1.0  0.07350  0.70176  0.85219  1.0000
  N   N15       1.0  0.03962  0.67034  0.86479  1.0000
  H   H484      1.0  0.17011  0.54974  0.74115  1.0000
  C   C263      1.0  0.06520  0.70386  0.87934  1.0000
  H   H485      1.0  0.01973  0.64581  0.80475  1.0000
  H   H486      1.0  0.15486  0.62912  0.89572  1.0000
  H   H487      1.0  0.22631  0.79074  0.82997  1.0000
  C   C264      1.0  0.05938  0.52494  0.75576  1.0000
  C   C265      1.0  0.04275  0.65313  0.76112  1.0000
  C   C266      1.0  0.26241  0.79426  0.84333  1.0000
  H   H488      1.0  0.29768  0.83813  0.76349  1.0000
  C   C267      1.0  0.27033  0.84901  0.89945  1.0000
  C   C268      1.0  0.00356  0.71943  0.97791  1.0000
  H   H489      1.0  0.16207  0.60176  0.91803  1.0000
  S   S59       1.0  0.16493  0.68747  0.96762  1.0000
  H   H490      1.0  0.31224  0.96102  0.65689  1.0000
  C   C269      1.0  0.29029  0.80254  0.92915  1.0000
  C   C270      1.0  0.02334  0.73190  0.98245  1.0000
  H   H491      1.0  0.31678  0.94448  0.61563  1.0000
  H   H492      1.0  0.24890  0.86524  0.85383  1.0000
  H   H493      1.0  0.09542  0.64117  0.92655  1.0000
  H   H494      1.0  0.08329  0.57979  0.55115  1.0000
  H   H495      1.0  0.13846  0.62041  0.93455  1.0000
  H   H496      1.0  0.04276  0.64435  0.93299  1.0000
  H   H497      1.0  0.08126  0.73564  0.88958  1.0000
  H   H498      1.0  0.32484  0.80000  0.95251  1.0000
  H   H499      1.0  0.09123  0.51541  0.55906  1.0000
  C   C271      1.0  0.05881  0.65120  0.92253  1.0000
  H   H500      1.0  0.30567  0.77997  0.97125  1.0000
  H   H501      1.0  0.22187  0.84933  0.90126  1.0000
  C   C272      1.0  0.29721  0.81542  0.89385  1.0000
  H   H502      1.0  0.27184  0.97128  0.89996  1.0000
  C   C273      1.0  0.06368  0.72946  0.88804  1.0000
  H   H503      1.0  0.28357  0.81455  0.95045  1.0000
  C   C274      1.0  0.05818  0.65372  0.88026  1.0000
  C   C275      1.0  0.25339  0.99313  0.96197  1.0000
  H   H504      1.0  0.07043  0.61294  0.52054  1.0000
  H   H505      1.0  0.31059  0.98152  0.93957  1.0000
  H   H506      1.0  0.03216  0.68651  0.81185  1.0000
  H   H507      1.0  0.06111  0.66789  0.93552  1.0000
  H   H508      1.0  0.07916  0.53236  0.59620  1.0000
  N   N16       1.0  0.27822  0.82964  0.87434  1.0000
  H   H509      1.0  0.23060  0.87091  0.93251  1.0000
  H   H510      1.0  0.07721  0.61734  0.92328  1.0000
  C   C276      1.0  0.22873  0.86656  0.90315  1.0000
  C   C277      1.0  0.12877  0.59388  0.51347  1.0000
  H   H511      1.0  0.08164  0.64500  0.55801  1.0000
  H   H512      1.0  0.06249  0.57171  0.58328  1.0000
  C   C278      1.0  0.06649  0.57179  0.55347  1.0000
  H   H513      1.0  0.12689  0.49759  0.82513  1.0000
  H   H514      1.0  0.27301  0.84368  0.81929  1.0000
  C   C279      1.0  0.04328  0.50821  0.73921  1.0000
  C   C280      1.0  0.26029  0.97266  0.98096  1.0000
  C   C281      1.0  0.11876  0.61632  0.51230  1.0000
  C   C282      1.0  0.12700  0.51050  0.65039  1.0000
  H   H515      1.0  0.27673  0.78285  0.85455  1.0000
  C   C283      1.0  0.25774  0.81599  0.86675  1.0000
  C   C284      1.0  0.18433  0.62381  0.53713  1.0000
  H   H516      1.0  0.28897  0.95100  0.92786  1.0000
  H   H517      1.0  0.03727  0.62454  0.58416  1.0000
  C   C285      1.0  0.31097  0.78861  0.94567  1.0000
  C   C286      1.0  0.24118  0.78029  0.84185  1.0000
  H   H518      1.0  0.08001  0.54565  0.51452  1.0000
  H   H519      1.0  0.16546  0.62245  0.53852  1.0000
  H   H520      1.0  0.26352  0.84236  0.92558  1.0000
  H   H521      1.0  0.31456  0.94120  0.87430  1.0000
  N   N17       1.0  0.31868  0.97756  0.88193  1.0000
  H   H522      1.0  0.05268  0.65746  0.55073  1.0000
  C   C287      1.0  0.20579  0.77171  0.98533  1.0000
  H   H523      1.0  0.19211  0.61544  0.56205  1.0000
  C   C288      1.0  0.17867  0.56472  0.75197  1.0000
  H   H524      1.0  0.32298  0.82600  0.83567  1.0000
  C   C289      1.0  0.04667  0.69656  0.99139  1.0000
  C   C290      1.0  0.12680  0.51287  0.84306  1.0000
  Fe  Fe32      1.0  0.10620  0.72001  0.98569  1.0000
  C   C291      1.0  0.02701  0.68418  0.98700  1.0000
  S   S60       1.0  0.11054  0.68213  0.97802  1.0000
  H   H525      1.0  0.02184  0.75045  0.98056  1.0000
  C   C292      1.0  0.19326  0.79288  0.98952  1.0000
  H   H526      1.0  0.19185  0.59340  0.50576  1.0000
  H   H527      1.0  0.04065  0.62159  0.51676  1.0000
  H   H528      1.0  0.19471  0.82954  0.99668  1.0000
  C   C293      1.0  0.00610  0.56714  0.67404  1.0000
  C   C294      1.0  0.14567  0.51040  0.52475  1.0000
  S   S61       1.0  0.24248  0.83998  0.99923  1.0000
  H   H529      1.0  0.17468  0.79352  0.98940  1.0000
  H   H530      1.0  0.31666  0.85638  0.78706  1.0000
  C   C295      1.0  0.24150  0.79204  0.99021  1.0000
  H   H531      1.0  0.00479  0.62539  0.66543  1.0000
  H   H532      1.0  0.32820  0.94007  0.93315  1.0000
  H   H533      1.0  0.15907  0.51457  0.50456  1.0000
  H   H534      1.0  0.32920  0.99614  0.81011  1.0000
  H   H535      1.0  0.02865  0.66568  0.98849  1.0000
  H   H536      1.0  0.24005  0.75541  0.98281  1.0000
  S   S62       1.0  0.32597  0.90118  0.99815  1.0000
  H   H537      1.0  0.32893  0.95888  0.99339  1.0000
  C   C296      1.0  0.23003  0.77156  0.98574  1.0000
  H   H538      1.0  0.21498  0.69484  0.99182  1.0000
  Fe  Fe33      1.0  0.57059  0.06351  0.33351  1.0000
  S   S63       1.0  0.58089  0.09989  0.33741  1.0000
  S   S64       1.0  0.53588  0.04883  0.32655  1.0000
  Fe  Fe34      1.0  0.61767  0.04377  0.35690  1.0000
  S   S65       1.0  0.63168  0.07825  0.36361  1.0000
  S   S66       1.0  0.63800  0.01020  0.36576  1.0000
  Fe  Fe35      1.0  0.59785  0.08806  0.39065  1.0000
  S   S67       1.0  0.59308  0.10855  0.44323  1.0000
  Fe  Fe36      1.0  0.61405  0.08674  0.30954  1.0000
  S   S68       1.0  0.63456  0.10523  0.26580  1.0000
  S   S69       1.0  0.58549  0.05273  0.38814  1.0000
  S   S70       1.0  0.60214  0.05143  0.30163  1.0000
  Fe  Fe37      1.0  0.37976  0.05574  0.28653  1.0000
  S   S71       1.0  0.35151  0.08174  0.30249  1.0000
  S   S72       1.0  0.37132  0.01919  0.27936  1.0000
  Fe  Fe38      1.0  0.41420  0.09131  0.27300  1.0000
  S   S73       1.0  0.38847  0.12005  0.28734  1.0000
  S   S74       1.0  0.44886  0.10087  0.25255  1.0000
  Fe  Fe39      1.0  0.37936  0.09742  0.33468  1.0000
  C   C297      1.0  0.37871  0.01381  0.37997  1.0000
  Fe  Fe40      1.0  0.36340  0.10151  0.25373  1.0000
  H   H539      1.0  0.51962  0.13980  0.45294  1.0000
  S   S75       1.0  0.40678  0.06977  0.32238  1.0000
  S   S76       1.0  0.38992  0.07444  0.23605  1.0000
  H   H540      1.0  0.47141  0.02286  0.41916  1.0000
  H   H541      1.0  0.44260  0.12583  0.32723  1.0000
  H   H542      1.0  0.43800  0.14002  0.40787  1.0000
  C   C298      1.0  0.42805  0.06369  0.15373  1.0000
  H   H543      1.0  0.39668  0.16944  0.24437  1.0000
  H   H544      1.0  0.38286  0.18177  0.20389  1.0000
  C   C299      1.0  0.34440  0.08688  0.15952  1.0000
  H   H545      1.0  0.35393  0.07650  0.17970  1.0000
  C   C300      1.0  0.51191  0.06467  0.30776  1.0000
  C   C301      1.0  0.49019  0.05604  0.31190  1.0000
  C   C302      1.0  0.47072  0.06733  0.29567  1.0000
  C   C303      1.0  0.47290  0.08723  0.27480  1.0000
  C   C304      1.0  0.49460  0.09601  0.27083  1.0000
  C   C305      1.0  0.51409  0.08485  0.28755  1.0000
  H   H546      1.0  0.48841  0.04043  0.32750  1.0000
  H   H547      1.0  0.45418  0.06022  0.29840  1.0000
  H   H548      1.0  0.49636  0.11143  0.25469  1.0000
  H   H549      1.0  0.53080  0.09162  0.28424  1.0000
  H   H550      1.0  0.40777  0.13382  0.21199  1.0000
  H   H551      1.0  0.64400  0.03434  0.43995  1.0000
  C   C306      1.0  0.40710  0.10361  0.15457  1.0000
  C   C307      1.0  0.60100  0.09648  0.48655  1.0000
  H   H552      1.0  0.45125  0.01900  0.38268  1.0000
  H   H553      1.0  0.59217  0.00971  0.33727  1.0000
  H   H554      1.0  0.43625  0.05904  0.38655  1.0000
  H   H555      1.0  0.36109  0.15371  0.02972  1.0000
  H   H556      1.0  0.60753  0.06183  0.46775  1.0000
  H   H557      1.0  0.35707  0.03285  0.19353  1.0000
  C   C308      1.0  0.64559  0.09520  0.22272  1.0000
  C   C309      1.0  0.63578  0.07766  0.20357  1.0000
  H   H558      1.0  0.42863  0.08839  0.10981  1.0000
  H   H559      1.0  0.41881  0.10487  0.17828  1.0000
  H   H560      1.0  0.62115  0.06974  0.21509  1.0000
  H   H561      1.0  0.44080  0.06596  0.45081  1.0000
  H   H562      1.0  0.42923  0.10479  0.46191  1.0000
  H   H563      1.0  0.39061  0.09884  0.16694  1.0000
  H   H564      1.0  0.38031  0.12831  0.02631  1.0000
  C   C310      1.0  0.55494  0.02581  0.23518  1.0000
  H   H565      1.0  0.43568  0.15431  0.34433  1.0000
  H   H566      1.0  0.62210  0.02600  0.23193  1.0000
  C   C311      1.0  0.41621  0.08304  0.13070  1.0000
  H   H567      1.0  0.42958  0.12890  0.09252  1.0000
  H   H568      1.0  0.63629  0.05787  0.15378  1.0000
  H   H569      1.0  0.34444  0.04373  0.47325  1.0000
  H   H570      1.0  0.48569  0.11825  0.42950  1.0000
  H   H571      1.0  0.39654  0.11054  0.08232  1.0000
  H   H572      1.0  0.52094  0.11846  0.39115  1.0000
  H   H573      1.0  0.41611  0.13225  0.35220  1.0000
  C   C312      1.0  0.44572  0.10341  0.39507  1.0000
  C   C313      1.0  0.48383  0.09949  0.42698  1.0000
  H   H574      1.0  0.49328  0.09160  0.45089  1.0000
  H   H575      1.0  0.46476  0.13417  0.38360  1.0000
  H   H576      1.0  0.37156  0.15719  0.22641  1.0000
  N   N18       1.0  0.45879  0.09446  0.42861  1.0000
  H   H577      1.0  0.44139  0.02854  0.23056  1.0000
  H   H578      1.0  0.47105  0.06090  0.44980  1.0000
  C   C314      1.0  0.44815  0.10667  0.46146  1.0000
  C   C315      1.0  0.45425  0.02873  0.40805  1.0000
  C   C316      1.0  0.39083  0.14346  0.15926  1.0000
  H   H579      1.0  0.41806  0.02272  0.30476  1.0000
  H   H580      1.0  0.61812  0.00493  0.45789  1.0000
  H   H581      1.0  0.37225  0.12793  0.46566  1.0000
  H   H582      1.0  0.45177  0.09426  0.37001  1.0000
  C   C317      1.0  0.49742  0.09086  0.39283  1.0000
  H   H583      1.0  0.39252  0.06637  0.40745  1.0000
  C   C318      1.0  0.43455  0.13574  0.35028  1.0000
  C   C319      1.0  0.45328  0.05440  0.39910  1.0000
  H   H584      1.0  0.53127  0.09263  0.36855  1.0000
  H   H585      1.0  0.55872  0.02399  0.26484  1.0000
  C   C320      1.0  0.45626  0.06894  0.43392  1.0000
  H   H586      1.0  0.45024  0.12542  0.45976  1.0000
  H   H587      1.0  0.40039  0.04597  0.46675  1.0000
  C   C321      1.0  0.42556  0.13530  0.12060  1.0000
  H   H588      1.0  0.58105  0.05018  0.22694  1.0000
  C   C322      1.0  0.46745  0.14324  0.13114  1.0000
  H   H589      1.0  0.39348  0.15516  0.07364  1.0000
  C   C323      1.0  0.34176  0.07858  0.12387  1.0000
  H   H590      1.0  0.35968  0.04188  0.40846  1.0000
  H   H591      1.0  0.37228  0.11398  0.11155  1.0000
  C   C324      1.0  0.36777  0.13789  0.04438  1.0000
  C   C325      1.0  0.65692  0.02628  0.45935  1.0000
  C   C326      1.0  0.44762  0.12922  0.14366  1.0000
  C   C327      1.0  0.37075  0.02402  0.17656  1.0000
  C   C328      1.0  0.56230  0.04926  0.22262  1.0000
  C   C329      1.0  0.40305  0.14935  0.19525  1.0000
  H   H592      1.0  0.51968  0.03767  0.24236  1.0000
  H   H593      1.0  0.38032  0.03730  0.16239  1.0000
  C   C330      1.0  0.63035  0.01453  0.21097  1.0000
  N   N19       1.0  0.40341  0.12627  0.13448  1.0000
  H   H594      1.0  0.42349  0.15434  0.11743  1.0000
  H   H595      1.0  0.36329  0.04635  0.35998  1.0000
  C   C331      1.0  0.53430  0.14964  0.46156  1.0000
  C   C332      1.0  0.52907  0.02346  0.22728  1.0000
  C   C333      1.0  0.38781  0.12250  0.10228  1.0000
  C   C334      1.0  0.66328  0.08117  0.15302  1.0000
  H   H596      1.0  0.49633  0.00315  0.19165  1.0000
  H   H597      1.0  0.34958  0.06191  0.11667  1.0000
  H   H598      1.0  0.44075  0.02502  0.42833  1.0000
  C   C335      1.0  0.33488  0.10866  0.16887  1.0000
  H   H599      1.0  0.34964  0.01994  0.12946  1.0000
  H   H600      1.0  0.48257  0.03552  0.23325  1.0000
  H   H601      1.0  0.45577  0.02004  0.18866  1.0000
  H   H602      1.0  0.46312  0.16185  0.13543  1.0000
  C   C336      1.0  0.45435  0.01602  0.21832  1.0000
  H   H603      1.0  0.41865  0.15853  0.18908  1.0000
  H   H604      1.0  0.34287  0.02684  0.37603  1.0000
  H   H605      1.0  0.38739  0.16021  0.14489  1.0000
  H   H606      1.0  0.55314  0.06314  0.23867  1.0000
  H   H607      1.0  0.52586  0.02757  0.19782  1.0000
  H   H608      1.0  0.55865  0.05213  0.19302  1.0000
  H   H609      1.0  0.40158  0.07596  0.11602  1.0000
  H   H610      1.0  0.45331  0.11082  0.14056  1.0000
  C   C337      1.0  0.35998  0.03339  0.38140  1.0000
  H   H611      1.0  0.53131  0.09345  0.41773  1.0000
  H   H612      1.0  0.46668  0.05731  0.37857  1.0000
  C   C338      1.0  0.52166  0.09942  0.39279  1.0000
  H   H613      1.0  0.49932  0.07183  0.39297  1.0000
  H   H614      1.0  0.48901  0.09700  0.36701  1.0000
  H   H615      1.0  0.44499  0.13221  0.17327  1.0000
  H   H616      1.0  0.42724  0.09987  0.39770  1.0000
  C   C339      1.0  0.44675  0.12939  0.38634  1.0000
  H   H617      1.0  0.41580  0.05674  0.17348  1.0000
  S   S77       1.0  0.37555  0.11346  0.39100  1.0000
  C   C340      1.0  0.37853  0.11005  0.46583  1.0000
  C   C341      1.0  0.38160  0.09841  0.43251  1.0000
  H   H618      1.0  0.44284  0.06994  0.16903  1.0000
  H   H619      1.0  0.36595  0.15450  0.09627  1.0000
  H   H620      1.0  0.47134  0.14018  0.10174  1.0000
  H   H621      1.0  0.43452  0.04952  0.13559  1.0000
  C   C342      1.0  0.38753  0.16544  0.21878  1.0000
  C   C343      1.0  0.41631  0.00559  0.29484  1.0000
  H   H622      1.0  0.53373  0.16602  0.44575  1.0000
  H   H623      1.0  0.37697  0.00505  0.35357  1.0000
  C   C344      1.0  0.38976  0.07533  0.43299  1.0000
  H   H624      1.0  0.37367  0.13745  0.16649  1.0000
  C   C345      1.0  0.37915  0.14426  0.08027  1.0000
  H   H625      1.0  0.35311  0.12714  0.04982  1.0000
  H   H626      1.0  0.48308  0.13806  0.14742  1.0000
  H   H627      1.0  0.38349  0.00545  0.43719  1.0000
  S   S78       1.0  0.33942  0.12031  0.21267  1.0000
  H   H628      1.0  0.55066  0.13966  0.45488  1.0000
  C   C346      1.0  0.64442  0.07094  0.16885  1.0000
  C   C347      1.0  0.39429  0.06389  0.46658  1.0000
  H   H629      1.0  0.59845  0.01297  0.18097  1.0000
  C   C348      1.0  0.60717  0.07303  0.49118  1.0000
  C   C349      1.0  0.49595  0.99999  0.22172  1.0000
  H   H630      1.0  0.63732  0.02508  0.18889  1.0000
  H   H631      1.0  0.51065  0.01421  0.29075  1.0000
  H   H632      1.0  0.39569  0.02140  0.38047  1.0000
  C   C350      1.0  0.66413  0.10584  0.20650  1.0000
  H   H633      1.0  0.47485  0.01479  0.26703  1.0000
  C   C351      1.0  0.47751  0.01771  0.23736  1.0000
  H   H634      1.0  0.33750  0.01406  0.47433  1.0000
  H   H635      1.0  0.56580  0.01261  0.22061  1.0000
  C   C352      1.0  0.36030  0.00866  0.14825  1.0000
  C   C353      1.0  0.33611  0.03044  0.48956  1.0000
  H   H636      1.0  0.38283  0.01375  0.19483  1.0000
  C   C354      1.0  0.61158  0.00093  0.19413  1.0000
  H   H637      1.0  0.65429  0.03415  0.48674  1.0000
  C   C355      1.0  0.39133  0.07558  0.49991  1.0000
  C   C356      1.0  0.38343  0.09872  0.49943  1.0000
  C   C357      1.0  0.65495  0.00030  0.46157  1.0000
  H   H638      1.0  0.65281  0.04103  0.25403  1.0000
  C   C358      1.0  0.64957  0.99834  0.22839  1.0000
  C   C359      1.0  0.51952  0.99871  0.27867  1.0000
  H   H639      1.0  0.33368  0.99937  0.18646  1.0000
  C   C360      1.0  0.45800  0.09877  0.49947  1.0000
  H   H640      1.0  0.53724  0.99832  0.28982  1.0000
  N   N20       1.0  0.51982  0.00071  0.23750  1.0000
  C   C361      1.0  0.39535  0.99960  0.28032  1.0000
  H   H641      1.0  0.37467  0.00028  0.13228  1.0000
  H   H642      1.0  0.65648  0.02045  0.29004  1.0000
  H   H643      1.0  0.54573  0.99760  0.17130  1.0000
  H   H644      1.0  0.44821  0.99851  0.22176  1.0000
  H   H645      1.0  0.58385  0.99786  0.48078  1.0000
  H   H646      1.0  0.66356  0.06962  0.30166  1.0000
  Fe  Fe41      1.0  0.60939  0.07912  0.65678  1.0000
  S   S79       1.0  0.57290  0.07610  0.67482  1.0000
  S   S80       1.0  0.62102  0.06670  0.60024  1.0000
  Fe  Fe42      1.0  0.62585  0.08752  0.73680  1.0000
  S   S81       1.0  0.59042  0.08502  0.76003  1.0000
  H   H647      1.0  0.64599  0.01391  0.90804  1.0000
  Fe  Fe43      1.0  0.58789  0.05543  0.72201  1.0000
  S   S82       1.0  0.57687  0.02091  0.73918  1.0000
  Fe  Fe44      1.0  0.57848  0.10598  0.71070  1.0000
  S   S83       1.0  0.55134  0.13523  0.71544  1.0000
  S   S84       1.0  0.62391  0.05619  0.70204  1.0000
  S   S85       1.0  0.61435  0.11097  0.68959  1.0000
  Fe  Fe45      1.0  0.42768  0.10543  0.64964  1.0000
  S   S86       1.0  0.39251  0.11041  0.62377  1.0000
  S   S87       1.0  0.45039  0.13518  0.65085  1.0000
  Fe  Fe46      1.0  0.42156  0.05621  0.66925  1.0000
  S   S88       1.0  0.38637  0.05705  0.64526  1.0000
  S   S89       1.0  0.43829  0.02423  0.69403  1.0000
  Fe  Fe47      1.0  0.40132  0.07597  0.59798  1.0000
  H   H648      1.0  0.65004  0.01653  0.66115  1.0000
  Fe  Fe48      1.0  0.38078  0.09095  0.67361  1.0000
  H   H649      1.0  0.55815  0.12844  0.63442  1.0000
  S   S90       1.0  0.43727  0.07265  0.62059  1.0000
  S   S91       1.0  0.41524  0.08855  0.70069  1.0000
  C   C362      1.0  0.36473  0.09809  0.77678  1.0000
  H   H650      1.0  0.38167  0.09652  0.76470  1.0000
  H   H651      1.0  0.37735  0.09857  0.83234  1.0000
  H   H652      1.0  0.38771  0.16412  0.70296  1.0000
  H   H653      1.0  0.34592  0.04457  0.54060  1.0000
  C   C363      1.0  0.52343  0.13352  0.69742  1.0000
  C   C364      1.0  0.51381  0.11263  0.68994  1.0000
  C   C365      1.0  0.49113  0.11261  0.67615  1.0000
  C   C366      1.0  0.47834  0.13348  0.66944  1.0000
  C   C367      1.0  0.48811  0.15413  0.67696  1.0000
  C   C368      1.0  0.51038  0.15415  0.69106  1.0000
  H   H654      1.0  0.52371  0.09659  0.69515  1.0000
  H   H655      1.0  0.48363  0.09658  0.67043  1.0000
  H   H656      1.0  0.47834  0.17030  0.67198  1.0000
  H   H657      1.0  0.51763  0.17031  0.69687  1.0000
  H   H658      1.0  0.45261  0.10594  0.55725  1.0000
  H   H659      1.0  0.56993  0.03005  0.66211  1.0000
  H   H660      1.0  0.63109  0.06637  0.96129  1.0000
  S   S92       1.0  0.39779  0.06049  0.54122  1.0000
  C   C369      1.0  0.49429  0.04249  0.66937  1.0000
  C   C370      1.0  0.39584  0.00662  0.69734  1.0000
  C   C371      1.0  0.64144  0.10293  0.83760  1.0000
  H   H661      1.0  0.66091  0.05095  0.84457  1.0000
  H   H662      1.0  0.55725  0.16125  0.56749  1.0000
  C   C372      1.0  0.61255  0.07845  0.55699  1.0000
  C   C373      1.0  0.51369  0.15143  0.57804  1.0000
  H   H663      1.0  0.60716  0.11310  0.57550  1.0000
  H   H664      1.0  0.38928  0.02333  0.70671  1.0000
  H   H665      1.0  0.41429  0.15174  0.87907  1.0000
  N   N21       1.0  0.45059  0.13814  0.77975  1.0000
  C   C374      1.0  0.44840  0.11426  0.76526  1.0000
  C   C375      1.0  0.43841  0.15569  0.75441  1.0000
  C   C376      1.0  0.47592  0.14234  0.78017  1.0000
  C   C377      1.0  0.44169  0.14055  0.81848  1.0000
  C   C378      1.0  0.41608  0.13618  0.82487  1.0000
  C   C379      1.0  0.46190  0.09439  0.78617  1.0000
  C   C380      1.0  0.48205  0.16760  0.78557  1.0000
  C   C381      1.0  0.41585  0.14900  0.73582  1.0000
  H   H666      1.0  0.41457  0.17708  0.69594  1.0000
  C   C382      1.0  0.41040  0.13543  0.86572  1.0000
  C   C383      1.0  0.45705  0.07111  0.77007  1.0000
  C   C384      1.0  0.50784  0.16895  0.79196  1.0000
  H   H667      1.0  0.45423  0.11354  0.73615  1.0000
  H   H668      1.0  0.43022  0.10996  0.76474  1.0000
  H   H669      1.0  0.43481  0.17224  0.76894  1.0000
  H   H670      1.0  0.44980  0.15958  0.73092  1.0000
  H   H671      1.0  0.48421  0.13647  0.75405  1.0000
  H   H672      1.0  0.48493  0.13193  0.80221  1.0000
  H   H673      1.0  0.45229  0.12922  0.83747  1.0000
  H   H674      1.0  0.44368  0.15818  0.82857  1.0000
  H   H675      1.0  0.41148  0.11967  0.81323  1.0000
  H   H676      1.0  0.40495  0.15044  0.81271  1.0000
  H   H677      1.0  0.48071  0.09603  0.78405  1.0000
  H   H678      1.0  0.45694  0.09407  0.81547  1.0000
  H   H679      1.0  0.47297  0.17562  0.80931  1.0000
  H   H680      1.0  0.47742  0.17811  0.76081  1.0000
  H   H681      1.0  0.42003  0.13611  0.71437  1.0000
  H   H682      1.0  0.51824  0.01494  0.65397  1.0000
  H   H683      1.0  0.37440  0.00917  0.62449  1.0000
  C   C385      1.0  0.44435  0.11057  0.53056  1.0000
  H   H684      1.0  0.48867  0.14225  0.53565  1.0000
  H   H685      1.0  0.62758  0.02463  0.85847  1.0000
  H   H686      1.0  0.39178  0.13300  0.86939  1.0000
  H   H687      1.0  0.42031  0.12083  0.87941  1.0000
  H   H688      1.0  0.46742  0.05720  0.78464  1.0000
  H   H689      1.0  0.43858  0.06785  0.77313  1.0000
  H   H690      1.0  0.46169  0.07048  0.74057  1.0000
  H   H691      1.0  0.51788  0.16114  0.76887  1.0000
  H   H692      1.0  0.51194  0.18719  0.79415  1.0000
  H   H693      1.0  0.51323  0.15986  0.81773  1.0000
  C   C386      1.0  0.60661  0.10186  0.55227  1.0000
  H   H694      1.0  0.40372  0.14146  0.75499  1.0000
  C   C387      1.0  0.66082  0.09549  0.81726  1.0000
  H   H695      1.0  0.44359  0.12951  0.52714  1.0000
  C   C388      1.0  0.36224  0.09934  0.81516  1.0000
  H   H696      1.0  0.48137  0.03864  0.64835  1.0000
  H   H697      1.0  0.48523  0.04954  0.69396  1.0000
  H   H698      1.0  0.59650  0.14215  0.61966  1.0000
  C   C389      1.0  0.33227  0.02813  0.65131  1.0000
  C   C390      1.0  0.55546  0.14372  0.57882  1.0000
  H   H699      1.0  0.55498  0.09106  0.55006  1.0000
  H   H700      1.0  0.48371  0.13073  0.58062  1.0000
  S   S93       1.0  0.65901  0.08836  0.77021  1.0000
  H   H701      1.0  0.47217  0.17088  0.60212  1.0000
  H   H702      1.0  0.36647  0.02352  0.52199  1.0000
  H   H703      1.0  0.62425  0.05546  0.81137  1.0000
  H   H704      1.0  0.64401  0.05816  0.89790  1.0000
  H   H705      1.0  0.51702  0.16921  0.56921  1.0000
  C   C391      1.0  0.54266  0.06949  0.59225  1.0000
  S   S94       1.0  0.34755  0.09895  0.70549  1.0000
  C   C392      1.0  0.60080  0.11082  0.51725  1.0000
  H   H706      1.0  0.55012  0.12223  0.51703  1.0000
  H   H707      1.0  0.35006  0.02706  0.66193  1.0000
  H   H708      1.0  0.51265  0.15218  0.60840  1.0000
  H   H709      1.0  0.55786  0.05692  0.59138  1.0000
  C   C393      1.0  0.63911  0.02318  0.83437  1.0000
  C   C394      1.0  0.40331  0.16967  0.71691  1.0000
  C   C395      1.0  0.48932  0.14591  0.56531  1.0000
  H   H710      1.0  0.51390  0.10449  0.57187  1.0000
  C   C396      1.0  0.54959  0.09296  0.57902  1.0000
  H   H711      1.0  0.56475  0.09734  0.59523  1.0000
  H   H712      1.0  0.52904  0.06326  0.57437  1.0000
  C   C397      1.0  0.62717  0.03716  0.80345  1.0000
  H   H713      1.0  0.57473  0.00517  0.60811  1.0000
  H   H714      1.0  0.47561  0.18117  0.55568  1.0000
  C   C398      1.0  0.64364  0.10825  0.87498  1.0000
  C   C399      1.0  0.50929  0.02085  0.67933  1.0000
  S   S95       1.0  0.33857  0.10450  0.88003  1.0000
  H   H715      1.0  0.62859  0.11427  0.89036  1.0000
  N   N22       1.0  0.53312  0.13470  0.56647  1.0000
  H   H716      1.0  0.38092  0.10786  0.52491  1.0000
  C   C400      1.0  0.55899  0.14540  0.62077  1.0000
  H   H717      1.0  0.63767  0.03613  0.77809  1.0000
  C   C401      1.0  0.61298  0.06410  0.52624  1.0000
  H   H718      1.0  0.45425  0.16114  0.56630  1.0000
  H   H719      1.0  0.53623  0.07047  0.62083  1.0000
  C   C402      1.0  0.34787  0.02769  0.52688  1.0000
  H   H720      1.0  0.64279  0.01620  0.58262  1.0000
  H   H721      1.0  0.37507  0.02641  0.58484  1.0000
  H   H722      1.0  0.52239  0.02584  0.69923  1.0000
  C   C403      1.0  0.58242  0.15425  0.62960  1.0000
  H   H723      1.0  0.62478  0.10483  0.82447  1.0000
  H   H724      1.0  0.48492  0.00998  0.71906  1.0000
  H   H725      1.0  0.52582  0.11332  0.61339  1.0000
  H   H726      1.0  0.33946  0.04446  0.59991  1.0000
  H   H727      1.0  0.39790  0.18301  0.73722  1.0000
  C   C404      1.0  0.52952  0.11160  0.58359  1.0000
  C   C405      1.0  0.34529  0.09924  0.75418  1.0000
  C   C406      1.0  0.66139  0.02397  0.90987  1.0000
  H   H728      1.0  0.54583  0.15756  0.63309  1.0000
  H   H729      1.0  0.50518  0.05578  0.65822  1.0000
  H   H730      1.0  0.58424  0.15581  0.65974  1.0000
  C   C407      1.0  0.47186  0.16605  0.57280  1.0000
  H   H731      1.0  0.61931  0.01824  0.61513  1.0000
  C   C408      1.0  0.63585  0.04844  0.95275  1.0000
  H   H732      1.0  0.57024  0.13311  0.56759  1.0000
  H   H733      1.0  0.47609  0.10330  0.50223  1.0000
  H   H734      1.0  0.58411  0.17143  0.61698  1.0000
  C   C409      1.0  0.34036  0.10157  0.83158  1.0000
  C   C410      1.0  0.65283  0.04872  0.92091  1.0000
  H   H735      1.0  0.61023  0.03039  0.79762  1.0000
  C   C411      1.0  0.66300  0.03195  0.84242  1.0000
  C   C412      1.0  0.57523  0.01217  0.66586  1.0000
  H   H736      1.0  0.61787  0.04600  0.52956  1.0000
  C   C413      1.0  0.33770  0.00847  0.55032  1.0000
  H   H737      1.0  0.61998  0.04037  0.94441  1.0000
  H   H738      1.0  0.45740  0.07998  0.50374  1.0000
  H   H739      1.0  0.64373  0.03890  0.97658  1.0000
  C   C414      1.0  0.53395  0.13206  0.52536  1.0000
  N   N23       1.0  0.34428  0.00789  0.59030  1.0000
  H   H740      1.0  0.42659  0.10489  0.53133  1.0000
  C   C415      1.0  0.63074  0.00623  0.59889  1.0000
  C   C416      1.0  0.33195  0.02827  0.60878  1.0000
  C   C417      1.0  0.49457  0.00199  0.69561  1.0000
  H   H741      1.0  0.59657  0.12903  0.51372  1.0000
  H   H742      1.0  0.64096  0.00514  0.82521  1.0000
  H   H743      1.0  0.41318  0.01177  0.56190  1.0000
  C   C418      1.0  0.36981  0.00954  0.59504  1.0000
  H   H744      1.0  0.51995  0.12156  0.51570  1.0000
  H   H745      1.0  0.33399  0.02115  0.86015  1.0000
  H   H746      1.0  0.66400  0.02490  0.72545  1.0000
  H   H747      1.0  0.54755  0.16508  0.50938  1.0000
  H   H748      1.0  0.51667  0.16517  0.50733  1.0000
  C   C419      1.0  0.57929  0.00310  0.70099  1.0000
  C   C420      1.0  0.41937  0.00233  0.69065  1.0000
  C   C421      1.0  0.53294  0.15467  0.50253  1.0000
  H   H749      1.0  0.62841  0.00179  0.50320  1.0000
  H   H750      1.0  0.41625  0.99869  0.60685  1.0000
  C   C422      1.0  0.66012  0.00118  0.65024  1.0000
  C   C423      1.0  0.57773  0.99799  0.63526  1.0000
  H   H751      1.0  0.48110  0.99843  0.67527  1.0000
  Fe  Fe49      1.0  0.60658  0.90906  0.25688  1.0000
  S   S96       1.0  0.63946  0.89628  0.28433  1.0000
  S   S97       1.0  0.59385  0.94599  0.25223  1.0000
  Fe  Fe50      1.0  0.59207  0.86126  0.24135  1.0000
  S   S98       1.0  0.62407  0.84479  0.26714  1.0000
  S   S99       1.0  0.56692  0.83792  0.21709  1.0000
  Fe  Fe51      1.0  0.61785  0.87074  0.31220  1.0000
  S   S100      1.0  0.61081  0.86159  0.37195  1.0000
  Fe  Fe52      1.0  0.64240  0.87199  0.23637  1.0000
  H   H752      1.0  0.64270  0.93158  0.01122  1.0000
  S   S101      1.0  0.58472  0.88542  0.28733  1.0000
  S   S102      1.0  0.61064  0.88652  0.20774  1.0000
  Fe  Fe53      1.0  0.44533  0.86087  0.29973  1.0000
  S   S103      1.0  0.40945  0.85689  0.32111  1.0000
  S   S104      1.0  0.46901  0.82960  0.28943  1.0000
  Fe  Fe54      1.0  0.43906  0.91204  0.29701  1.0000
  S   S105      1.0  0.40285  0.91204  0.31706  1.0000
  S   S106      1.0  0.45508  0.94566  0.29045  1.0000
  Fe  Fe55      1.0  0.41665  0.88607  0.35881  1.0000
  S   S107      1.0  0.40905  0.89751  0.41766  1.0000
  Fe  Fe56      1.0  0.39914  0.88333  0.27727  1.0000
  S   S108      1.0  0.36640  0.88221  0.24254  1.0000
  S   S109      1.0  0.45323  0.88771  0.34027  1.0000
  S   S110      1.0  0.43465  0.88538  0.25416  1.0000
  C   C424      1.0  0.40936  0.88361  0.46122  1.0000
  C   C425      1.0  0.36516  0.96382  0.46678  1.0000
  C   C426      1.0  0.58203  0.97910  0.48293  1.0000
  H   H753      1.0  0.33279  0.92868  0.11418  1.0000
  C   C427      1.0  0.41105  0.85971  0.46541  1.0000
  C   C428      1.0  0.34211  0.94101  0.09746  1.0000
  C   C429      1.0  0.40559  0.76908  0.13122  1.0000
  C   C430      1.0  0.36292  0.87963  0.19418  1.0000
  C   C431      1.0  0.60454  0.96641  0.49733  1.0000
  H   H754      1.0  0.52276  0.97887  0.16562  1.0000
  C   C432      1.0  0.37834  0.87324  0.13275  1.0000
  C   C433      1.0  0.38161  0.87828  0.17008  1.0000
  C   C434      1.0  0.34074  0.87769  0.17976  1.0000
  H   H755      1.0  0.39305  0.87125  0.11472  1.0000
  H   H756      1.0  0.39865  0.88051  0.18040  1.0000
  H   H757      1.0  0.49048  0.97684  0.28549  1.0000
  H   H758      1.0  0.35417  0.95636  0.31234  1.0000
  H   H759      1.0  0.38672  0.96763  0.34949  1.0000
  C   C435      1.0  0.43260  0.96679  0.28491  1.0000
  C   C436      1.0  0.41186  0.96108  0.26944  1.0000
  C   C437      1.0  0.39318  0.97739  0.26748  1.0000
  H   H760      1.0  0.46682  0.89825  0.42092  1.0000
  H   H761      1.0  0.51825  0.96132  0.28681  1.0000
  H   H762      1.0  0.41019  0.94404  0.25883  1.0000
  H   H763      1.0  0.37703  0.97276  0.25605  1.0000
  C   C438      1.0  0.53944  0.83691  0.23686  1.0000
  C   C439      1.0  0.52760  0.85631  0.25194  1.0000
  C   C440      1.0  0.50553  0.85459  0.26731  1.0000
  C   C441      1.0  0.49563  0.83334  0.26821  1.0000
  C   C442      1.0  0.50753  0.81411  0.25304  1.0000
  C   C443      1.0  0.52912  0.81597  0.23693  1.0000
  H   H764      1.0  0.53533  0.87265  0.25143  1.0000
  H   H765      1.0  0.49638  0.86956  0.27888  1.0000
  H   H766      1.0  0.49999  0.79768  0.25364  1.0000
  H   H767      1.0  0.53808  0.80098  0.22508  1.0000
  C   C444      1.0  0.62345  0.87005  0.41348  1.0000
  C   C445      1.0  0.61132  0.86722  0.44633  1.0000
  C   C446      1.0  0.38182  0.81323  0.22929  1.0000
  H   H768      1.0  0.42113  0.80079  0.13942  1.0000
  C   C447      1.0  0.64543  0.87825  0.41496  1.0000
  H   H769      1.0  0.59435  0.86089  0.44558  1.0000
  H   H770      1.0  0.63896  0.94161  0.15535  1.0000
  H   H771      1.0  0.64206  0.87889  0.14687  1.0000
  H   H772      1.0  0.39049  0.75994  0.14051  1.0000
  H   H773      1.0  0.36533  0.98094  0.47970  1.0000
  C   C448      1.0  0.60577  0.96230  0.28645  1.0000
  C   C449      1.0  0.62821  0.95712  0.29906  1.0000
  C   C450      1.0  0.63787  0.97121  0.32497  1.0000
  H   H774      1.0  0.46579  0.94361  0.38955  1.0000
  H   H775      1.0  0.63858  0.94305  0.28752  1.0000
  H   H776      1.0  0.41629  0.98667  0.37541  1.0000
  H   H777      1.0  0.55157  0.97908  0.23690  1.0000
  H   H778      1.0  0.56599  0.79918  0.47438  1.0000
  C   C451      1.0  0.37674  0.99692  0.41261  1.0000
  C   C452      1.0  0.55642  0.96185  0.16942  1.0000
  H   H779      1.0  0.38886  0.94072  0.43697  1.0000
  H   H780      1.0  0.39771  0.77512  0.20212  1.0000
  H   H781      1.0  0.45703  0.97064  0.36812  1.0000
  H   H782      1.0  0.40393  0.77228  0.10126  1.0000
  H   H783      1.0  0.65383  0.92939  0.09558  1.0000
  C   C453      1.0  0.35622  0.87059  0.11855  1.0000
  H   H784      1.0  0.34530  0.97811  0.36967  1.0000
  H   H785      1.0  0.64040  0.77906  0.16819  1.0000
  N   N24       1.0  0.62510  0.80708  0.13492  1.0000
  C   C454      1.0  0.60875  0.79075  0.11936  1.0000
  H   H786      1.0  0.60381  0.91662  0.38479  1.0000
  H   H787      1.0  0.33415  0.80865  0.23278  1.0000
  C   C455      1.0  0.61311  0.83036  0.14166  1.0000
  C   C456      1.0  0.60001  0.84183  0.10853  1.0000
  C   C457      1.0  0.58620  0.78830  0.14138  1.0000
  H   H788      1.0  0.65321  0.98436  0.20833  1.0000
  C   C458      1.0  0.43365  0.78090  0.30603  1.0000
  H   H789      1.0  0.59636  0.93698  0.44199  1.0000
  C   C459      1.0  0.58821  0.86501  0.11902  1.0000
  C   C460      1.0  0.57080  0.77184  0.12253  1.0000
  C   C461      1.0  0.35146  0.96019  0.12131  1.0000
  H   H790      1.0  0.61732  0.77318  0.11755  1.0000
  H   H791      1.0  0.60410  0.79564  0.09063  1.0000
  H   H792      1.0  0.50041  0.96254  0.34745  1.0000
  C   C462      1.0  0.41016  0.84971  0.50073  1.0000
  H   H793      1.0  0.46113  0.96896  0.41728  1.0000
  H   H794      1.0  0.62011  0.79745  0.19158  1.0000
  H   H795      1.0  0.60097  0.82956  0.16496  1.0000
  H   H796      1.0  0.62563  0.84256  0.15073  1.0000
  H   H797      1.0  0.58649  0.83104  0.09839  1.0000
  H   H798      1.0  0.61194  0.84497  0.08564  1.0000
  H   H799      1.0  0.58998  0.78140  0.16930  1.0000
  H   H800      1.0  0.57609  0.80499  0.14408  1.0000
  C   C463      1.0  0.64428  0.80988  0.10783  1.0000
  C   C464      1.0  0.66213  0.79849  0.22419  1.0000
  H   H801      1.0  0.42879  0.76679  0.32448  1.0000
  H   H802      1.0  0.45094  0.99358  0.30938  1.0000
  C   C465      1.0  0.34601  0.99043  0.16716  1.0000
  H   H803      1.0  0.64695  0.82806  0.19614  1.0000
  C   C466      1.0  0.36341  0.81694  0.19893  1.0000
  H   H804      1.0  0.57609  0.86296  0.14215  1.0000
  H   H805      1.0  0.60115  0.87715  0.12695  1.0000
  H   H806      1.0  0.57834  0.87249  0.09527  1.0000
  H   H807      1.0  0.56587  0.77835  0.09474  1.0000
  H   H808      1.0  0.57972  0.75448  0.12032  1.0000
  H   H809      1.0  0.55486  0.77040  0.13884  1.0000
  C   C467      1.0  0.33735  0.87347  0.14218  1.0000
  H   H810      1.0  0.57737  0.97279  0.45557  1.0000
  H   H811      1.0  0.55069  0.94492  0.17848  1.0000
  N   N25       1.0  0.40649  0.80922  0.21690  1.0000
  C   C468      1.0  0.41371  0.83074  0.19819  1.0000
  H   H812      1.0  0.63722  0.81555  0.08068  1.0000
  C   C469      1.0  0.42122  0.80549  0.25078  1.0000
  C   C470      1.0  0.40960  0.78821  0.19302  1.0000
  C   C471      1.0  0.43979  0.83115  0.18957  1.0000
  H   H813      1.0  0.64203  0.99022  0.25285  1.0000
  C   C472      1.0  0.61097  0.93361  0.38838  1.0000
  C   C473      1.0  0.44451  0.84954  0.16101  1.0000
  H   H814      1.0  0.37086  0.93858  0.05907  1.0000
  H   H815      1.0  0.40913  0.84595  0.21563  1.0000
  H   H816      1.0  0.40403  0.83420  0.17242  1.0000
  H   H817      1.0  0.48864  0.87691  0.43601  1.0000
  C   C474      1.0  0.61342  0.93856  0.42917  1.0000
  H   H818      1.0  0.42082  0.82149  0.26718  1.0000
  H   H819      1.0  0.43955  0.80174  0.24301  1.0000
  H   H820      1.0  0.42716  0.77967  0.19652  1.0000
  H   H821      1.0  0.36127  0.97095  0.10243  1.0000
  H   H822      1.0  0.44928  0.83518  0.21481  1.0000
  H   H823      1.0  0.44705  0.81432  0.17955  1.0000
  H   H824      1.0  0.37416  0.91942  0.09840  1.0000
  C   C475      1.0  0.35359  0.96048  0.37174  1.0000
  H   H825      1.0  0.36729  0.83099  0.17986  1.0000
  H   H826      1.0  0.57554  0.98522  0.29094  1.0000
  H   H827      1.0  0.43568  0.84623  0.13482  1.0000
  H   H828      1.0  0.43857  0.86683  0.17106  1.0000
  H   H829      1.0  0.46329  0.84938  0.15580  1.0000
  H   H830      1.0  0.38015  0.82827  0.24803  1.0000
  H   H831      1.0  0.43563  0.79644  0.32281  1.0000
  H   H832      1.0  0.34924  0.96336  0.45047  1.0000
  C   C476      1.0  0.65826  0.86942  0.09557  1.0000
  C   C477      1.0  0.63077  0.99458  0.47522  1.0000
  H   H833      1.0  0.34630  0.95125  0.39515  1.0000
  H   H834      1.0  0.35829  0.98008  0.18505  1.0000
  H   H835      1.0  0.39066  0.80260  0.14395  1.0000
  H   H836      1.0  0.37635  0.79830  0.24532  1.0000
  H   H837      1.0  0.61016  0.97554  0.42099  1.0000
  H   H838      1.0  0.66253  0.95736  0.10578  1.0000
  H   H839      1.0  0.52586  0.97850  0.34760  1.0000
  C   C478      1.0  0.40648  0.79195  0.15101  1.0000
  C   C479      1.0  0.36405  0.94605  0.49766  1.0000
  H   H840      1.0  0.36453  0.95205  0.14046  1.0000
  H   H841      1.0  0.41251  0.84893  0.44148  1.0000
  C   C480      1.0  0.47131  0.89609  0.47979  1.0000
  H   H842      1.0  0.65078  0.77447  0.08825  1.0000
  N   N26       1.0  0.53884  0.84122  0.36897  1.0000
  C   C481      1.0  0.54737  0.82279  0.34255  1.0000
  C   C482      1.0  0.51312  0.84069  0.37409  1.0000
  C   C483      1.0  0.54362  0.86417  0.35209  1.0000
  C   C484      1.0  0.55133  0.83930  0.40517  1.0000
  C   C485      1.0  0.55065  0.81631  0.42635  1.0000
  C   C486      1.0  0.57336  0.82185  0.33312  1.0000
  C   C487      1.0  0.53249  0.88587  0.37125  1.0000
  C   C488      1.0  0.50274  0.81689  0.37427  1.0000
  H   H843      1.0  0.40163  0.96228  0.46188  1.0000
  C   C489      1.0  0.58013  0.80159  0.30827  1.0000
  C   C490      1.0  0.53904  0.90779  0.35175  1.0000
  H   H844      1.0  0.53772  0.82495  0.31631  1.0000
  H   H845      1.0  0.54377  0.80545  0.35265  1.0000
  H   H846      1.0  0.50778  0.84962  0.39974  1.0000
  H   H847      1.0  0.50383  0.85038  0.35143  1.0000
  H   H848      1.0  0.53790  0.86500  0.32305  1.0000
  H   H849      1.0  0.56242  0.86632  0.35149  1.0000
  H   H850      1.0  0.56965  0.84299  0.40146  1.0000
  H   H851      1.0  0.54432  0.85271  0.42427  1.0000
  H   H852      1.0  0.55570  0.80139  0.40892  1.0000
  H   H853      1.0  0.42095  0.98727  0.42358  1.0000
  H   H854      1.0  0.57774  0.83764  0.31833  1.0000
  H   H855      1.0  0.58404  0.81977  0.35819  1.0000
  H   H856      1.0  0.53833  0.88682  0.40003  1.0000
  H   H857      1.0  0.51344  0.88603  0.37099  1.0000
  H   H858      1.0  0.50275  0.81004  0.34597  1.0000
  H   H859      1.0  0.51250  0.80408  0.39164  1.0000
  H   H860      1.0  0.39884  0.79055  0.29193  1.0000
  H   H861      1.0  0.57348  0.96435  0.18173  1.0000
  C   C491      1.0  0.37998  0.96077  0.37567  1.0000
  H   H862      1.0  0.59873  0.80156  0.30166  1.0000
  H   H863      1.0  0.57693  0.78509  0.32210  1.0000
  H   H864      1.0  0.57031  0.80304  0.28223  1.0000
  H   H865      1.0  0.55795  0.90924  0.35295  1.0000
  H   H866      1.0  0.53349  0.90787  0.32262  1.0000
  H   H867      1.0  0.53047  0.92303  0.36528  1.0000
  H   H868      1.0  0.64303  0.87406  0.07951  1.0000
  C   C492      1.0  0.63420  0.79741  0.17097  1.0000
  C   C493      1.0  0.50846  0.97745  0.29484  1.0000
  H   H869      1.0  0.59924  0.94690  0.37485  1.0000
  C   C494      1.0  0.47134  0.88495  0.44215  1.0000
  C   C495      1.0  0.64342  0.87944  0.48203  1.0000
  C   C496      1.0  0.45499  0.95987  0.39298  1.0000
  H   H870      1.0  0.54598  0.98429  0.49761  1.0000
  H   H871      1.0  0.61883  0.98906  0.17283  1.0000
  C   C497      1.0  0.64535  0.95440  0.49045  1.0000
  C   C498      1.0  0.66043  0.78817  0.10065  1.0000
  H   H872      1.0  0.36209  0.80090  0.18328  1.0000
  H   H873      1.0  0.34122  0.95210  0.21193  1.0000
  C   C499      1.0  0.42988  0.95446  0.39775  1.0000
  H   H874      1.0  0.45849  0.87176  0.44093  1.0000
  C   C500      1.0  0.34721  0.94794  0.33700  1.0000
  H   H875      1.0  0.40654  0.91574  0.48985  1.0000
  H   H876      1.0  0.45042  0.77570  0.29304  1.0000
  H   H877      1.0  0.53317  0.81456  0.43756  1.0000
  H   H878      1.0  0.48475  0.90857  0.47961  1.0000
  H   H879      1.0  0.42157  0.75804  0.13632  1.0000
  C   C501      1.0  0.36176  0.92735  0.07813  1.0000
  H   H880      1.0  0.60320  0.99086  0.21565  1.0000
  H   H881      1.0  0.58522  0.81644  0.44930  1.0000
  H   H882      1.0  0.62551  0.92495  0.44080  1.0000
  C   C502      1.0  0.38709  0.95937  0.44303  1.0000
  H   H883      1.0  0.55834  0.96174  0.13917  1.0000
  C   C503      1.0  0.60241  0.99522  0.32638  1.0000
  H   H884      1.0  0.42509  0.94457  0.37342  1.0000
  H   H885      1.0  0.47710  0.82390  0.41705  1.0000
  H   H886      1.0  0.41296  0.76967  0.26174  1.0000
  C   C504      1.0  0.43493  0.98912  0.29733  1.0000
  C   C505      1.0  0.59288  0.98128  0.30032  1.0000
  H   H887      1.0  0.48953  0.98253  0.22492  1.0000
  H   H888      1.0  0.65995  0.91780  0.16171  1.0000
  H   H889      1.0  0.62803  0.93309  0.37475  1.0000
  H   H890      1.0  0.38673  0.94248  0.37646  1.0000
  C   C506      1.0  0.33967  0.82298  0.21540  1.0000
  H   H891      1.0  0.64781  0.79708  0.24398  1.0000
  H   H892      1.0  0.42884  0.94331  0.42236  1.0000
  C   C507      1.0  0.47785  0.81877  0.38784  1.0000
  H   H893      1.0  0.46729  0.83162  0.37129  1.0000
  N   N27       1.0  0.62572  0.96952  0.47461  1.0000
  H   H894      1.0  0.65502  0.88040  0.38994  1.0000
  N   N28       1.0  0.38889  0.97345  0.40807  1.0000
  H   H895      1.0  0.47030  0.80190  0.38523  1.0000
  S   S111      1.0  0.35329  0.86147  0.07237  1.0000
  H   H896      1.0  0.52678  0.96433  0.22837  1.0000
  H   H897      1.0  0.63860  0.96336  0.41970  1.0000
  C   C508      1.0  0.41502  0.78575  0.27699  1.0000
  C   C509      1.0  0.62222  0.96278  0.43525  1.0000
  H   H898      1.0  0.65508  0.82385  0.11639  1.0000
  C   C510      1.0  0.41402  0.97682  0.40128  1.0000
  C   C511      1.0  0.65759  0.87198  0.13384  1.0000
  C   C512      1.0  0.62510  0.99057  0.33796  1.0000
  C   C513      1.0  0.50811  0.97813  0.33665  1.0000
  H   H899      1.0  0.35816  0.99556  0.41807  1.0000
  H   H900      1.0  0.35477  0.91338  0.06207  1.0000
  H   H901      1.0  0.66079  0.95472  0.47252  1.0000
  H   H902      1.0  0.64109  0.93611  0.49098  1.0000
  H   H903      1.0  0.45442  0.90581  0.48329  1.0000
  H   H904      1.0  0.56289  0.83003  0.47776  1.0000
  C   C514      1.0  0.62114  0.87204  0.48036  1.0000
  C   C515      1.0  0.40745  0.89729  0.49271  1.0000
  H   H905      1.0  0.34265  0.93058  0.17693  1.0000
  C   C516      1.0  0.56720  0.81553  0.45891  1.0000
  H   H906      1.0  0.49761  0.99351  0.34623  1.0000
  C   C517      1.0  0.65544  0.88272  0.44916  1.0000
  C   C518      1.0  0.53468  0.98080  0.22255  1.0000
  H   H907      1.0  0.65544  0.96759  0.33391  1.0000
  C   C519      1.0  0.53897  0.98124  0.18061  1.0000
  H   H908      1.0  0.35403  0.92970  0.33814  1.0000
  C   C520      1.0  0.65353  0.81045  0.18892  1.0000
  N   N29       1.0  0.33370  0.97501  0.14190  1.0000
  C   C521      1.0  0.65750  0.93605  0.15279  1.0000
  H   H909      1.0  0.65858  0.99311  0.43406  1.0000
  H   H910      1.0  0.33985  0.83872  0.23222  1.0000
  H   H911      1.0  0.36330  0.92853  0.48623  1.0000
  Fe  Fe57      1.0  0.60573  0.92295  0.61425  1.0000
  S   S112      1.0  0.64384  0.91658  0.61365  1.0000
  S   S113      1.0  0.58944  0.95778  0.60087  1.0000
  Fe  Fe58      1.0  0.59754  0.87313  0.62666  1.0000
  S   S114      1.0  0.63555  0.86229  0.62657  1.0000
  S   S115      1.0  0.56807  0.85043  0.63579  1.0000
  Fe  Fe59      1.0  0.63929  0.89327  0.66242  1.0000
  H   H912      1.0  0.46656  0.83475  0.62700  1.0000
  Fe  Fe60      1.0  0.63685  0.88663  0.57795  1.0000
  C   C522      1.0  0.52927  0.95908  0.61146  1.0000
  S   S116      1.0  0.60126  0.90213  0.66506  1.0000
  S   S117      1.0  0.59889  0.89478  0.57586  1.0000
  Fe  Fe61      1.0  0.40618  0.86902  0.63062  1.0000
  S   S118      1.0  0.41956  0.90392  0.63158  1.0000
  S   S119      1.0  0.40600  0.85013  0.57601  1.0000
  Fe  Fe62      1.0  0.39851  0.86855  0.71482  1.0000
  S   S120      1.0  0.41211  0.90330  0.72089  1.0000
  S   S121      1.0  0.38741  0.84903  0.76594  1.0000
  Fe  Fe63      1.0  0.39099  0.91248  0.67112  1.0000
  H   H913      1.0  0.55184  0.88752  0.54405  1.0000
  Fe  Fe64      1.0  0.43975  0.89144  0.68113  1.0000
  S   S122      1.0  0.47561  0.90380  0.68875  1.0000
  S   S123      1.0  0.37553  0.87846  0.66672  1.0000
  S   S124      1.0  0.42813  0.85562  0.67837  1.0000
  C   C523      1.0  0.37000  0.86129  0.80186  1.0000
  C   C524      1.0  0.61322  0.82900  0.82025  1.0000
  H   H914      1.0  0.35134  0.84767  0.88810  1.0000
  H   H915      1.0  0.61810  0.81451  0.80197  1.0000
  C   C525      1.0  0.35813  0.88285  0.79814  1.0000
  H   H916      1.0  0.47640  0.81102  0.59864  1.0000
  H   H917      1.0  0.63737  0.99470  0.70733  1.0000
  H   H918      1.0  0.35986  0.89269  0.77315  1.0000
  C   C526      1.0  0.40768  0.86345  0.53217  1.0000
  H   H919      1.0  0.40460  0.89811  0.55178  1.0000
  H   H920      1.0  0.65368  0.97835  0.53471  1.0000
  H   H921      1.0  0.54737  0.80184  0.74969  1.0000
  C   C527      1.0  0.34094  0.87890  0.85910  1.0000
  C   C528      1.0  0.65815  0.97692  0.74838  1.0000
  C   C529      1.0  0.38923  0.96757  0.67996  1.0000
  C   C530      1.0  0.41283  0.96318  0.67446  1.0000
  C   C531      1.0  0.42783  0.98056  0.67962  1.0000
  C   C532      1.0  0.36741  0.84874  0.83459  1.0000
  C   C533      1.0  0.46744  0.82842  0.59846  1.0000
  H   H922      1.0  0.41958  0.94653  0.66559  1.0000
  H   H923      1.0  0.44585  0.97733  0.67388  1.0000
  C   C534      1.0  0.54185  0.86517  0.64854  1.0000
  C   C535      1.0  0.52222  0.85304  0.65510  1.0000
  C   C536      1.0  0.50156  0.86463  0.66691  1.0000
  C   C537      1.0  0.50054  0.88836  0.67243  1.0000
  C   C538      1.0  0.52011  0.90036  0.66566  1.0000
  C   C539      1.0  0.54052  0.88894  0.65321  1.0000
  H   H924      1.0  0.52308  0.83463  0.65153  1.0000
  H   H925      1.0  0.48664  0.85517  0.67274  1.0000
  H   H926      1.0  0.51951  0.91858  0.67014  1.0000
  H   H927      1.0  0.55521  0.89862  0.64741  1.0000
  C   C540      1.0  0.65218  0.95977  0.53038  1.0000
  H   H928      1.0  0.57310  0.92249  0.78110  1.0000
  H   H929      1.0  0.47975  0.83780  0.54559  1.0000
  H   H930      1.0  0.34641  0.97073  0.59255  1.0000
  H   H931      1.0  0.35502  0.97227  0.98112  1.0000
  H   H932      1.0  0.55209  0.91705  0.52934  1.0000
  C   C541      1.0  0.58483  0.97480  0.63968  1.0000
  C   C542      1.0  0.58869  0.96566  0.67486  1.0000
  C   C543      1.0  0.58557  0.97973  0.70554  1.0000
  H   H933      1.0  0.63926  0.80029  0.69177  1.0000
  H   H934      1.0  0.59436  0.94791  0.67853  1.0000
  H   H935      1.0  0.44975  0.82693  0.58808  1.0000
  C   C544      1.0  0.53378  0.96428  0.76118  1.0000
  H   H936      1.0  0.63124  0.97967  0.64020  1.0000
  H   H937      1.0  0.50130  0.98135  0.63042  1.0000
  H   H938      1.0  0.46509  0.95688  0.57406  1.0000
  H   H939      1.0  0.51398  0.86974  0.54972  1.0000
  H   H940      1.0  0.62290  0.97756  0.76839  1.0000
  N   N30       1.0  0.50760  0.98003  0.70781  1.0000
  C   C545      1.0  0.45843  0.94864  0.75634  1.0000
  H   H941      1.0  0.50018  0.95180  0.64395  1.0000
  H   H942      1.0  0.46280  0.98384  0.74273  1.0000
  H   H943      1.0  0.63393  0.81352  0.86461  1.0000
  H   H944      1.0  0.43982  0.94325  0.58987  1.0000
  H   H945      1.0  0.54346  0.91040  0.57538  1.0000
  H   H946      1.0  0.61293  0.89560  0.74197  1.0000
  H   H947      1.0  0.53967  0.97375  0.60453  1.0000
  H   H948      1.0  0.50985  0.92202  0.53590  1.0000
  H   H949      1.0  0.46058  0.95192  0.62228  1.0000
  H   H950      1.0  0.60156  0.86419  0.82035  1.0000
  H   H951      1.0  0.34265  0.99177  0.53716  1.0000
  H   H952      1.0  0.49855  0.84322  0.58323  1.0000
  H   H953      1.0  0.59846  0.85064  0.70635  1.0000
  H   H954      1.0  0.52820  0.81913  0.72034  1.0000
  H   H955      1.0  0.37143  0.98676  0.80442  1.0000
  H   H956      1.0  0.45889  0.86838  0.51067  1.0000
  H   H957      1.0  0.35304  0.98675  0.86754  1.0000
  H   H958      1.0  0.56802  0.82949  0.71176  1.0000
  C   C546      1.0  0.48039  0.84446  0.57387  1.0000
  C   C547      1.0  0.35313  0.85755  0.86319  1.0000
  H   H959      1.0  0.64884  0.83295  0.83610  1.0000
  H   H960      1.0  0.59713  0.82499  0.83460  1.0000
  H   H961      1.0  0.61805  0.82006  0.67065  1.0000
  H   H962      1.0  0.35506  0.95152  0.92097  1.0000
  H   H963      1.0  0.49017  0.92385  0.59598  1.0000
  H   H964      1.0  0.66113  0.99350  0.76154  1.0000
  C   C548      1.0  0.64384  0.98906  0.62432  1.0000
  H   H965      1.0  0.53247  0.95426  0.68683  1.0000
  C   C549      1.0  0.53981  0.81954  0.74441  1.0000
  C   C550      1.0  0.35885  0.97444  0.79562  1.0000
  H   H966      1.0  0.61178  0.86925  0.50538  1.0000
  H   H967      1.0  0.49973  0.94523  0.72210  1.0000
  H   H968      1.0  0.47301  0.87500  0.60483  1.0000
  H   H969      1.0  0.52938  0.82547  0.76841  1.0000
  N   N31       1.0  0.47964  0.88640  0.54912  1.0000
  S   S125      1.0  0.65702  0.88393  0.52462  1.0000
  H   H970      1.0  0.63901  0.95388  0.54968  1.0000
  H   H971      1.0  0.53741  0.98236  0.67297  1.0000
  C   C551      1.0  0.47011  0.86971  0.57620  1.0000
  H   H972      1.0  0.53506  0.98157  0.81381  1.0000
  H   H973      1.0  0.54996  0.85291  0.73019  1.0000
  C   C552      1.0  0.38076  0.98917  0.69210  1.0000
  C   C553      1.0  0.54282  0.90484  0.54641  1.0000
  C   C554      1.0  0.34479  0.95718  0.97654  1.0000
  H   H974      1.0  0.65383  0.97662  0.60678  1.0000
  C   C555      1.0  0.51164  0.96606  0.64088  1.0000
  N   N32       1.0  0.59452  0.85288  0.76527  1.0000
  H   H975      1.0  0.44830  0.90820  0.55238  1.0000
  H   H976      1.0  0.54081  0.94427  0.62092  1.0000
  H   H977      1.0  0.56070  0.98313  0.78624  1.0000
  H   H978      1.0  0.47958  0.95953  0.69283  1.0000
  C   C556      1.0  0.65152  0.98083  0.70742  1.0000
  H   H979      1.0  0.56487  0.84175  0.79417  1.0000
  H   H980      1.0  0.57718  0.92130  0.73204  1.0000
  H   H981      1.0  0.56963  0.88014  0.78164  1.0000
  H   H982      1.0  0.63576  0.94913  0.75796  1.0000
  H   H983      1.0  0.62283  0.85955  0.72912  1.0000
  C   C557      1.0  0.63206  0.83004  0.84920  1.0000
  C   C558      1.0  0.40659  0.88733  0.52794  1.0000
  C   C559      1.0  0.41068  0.99598  0.57822  1.0000
  H   H984      1.0  0.60846  0.89707  0.79036  1.0000
  H   H985      1.0  0.46876  0.93267  0.76425  1.0000
  C   C560      1.0  0.49068  0.96236  0.71679  1.0000
  C   C561      1.0  0.52178  0.98525  0.74086  1.0000
  H   H986      1.0  0.52035  0.95407  0.58622  1.0000
  C   C562      1.0  0.63894  0.96616  0.76955  1.0000
  H   H987      1.0  0.47172  0.92226  0.53400  1.0000
  H   H988      1.0  0.33423  0.90799  0.82289  1.0000
  C   C563      1.0  0.54690  0.97197  0.79466  1.0000
  H   H989      1.0  0.62775  0.84406  0.86891  1.0000
  H   H990      1.0  0.37927  0.94643  0.51589  1.0000
  H   H991      1.0  0.36259  0.99241  0.69736  1.0000
  H   H992      1.0  0.45108  0.86970  0.57316  1.0000
  C   C564      1.0  0.51797  0.90439  0.53342  1.0000
  H   H993      1.0  0.59794  0.93410  0.76049  1.0000
  C   C565      1.0  0.55867  0.83586  0.73650  1.0000
  H   H994      1.0  0.58206  0.81896  0.77488  1.0000
  H   H995      1.0  0.57478  0.87901  0.73357  1.0000
  H   H996      1.0  0.34850  0.95739  0.86195  1.0000
  C   C566      1.0  0.63143  0.81816  0.69236  1.0000
  H   H997      1.0  0.38085  0.98752  0.54828  1.0000
  H   H998      1.0  0.48352  0.97112  0.77472  1.0000
  C   C567      1.0  0.60936  0.85227  0.79938  1.0000
  H   H999      1.0  0.64515  0.82996  0.68657  1.0000
  H   H1000     1.0  0.38426  0.97381  0.59254  1.0000
  H   H1001     1.0  0.48886  0.86504  0.50227  1.0000
  H   H1002     1.0  0.60876  0.80966  0.73539  1.0000
  H   H1003     1.0  0.44631  0.95337  0.77893  1.0000
  H   H1004     1.0  0.61987  0.99701  0.57980  1.0000
  H   H1005     1.0  0.64315  0.96535  0.69780  1.0000
  H   H1006     1.0  0.37650  0.83207  0.83778  1.0000
  H   H1007     1.0  0.52119  0.95224  0.77107  1.0000
  C   C568      1.0  0.57533  0.83688  0.76953  1.0000
  C   C569      1.0  0.33624  0.97844  0.81659  1.0000
  H   H1008     1.0  0.58857  0.97266  0.73267  1.0000
  C   C570      1.0  0.60890  0.84753  0.73166  1.0000
  C   C571      1.0  0.47405  0.96820  0.74907  1.0000
  C   C572      1.0  0.46720  0.90963  0.55515  1.0000
  S   S126      1.0  0.37037  0.94634  0.67026  1.0000
  C   C573      1.0  0.58340  0.87692  0.76074  1.0000
  H   H1009     1.0  0.60704  0.97274  0.52562  1.0000
  C   C574      1.0  0.62089  0.82307  0.72998  1.0000
  C   C575      1.0  0.45848  0.94478  0.59452  1.0000
  C   C576      1.0  0.59961  0.89690  0.76350  1.0000
  H   H1010     1.0  0.46596  0.91080  0.61517  1.0000
  C   C577      1.0  0.47167  0.92128  0.59216  1.0000
  C   C578      1.0  0.50512  0.88673  0.55594  1.0000
  H   H1011     1.0  0.44819  0.94521  0.73158  1.0000
  C   C579      1.0  0.58606  0.92009  0.75896  1.0000
  H   H1012     1.0  0.50853  0.88930  0.58560  1.0000
  H   H1013     1.0  0.54628  0.95485  0.74298  1.0000
  H   H1014     1.0  0.62652  0.85870  0.79291  1.0000
  H   H1015     1.0  0.55491  0.95677  0.80942  1.0000
  H   H1016     1.0  0.63519  0.82144  0.75009  1.0000
  C   C580      1.0  0.52342  0.97074  0.67799  1.0000
  C   C581      1.0  0.33871  0.95510  0.93604  1.0000
  H   H1017     1.0  0.66402  0.93046  0.97490  1.0000
  C   C582      1.0  0.34359  0.89148  0.82646  1.0000
  H   H1018     1.0  0.55939  0.95696  0.51222  1.0000
  H   H1019     1.0  0.36632  0.95660  0.80007  1.0000
  C   C583      1.0  0.56198  0.97553  0.50888  1.0000
  H   H1020     1.0  0.34835  0.94982  0.51434  1.0000
  H   H1021     1.0  0.53560  0.99648  0.73293  1.0000
  H   H1022     1.0  0.65109  0.90469  0.98946  1.0000
  H   H1023     1.0  0.42167  0.98163  0.56648  1.0000
  H   H1024     1.0  0.64400  0.96362  0.79867  1.0000
  H   H1025     1.0  0.34408  0.98389  0.63570  1.0000
  H   H1026     1.0  0.35517  0.94153  0.98574  1.0000
  C   C584      1.0  0.34000  0.97494  0.85844  1.0000
  C   C585      1.0  0.47492  0.87784  0.51092  1.0000
  H   H1027     1.0  0.51854  0.89941  0.50420  1.0000
  H   H1028     1.0  0.56531  0.98289  0.53617  1.0000
  H   H1029     1.0  0.35568  0.97697  0.76581  1.0000
  H   H1030     1.0  0.33738  0.99149  0.92667  1.0000
  C   C586      1.0  0.38551  0.99022  0.57722  1.0000
  H   H1031     1.0  0.65027  0.98124  0.86905  1.0000
  H   H1032     1.0  0.51119  0.99543  0.76112  1.0000
  C   C587      1.0  0.33772  0.98558  0.60704  1.0000
  S   S127      1.0  0.65825  0.90175  0.71524  1.0000
  H   H1033     1.0  0.41103  0.83121  0.50371  1.0000
  H   H1034     1.0  0.60166  0.94785  0.50096  1.0000
  C   C588      1.0  0.65735  0.92118  0.99896  1.0000
  Fe  Fe65      1.0  0.88252  0.25856  0.05782  1.0000
  S   S128      1.0  0.89078  0.26524  0.11824  1.0000
  S   S129      1.0  0.88640  0.22093  0.04359  1.0000
  Fe  Fe66      1.0  0.69738  0.07999  0.06228  1.0000
  S   S130      1.0  0.73272  0.06294  0.05132  1.0000
  C   C589      1.0  0.87794  0.46210  0.41060  1.0000
  Fe  Fe67      1.0  0.89106  0.34818  0.29278  1.0000
  S   S131      1.0  0.92280  0.36734  0.28348  1.0000
  S   S132      1.0  0.86962  0.34105  0.24187  1.0000
  Fe  Fe68      1.0  0.89885  0.34567  0.37710  1.0000
  S   S133      1.0  0.93110  0.36394  0.37254  1.0000
  S   S134      1.0  0.89155  0.33113  0.43411  1.0000
  Fe  Fe69      1.0  0.91179  0.38779  0.33299  1.0000
  S   S135      1.0  0.91952  0.42481  0.34253  1.0000
  Fe  Fe70      1.0  0.93900  0.34203  0.32373  1.0000
  S   S136      1.0  0.97446  0.32597  0.31415  1.0000
  S   S137      1.0  0.87845  0.37087  0.34020  1.0000
  S   S138      1.0  0.90823  0.32148  0.33040  1.0000
  C   C590      1.0  0.91176  0.44670  0.31047  1.0000
  C   C591      1.0  0.92349  0.46684  0.31134  1.0000
  C   C592      1.0  0.88536  0.44111  0.43420  1.0000
  C   C593      1.0  0.89369  0.44506  0.28565  1.0000
  H   H1035     1.0  0.93757  0.46814  0.33025  1.0000
  H   H1036     1.0  0.88456  0.42954  0.28474  1.0000
  C   C594      1.0  0.89216  0.34620  0.47613  1.0000
  H   H1037     1.0  0.81434  0.29730  0.48833  1.0000
  H   H1038     1.0  0.98108  0.31711  0.07652  1.0000
  H   H1039     1.0  0.92556  0.31837  0.02963  1.0000
  H   H1040     1.0  0.92154  0.34472  0.20090  1.0000
  H   H1041     1.0  0.86838  0.37399  0.45901  1.0000
  H   H1042     1.0  0.88742  0.48371  0.45597  1.0000
  C   C595      1.0  0.80877  0.18191  0.01000  1.0000
  C   C596      1.0  0.99122  0.49103  0.23157  1.0000
  C   C597      1.0  0.98475  0.37052  0.32206  1.0000
  H   H1043     1.0  0.73461  0.03597  0.17106  1.0000
  H   H1044     1.0  0.96648  0.37472  0.32348  1.0000
  C   C598      1.0  0.88524  0.28737  0.15113  1.0000
  C   C599      1.0  0.86823  0.30523  0.14620  1.0000
  C   C600      1.0  0.86383  0.32161  0.17404  1.0000
  C   C601      1.0  0.87652  0.32057  0.20694  1.0000
  C   C602      1.0  0.89381  0.30297  0.21151  1.0000
  C   C603      1.0  0.89801  0.28644  0.18391  1.0000
  H   H1045     1.0  0.85813  0.30617  0.12134  1.0000
  H   H1046     1.0  0.85037  0.33511  0.17024  1.0000
  H   H1047     1.0  0.90355  0.30177  0.23675  1.0000
  H   H1048     1.0  0.91094  0.27256  0.18846  1.0000
  C   C604      1.0  0.99490  0.34489  0.02510  1.0000
  Fe  Fe71      1.0  0.85558  0.22780  0.00655  1.0000
  H   H1049     1.0  0.97844  0.45946  0.33036  1.0000
  C   C605      1.0  0.81052  0.14000  0.00561  1.0000
  C   C606      1.0  0.66532  0.02778  0.26593  1.0000
  H   H1050     1.0  0.93810  0.28590  0.06716  1.0000
  C   C607      1.0  0.88181  0.33248  0.03981  1.0000
  H   H1051     1.0  0.94657  0.41451  0.24623  1.0000
  H   H1052     1.0  0.68753  0.10692  0.16034  1.0000
  H   H1053     1.0  0.99769  0.36162  0.01163  1.0000
  C   C608      1.0  0.82331  0.31337  0.49154  1.0000
  N   N33       1.0  0.82232  0.22052  0.13206  1.0000
  C   C609      1.0  0.81223  0.24179  0.11250  1.0000
  C   C610      1.0  0.84187  0.22642  0.15676  1.0000
  C   C611      1.0  0.83204  0.20421  0.10307  1.0000
  C   C612      1.0  0.80435  0.20834  0.15298  1.0000
  C   C613      1.0  0.79118  0.22225  0.18307  1.0000
  C   C614      1.0  0.79088  0.23854  0.08822  1.0000
  C   C615      1.0  0.84833  0.18369  0.11675  1.0000
  C   C616      1.0  0.83924  0.24954  0.17760  1.0000
  H   H1054     1.0  0.94785  0.30252  0.22301  1.0000
  C   C617      1.0  0.77047  0.20985  0.19663  1.0000
  C   C618      1.0  0.78447  0.26010  0.06540  1.0000
  C   C619      1.0  0.85359  0.16646  0.08612  1.0000
  H   H1055     1.0  0.82574  0.24926  0.09529  1.0000
  H   H1056     1.0  0.80673  0.25558  0.13187  1.0000
  H   H1057     1.0  0.84573  0.21230  0.17703  1.0000
  H   H1058     1.0  0.85793  0.22771  0.14041  1.0000
  H   H1059     1.0  0.84192  0.21362  0.08233  1.0000
  H   H1060     1.0  0.81798  0.19669  0.08760  1.0000
  H   H1061     1.0  0.79157  0.20177  0.13372  1.0000
  H   H1062     1.0  0.81219  0.19273  0.16693  1.0000
  H   H1063     1.0  0.78471  0.23948  0.17311  1.0000
  H   H1064     1.0  0.80262  0.22409  0.20701  1.0000
  H   H1065     1.0  0.79381  0.22415  0.06901  1.0000
  H   H1066     1.0  0.77586  0.23504  0.10559  1.0000
  H   H1067     1.0  0.84075  0.17431  0.13978  1.0000
  H   H1068     1.0  0.86498  0.18979  0.12601  1.0000
  H   H1069     1.0  0.84239  0.26385  0.15834  1.0000
  H   H1070     1.0  0.82198  0.25322  0.18940  1.0000
  C   C620      1.0  0.97063  0.34546  0.04119  1.0000
  C   C621      1.0  0.83390  0.31895  0.45454  1.0000
  H   H1071     1.0  0.96296  0.33784  0.12254  1.0000
  H   H1072     1.0  0.76170  0.21986  0.21893  1.0000
  H   H1073     1.0  0.75795  0.20811  0.17406  1.0000
  H   H1074     1.0  0.77602  0.19251  0.20753  1.0000
  S   S139      1.0  0.82142  0.20923  0.00806  1.0000
  Fe  Fe72      1.0  0.73917  0.09524  0.01785  1.0000
  C   C622      1.0  0.94160  0.29635  0.09162  1.0000
  H   H1075     1.0  0.86642  0.15280  0.09574  1.0000
  H   H1076     1.0  0.83772  0.15826  0.07808  1.0000
  H   H1077     1.0  0.86069  0.17508  0.06176  1.0000
  H   H1078     1.0  0.88400  0.31964  0.01759  1.0000
  C   C623      1.0  0.98991  0.26137  0.01140  1.0000
  C   C624      1.0  0.87400  0.48413  0.43425  1.0000
  H   H1079     1.0  0.86168  0.45846  0.39656  1.0000
  H   H1080     1.0  0.82043  0.31989  0.43299  1.0000
  H   H1081     1.0  0.94993  0.25000  0.10758  1.0000
  H   H1082     1.0  0.70924  0.05459  0.17935  1.0000
  C   C625      1.0  0.71391  0.00124  0.08190  1.0000
  C   C626      1.0  0.91703  0.48541  0.28809  1.0000
  C   C627      1.0  0.96273  0.28416  0.11124  1.0000
  H   H1083     1.0  0.71688  0.00310  0.19814  1.0000
  C   C628      1.0  0.96937  0.25045  0.00638  1.0000
  H   H1084     1.0  0.67428  0.02996  0.44928  1.0000
  H   H1085     1.0  0.67397  0.03668  0.19913  1.0000
  C   C629      1.0  0.93097  0.33088  0.14760  1.0000
  H   H1086     1.0  0.94865  0.35345  0.18400  1.0000
  C   C630      1.0  0.96582  0.29546  0.22720  1.0000
  H   H1087     1.0  0.90233  0.44329  0.44703  1.0000
  H   H1088     1.0  0.91292  0.32794  0.14119  1.0000
  H   H1089     1.0  0.67755  0.00912  0.17973  1.0000
  C   C631      1.0  0.95675  0.26141  0.12860  1.0000
  H   H1090     1.0  0.85750  0.48184  0.44886  1.0000
  H   H1091     1.0  0.78091  0.27519  0.08332  1.0000
  H   H1092     1.0  0.88334  0.34993  0.02805  1.0000
  H   H1093     1.0  0.98262  0.46876  0.39746  1.0000
  H   H1094     1.0  0.99293  0.40551  0.32840  1.0000
  H   H1095     1.0  0.85582  0.26743  0.22104  1.0000
  H   H1096     1.0  0.89609  0.34041  0.09156  1.0000
  H   H1097     1.0  0.95186  0.39235  0.48087  1.0000
  H   H1098     1.0  0.99260  0.49603  0.34726  1.0000
  C   C632      1.0  0.68189  0.01905  0.20442  1.0000
  C   C633      1.0  0.70842  0.02034  0.20352  1.0000
  H   H1099     1.0  0.67171  0.11962  0.22079  1.0000
  H   H1100     1.0  0.96937  0.42080  0.21506  1.0000
  C   C634      1.0  0.68541  0.04135  0.28002  1.0000
  C   C635      1.0  0.67763  0.05725  0.31113  1.0000
  C   C636      1.0  0.71557  0.03664  0.17321  1.0000
  C   C637      1.0  0.96514  0.41760  0.24423  1.0000
  H   H1101     1.0  0.70251  0.01721  0.08423  1.0000
  H   H1102     1.0  0.89104  0.46368  0.38896  1.0000
  H   H1103     1.0  0.72381  0.00237  0.05605  1.0000
  H   H1104     1.0  0.79862  0.26359  0.04615  1.0000
  S   S140      1.0  0.77421  0.11202  0.01491  1.0000
  H   H1105     1.0  0.96793  0.29092  0.25668  1.0000
  H   H1106     1.0  0.87240  0.46292  0.24452  1.0000
  C   C638      1.0  0.94490  0.33695  0.11297  1.0000
  H   H1107     1.0  0.95849  0.34967  0.01833  1.0000
  H   H1108     1.0  0.93922  0.35484  0.10460  1.0000
  H   H1109     1.0  0.71545  0.02643  0.22949  1.0000
  H   H1110     1.0  0.97672  0.28009  0.09124  1.0000
  C   C639      1.0  0.87794  0.36615  0.48179  1.0000
  C   C640      1.0  0.89961  0.32736  0.07006  1.0000
  C   C641      1.0  0.93086  0.34998  0.17597  1.0000
  H   H1111     1.0  0.69981  0.02991  0.29077  1.0000
  H   H1112     1.0  0.69167  0.05234  0.25764  1.0000
  H   H1113     1.0  0.94366  0.26441  0.15039  1.0000
  H   H1114     1.0  0.81024  0.32738  0.49789  1.0000
  H   H1115     1.0  0.98042  0.31661  0.18615  1.0000
  C   C642      1.0  0.67305  0.09879  0.17204  1.0000
  H   H1116     1.0  0.87240  0.43827  0.45580  1.0000
  C   C643      1.0  0.89821  0.48437  0.26462  1.0000
  H   H1117     1.0  0.89669  0.31009  0.08100  1.0000
  H   H1118     1.0  0.97716  0.32951  0.23029  1.0000
  H   H1119     1.0  0.93861  0.31498  0.16078  1.0000
  C   C644      1.0  0.96593  0.32197  0.05886  1.0000
  C   C645      1.0  0.88684  0.46395  0.26290  1.0000
  H   H1120     1.0  0.96873  0.27968  0.21065  1.0000
  H   H1121     1.0  0.96946  0.29512  0.13280  1.0000
  S   S141      1.0  0.67452  0.07003  0.11076  1.0000
  S   S142      1.0  0.85099  0.26539  0.02268  1.0000
  H   H1122     1.0  0.85273  0.23742  0.23052  1.0000
  H   H1123     1.0  0.87435  0.24593  0.19854  1.0000
  H   H1124     1.0  0.97238  0.25258  0.14100  1.0000
  H   H1125     1.0  0.76883  0.25749  0.04901  1.0000
  H   H1126     1.0  0.96467  0.43416  0.29585  1.0000
  N   N34       1.0  0.94391  0.32108  0.08055  1.0000
  N   N35       1.0  0.67151  0.00913  0.23857  1.0000
  H   H1127     1.0  0.92188  0.36598  0.16502  1.0000
  C   C646      1.0  0.98253  0.31335  0.21586  1.0000
  H   H1128     1.0  0.92545  0.34691  0.04656  1.0000
  C   C647      1.0  0.85663  0.25003  0.20883  1.0000
  H   H1129     1.0  0.86424  0.33157  0.05128  1.0000
  H   H1130     1.0  0.95915  0.45321  0.25714  1.0000
  H   H1131     1.0  0.92653  0.29471  0.10955  1.0000
  C   C648      1.0  0.97009  0.43828  0.26759  1.0000
  H   H1132     1.0  0.92163  0.39978  0.47455  1.0000
  H   H1133     1.0  0.91834  0.48410  0.40989  1.0000
  C   C649      1.0  0.98970  0.48571  0.27301  1.0000
  H   H1134     1.0  0.68213  0.16216  0.00934  1.0000
  C   C650      1.0  0.93536  0.39638  0.49540  1.0000
  C   C651      1.0  0.92433  0.32870  0.05513  1.0000
  H   H1135     1.0  0.97123  0.48559  0.28079  1.0000
  H   H1136     1.0  0.77500  0.19722  0.02251  1.0000
  C   C652      1.0  0.82138  0.16101  0.00390  1.0000
  H   H1137     1.0  0.96630  0.30916  0.03643  1.0000
  H   H1138     1.0  0.72608  0.00023  0.10533  1.0000
  H   H1139     1.0  0.96893  0.35944  0.06160  1.0000
  H   H1140     1.0  0.84160  0.33582  0.45550  1.0000
  H   H1141     1.0  0.69217  0.06715  0.32026  1.0000
  C   C653      1.0  0.99717  0.46077  0.32634  1.0000
  S   S143      1.0  0.70455  0.11287  0.03196  1.0000
  H   H1142     1.0  0.99005  0.27618  0.02876  1.0000
  H   H1143     1.0  0.75616  0.16020  0.02614  1.0000
  H   H1144     1.0  0.88708  0.42561  0.41666  1.0000
  S   S144      1.0  0.90602  0.26882  0.01261  1.0000
  H   H1145     1.0  0.87448  0.49456  0.35838  1.0000
  C   C654      1.0  0.77424  0.16025  0.01960  1.0000
  H   H1146     1.0  0.84740  0.30550  0.44684  1.0000
  H   H1147     1.0  0.97519  0.40194  0.25422  1.0000
  C   C655      1.0  0.99335  0.34779  0.31771  1.0000
  H   H1148     1.0  0.98615  0.47652  0.21474  1.0000
  H   H1149     1.0  0.84681  0.49505  0.37884  1.0000
  C   C656      1.0  0.78686  0.13935  0.01337  1.0000
  H   H1150     1.0  0.67162  0.04718  0.33481  1.0000
  H   H1151     1.0  0.71203  0.16603  0.01809  1.0000
  H   H1152     1.0  0.95390  0.25686  0.02006  1.0000
  S   S145      1.0  0.68269  0.06512  0.01164  1.0000
  H   H1153     1.0  0.70842  0.03186  0.14642  1.0000
  C   C657      1.0  0.78508  0.18128  0.01776  1.0000
  H   H1154     1.0  0.99732  0.33113  0.00433  1.0000
  C   C658      1.0  0.99595  0.44312  0.26618  1.0000
  H   H1155     1.0  0.91177  0.49727  0.36567  1.0000
  H   H1156     1.0  0.82061  0.12406  0.00083  1.0000
  H   H1157     1.0  0.90051  0.42263  0.52225  1.0000
  H   H1158     1.0  0.74850  0.04578  0.83766  1.0000
  H   H1159     1.0  0.85407  0.32381  0.51873  1.0000
  H   H1160     1.0  0.98602  0.27878  0.88291  1.0000
  H   H1161     1.0  0.67889  0.03625  0.68708  1.0000
  H   H1162     1.0  0.92240  0.31186  0.95756  1.0000
  Fe  Fe73      1.0  0.87515  0.27223  0.97560  1.0000
  S   S146      1.0  0.87602  0.30377  0.93778  1.0000
  S   S147      1.0  0.87784  0.23551  0.95754  1.0000
  Fe  Fe74      1.0  0.69255  0.09597  0.98051  1.0000
  S   S148      1.0  0.72695  0.07967  0.96520  1.0000
  C   C659      1.0  0.93964  0.42470  0.61487  1.0000
  C   C660      1.0  0.95085  0.30828  0.79608  1.0000
  H   H1163     1.0  0.92270  0.28049  0.90841  1.0000
  N   N36       1.0  0.95234  0.26514  0.87933  1.0000
  H   H1164     1.0  0.86645  0.46307  0.66769  1.0000
  H   H1165     1.0  0.69240  0.05203  0.74469  1.0000
  H   H1166     1.0  0.86763  0.45692  0.54434  1.0000
  Fe  Fe75      1.0  0.89560  0.33913  0.72444  1.0000
  S   S149      1.0  0.93006  0.35178  0.73764  1.0000
  S   S150      1.0  0.87974  0.31305  0.76273  1.0000
  Fe  Fe76      1.0  0.89527  0.36120  0.64626  1.0000
  S   S151      1.0  0.92978  0.37435  0.65493  1.0000
  S   S152      1.0  0.87884  0.37420  0.59238  1.0000
  Fe  Fe77      1.0  0.93956  0.34052  0.68109  1.0000
  S   S153      1.0  0.97443  0.32409  0.66900  1.0000
  Fe  Fe78      1.0  0.91716  0.38480  0.71039  1.0000
  S   S154      1.0  0.92952  0.41845  0.72978  1.0000
  S   S155      1.0  0.90604  0.32586  0.66819  1.0000
  S   S156      1.0  0.88147  0.37351  0.70124  1.0000
  C   C661      1.0  0.91638  0.44319  0.70871  1.0000
  C   C662      1.0  0.92819  0.46334  0.70666  1.0000
  H   H1167     1.0  0.84665  0.29282  0.61206  1.0000
  C   C663      1.0  0.89423  0.44308  0.69413  1.0000
  H   H1168     1.0  0.94531  0.46350  0.71801  1.0000
  H   H1169     1.0  0.88495  0.42767  0.69588  1.0000
  C   C664      1.0  0.88591  0.36419  0.54768  1.0000
  H   H1170     1.0  0.94746  0.29624  0.77363  1.0000
  H   H1171     1.0  0.88693  0.49013  0.55881  1.0000
  C   C665      1.0  0.98716  0.36687  0.68697  1.0000
  H   H1172     1.0  0.99734  0.40062  0.70013  1.0000
  H   H1173     1.0  0.84899  0.33974  0.57562  1.0000
  H   H1174     1.0  0.97026  0.36993  0.69868  1.0000
  H   H1175     1.0  0.70031  0.02366  0.76229  1.0000
  C   C666      1.0  0.87892  0.30516  0.88912  1.0000
  C   C667      1.0  0.87341  0.28713  0.86646  1.0000
  C   C668      1.0  0.87420  0.28972  0.82796  1.0000
  C   C669      1.0  0.88086  0.31016  0.81148  1.0000
  C   C670      1.0  0.88724  0.32785  0.83418  1.0000
  C   C671      1.0  0.88609  0.32541  0.87269  1.0000
  H   H1176     1.0  0.86770  0.27152  0.87855  1.0000
  H   H1177     1.0  0.86916  0.27592  0.81079  1.0000
  H   H1178     1.0  0.89227  0.34373  0.82206  1.0000
  H   H1179     1.0  0.89031  0.33952  0.88985  1.0000
  H   H1180     1.0  0.94456  0.26449  0.82115  1.0000
  C   C672      1.0  0.68235  0.09324  0.83482  1.0000
  C   C673      1.0  0.87637  0.30003  0.58096  1.0000
  H   H1181     1.0  0.87798  0.31674  0.59459  1.0000
  C   C674      1.0  0.94166  0.27790  0.91159  1.0000
  C   C675      1.0  0.91495  0.42231  0.54222  1.0000
  H   H1182     1.0  0.90122  0.46198  0.51486  1.0000
  H   H1183     1.0  0.94909  0.23172  0.90435  1.0000
  C   C676      1.0  0.69833  0.03426  0.73695  1.0000
  H   H1184     1.0  0.97147  0.36830  0.77701  1.0000
  C   C677      1.0  0.94326  0.24149  0.87931  1.0000
  N   N37       1.0  0.91363  0.44411  0.56421  1.0000
  H   H1185     1.0  0.89088  0.21584  0.87255  1.0000
  H   H1186     1.0  0.91033  0.28790  0.59996  1.0000
  C   C678      1.0  0.70260  0.14928  0.81837  1.0000
  C   C679      1.0  0.89230  0.44459  0.58761  1.0000
  H   H1187     1.0  0.80715  0.36744  0.61434  1.0000
  C   C680      1.0  0.86922  0.44394  0.56666  1.0000
  C   C681      1.0  0.84882  0.44838  0.59248  1.0000
  H   H1188     1.0  0.89289  0.42955  0.60663  1.0000
  H   H1189     1.0  0.89140  0.45990  0.60551  1.0000
  H   H1190     1.0  0.93224  0.46070  0.60669  1.0000
  H   H1191     1.0  0.91594  0.20587  0.89850  1.0000
  H   H1192     1.0  0.70694  0.13970  0.79288  1.0000
  H   H1193     1.0  0.86775  0.42671  0.55461  1.0000
  H   H1194     1.0  0.84954  0.43549  0.61516  1.0000
  H   H1195     1.0  0.84885  0.46589  0.60415  1.0000
  H   H1196     1.0  0.83250  0.44702  0.57723  1.0000
  H   H1197     1.0  0.96459  0.41270  0.65584  1.0000
  H   H1198     1.0  0.73076  0.06520  0.86544  1.0000
  H   H1199     1.0  0.79683  0.34308  0.56178  1.0000
  H   H1200     1.0  0.96271  0.32091  0.78563  1.0000
  H   H1201     1.0  0.83954  0.16098  0.99778  1.0000
  C   C682      1.0  0.83234  0.33183  0.57856  1.0000
  C   C683      1.0  0.90588  0.48817  0.55528  1.0000
  C   C684      1.0  0.80074  0.29435  0.60190  1.0000
  H   H1202     1.0  0.94868  0.29948  0.97806  1.0000
  H   H1203     1.0  0.70738  0.04250  0.82459  1.0000
  C   C685      1.0  0.99384  0.34560  0.67155  1.0000
  H   H1204     1.0  0.88261  0.30129  0.55239  1.0000
  H   H1205     1.0  0.88736  0.28064  0.63003  1.0000
  S   S157      1.0  0.94333  0.21681  0.97752  1.0000
  H   H1206     1.0  0.70114  0.09661  0.88546  1.0000
  H   H1207     1.0  0.81933  0.35497  0.53472  1.0000
  C   C686      1.0  0.73577  0.04682  0.86031  1.0000
  C   C687      1.0  0.90990  0.21593  0.87391  1.0000
  C   C688      1.0  0.98330  0.38140  0.78547  1.0000
  H   H1208     1.0  0.95006  0.44783  0.57226  1.0000
  H   H1209     1.0  0.82978  0.33043  0.60868  1.0000
  C   C689      1.0  0.68448  0.09825  0.87233  1.0000
  C   C690      1.0  0.98973  0.22250  0.96787  1.0000
  C   C691      1.0  0.81415  0.34975  0.56267  1.0000
  H   H1210     1.0  0.81180  0.28220  0.61883  1.0000
  H   H1211     1.0  0.79854  0.31103  0.61622  1.0000
  H   H1212     1.0  0.98539  0.24755  0.83042  1.0000
  H   H1213     1.0  0.91728  0.20761  0.84893  1.0000
  C   C692      1.0  0.97803  0.26219  0.88512  1.0000
  H   H1214     1.0  0.95036  0.23137  0.85576  1.0000
  C   C693      1.0  0.91806  0.48315  0.68941  1.0000
  C   C694      1.0  0.96909  0.23092  0.98459  1.0000
  H   H1215     1.0  0.81298  0.28002  0.55034  1.0000
  C   C695      1.0  0.94144  0.31102  0.95599  1.0000
  C   C696      1.0  0.91301  0.46442  0.53824  1.0000
  H   H1216     1.0  0.98677  0.37260  0.57695  1.0000
  H   H1217     1.0  0.93019  0.46580  0.52543  1.0000
  C   C697      1.0  0.90120  0.34508  0.54178  1.0000
  C   C698      1.0  0.81228  0.37148  0.58581  1.0000
  C   C699      1.0  0.85112  0.29317  0.58245  1.0000
  H   H1218     1.0  0.98096  0.39622  0.76620  1.0000
  C   C700      1.0  0.91679  0.24066  0.87652  1.0000
  C   C701      1.0  0.71470  0.03412  0.84977  1.0000
  H   H1219     1.0  0.72069  0.01617  0.84338  1.0000
  H   H1220     1.0  0.91471  0.32026  0.50239  1.0000
  H   H1221     1.0  0.95975  0.44335  0.65351  1.0000
  H   H1222     1.0  0.92550  0.42325  0.63487  1.0000
  H   H1223     1.0  0.90825  0.24811  0.90112  1.0000
  H   H1224     1.0  0.91370  0.49033  0.58254  1.0000
  H   H1225     1.0  0.98816  0.36590  0.51134  1.0000
  N   N38       1.0  0.73517  0.15869  0.91040  1.0000
  C   C702      1.0  0.75307  0.17381  0.89544  1.0000
  C   C703      1.0  0.71612  0.15737  0.88259  1.0000
  C   C704      1.0  0.72482  0.17039  0.94392  1.0000
  C   C705      1.0  0.74504  0.13492  0.92115  1.0000
  C   C706      1.0  0.76584  0.12475  0.89844  1.0000
  C   C707      1.0  0.77162  0.18026  0.92341  1.0000
  C   C708      1.0  0.70373  0.15949  0.96102  1.0000
  C   C709      1.0  0.72266  0.14630  0.84537  1.0000
  C   C710      1.0  0.77132  0.09936  0.90731  1.0000
  C   C711      1.0  0.79253  0.18944  0.90445  1.0000
  H   H1226     1.0  0.69746  0.08764  0.81927  1.0000
  H   H1227     1.0  0.74468  0.19026  0.88474  1.0000
  H   H1228     1.0  0.76204  0.16595  0.87144  1.0000
  H   H1229     1.0  0.70232  0.14689  0.89343  1.0000
  H   H1230     1.0  0.70785  0.17488  0.87723  1.0000
  H   H1231     1.0  0.71948  0.18871  0.93763  1.0000
  H   H1232     1.0  0.73788  0.17068  0.96607  1.0000
  H   H1233     1.0  0.75098  0.13451  0.95017  1.0000
  H   H1234     1.0  0.73132  0.12255  0.92039  1.0000
  H   H1235     1.0  0.78148  0.13377  0.90478  1.0000
  H   H1236     1.0  0.76284  0.12634  0.86863  1.0000
  H   H1237     1.0  0.76436  0.19392  0.94190  1.0000
  H   H1238     1.0  0.77761  0.16530  0.94064  1.0000
  N   N39       1.0  0.83373  0.30844  0.56120  1.0000
  H   H1239     1.0  0.68831  0.16281  0.94340  1.0000
  H   H1240     1.0  0.73754  0.15402  0.83248  1.0000
  H   H1241     1.0  0.72663  0.12756  0.84924  1.0000
  H   H1242     1.0  0.77503  0.09686  0.93698  1.0000
  H   H1243     1.0  0.75672  0.08919  0.89958  1.0000
  H   H1244     1.0  0.78674  0.09288  0.89171  1.0000
  H   H1245     1.0  0.80127  0.17599  0.88706  1.0000
  H   H1246     1.0  0.78735  0.20476  0.88736  1.0000
  H   H1247     1.0  0.80497  0.19451  0.92546  1.0000
  H   H1248     1.0  0.97863  0.38743  0.81342  1.0000
  C   C712      1.0  0.93433  0.44540  0.58876  1.0000
  S   S158      1.0  0.66714  0.11314  0.93952  1.0000
  H   H1249     1.0  0.82894  0.37963  0.58630  1.0000
  H   H1250     1.0  0.96857  0.30275  0.91861  1.0000
  H   H1251     1.0  0.95327  0.35427  0.54884  1.0000
  C   C713      1.0  0.81108  0.29733  0.56309  1.0000
  H   H1252     1.0  0.69177  0.05359  0.88523  1.0000
  H   H1253     1.0  0.94209  0.31440  0.89764  1.0000
  C   C714      1.0  0.69670  0.03516  0.88116  1.0000
  H   H1254     1.0  0.99643  0.33644  0.51664  1.0000
  C   C715      1.0  0.94964  0.30224  0.91866  1.0000
  H   H1255     1.0  0.76485  0.29650  0.58433  1.0000
  H   H1256     1.0  0.97660  0.42829  0.61841  1.0000
  C   C716      1.0  0.77709  0.28461  0.59978  1.0000
  C   C717      1.0  0.94558  0.27715  0.84366  1.0000
  H   H1257     1.0  0.77020  0.28238  0.62786  1.0000
  H   H1258     1.0  0.68681  0.14253  0.83021  1.0000
  H   H1259     1.0  0.71528  0.03482  0.72316  1.0000
  H   H1260     1.0  0.96521  0.30816  0.85005  1.0000
  H   H1261     1.0  0.97412  0.47796  0.61361  1.0000
  C   C718      1.0  0.96156  0.29538  0.82909  1.0000
  H   H1262     1.0  0.86267  0.38962  0.52160  1.0000
  H   H1263     1.0  0.67387  0.00806  0.63285  1.0000
  H   H1264     1.0  0.93124  0.38116  0.51195  1.0000
  H   H1265     1.0  0.96657  0.32635  0.56124  1.0000
  H   H1266     1.0  0.94211  0.40841  0.59963  1.0000
  H   H1267     1.0  0.70570  0.02929  0.90673  1.0000
  C   C719      1.0  0.96520  0.34487  0.56824  1.0000
  H   H1268     1.0  0.97821  0.28696  0.82007  1.0000
  H   H1269     1.0  0.69897  0.16770  0.81117  1.0000
  C   C720      1.0  0.84196  0.30992  0.52186  1.0000
  H   H1270     1.0  0.79910  0.38401  0.57387  1.0000
  H   H1271     1.0  0.93440  0.31769  0.80392  1.0000
  H   H1272     1.0  0.70710  0.14068  0.96447  1.0000
  H   H1273     1.0  0.70339  0.00162  0.67959  1.0000
  S   S159      1.0  0.71232  0.01348  0.97721  1.0000
  H   H1274     1.0  0.92783  0.28547  0.84580  1.0000
  H   H1275     1.0  0.91017  0.33677  0.56475  1.0000
  H   H1276     1.0  0.95788  0.34657  0.59623  1.0000
  C   C721      1.0  0.89248  0.28231  0.60086  1.0000
  H   H1277     1.0  0.74402  0.03903  0.88534  1.0000
  H   H1278     1.0  0.67329  0.02883  0.81712  1.0000
  H   H1279     1.0  0.94452  0.26738  0.93707  1.0000
  H   H1280     1.0  0.97235  0.49351  0.65600  1.0000
  C   C722      1.0  0.88379  0.46312  0.67817  1.0000
  C   C723      1.0  0.96154  0.42754  0.63683  1.0000
  C   C724      1.0  0.99138  0.24518  0.85914  1.0000
  H   H1281     1.0  0.98188  0.25612  0.91361  1.0000
  C   C725      1.0  0.98887  0.35462  0.56729  1.0000
  C   C726      1.0  0.89578  0.48308  0.67526  1.0000
  H   H1282     1.0  0.90999  0.25022  0.85200  1.0000
  H   H1283     1.0  0.94719  0.32852  0.96030  1.0000
  Fe  Fe79      1.0  0.90818  0.23206  0.99629  1.0000
  C   C727      1.0  0.68081  0.02455  0.71126  1.0000
  H   H1284     1.0  0.91240  0.40714  0.56020  1.0000
  H   H1285     1.0  0.77833  0.26760  0.58624  1.0000
  H   H1286     1.0  0.66742  0.05849  0.93013  1.0000
  Fe  Fe80      1.0  0.71789  0.04925  0.99951  1.0000
  C   C728      1.0  0.87466  0.37493  0.51740  1.0000
  H   H1287     1.0  0.89232  0.26531  0.58749  1.0000
  H   H1288     1.0  0.85096  0.27512  0.57275  1.0000
  H   H1289     1.0  0.95229  0.41373  0.53824  1.0000
  C   C729      1.0  0.90393  0.33587  0.50632  1.0000
  C   C730      1.0  0.98370  0.48864  0.63246  1.0000
  N   N40       1.0  0.67569  0.02182  0.87541  1.0000
  H   H1290     1.0  0.98872  0.22724  0.86781  1.0000
  H   H1291     1.0  0.79764  0.30707  0.54674  1.0000
  H   H1292     1.0  0.98979  0.20731  0.95113  1.0000
  H   H1293     1.0  0.85217  0.29384  0.51407  1.0000
  H   H1294     1.0  0.67139  0.01630  0.93347  1.0000
  H   H1295     1.0  0.99743  0.34037  0.81029  1.0000
  H   H1296     1.0  0.69407  0.18868  0.99600  1.0000
  C   C731      1.0  0.93731  0.41730  0.51983  1.0000
  C   C732      1.0  0.66510  0.10569  0.89266  1.0000
  C   C733      1.0  0.69771  0.16981  0.99840  1.0000
  C   C734      1.0  0.68877  0.99992  0.69892  1.0000
  H   H1297     1.0  0.94083  0.43199  0.50171  1.0000
  C   C735      1.0  0.72077  0.91706  0.06393  1.0000
  S   S160      1.0  0.88553  0.64062  0.04053  1.0000
  H   H1298     1.0  0.72822  0.91991  0.03624  1.0000
  H   H1299     1.0  0.93013  0.61783  0.02864  1.0000
  H   H1300     1.0  0.67271  0.88839  0.45017  1.0000
  H   H1301     1.0  0.71444  0.93728  0.23511  1.0000
  Fe  Fe81      1.0  0.91337  0.59103  0.24413  1.0000
  S   S161      1.0  0.93211  0.55636  0.23626  1.0000
  S   S162      1.0  0.91851  0.62178  0.20593  1.0000
  Fe  Fe82      1.0  0.89587  0.57778  0.32107  1.0000
  S   S163      1.0  0.91245  0.54240  0.31782  1.0000
  S   S164      1.0  0.87804  0.58744  0.37483  1.0000
  Fe  Fe83      1.0  0.94262  0.55889  0.29500  1.0000
  S   S165      1.0  0.97597  0.54527  0.31995  1.0000
  Fe  Fe84      1.0  0.90048  0.54209  0.25985  1.0000
  C   C736      1.0  0.67836  0.86061  0.07796  1.0000
  S   S166      1.0  0.92706  0.59470  0.30165  1.0000
  S   S167      1.0  0.88051  0.57657  0.26419  1.0000
  C   C737      1.0  0.89292  0.58152  0.41654  1.0000
  C   C738      1.0  0.88209  0.58663  0.45018  1.0000
  C   C739      1.0  0.89372  0.58202  0.48364  1.0000
  H   H1302     1.0  0.96384  0.57435  0.09306  1.0000
  C   C740      1.0  0.91540  0.57158  0.41663  1.0000
  H   H1303     1.0  0.86472  0.59445  0.45035  1.0000
  H   H1304     1.0  0.92388  0.56767  0.39091  1.0000
  H   H1305     1.0  0.67532  0.80872  0.23702  1.0000
  C   C741      1.0  0.94017  0.60122  0.03234  1.0000
  H   H1306     1.0  0.86163  0.72297  0.02216  1.0000
  H   H1307     1.0  0.97664  0.57471  0.25676  1.0000
  C   C742      1.0  0.84717  0.52263  0.31723  1.0000
  C   C743      1.0  0.85756  0.52404  0.43558  1.0000
  C   C744      1.0  0.67640  0.91623  0.02718  1.0000
  H   H1308     1.0  0.96685  0.69915  0.09635  1.0000
  C   C745      1.0  0.67967  0.79361  0.07410  1.0000
  H   H1309     1.0  0.99592  0.50097  0.28698  1.0000
  C   C746      1.0  0.89502  0.63570  0.08644  1.0000
  C   C747      1.0  0.88918  0.61563  0.10486  1.0000
  C   C748      1.0  0.89608  0.61113  0.14142  1.0000
  C   C749      1.0  0.90878  0.62679  0.16017  1.0000
  C   C750      1.0  0.91434  0.64704  0.14190  1.0000
  C   C751      1.0  0.90750  0.65149  0.10530  1.0000
  H   H1310     1.0  0.87929  0.60341  0.09073  1.0000
  H   H1311     1.0  0.89156  0.59554  0.15510  1.0000
  H   H1312     1.0  0.92396  0.65938  0.15623  1.0000
  H   H1313     1.0  0.91159  0.66725  0.09183  1.0000
  S   S168      1.0  0.74505  0.85430  0.00591  1.0000
  C   C752      1.0  0.95135  0.62410  0.39176  1.0000
  H   H1314     1.0  0.90846  0.73397  0.06292  1.0000
  C   C753      1.0  0.97521  0.51187  0.22120  1.0000
  C   C754      1.0  0.69720  0.85722  0.13747  1.0000
  C   C755      1.0  0.69803  0.85505  0.09900  1.0000
  C   C756      1.0  0.67680  0.86520  0.15519  1.0000
  C   C757      1.0  0.97705  0.63468  0.32520  1.0000
  N   N41       1.0  0.97275  0.61967  0.06779  1.0000
  H   H1315     1.0  0.71227  0.85216  0.15365  1.0000
  H   H1316     1.0  0.71361  0.84820  0.08582  1.0000
  H   H1317     1.0  0.94418  0.55874  0.44965  1.0000
  H   H1318     1.0  0.86411  0.50993  0.49168  1.0000
  C   C758      1.0  0.99673  0.55093  0.41800  1.0000
  C   C759      1.0  0.96265  0.61172  0.10339  1.0000
  H   H1319     1.0  0.98991  0.55091  0.44642  1.0000
  H   H1320     1.0  0.83935  0.51943  0.43343  1.0000
  C   C760      1.0  0.68643  0.93858  0.04045  1.0000
  N   N42       1.0  0.70258  0.93595  0.07273  1.0000
  H   H1321     1.0  0.84587  0.68643  0.17659  1.0000
  C   C761      1.0  0.96233  0.68656  0.07539  1.0000
  H   H1322     1.0  0.67645  0.95769  0.23756  1.0000
  H   H1323     1.0  0.89643  0.74754  0.02171  1.0000
  H   H1324     1.0  0.97970  0.52716  0.23685  1.0000
  C   C762      1.0  0.96618  0.60488  0.03628  1.0000
  H   H1325     1.0  0.96238  0.56206  0.15805  1.0000
  H   H1326     1.0  0.98367  0.64933  0.34008  1.0000
  C   C763      1.0  0.66533  0.93898  0.11314  1.0000
  H   H1327     1.0  0.91153  0.64109  0.45985  1.0000
  C   C764      1.0  0.74113  0.91387  0.09128  1.0000
  C   C765      1.0  0.91626  0.57211  0.48359  1.0000
  H   H1328     1.0  0.75234  0.92845  0.08893  1.0000
  C   C766      1.0  0.75619  0.89207  0.08318  1.0000
  H   H1329     1.0  0.73486  0.91267  0.11988  1.0000
  H   H1330     1.0  0.93808  0.52839  0.38196  1.0000
  H   H1331     1.0  0.67180  0.95119  0.04592  1.0000
  H   H1332     1.0  0.93341  0.59236  0.05666  1.0000
  H   H1333     1.0  0.89561  0.53290  0.39685  1.0000
  C   C767      1.0  0.94205  0.62725  0.43144  1.0000
  H   H1334     1.0  0.67964  0.98590  0.28396  1.0000
  C   C768      1.0  0.98106  0.61189  0.34742  1.0000
  H   H1335     1.0  0.74616  0.87665  0.08613  1.0000
  C   C769      1.0  0.99190  0.62816  0.40809  1.0000
  H   H1336     1.0  0.96856  0.64957  0.03218  1.0000
  C   C770      1.0  0.69071  0.92964  0.10795  1.0000
  S   S169      1.0  0.91448  0.69719  0.00181  1.0000
  C   C771      1.0  0.91819  0.63987  0.43137  1.0000
  H   H1337     1.0  0.96258  0.65934  0.11503  1.0000
  H   H1338     1.0  0.67006  0.78109  0.21828  1.0000
  H   H1339     1.0  0.90290  0.52033  0.43966  1.0000
  C   C772      1.0  0.95701  0.58002  0.15002  1.0000
  H   H1340     1.0  0.98938  0.66206  0.09136  1.0000
  H   H1341     1.0  0.97078  0.69103  0.04928  1.0000
  C   C773      1.0  0.93903  0.51139  0.39580  1.0000
  H   H1342     1.0  0.87964  0.53470  0.48045  1.0000
  H   H1343     1.0  0.94450  0.64518  0.05946  1.0000
  H   H1344     1.0  0.97048  0.59906  0.33439  1.0000
  H   H1345     1.0  0.76327  0.89283  0.05495  1.0000
  H   H1346     1.0  0.99227  0.62334  0.43770  1.0000
  C   C774      1.0  0.99390  0.57219  0.26752  1.0000
  H   H1347     1.0  0.72824  0.96286  0.24731  1.0000
  C   C775      1.0  0.86314  0.52664  0.47691  1.0000
  H   H1348     1.0  0.96827  0.62223  0.12653  1.0000
  H   H1349     1.0  0.69466  0.97179  0.20584  1.0000
  H   H1350     1.0  0.97048  0.59004  0.43300  1.0000
  N   N43       1.0  0.97568  0.61357  0.38785  1.0000
  H   H1351     1.0  0.94360  0.61454  0.10302  1.0000
  C   C776      1.0  0.69160  0.96821  0.23527  1.0000
  H   H1352     1.0  0.86944  0.53889  0.35413  1.0000
  H   H1353     1.0  0.86089  0.51270  0.30206  1.0000
  H   H1354     1.0  0.98539  0.64657  0.40728  1.0000
  C   C777      1.0  0.97050  0.66232  0.08792  1.0000
  H   H1355     1.0  0.66739  0.94667  0.17128  1.0000
  C   C778      1.0  0.96357  0.64404  0.06012  1.0000
  H   H1356     1.0  0.70078  0.93497  0.13195  1.0000
  H   H1357     1.0  0.71302  0.90015  0.06265  1.0000
  H   H1358     1.0  0.96345  0.57944  0.38909  1.0000
  N   N44       1.0  0.84120  0.71350  0.06880  1.0000
  C   C779      1.0  0.84288  0.71042  0.10987  1.0000
  C   C780      1.0  0.82125  0.73037  0.05881  1.0000
  H   H1359     1.0  0.72627  0.95680  0.10108  1.0000
  C   C781      1.0  0.86332  0.72088  0.05235  1.0000
  C   C782      1.0  0.87173  0.74389  0.06596  1.0000
  C   C783      1.0  0.86219  0.69292  0.12405  1.0000
  C   C784      1.0  0.71469  0.95789  0.07686  1.0000
  C   C785      1.0  0.81562  0.75078  0.08504  1.0000
  C   C786      1.0  0.79900  0.76895  0.06714  1.0000
  C   C787      1.0  0.89596  0.74758  0.05212  1.0000
  C   C788      1.0  0.86253  0.69181  0.16588  1.0000
  H   H1360     1.0  0.69543  0.94585  0.01663  1.0000
  H   H1361     1.0  0.82622  0.70492  0.12077  1.0000
  H   H1362     1.0  0.84551  0.72685  0.12367  1.0000
  H   H1363     1.0  0.92668  0.50051  0.28834  1.0000
  H   H1364     1.0  0.80494  0.72147  0.05736  1.0000
  H   H1365     1.0  0.82232  0.68275  0.06816  1.0000
  H   H1366     1.0  0.81485  0.70158  0.00532  1.0000
  H   H1367     1.0  0.87735  0.70721  0.05617  1.0000
  H   H1368     1.0  0.77080  0.89042  0.10273  1.0000
  H   H1369     1.0  0.87227  0.74465  0.09621  1.0000
  H   H1370     1.0  0.86031  0.75835  0.05504  1.0000
  H   H1371     1.0  0.85960  0.67532  0.11442  1.0000
  H   H1372     1.0  0.87934  0.69784  0.11495  1.0000
  H   H1373     1.0  0.82383  0.73755  0.03087  1.0000
  H   H1374     1.0  0.69001  0.90503  0.01380  1.0000
  H   H1375     1.0  0.80729  0.74448  0.11026  1.0000
  H   H1376     1.0  0.83107  0.75936  0.09348  1.0000
  H   H1377     1.0  0.80718  0.77681  0.04302  1.0000
  H   H1378     1.0  0.78302  0.76129  0.05813  1.0000
  H   H1379     1.0  0.79429  0.78277  0.08700  1.0000
  H   H1380     1.0  0.84068  0.65391  0.00382  1.0000
  C   C789      1.0  0.91586  0.50057  0.39461  1.0000
  H   H1381     1.0  0.90126  0.76447  0.06150  1.0000
  C   C790      1.0  0.83657  0.69041  0.05293  1.0000
  H   H1382     1.0  0.87633  0.67899  0.17518  1.0000
  H   H1383     1.0  0.86602  0.70876  0.17744  1.0000
  H   H1384     1.0  0.94466  0.51348  0.42455  1.0000
  N   N45       1.0  0.87301  0.50706  0.41431  1.0000
  C   C791      1.0  0.89654  0.51633  0.41202  1.0000
  H   H1385     1.0  0.95358  0.63729  0.44820  1.0000
  S   S170      1.0  0.67732  0.85531  0.03026  1.0000
  C   C792      1.0  0.98844  0.63329  0.28758  1.0000
  C   C793      1.0  0.85517  0.52743  0.35603  1.0000
  H   H1386     1.0  0.72595  0.96033  0.05259  1.0000
  C   C794      1.0  0.96899  0.58634  0.11444  1.0000
  H   H1387     1.0  0.69068  0.77777  0.06847  1.0000
  H   H1388     1.0  0.85818  0.54164  0.42360  1.0000
  H   H1389     1.0  0.84051  0.53682  0.37000  1.0000
  S   S171      1.0  0.67579  0.86593  0.20383  1.0000
  H   H1390     1.0  0.85186  0.67810  0.05617  1.0000
  H   H1391     1.0  0.93806  0.58136  0.14640  1.0000
  C   C795      1.0  0.68707  0.99076  0.25705  1.0000
  H   H1392     1.0  0.93912  0.61378  0.37650  1.0000
  H   H1393     1.0  0.94460  0.56931  0.00170  1.0000
  C   C796      1.0  0.83037  0.69019  0.01158  1.0000
  C   C797      1.0  0.92685  0.56659  0.44994  1.0000
  H   H1394     1.0  0.95835  0.63851  0.32041  1.0000
  H   H1395     1.0  0.94976  0.64160  0.37940  1.0000
  H   H1396     1.0  0.98017  0.62054  0.27053  1.0000
  H   H1397     1.0  0.69046  0.91061  0.11095  1.0000
  H   H1398     1.0  0.82780  0.53470  0.49482  1.0000
  H   H1399     1.0  0.84331  0.55950  0.48242  1.0000
  C   C798      1.0  0.69937  0.98040  0.08168  1.0000
  H   H1400     1.0  0.97687  0.51575  0.19154  1.0000
  H   H1401     1.0  0.97557  0.58765  0.03779  1.0000
  C   C799      1.0  0.97598  0.58961  0.40393  1.0000
  H   H1402     1.0  0.84310  0.53909  0.30234  1.0000
  S   S172      1.0  0.88829  0.50874  0.23860  1.0000
  H   H1403     1.0  0.91894  0.65751  0.41997  1.0000
  H   H1404     1.0  0.96159  0.59150  0.17262  1.0000
  H   H1405     1.0  0.81056  0.65980  0.01455  1.0000
  H   H1406     1.0  0.95703  0.50837  0.22694  1.0000
  H   H1407     1.0  0.68679  0.98323  0.05908  1.0000
  C   C800      1.0  0.86259  0.50475  0.37671  1.0000
  H   H1408     1.0  0.90598  0.63038  0.41490  1.0000
  H   H1409     1.0  0.98614  0.65023  0.27348  1.0000
  H   H1410     1.0  0.69061  0.80648  0.08609  1.0000
  H   H1411     1.0  0.94342  0.68805  0.07151  1.0000
  H   H1412     1.0  0.67246  0.80048  0.04772  1.0000
  H   H1413     1.0  0.94013  0.61060  0.44534  1.0000
  H   H1414     1.0  0.98777  0.58344  0.11914  1.0000
  H   H1415     1.0  0.69028  0.98018  0.10832  1.0000
  C   C801      1.0  0.84476  0.54228  0.49578  1.0000
  H   H1416     1.0  0.98491  0.54208  0.39989  1.0000
  H   H1417     1.0  0.66856  0.99318  0.48046  1.0000
  H   H1418     1.0  0.83156  0.51274  0.31784  1.0000
  C   C802      1.0  0.71228  0.95365  0.25040  1.0000
  H   H1419     1.0  0.66940  0.90661  0.05040  1.0000
  H   H1420     1.0  0.70963  0.94951  0.27980  1.0000
  H   H1421     1.0  0.97157  0.61252  0.00984  1.0000
  H   H1422     1.0  0.95216  0.50016  0.38137  1.0000
  H   H1423     1.0  0.66858  0.81163  0.17061  1.0000
  H   H1424     1.0  0.66868  0.78140  0.12624  1.0000
  H   H1425     1.0  0.70394  0.99719  0.26405  1.0000
  H   H1426     1.0  0.75816  0.99574  0.00300  1.0000
  H   H1427     1.0  0.77750  0.95638  0.00086  1.0000
  Fe  Fe85      1.0  0.94305  0.68448  0.96378  1.0000
  S   S173      1.0  0.92945  0.64949  0.96070  1.0000
  H   H1428     1.0  0.87407  0.57523  0.83602  1.0000
  Fe  Fe86      1.0  0.89416  0.70710  0.95035  1.0000
  S   S174      1.0  0.87848  0.67291  0.94524  1.0000
  H   H1429     1.0  0.95822  0.67417  0.85377  1.0000
  Fe  Fe87      1.0  0.90963  0.66206  0.91081  1.0000
  S   S175      1.0  0.91591  0.63489  0.86587  1.0000
  S   S176      1.0  0.92427  0.69684  0.91260  1.0000
  Fe  Fe88      1.0  0.71811  0.85316  0.90737  1.0000
  S   S177      1.0  0.75620  0.85496  0.91730  1.0000
  S   S178      1.0  0.70333  0.84460  0.85103  1.0000
  H   H1430     1.0  0.83611  0.85081  0.89397  1.0000
  H   H1431     1.0  0.83602  0.51489  0.87170  1.0000
  C   C803      1.0  0.69607  0.94846  0.69038  1.0000
  H   H1432     1.0  0.80564  0.73029  0.88847  1.0000
  S   S179      1.0  0.71517  0.82525  0.94989  1.0000
  C   C804      1.0  0.99084  0.56212  0.57000  1.0000
  Fe  Fe89      1.0  0.92330  0.56764  0.58511  1.0000
  S   S180      1.0  0.93635  0.53401  0.61047  1.0000
  S   S181      1.0  0.93260  0.56716  0.52415  1.0000
  Fe  Fe90      1.0  0.91048  0.58736  0.66223  1.0000
  S   S182      1.0  0.92255  0.55472  0.69113  1.0000
  S   S183      1.0  0.89487  0.61722  0.69645  1.0000
  Fe  Fe91      1.0  0.95251  0.55501  0.65294  1.0000
  H   H1433     1.0  0.98801  0.50447  0.61756  1.0000
  Fe  Fe92      1.0  0.90508  0.53716  0.64571  1.0000
  S   S184      1.0  0.76343  0.91339  0.97355  1.0000
  S   S185      1.0  0.94172  0.58868  0.62588  1.0000
  S   S186      1.0  0.89060  0.56965  0.61844  1.0000
  N   N46       1.0  0.67053  0.98658  0.68125  1.0000
  H   H1434     1.0  0.79857  0.77369  0.88811  1.0000
  H   H1435     1.0  0.66553  0.94121  0.87810  1.0000
  H   H1436     1.0  0.82134  0.77741  0.85755  1.0000
  H   H1437     1.0  0.83032  0.58859  0.81990  1.0000
  S   S187      1.0  0.70778  0.88111  0.94746  1.0000
  H   H1438     1.0  0.90495  0.52438  0.54079  1.0000
  H   H1439     1.0  0.97877  0.59371  0.66994  1.0000
  S   S188      1.0  0.98180  0.67818  0.97370  1.0000
  H   H1440     1.0  0.83097  0.73545  0.86173  1.0000
  H   H1441     1.0  0.97913  0.57286  0.55186  1.0000
  H   H1442     1.0  0.82498  0.82743  0.84176  1.0000
  H   H1443     1.0  0.92741  0.49850  0.68739  1.0000
  H   H1444     1.0  0.78715  0.81259  0.89453  1.0000
  H   H1445     1.0  0.99665  0.67740  0.82748  1.0000
  H   H1446     1.0  0.79374  0.78566  0.78553  1.0000
  H   H1447     1.0  0.86669  0.53730  0.84631  1.0000
  H   H1448     1.0  0.80486  0.75196  0.81140  1.0000
  C   C805      1.0  0.91103  0.63187  0.81794  1.0000
  C   C806      1.0  0.92351  0.61411  0.79915  1.0000
  C   C807      1.0  0.91928  0.60986  0.76181  1.0000
  C   C808      1.0  0.90214  0.62306  0.74281  1.0000
  C   C809      1.0  0.88979  0.64095  0.76148  1.0000
  C   C810      1.0  0.89427  0.64544  0.79871  1.0000
  H   H1449     1.0  0.93651  0.60347  0.81363  1.0000
  H   H1450     1.0  0.92916  0.59623  0.74786  1.0000
  H   H1451     1.0  0.87655  0.65134  0.74709  1.0000
  H   H1452     1.0  0.88444  0.65908  0.81269  1.0000
  H   H1453     1.0  0.84547  0.50350  0.82814  1.0000
  C   C811      1.0  0.82695  0.74392  0.95591  1.0000
  C   C812      1.0  0.80492  0.75526  0.96069  1.0000
  C   C813      1.0  0.80188  0.77942  0.96187  1.0000
  H   H1454     1.0  0.68846  0.99425  0.83979  1.0000
  H   H1455     1.0  0.71893  0.77658  0.89549  1.0000
  H   H1456     1.0  0.93204  0.50884  0.53169  1.0000
  H   H1457     1.0  0.85831  0.79070  0.95183  1.0000
  H   H1458     1.0  0.78051  0.74804  0.84069  1.0000
  H   H1459     1.0  0.79481  0.80990  0.72885  1.0000
  H   H1460     1.0  0.76099  0.77085  0.88928  1.0000
  C   C814      1.0  0.99707  0.58988  0.67084  1.0000
  C   C815      1.0  0.68739  0.88500  0.81453  1.0000
  H   H1461     1.0  0.71848  0.93172  0.94765  1.0000
  C   C816      1.0  0.72727  0.78024  0.86891  1.0000
  H   H1462     1.0  0.81092  0.84363  0.91901  1.0000
  H   H1463     1.0  0.69316  0.89423  0.83797  1.0000
  C   C817      1.0  0.79986  0.82430  0.74612  1.0000
  H   H1464     1.0  0.81892  0.82401  0.74749  1.0000
  C   C818      1.0  0.90327  0.54248  0.80182  1.0000
  H   H1465     1.0  0.67556  0.91567  0.78457  1.0000
  H   H1466     1.0  0.71735  0.79494  0.85558  1.0000
  C   C819      1.0  0.82136  0.79204  0.95848  1.0000
  C   C820      1.0  0.70715  0.92812  0.66920  1.0000
  C   C821      1.0  0.86766  0.58283  0.80974  1.0000
  C   C822      1.0  0.68177  0.96502  0.66455  1.0000
  H   H1467     1.0  0.89551  0.52655  0.81090  1.0000
  H   H1468     1.0  0.82879  0.72546  0.95392  1.0000
  H   H1469     1.0  0.71930  0.93404  0.64825  1.0000
  H   H1470     1.0  0.98430  0.54474  0.57222  1.0000
  H   H1471     1.0  0.75439  0.80859  0.82965  1.0000
  S   S189      1.0  0.98826  0.54416  0.67219  1.0000
  H   H1472     1.0  0.75156  0.80064  0.89482  1.0000
  C   C823      1.0  0.85486  0.57655  0.74728  1.0000
  H   H1473     1.0  0.79455  0.83772  0.79997  1.0000
  H   H1474     1.0  0.72676  0.76487  0.85133  1.0000
  C   C824      1.0  0.84579  0.59859  0.81783  1.0000
  C   C825      1.0  0.85364  0.56153  0.71254  1.0000
  H   H1475     1.0  0.71013  0.95703  0.70395  1.0000
  C   C826      1.0  0.83966  0.57418  0.68227  1.0000
  S   S190      1.0  0.88271  0.50745  0.65300  1.0000
  H   H1476     1.0  0.77066  0.82361  0.78162  1.0000
  H   H1477     1.0  0.81757  0.79883  0.80368  1.0000
  H   H1478     1.0  0.78109  0.83134  0.85698  1.0000
  H   H1479     1.0  0.86472  0.59160  0.73982  1.0000
  H   H1480     1.0  0.83700  0.58364  0.75273  1.0000
  H   H1481     1.0  0.76061  0.77949  0.81842  1.0000
  H   H1482     1.0  0.81062  0.71593  0.84553  1.0000
  H   H1483     1.0  0.79334  0.84070  0.73294  1.0000
  H   H1484     1.0  0.84295  0.61147  0.79536  1.0000
  C   C827      1.0  0.81808  0.84605  0.89114  1.0000
  C   C828      1.0  0.81240  0.73227  0.86027  1.0000
  H   H1485     1.0  0.87108  0.55747  0.70122  1.0000
  C   C829      1.0  0.84829  0.61181  0.85338  1.0000
  C   C830      1.0  0.67255  0.86145  0.75305  1.0000
  H   H1486     1.0  0.82875  0.81062  0.88310  1.0000
  H   H1487     1.0  0.81951  0.81056  0.95967  1.0000
  Fe  Fe93      1.0  0.75297  0.82808  0.96154  1.0000
  S   S191      1.0  0.87491  0.74316  0.94762  1.0000
  H   H1488     1.0  0.83960  0.56325  0.65755  1.0000
  N   N47       1.0  0.78938  0.79598  0.84192  1.0000
  C   C831      1.0  0.79842  0.79978  0.80377  1.0000
  C   C832      1.0  0.80252  0.77527  0.85850  1.0000
  C   C833      1.0  0.76399  0.79255  0.83939  1.0000
  C   C834      1.0  0.79258  0.81635  0.86600  1.0000
  C   C835      1.0  0.81749  0.82401  0.86899  1.0000
  C   C836      1.0  0.78964  0.82254  0.78452  1.0000
  C   C837      1.0  0.75208  0.78599  0.87566  1.0000
  C   C838      1.0  0.79886  0.75193  0.84023  1.0000
  C   C839      1.0  0.72719  0.94555  0.95975  1.0000
  H   H1489     1.0  0.79004  0.74523  0.96291  1.0000
  C   C840      1.0  0.88856  0.55433  0.77090  1.0000
  H   H1490     1.0  0.85387  0.53015  0.77778  1.0000
  H   H1491     1.0  0.69645  0.99058  0.72297  1.0000
  H   H1492     1.0  0.98703  0.72837  0.97257  1.0000
  H   H1493     1.0  0.93764  0.52661  0.81052  1.0000
  H   H1494     1.0  0.97040  0.66240  0.89577  1.0000
  C   C841      1.0  0.69024  0.86100  0.81419  1.0000
  H   H1495     1.0  0.67462  0.92858  0.53715  1.0000
  H   H1496     1.0  0.86356  0.62220  0.85206  1.0000
  C   C842      1.0  0.97317  0.66392  0.86577  1.0000
  Fe  Fe94      1.0  0.74540  0.88097  0.96074  1.0000
  C   C843      1.0  0.66998  0.88544  0.75318  1.0000
  H   H1497     1.0  0.90519  0.55393  0.82548  1.0000
  H   H1498     1.0  0.83129  0.55121  0.78581  1.0000
  H   H1499     1.0  0.71678  0.91616  0.68846  1.0000
  C   C844      1.0  0.84952  0.54628  0.79318  1.0000
  C   C845      1.0  0.67738  0.89711  0.78416  1.0000
  H   H1500     1.0  0.69926  0.97090  0.94979  1.0000
  N   N48       1.0  0.86503  0.56468  0.78114  1.0000
  H   H1501     1.0  0.84748  0.59045  0.67482  1.0000
  H   H1502     1.0  0.84567  0.54519  0.71867  1.0000
  C   C846      1.0  0.84648  0.75651  0.95303  1.0000
  H   H1503     1.0  0.80797  0.86041  0.87719  1.0000
  C   C847      1.0  0.66767  0.97819  0.88082  1.0000
  H   H1504     1.0  0.82162  0.57807  0.69118  1.0000
  H   H1505     1.0  0.97379  0.64653  0.85355  1.0000
  C   C848      1.0  0.92748  0.53537  0.78811  1.0000
  C   C849      1.0  0.84923  0.54017  0.83467  1.0000
  H   H1506     1.0  0.89874  0.56785  0.75838  1.0000
  H   H1507     1.0  0.68922  0.95357  0.52314  1.0000
  H   H1508     1.0  0.70014  0.99257  0.88472  1.0000
  H   H1509     1.0  0.85016  0.59981  0.87714  1.0000
  C   C850      1.0  0.72736  0.98607  0.97648  1.0000
  H   H1510     1.0  0.69319  0.96965  0.64150  1.0000
  H   H1511     1.0  0.84023  0.55433  0.85025  1.0000
  H   H1512     1.0  0.88726  0.54089  0.74975  1.0000
  H   H1513     1.0  0.68484  0.94123  0.71129  1.0000
  C   C851      1.0  0.67732  0.95435  0.86911  1.0000
  H   H1514     1.0  0.88540  0.58644  0.50934  1.0000
  H   H1515     1.0  0.88113  0.59436  0.80114  1.0000
  H   H1516     1.0  0.81856  0.52080  0.83153  1.0000
  H   H1517     1.0  0.83280  0.62362  0.85769  1.0000
  S   S192      1.0  0.77340  0.79263  0.96703  1.0000
  H   H1518     1.0  0.90780  0.50539  0.50212  1.0000
  H   H1519     1.0  0.69379  0.91848  0.65558  1.0000
  C   C852      1.0  0.84343  0.78066  0.95415  1.0000
  C   C853      1.0  0.67527  0.94739  0.54060  1.0000
  H   H1520     1.0  0.84480  0.69580  0.99476  1.0000
  C   C854      1.0  0.71638  0.96784  0.96079  1.0000
  H   H1521     1.0  0.99058  0.56979  0.59769  1.0000
  C   C855      1.0  0.74927  0.94126  0.97421  1.0000
  H   H1522     1.0  0.93643  0.55069  0.77916  1.0000
  C   C856      1.0  0.74946  0.98185  0.99097  1.0000
  H   H1523     1.0  0.69440  0.95011  0.88191  1.0000
  C   C857      1.0  0.68392  0.99697  0.86913  1.0000
  C   C858      1.0  0.83651  0.51852  0.84180  1.0000
  H   H1524     1.0  0.67938  0.95069  0.56966  1.0000
  H   H1525     1.0  0.94136  0.59508  0.97348  1.0000
  H   H1526     1.0  0.92677  0.52331  0.76482  1.0000
  H   H1527     1.0  0.68480  0.83081  0.78264  1.0000
  H   H1528     1.0  0.91683  0.58463  0.99662  1.0000
  C   C859      1.0  0.68262  0.84935  0.78332  1.0000
  C   C860      1.0  0.91308  0.50782  0.53084  1.0000
  H   H1529     1.0  0.82132  0.66635  0.96959  1.0000
  H   H1530     1.0  0.84956  0.54448  0.52493  1.0000
  C   C861      1.0  0.76037  0.95952  0.98972  1.0000
  Fe  Fe95      1.0  0.70785  0.85335  0.99085  1.0000
  H   H1531     1.0  0.66855  0.95444  0.65250  1.0000
  H   H1532     1.0  0.99340  0.69316  0.86947  1.0000
  Fe  Fe96      1.0  0.89999  0.66287  0.99515  1.0000
  C   C862      1.0  0.99529  0.67568  0.85762  1.0000
  H   H1533     1.0  0.67396  0.96563  0.75207  1.0000
  H   H1534     1.0  0.67910  0.95349  0.83886  1.0000
  H   H1535     1.0  0.66590  0.97776  0.91111  1.0000
  H   H1536     1.0  0.66733  0.85223  0.72930  1.0000
  C   C863      1.0  0.82542  0.66606  0.99930  1.0000
  C   C864      1.0  0.93560  0.58663  0.99896  1.0000
