data_image0
_chemical_formula_structural       FeS2FeS2FeSFeS3CHSH3FeS2FeS2Fe2S3CHFeS2FeS2FeSFeS3FeS2FeHSFeSHS2C2HC3H4CH2CH4CHC6H4C6H6C8H4C6H4C6H4C6H2SH6C2NC7H21NC4HC4HC2H2SH3CH5CH7CH7NC12H24CHC2HCH5C3H6C2H6CH3CHCH2CHNCH2CNH3C3H4CH7CH3CHCH3NCH2CHCHCH5CH6SHCHFeH2C2H3C2H4CH4CH2CNH2C2H5CH3C3H2CHC2HCH8CHCH3CHCHC3H3C2H3CH3CH4C3NH4CHC2H2CH2CNHSH7CH4CFeC2H2C2H6CH4CHCHCH3SHC2H2C2HCH2CH4C3H3CH3CHNH5C2H2FeS2FeS2HFeS3FeS2FeS2HFeS3CSHFeSFeCHSCH2CHSHSFeS2FeS2FeSFeS3CHC2HCH2C8H4C6H4C6H4C6H4C6H4C6H5CH6CHCH2CHCSHCH2CH8NHC2HC2H2SCH2FeH2CH2C2H2C2H8CH2CNC12H28NC11H37CH2CH2NC2HCH2C2NHC3H2CHCHCHC2HC2SHSH17C2H3CHC3H2FeH2CH7CHCHCHCH7CH9CHC4H6CH3CHSHCH3CSH7CSH3C2HCH4C2HSH2CSH4CHCH4SFeHC2HC2H2CH7C4H3CH2CSHCH2CH6C2FeH3NCH3C2HCHNHCH5CH3C3H2CH9CNFeCH3CHFeS2FeS2FeSFeCS2FeSFeS2FeSFeHS2HS2FeSH2C2SHSHCHSH2CH2C2H2C6H4CHC4H7SHCH2C6H4CHC5H3C6H3NC9H17CHCH2C2FeNC12H29C2FeC2H2CHCH3CH2CH2FeC3H2SHCSH4CNCHCHCH2CHCH2CH2CH8CSH4CNC2HC3HC5H5CH6CH14CH3CNH2FeH5CHCH2C3HSH2SHC2SHCH4FeCHC2SC2Fe2SH3CSH5CH2CHC5H3C4H2SCH2CH3C2HC2HCH4SH4FeCH2CH2CHNH2C2H2SNCHCH2C2H4CSHCH3CNHCH3CH5SH2C2FeH2C2HCH2CH3CH3CH6CH3SCHFeS2H3SFeS2FeS2FeSHSCSC6H4C5H5C6H5C3H6C2FeSCHSH5C3H3FeH3CHC2HSHNC2SCHCHC2H4C2H2CH2CSH4C2FeCHC2H5FeH2SHCH2CH4CH3CHCFeCHSH2CHCFeCNHCH2CH6CSH4C3HCHFeHCNCHNC3H2C4H4SH6CH2CH9CH5SHSFeCHC2H3CH3CHCHCH4CH4CH9C2H4CHSHC2HCNCH2C2SCH3C2H2C2H3C2H7CH2C2HCH3C2H3C2NHC2H2C2H3CH2CHCH4CH3C2HCH9CH2NH3C2HCH2CH2CH3CH2NHC2H2SHCH3C3H4CH2C2HC2HCHFeS2FeS2FeSFeHS2FeS2FeS2FeSFeS3FeS2FeHSFeSHS2FeS3HCFeSC2S2HCHC2HSHFeS2FeSHFeSFeHSH2C2HC2H2FeH2CNC2H4CH6C4HCH4C5H3CH2C6H4C6H4C6H5C3H2CHC2H2CHC6H5NC12H29SH3CSHCH3NC12H28C2HCH5CH2NC7H17C2HC2H2C2H2CH4CHCHC2H6CHCH2SH2C2HCHC2HSH3FeC3H4C2H3CHCH13CH2NCFeH2SCH5NCH2CHCH2CH2C2H5CH2C2H4CH7NH3C4HC2H2CH5C4HCSHCH4C2HFeHFeSFeHSCFeS2FeS2FeSFeS3H3CH4FeH2FeS2FeSFeS3C6H3CH2C5HCH4C6H6CHC8H3C6H5CH2CSC2HC3H4CH3CH4SH2CH3C2H4CHNH3CHC2HC2H4CH2CH2CHNH2CHNH4CHC2HCHCH4C2H2CHC3H3CH2CHCHCH4CNH6C2H9CH7SH6CH2NC3SC2H17CH3C4H2CSHCHC3FeHCSH4C4H3CH3NH2CH6CHC3H2CH3CH4SH2SHC3H2C2H5NH2CH3NH2CFeS2FeS2FeSFeS3H3CH2FeS2FeS2FeSFeS3HC2FeS2FeSHSCHFeCSHCHC2NH3SHC4H2C6H4NC3H2C6H4C6H4C7H3C6H4NC12H32CS2H2CHCH4CH12CH2CH2C2H3CH3CHC3H2SCNH6CNC12H23SH5CH3CHFe2HCFeCSH2C3H3C2HCH4C2H2CH5CHCH2CHNSH2CH2CHCH4SH2CSH4FeCH4CH4CH2C2H2C2HCHFeHCH2C3FeH9CHCHCH3C2HC2H5C2H2SCH6CH7CH4CSCH2FeSHFeS2FeS2FeSFeS3CSHSCFeHFeCS2CSCH5NHC6HC2HC6H4CH2C3HCH2C6H5C2H2C2H6C2HCHSH3C2FeH4CHCH2CHCH2C2H5CH2CSH3CHFeH2CHCHCH4CHC2SCH3CFeHSCHCHC2H7SH2SHCH3C2NHCNH3CSFeHCH2NHSH2SFeHCHC2H6CH2CHC2H2CHCSCH3N2CFeHCH2C2H7C4H2CH2CHCSHFeHC3HC2H3C3H3CH3CH2CH8CSHCH4CH2CHC4H3CH2SCHCH4CH12SC2H2CHNH2CHCH2CH16C2FeS2FeS2FeSFeCS3FeSCFeS2FeSFeS4FeS2FeS2FeSFeS3FeSHFeSHFeSFeHSC2H2C6H4C6H4C6H4C6H4C2HC7H4C6H4C3H2CH4C6H4CH6CH2NH4NCHC5H2C2H3C2H8CH12C2H10CH5SCH3CH4CHC2HCHCNH2CHC2H2C4HNH2C2H2C2H5CH4CH4CHSHCH2CHCHCH2C4SCHSH2CH5CHCH3CH5SH2NCNHSH4C3H6CHCHCH2CH3CH4C3H6CH2C3H4C3H6C2NH4CHC2H3CH2CHCH2C2H4NH2C2H3C3HCH2CH2FeH2CH8CH5NH3C2H2C2H3C2H4CH3CHCH9CHCH8C2H2C2H2CHC3H9CH2CSH4CH6CHCHCH4CH2C2H2CH4FeHSFeHSH4S2FeS2FeS2FeSFeS3HFeS2FeS2FeSFeS3FeS2FeS2HFeS3HC6H4C2HC3HCH2C6H4C6H4C6H4C6H4C6H4C6H6CH8CH5CH4CH2CNC12H30C2SHCH3SHC2H2CH4C4H5CHCH2CNH6C2H3NC11H25CH9CNH2CHCH2C2H6CH2CH3CH3CHCHC2HNC2FeCH2CNCH3CNC12H25FeHCH4CHCHCH3SCH12C6HC3NH2CH3CHCH8CH2CH4SH2C2H4CH5C3H6FeH6SH2C2HS2CHCHCHCHCNH6CH2CH3C4HCH2C3H6CHCHFeH4C2H2C2FeH4CFeH3SCH3CHC2HCH2SH2NHSH3C2HC2FeS2FeS2FeSFeS3FeS2FeS2FeSFeS3HFeHSFeSHFeCHSHCH3CFeSH7CH3NH3C3H3SH4CHC6H4C6H4C6H2NHC6H4C2HC3HCH2CH2CHCH4C6H6SCHNC8H12CH5NHC3SC2H4C2NH7CH5CHCH2CH3CH4CH3CH2C2H2SHCH3CHCH3C3NC9H15CH2CH2C4H3CH2CHC2H2SH9CHCH10CH2CHSH4CH2CH10C2NFeCSC2H4C2H4CHCH2CNCH5CH3CHC2H2CSC2HC2H2NH2CH5C2H2CHSH2C2H2CSHCH2CH2C3HCHC2HC2HFeHC2HCFeH2CH7CH2SH3C3FeSH5S2H4NH2CH3SH5CH2CNC2H2C2HCH3FeS2HCHFe2S2H2SH4SFeC2HSFeSH2CHCFeC4H3C3H6C2HCH2SH2CFeHNC8SC3H14CHCH10FeC2H9SCSCNFeCH4CHSFeHCH3CSCHSH2C3SH4NC2HC2HCSHCHCH2C4HC2H7SH3FeCHCH2CSFeCH3CHC2H2CH4CH6CHCHCHC2HC2H5CHC3HSHNCHCHCH2SH2CH4CHCH2CHC2H3CH2CHCH7C2HCH3CH2C2H5CHCHCHCH3CH3C2H2NH5CH3CSH2CH4FeCHCH4CH8C4H4CH4NH2CH2C3H4CSHSFeS2FeSHFeHFeS3H2SFeS2FeS2FeSFeS3FeS2FeS2FeSFeS4CHC2HCHC3HFeH3CHC2FeHC3H2C6H4C6H4C6H5CH3CHSCH3C8H3C4H2FeH2CHNHCH2CH3CHC2H2CHC2H3FeC2SHCH3C2H7CHC4SH2SH6CHCHCHCH2C2HCH4C2H5NC12H28C2H4CNC12H28FeH4SH4C2H2C2H6FeHC2HSH2CHCHSH3CNSH2C2H3CH4CHCH2NCH4CHC4H2CHC2H4CHCSHC2H12CH3SCH5NCH3C3H4C3NH2FeC3H2CHCH4CH2FeS2FeS2FeSFeS2HFeS2FeSHCFeS3FeS2FeS2FeSFeS3H3CHC2H3CHC7H4CH4C2H6CH2CH3C6H4C6H4C2H2CHCH4CH3C2H2CH3C2H8CH3C2H10C3HCH2CH4CH2CH7NH3C5H3CH4CHSH5CSH2CNH3C2HC5H4NC6H2SC2H13CH3CH2CHCH6NC10H14CHCH6CFeNCH2CH4NCH5CHCH4CH4C2HC2H2C2H4CSHFeS2FeSCFeHFeSCSFeS2FeS2FeSFeS3FeSCFeS2FeSFeHS2FeS2FeS2FeSFeS3CSC6H4C4H7CH6C7H4C6H5C3H2C6H4C6H5C2HCH5C6HC2H11SHC3H2CH4CHCH3CSH3C6H15CNCH2CHCHCHCH4CH2CH4NHCH4C4H5C2H8CH4CH3SHCH4CH2CH7NC2H4CNCH2C2H4CHC2H2CH3NH2NC2H11CH3CHCHC2HCHCH4C3HC3HC2HCHCH7C2HCH2CHCNH2CH3C2H3CH3CH2C3HCH6CHC3H5CHCHCHC2H2SH2CNH2C2H6CH4SCH7C2H2CHCH6CH3C2HCH4SCH6CHC4HC5H4CFeSCSFeSFeS3H2SFeHFeS2FeHFeS3HFeS2FeS2FeSFeS3FeS2HFeS2CHC6H6C4H3C6H6C8H2CHC6H4C4H11SHC2H3CH3CH7CH2CHCH4NCHCHC3H8CH2CHC2H2NCH2CFeCHC2H4CHC2HC2H4NCH7C3H6C3NC12H26NC12H28SCHCH5C2H4CHCHCH2SH6CH2CHC2H4CHNCHC3H2CH6C2HSHC2HCH3CH2SHC2HC2HCH2CH4CH4CH3CHFeNCHC2H4CSHFeH2CFeCH2C2H4CHCH2SHCH6CH4SCH4SC2H2NCHN
_chemical_formula_sum              "Fe256 S512 C2304 H4096 N128"
_cell_length_a       82.1589
_cell_length_b       82.2371
_cell_length_c       82.1794
_cell_angle_alpha    74.9835
_cell_angle_beta     74.7544
_cell_angle_gamma    75.0188

_space_group_name_H-M_alt    "P 1"
_space_group_IT_number       1

loop_
  _space_group_symop_operation_xyz
  'x, y, z'

loop_
  _atom_site_type_symbol
  _atom_site_label
  _atom_site_symmetry_multiplicity
  _atom_site_fract_x
  _atom_site_fract_y
  _atom_site_fract_z
  _atom_site_occupancy
  Fe  Fe1       1.0  0.11416  0.13711  0.11549  1.0000
  S   S1        1.0  0.14070  0.14005  0.10076  1.0000
  S   S2        1.0  0.10501  0.11213  0.12553  1.0000
  Fe  Fe2       1.0  0.10130  0.17562  0.11171  1.0000
  S   S3        1.0  0.12673  0.18169  0.09633  1.0000
  S   S4        1.0  0.07841  0.19543  0.12049  1.0000
  Fe  Fe3       1.0  0.12705  0.16116  0.08247  1.0000
  S   S5        1.0  0.13497  0.16183  0.05365  1.0000
  Fe  Fe4       1.0  0.13756  0.16003  0.11622  1.0000
  S   S6        1.0  0.15892  0.15998  0.12895  1.0000
  S   S7        1.0  0.10073  0.15692  0.09644  1.0000
  S   S8        1.0  0.11206  0.15531  0.13241  1.0000
  C   C1        1.0  0.07404  0.17690  0.26165  1.0000
  H   H1        1.0  0.15933  0.12579  0.04823  1.0000
  S   S9        1.0  0.09001  0.12675  0.02640  1.0000
  H   H2        1.0  0.08117  0.14739  0.05172  1.0000
  H   H3        1.0  0.11511  0.08228  0.02864  1.0000
  H   H4        1.0  0.19788  0.09588  0.17892  1.0000
  Fe  Fe5       1.0  0.11013  0.04636  0.20404  1.0000
  S   S10       1.0  0.11796  0.03559  0.22938  1.0000
  S   S11       1.0  0.08285  0.04903  0.20184  1.0000
  Fe  Fe6       1.0  0.14670  0.04797  0.18489  1.0000
  S   S12       1.0  0.15783  0.03725  0.20866  1.0000
  S   S13       1.0  0.16150  0.05605  0.15809  1.0000
  Fe  Fe7       1.0  0.13998  0.01859  0.21490  1.0000
  Fe  Fe8       1.0  0.13480  0.05526  0.22081  1.0000
  S   S14       1.0  0.13183  0.07369  0.23822  1.0000
  S   S15       1.0  0.13081  0.02817  0.19019  1.0000
  S   S16       1.0  0.12505  0.06731  0.19648  1.0000
  C   C2        1.0  0.18389  0.14553  0.18628  1.0000
  H   H5        1.0  0.09834  0.16167  0.06218  1.0000
  Fe  Fe9       1.0  0.15623  0.18593  0.21267  1.0000
  S   S17       1.0  0.18114  0.17277  0.22100  1.0000
  S   S18       1.0  0.15516  0.20117  0.18568  1.0000
  Fe  Fe10      1.0  0.13497  0.17441  0.24760  1.0000
  S   S19       1.0  0.15824  0.16037  0.25898  1.0000
  S   S20       1.0  0.10764  0.17471  0.26306  1.0000
  Fe  Fe11      1.0  0.16992  0.18371  0.24510  1.0000
  S   S21       1.0  0.18910  0.19353  0.25486  1.0000
  Fe  Fe12      1.0  0.16783  0.15082  0.23421  1.0000
  S   S22       1.0  0.18162  0.12388  0.23106  1.0000
  S   S23       1.0  0.14574  0.19846  0.23566  1.0000
  S   S24       1.0  0.14391  0.16319  0.22393  1.0000
  Fe  Fe13      1.0  0.02493  0.12688  0.23109  1.0000
  S   S25       1.0  0.01294  0.14916  0.24436  1.0000
  S   S26       1.0  0.02950  0.09964  0.24586  1.0000
  Fe  Fe14      1.0  0.02435  0.14917  0.19561  1.0000
  H   H6        1.0  0.07043  0.08839  0.14701  1.0000
  S   S27       1.0  0.02802  0.14820  0.16794  1.0000
  Fe  Fe15      1.0  0.03168  0.16273  0.22329  1.0000
  S   S28       1.0  0.04801  0.18065  0.22479  1.0000
  H   H7        1.0  0.11501  0.21293  0.11647  1.0000
  S   S29       1.0  0.04477  0.13978  0.21131  1.0000
  S   S30       1.0  0.00602  0.13381  0.21401  1.0000
  C   C3        1.0  0.06447  0.17481  0.23671  1.0000
  C   C4        1.0  0.03829  0.08503  0.18333  1.0000
  H   H8        1.0  0.07384  0.04270  0.14757  1.0000
  C   C5        1.0  0.09133  0.17381  0.25294  1.0000
  C   C6        1.0  0.09514  0.17054  0.23629  1.0000
  C   C7        1.0  0.08178  0.17099  0.22827  1.0000
  H   H9        1.0  0.04638  0.07603  0.19219  1.0000
  H   H10       1.0  0.07761  0.19362  0.16699  1.0000
  H   H11       1.0  0.10831  0.16805  0.22938  1.0000
  H   H12       1.0  0.08486  0.16903  0.21523  1.0000
  C   C8        1.0  0.19889  0.06129  0.18588  1.0000
  H   H13       1.0  0.45475  0.22143  0.23857  1.0000
  H   H14       1.0  0.10904  0.13414  0.28430  1.0000
  C   C9        1.0  0.19237  0.20803  0.26630  1.0000
  H   H15       1.0  0.06241  0.09841  0.18634  1.0000
  H   H16       1.0  0.19203  0.05915  0.19961  1.0000
  H   H17       1.0  0.16600  0.12509  0.06759  1.0000
  H   H18       1.0  0.02944  0.10140  0.20249  1.0000
  C   C10       1.0  0.09337  0.12497  0.27251  1.0000
  H   H19       1.0  0.08634  0.13300  0.16085  1.0000
  C   C11       1.0  0.06889  0.06254  0.21513  1.0000
  C   C12       1.0  0.05401  0.05754  0.22600  1.0000
  C   C13       1.0  0.04215  0.06884  0.23578  1.0000
  C   C14       1.0  0.04463  0.08548  0.23389  1.0000
  C   C15       1.0  0.05933  0.09056  0.22274  1.0000
  C   C16       1.0  0.07185  0.07883  0.21395  1.0000
  H   H20       1.0  0.05174  0.04491  0.22699  1.0000
  H   H21       1.0  0.03082  0.06486  0.24447  1.0000
  H   H22       1.0  0.06108  0.10348  0.22103  1.0000
  H   H23       1.0  0.08334  0.08273  0.20549  1.0000
  C   C17       1.0  0.14602  0.08770  0.23486  1.0000
  C   C18       1.0  0.16381  0.08276  0.22905  1.0000
  C   C19       1.0  0.17476  0.09384  0.22804  1.0000
  C   C20       1.0  0.16791  0.11001  0.23247  1.0000
  C   C21       1.0  0.15014  0.11497  0.23806  1.0000
  C   C22       1.0  0.13933  0.10381  0.23939  1.0000
  H   H24       1.0  0.16916  0.07020  0.22591  1.0000
  H   H25       1.0  0.18855  0.08984  0.22391  1.0000
  H   H26       1.0  0.14473  0.12722  0.24183  1.0000
  H   H27       1.0  0.12574  0.10770  0.24409  1.0000
  H   H28       1.0  0.19537  0.07704  0.16144  1.0000
  H   H29       1.0  0.17995  0.09032  0.19511  1.0000
  C   C23       1.0  0.18741  0.12762  0.18232  1.0000
  C   C24       1.0  0.11293  0.20421  0.00084  1.0000
  C   C25       1.0  0.06281  0.18371  0.13294  1.0000
  C   C26       1.0  0.05354  0.18727  0.14895  1.0000
  C   C27       1.0  0.04289  0.17628  0.15992  1.0000
  C   C28       1.0  0.04099  0.16222  0.15450  1.0000
  C   C29       1.0  0.04952  0.15924  0.13812  1.0000
  C   C30       1.0  0.06061  0.16983  0.12746  1.0000
  H   H30       1.0  0.05496  0.19819  0.15306  1.0000
  H   H31       1.0  0.03617  0.17873  0.17251  1.0000
  H   H32       1.0  0.04789  0.14851  0.13381  1.0000
  H   H33       1.0  0.06737  0.16732  0.11493  1.0000
  C   C31       1.0  0.12102  0.09498  0.13231  1.0000
  C   C32       1.0  0.13848  0.09509  0.12539  1.0000
  C   C33       1.0  0.15111  0.08211  0.13232  1.0000
  C   C34       1.0  0.14623  0.06951  0.14663  1.0000
  C   C35       1.0  0.12881  0.06879  0.15277  1.0000
  C   C36       1.0  0.11624  0.08136  0.14543  1.0000
  H   H34       1.0  0.14228  0.10527  0.11496  1.0000
  H   H35       1.0  0.16460  0.08230  0.12717  1.0000
  H   H36       1.0  0.12496  0.05879  0.16348  1.0000
  H   H37       1.0  0.10283  0.08096  0.15056  1.0000
  C   C37       1.0  0.15509  0.17279  0.14436  1.0000
  C   C38       1.0  0.16312  0.18684  0.14021  1.0000
  C   C39       1.0  0.16253  0.19571  0.15290  1.0000
  C   C40       1.0  0.15462  0.19014  0.17007  1.0000
  C   C41       1.0  0.14641  0.17616  0.17430  1.0000
  C   C42       1.0  0.14638  0.16771  0.16138  1.0000
  H   H38       1.0  0.17006  0.19072  0.12717  1.0000
  H   H39       1.0  0.16877  0.20657  0.14945  1.0000
  H   H40       1.0  0.14006  0.17187  0.18746  1.0000
  H   H41       1.0  0.14011  0.15692  0.16468  1.0000
  C   C43       1.0  0.12209  0.15346  0.04499  1.0000
  C   C44       1.0  0.12958  0.14527  0.03098  1.0000
  C   C45       1.0  0.11967  0.13774  0.02452  1.0000
  C   C46       1.0  0.10224  0.13821  0.03220  1.0000
  C   C47       1.0  0.09467  0.14688  0.04580  1.0000
  C   C48       1.0  0.10445  0.15477  0.05194  1.0000
  H   H42       1.0  0.14317  0.14441  0.02537  1.0000
  H   H43       1.0  0.12563  0.13101  0.01405  1.0000
  S   S31       1.0  0.01255  0.17311  0.20586  1.0000
  H   H44       1.0  0.21783  0.23316  0.18862  1.0000
  H   H45       1.0  0.15104  0.14541  0.99205  1.0000
  H   H46       1.0  0.08202  0.11916  0.18186  1.0000
  H   H47       1.0  0.20697  0.21042  0.15747  1.0000
  H   H48       1.0  0.12868  0.19958  0.13075  1.0000
  H   H49       1.0  0.15425  0.22940  0.20719  1.0000
  C   C49       1.0  0.20863  0.20578  0.27023  1.0000
  C   C50       1.0  0.07786  0.22203  0.17530  1.0000
  N   N1        1.0  0.17291  0.10819  0.17263  1.0000
  C   C51       1.0  0.15551  0.10369  0.17571  1.0000
  C   C52       1.0  0.17058  0.12270  0.18172  1.0000
  C   C53       1.0  0.18054  0.11398  0.15372  1.0000
  C   C54       1.0  0.17597  0.10607  0.14068  1.0000
  C   C55       1.0  0.14088  0.11897  0.17062  1.0000
  C   C56       1.0  0.18619  0.11147  0.12244  1.0000
  C   C57       1.0  0.12567  0.11269  0.16875  1.0000
  H   H50       1.0  0.15120  0.09797  0.18962  1.0000
  H   H51       1.0  0.15622  0.09348  0.16882  1.0000
  H   H52       1.0  0.16335  0.11959  0.19531  1.0000
  H   H53       1.0  0.16258  0.13455  0.17547  1.0000
  H   H54       1.0  0.17650  0.12817  0.14951  1.0000
  H   H55       1.0  0.16214  0.11057  0.14020  1.0000
  H   H56       1.0  0.17857  0.09188  0.14412  1.0000
  H   H57       1.0  0.13613  0.12680  0.18073  1.0000
  H   H58       1.0  0.14544  0.12756  0.15831  1.0000
  H   H59       1.0  0.17590  0.07186  0.17633  1.0000
  H   H60       1.0  0.20023  0.10664  0.12183  1.0000
  H   H61       1.0  0.18231  0.10604  0.11334  1.0000
  H   H62       1.0  0.18351  0.12572  0.11830  1.0000
  H   H63       1.0  0.11961  0.10543  0.18128  1.0000
  H   H64       1.0  0.11594  0.12382  0.16406  1.0000
  H   H65       1.0  0.12996  0.10429  0.15920  1.0000
  H   H66       1.0  0.18032  0.15553  0.17509  1.0000
  H   H67       1.0  0.17332  0.14680  0.19778  1.0000
  H   H68       1.0  0.17166  0.10603  0.05865  1.0000
  H   H69       1.0  0.19336  0.11827  0.19265  1.0000
  H   H70       1.0  0.19484  0.11154  0.15151  1.0000
  N   N2        1.0  0.20790  0.21048  0.19111  1.0000
  C   C58       1.0  0.21226  0.19514  0.18271  1.0000
  C   C59       1.0  0.21255  0.20469  0.20863  1.0000
  C   C60       1.0  0.18859  0.21693  0.19394  1.0000
  C   C61       1.0  0.14122  0.19777  0.29970  1.0000
  H   H71       1.0  0.09519  0.23022  0.19502  1.0000
  C   C62       1.0  0.20502  0.19803  0.16631  1.0000
  C   C63       1.0  0.19745  0.15671  0.29099  1.0000
  C   C64       1.0  0.23172  0.19676  0.20908  1.0000
  C   C65       1.0  0.23411  0.18986  0.22763  1.0000
  H   H72       1.0  0.42454  0.22934  0.25654  1.0000
  C   C66       1.0  0.21331  0.18348  0.15651  1.0000
  C   C67       1.0  0.11403  0.19809  0.02013  1.0000
  H   H73       1.0  0.20726  0.18412  0.19197  1.0000
  H   H74       1.0  0.22637  0.19029  0.17939  1.0000
  S   S32       1.0  0.24682  0.23333  0.31549  1.0000
  H   H75       1.0  0.20478  0.19517  0.21700  1.0000
  H   H76       1.0  0.18182  0.20611  0.20029  1.0000
  H   H77       1.0  0.13206  0.17094  0.00292  1.0000
  C   C68       1.0  0.01108  0.18717  0.12614  1.0000
  H   H78       1.0  0.06062  0.00922  0.18321  1.0000
  H   H79       1.0  0.12050  0.20188  0.21377  1.0000
  H   H80       1.0  0.20919  0.21561  0.21535  1.0000
  H   H81       1.0  0.11097  0.99568  0.19040  1.0000
  H   H82       1.0  0.14972  0.19872  0.27183  1.0000
  C   C69       1.0  0.17973  0.15891  0.30308  1.0000
  H   H83       1.0  0.39330  0.23598  0.29824  1.0000
  H   H84       1.0  0.23678  0.18588  0.20230  1.0000
  H   H85       1.0  0.38187  0.20600  0.29177  1.0000
  H   H86       1.0  0.22660  0.17965  0.23425  1.0000
  H   H87       1.0  0.24793  0.18429  0.22771  1.0000
  H   H88       1.0  0.18172  0.15853  0.31602  1.0000
  H   H89       1.0  0.99901  0.17883  0.16248  1.0000
  C   C70       1.0  0.09930  0.99259  0.24673  1.0000
  H   H90       1.0  0.10424  0.22343  0.02665  1.0000
  H   H91       1.0  0.19627  0.15629  0.27794  1.0000
  H   H92       1.0  0.20726  0.18559  0.14532  1.0000
  H   H93       1.0  0.22734  0.18306  0.15167  1.0000
  H   H94       1.0  0.04967  0.99498  0.20033  1.0000
  H   H95       1.0  0.07518  0.19467  0.99395  1.0000
  H   H96       1.0  0.22455  0.21491  0.28186  1.0000
  N   N3        1.0  0.12143  0.09580  0.07233  1.0000
  C   C71       1.0  0.11477  0.08988  0.05984  1.0000
  C   C72       1.0  0.10828  0.11046  0.07911  1.0000
  C   C73       1.0  0.13758  0.10240  0.06247  1.0000
  C   C74       1.0  0.12626  0.08135  0.08693  1.0000
  C   C75       1.0  0.11172  0.07233  0.09865  1.0000
  C   C76       1.0  0.12720  0.07560  0.05085  1.0000
  C   C77       1.0  0.14475  0.11235  0.07180  1.0000
  C   C78       1.0  0.08889  0.11022  0.08166  1.0000
  C   C79       1.0  0.07727  0.12410  0.09121  1.0000
  C   C80       1.0  0.11898  0.05646  0.11115  1.0000
  C   C81       1.0  0.11872  0.07085  0.03872  1.0000
  C   C82       1.0  0.16146  0.11757  0.06084  1.0000
  H   H97       1.0  0.11115  0.10109  0.04950  1.0000
  H   H98       1.0  0.10273  0.08510  0.06613  1.0000
  H   H99       1.0  0.11066  0.11178  0.09133  1.0000
  H   H100      1.0  0.10985  0.12282  0.07010  1.0000
  H   H101      1.0  0.13532  0.11111  0.05005  1.0000
  H   H102      1.0  0.14829  0.09160  0.05902  1.0000
  H   H103      1.0  0.13718  0.07144  0.08197  1.0000
  H   H104      1.0  0.13117  0.08615  0.09578  1.0000
  H   H105      1.0  0.10485  0.06805  0.09110  1.0000
  H   H106      1.0  0.10244  0.08120  0.10656  1.0000
  H   H107      1.0  0.13906  0.07996  0.04288  1.0000
  H   H108      1.0  0.13081  0.06380  0.06046  1.0000
  H   H109      1.0  0.14764  0.10445  0.08422  1.0000
  H   H110      1.0  0.13543  0.12430  0.07433  1.0000
  H   H111      1.0  0.08542  0.11287  0.06888  1.0000
  H   H112      1.0  0.08574  0.09771  0.08893  1.0000
  H   H113      1.0  0.07994  0.13699  0.08439  1.0000
  H   H114      1.0  0.06356  0.12428  0.09189  1.0000
  H   H115      1.0  0.07931  0.12148  0.10455  1.0000
  H   H116      1.0  0.12584  0.06008  0.11925  1.0000
  H   H117      1.0  0.10834  0.05041  0.11977  1.0000
  H   H118      1.0  0.12808  0.04684  0.10400  1.0000
  H   H119      1.0  0.12787  0.06077  0.03222  1.0000
  H   H120      1.0  0.10698  0.06581  0.04599  1.0000
  C   C83       1.0  0.99991  0.17441  0.13733  1.0000
  H   H121      1.0  0.08849  0.05391  0.15101  1.0000
  C   C84       1.0  0.18492  0.09298  0.18096  1.0000
  C   C85       1.0  0.07082  0.11506  0.16237  1.0000
  H   H122      1.0  0.20105  0.04920  0.18123  1.0000
  C   C86       1.0  0.18811  0.07587  0.17497  1.0000
  H   H123      1.0  0.19690  0.12754  0.16992  1.0000
  H   H124      1.0  0.19564  0.14770  0.18894  1.0000
  H   H125      1.0  0.06537  0.13689  0.17467  1.0000
  H   H126      1.0  0.21161  0.06425  0.18489  1.0000
  H   H127      1.0  0.10155  0.21496  0.99984  1.0000
  C   C87       1.0  0.06069  0.17767  0.25350  1.0000
  C   C88       1.0  0.11853  0.21141  0.12902  1.0000
  C   C89       1.0  0.43243  0.22359  0.30530  1.0000
  H   H128      1.0  0.11364  0.15591  0.30043  1.0000
  H   H129      1.0  0.07197  0.22308  0.16422  1.0000
  H   H130      1.0  0.03044  0.14111  0.28823  1.0000
  H   H131      1.0  0.07670  0.06323  0.13390  1.0000
  H   H132      1.0  0.05633  0.21175  0.19408  1.0000
  H   H133      1.0  0.24344  0.20992  0.17543  1.0000
  C   C90       1.0  0.40252  0.22980  0.28788  1.0000
  C   C91       1.0  0.10262  0.20988  0.14352  1.0000
  H   H134      1.0  0.10231  0.19338  0.02804  1.0000
  H   H135      1.0  0.11820  0.19834  0.16282  1.0000
  H   H136      1.0  0.10776  0.17487  0.16373  1.0000
  H   H137      1.0  0.17470  0.18667  0.29417  1.0000
  H   H138      1.0  0.36827  0.22651  0.29512  1.0000
  H   H139      1.0  0.07978  0.15733  0.18970  1.0000
  C   C92       1.0  0.10668  0.20875  0.16123  1.0000
  H   H140      1.0  0.12461  0.21976  0.26306  1.0000
  H   H141      1.0  0.07507  0.07853  0.16773  1.0000
  H   H142      1.0  0.09884  0.14742  0.17614  1.0000
  C   C93       1.0  0.09821  0.17381  0.17611  1.0000
  H   H143      1.0  0.10526  0.16979  0.18675  1.0000
  C   C94       1.0  0.08913  0.15946  0.17721  1.0000
  H   H144      1.0  0.10994  0.19208  0.19312  1.0000
  H   H145      1.0  0.03225  0.07669  0.17913  1.0000
  C   C95       1.0  0.07644  0.12671  0.17058  1.0000
  H   H146      1.0  0.08220  0.16271  0.16648  1.0000
  N   N4        1.0  0.09211  0.20624  0.17665  1.0000
  C   C96       1.0  0.08492  0.19091  0.17734  1.0000
  H   H147      1.0  0.00899  0.11975  0.14316  1.0000
  H   H148      1.0  0.06060  0.05607  0.17274  1.0000
  C   C97       1.0  0.05672  0.10601  0.17521  1.0000
  N   N5        1.0  0.04957  0.09462  0.16829  1.0000
  H   H149      1.0  0.07529  0.18830  0.18956  1.0000
  H   H150      1.0  0.12162  0.00929  0.16099  1.0000
  H   H151      1.0  0.43360  0.21570  0.27376  1.0000
  C   C98       1.0  0.09885  0.20319  0.19279  1.0000
  C   C99       1.0  0.06463  0.08212  0.16029  1.0000
  C   C100      1.0  0.07602  0.05556  0.14727  1.0000
  H   H152      1.0  0.16706  0.17534  0.28326  1.0000
  H   H153      1.0  0.11576  0.22445  0.21416  1.0000
  H   H154      1.0  0.14604  0.15378  0.31457  1.0000
  H   H155      1.0  0.08892  0.19950  0.20439  1.0000
  C   C101      1.0  0.06132  0.06455  0.15971  1.0000
  H   H156      1.0  0.06630  0.12314  0.15074  1.0000
  H   H157      1.0  0.21128  0.17091  0.16498  1.0000
  H   H158      1.0  0.44290  0.21586  0.29712  1.0000
  H   H159      1.0  0.06092  0.00087  0.22200  1.0000
  H   H160      1.0  0.08244  0.10547  0.15835  1.0000
  H   H161      1.0  0.04915  0.06570  0.15576  1.0000
  H   H162      1.0  0.01956  0.18935  0.13356  1.0000
  C   C102      1.0  0.09600  0.00035  0.22858  1.0000
  H   H163      1.0  0.06580  0.06223  0.26038  1.0000
  H   H164      1.0  0.07185  0.17656  0.03203  1.0000
  H   H165      1.0  0.08604  0.04894  0.26458  1.0000
  C   C103      1.0  0.07648  0.06087  0.26689  1.0000
  H   H166      1.0  0.11635  0.20787  0.04131  1.0000
  C   C104      1.0  0.46012  0.22355  0.24875  1.0000
  H   H167      1.0  0.02114  0.08993  0.15698  1.0000
  H   H168      1.0  0.08588  0.10066  0.28243  1.0000
  H   H169      1.0  0.11098  0.22080  0.16021  1.0000
  N   N6        1.0  0.08518  0.99380  0.20438  1.0000
  C   C105      1.0  0.16787  0.17601  0.29633  1.0000
  H   H170      1.0  0.06728  0.22264  0.20292  1.0000
  H   H171      1.0  0.04632  0.11621  0.18026  1.0000
  C   C106      1.0  0.06848  0.17946  0.01922  1.0000
  H   H172      1.0  0.04839  0.11254  0.14393  1.0000
  C   C107      1.0  0.02379  0.09627  0.19447  1.0000
  H   H173      1.0  0.14936  0.99451  0.18807  1.0000
  C   C108      1.0  0.03964  0.10605  0.15501  1.0000
  H   H174      1.0  0.08269  0.02158  0.17357  1.0000
  H   H175      1.0  0.05487  0.18653  0.02039  1.0000
  H   H176      1.0  0.20580  0.14447  0.29608  1.0000
  H   H177      1.0  0.04739  0.18124  0.25995  1.0000
  H   H178      1.0  0.07089  0.17950  0.27449  1.0000
  C   C109      1.0  0.01884  0.11099  0.13552  1.0000
  H   H179      1.0  0.19100  0.19827  0.16999  1.0000
  H   H180      1.0  0.03922  0.08904  0.13868  1.0000
  H   H181      1.0  0.02701  0.11871  0.12495  1.0000
  H   H182      1.0  0.03023  0.11668  0.16040  1.0000
  H   H183      1.0  0.01211  0.10457  0.12969  1.0000
  H   H184      1.0  0.01657  0.10725  0.18643  1.0000
  S   S33       1.0  0.07854  0.11097  0.99028  1.0000
  H   H185      1.0  0.03652  0.14956  0.26544  1.0000
  C   C110      1.0  0.04150  0.14210  0.27709  1.0000
  H   H186      1.0  0.11783  0.11511  0.21161  1.0000
  Fe  Fe16      1.0  0.09173  0.12765  0.99823  1.0000
  H   H187      1.0  0.09873  0.17018  0.99554  1.0000
  H   H188      1.0  0.07134  0.05964  0.28097  1.0000
  C   C111      1.0  0.02989  0.09744  0.14702  1.0000
  C   C112      1.0  0.09780  0.00381  0.19157  1.0000
  H   H189      1.0  0.45035  0.23450  0.31271  1.0000
  H   H190      1.0  0.17418  0.14773  0.30384  1.0000
  H   H191      1.0  0.07933  0.20198  0.01104  1.0000
  C   C113      1.0  0.07215  0.09340  0.26204  1.0000
  C   C114      1.0  0.08520  0.07632  0.25964  1.0000
  H   H192      1.0  0.09595  0.07435  0.26623  1.0000
  H   H193      1.0  0.09067  0.07632  0.24575  1.0000
  H   H194      1.0  0.06222  0.09493  0.25453  1.0000
  H   H195      1.0  0.05008  0.14913  0.27970  1.0000
  C   C115      1.0  0.09908  0.18015  0.00225  1.0000
  H   H196      1.0  0.21882  0.19529  0.26647  1.0000
  H   H197      1.0  0.12041  0.11624  0.27422  1.0000
  H   H198      1.0  0.04375  0.03423  0.19652  1.0000
  H   H199      1.0  0.05798  0.12614  0.24703  1.0000
  C   C116      1.0  0.09016  0.11002  0.23877  1.0000
  H   H200      1.0  0.13009  0.19089  0.28110  1.0000
  H   H201      1.0  0.10220  0.10006  0.23855  1.0000
  C   C117      1.0  0.09536  0.12721  0.22862  1.0000
  N   N7        1.0  0.07972  0.10937  0.25699  1.0000
  H   H202      1.0  0.08296  0.10669  0.23080  1.0000
  H   H203      1.0  0.08377  0.13741  0.22685  1.0000
  C   C118      1.0  0.13748  0.20024  0.28156  1.0000
  C   C119      1.0  0.10610  0.12542  0.21069  1.0000
  H   H204      1.0  0.09834  0.19826  0.14328  1.0000
  H   H205      1.0  0.25561  0.23190  0.15219  1.0000
  H   H206      1.0  0.04190  0.11658  0.27452  1.0000
  H   H207      1.0  0.10782  0.00482  0.22061  1.0000
  H   H208      1.0  0.99195  0.15031  0.17740  1.0000
  C   C120      1.0  0.23451  0.22012  0.16850  1.0000
  H   H209      1.0  0.06521  0.09148  0.27576  1.0000
  H   H210      1.0  0.12543  0.18761  0.02180  1.0000
  H   H211      1.0  0.10290  0.00226  0.25164  1.0000
  C   C121      1.0  0.12994  0.17849  0.99009  1.0000
  C   C122      1.0  0.37695  0.21935  0.28529  1.0000
  C   C123      1.0  0.09430  0.01109  0.17319  1.0000
  H   H212      1.0  0.10699  0.02299  0.14780  1.0000
  H   H213      1.0  0.01757  0.07440  0.21483  1.0000
  C   C124      1.0  0.10926  0.01887  0.16113  1.0000
  H   H214      1.0  0.12425  0.21024  0.99420  1.0000
  C   C125      1.0  0.06498  0.12473  0.25743  1.0000
  C   C126      1.0  0.05472  0.00697  0.19711  1.0000
  H   H215      1.0  0.10394  0.09989  0.26548  1.0000
  C   C127      1.0  0.43017  0.22947  0.26741  1.0000
  H   H216      1.0  0.09631  0.13444  0.26051  1.0000
  H   H217      1.0  0.18453  0.22227  0.18137  1.0000
  H   H218      1.0  0.10256  0.17278  0.01465  1.0000
  H   H219      1.0  0.06976  0.13686  0.25441  1.0000
  H   H220      1.0  0.00147  0.09394  0.21536  1.0000
  H   H221      1.0  0.12371  0.22273  0.12865  1.0000
  H   H222      1.0  0.13397  0.22823  0.27580  1.0000
  H   H223      1.0  0.00373  0.08164  0.19936  1.0000
  C   C128      1.0  0.10792  0.12175  0.28204  1.0000
  H   H224      1.0  0.03263  0.01981  0.21391  1.0000
  C   C129      1.0  0.01088  0.08585  0.20672  1.0000
  H   H225      1.0  0.09843  0.01511  0.19622  1.0000
  H   H226      1.0  0.03012  0.02255  0.19214  1.0000
  H   H227      1.0  0.09838  0.12235  0.20306  1.0000
  C   C130      1.0  0.21193  0.21689  0.27910  1.0000
  H   H228      1.0  0.11035  0.03031  0.16525  1.0000
  C   C131      1.0  0.09101  0.10792  0.26941  1.0000
  H   H229      1.0  0.08521  0.01167  0.22930  1.0000
  C   C132      1.0  0.06767  0.00530  0.20850  1.0000
  C   C133      1.0  0.06276  0.22278  0.19129  1.0000
  C   C134      1.0  0.11563  0.21271  0.02752  1.0000
  H   H230      1.0  0.08138  0.13113  0.28049  1.0000
  H   H231      1.0  0.10341  0.13125  0.23504  1.0000
  H   H232      1.0  0.06919  0.01847  0.20813  1.0000
  C   C135      1.0  0.44700  0.23619  0.25894  1.0000
  C   C136      1.0  0.03938  0.02182  0.20014  1.0000
  H   H233      1.0  0.20834  0.23393  0.17141  1.0000
  H   H234      1.0  0.11022  0.13771  0.20391  1.0000
  H   H235      1.0  0.06957  0.16718  0.01533  1.0000
  C   C137      1.0  0.08028  0.19047  0.00596  1.0000
  H   H236      1.0  0.14185  0.16466  0.29415  1.0000
  H   H237      1.0  0.10529  0.11282  0.29468  1.0000
  H   H238      1.0  0.40745  0.21637  0.29417  1.0000
  C   C138      1.0  0.17934  0.22153  0.27167  1.0000
  H   H239      1.0  0.36926  0.21886  0.27621  1.0000
  H   H240      1.0  0.00288  0.19967  0.12143  1.0000
  H   H241      1.0  0.22981  0.20041  0.23491  1.0000
  H   H242      1.0  0.05730  0.11782  0.28590  1.0000
  C   C139      1.0  0.05134  0.12412  0.27460  1.0000
  C   C140      1.0  0.39188  0.22831  0.27542  1.0000
  C   C141      1.0  0.14036  0.16656  0.30742  1.0000
  N   N8        1.0  0.11250  0.19048  0.99191  1.0000
  H   H243      1.0  0.00873  0.16180  0.14017  1.0000
  H   H244      1.0  0.20376  0.16750  0.28991  1.0000
  H   H245      1.0  0.47192  0.22885  0.24248  1.0000
  H   H246      1.0  0.14927  0.20724  0.29837  1.0000
  C   C142      1.0  0.12695  0.21823  0.27613  1.0000
  H   H247      1.0  0.46381  0.21104  0.25746  1.0000
  C   C143      1.0  0.10528  0.21829  0.19535  1.0000
  C   C144      1.0  0.21655  0.22505  0.18024  1.0000
  H   H248      1.0  0.01937  0.18196  0.11483  1.0000
  H   H249      1.0  0.23320  0.21532  0.15756  1.0000
  C   C145      1.0  0.11046  0.21387  0.21278  1.0000
  H   H250      1.0  0.11425  0.22018  0.28518  1.0000
  H   H251      1.0  0.39999  0.22059  0.26585  1.0000
  C   C146      1.0  0.19895  0.23048  0.28435  1.0000
  N   N9        1.0  0.15003  0.17993  0.30726  1.0000
  H   H252      1.0  0.16678  0.22359  0.26879  1.0000
  S   S34       1.0  0.14520  0.98971  0.22509  1.0000
  H   H253      1.0  0.42253  0.21587  0.31234  1.0000
  H   H254      1.0  0.11393  0.18247  0.30922  1.0000
  H   H255      1.0  0.23957  0.20676  0.20330  1.0000
  H   H256      1.0  0.09268  0.00103  0.16739  1.0000
  H   H257      1.0  0.09914  0.21202  0.22349  1.0000
  H   H258      1.0  0.09238  0.22128  0.14047  1.0000
  H   H259      1.0  0.12895  0.20208  0.30861  1.0000
  C   C147      1.0  0.11241  0.15605  0.31420  1.0000
  H   H260      1.0  0.11679  0.22090  0.18522  1.0000
  H   H261      1.0  0.18074  0.22515  0.21876  1.0000
  H   H262      1.0  0.12754  0.21755  0.02054  1.0000
  H   H263      1.0  0.08756  0.98872  0.25563  1.0000
  C   C148      1.0  0.12083  0.17001  0.31568  1.0000
  Fe  Fe17      1.0  0.99523  0.15706  0.22560  1.0000
  C   C149      1.0  0.18260  0.23257  0.28063  1.0000
  C   C150      1.0  0.18090  0.23097  0.20491  1.0000
  H   H264      1.0  0.08310  0.23392  0.17231  1.0000
  H   H265      1.0  0.14048  0.18584  0.98516  1.0000
  C   C151      1.0  0.24303  0.23568  0.16087  1.0000
  C   C152      1.0  0.16217  0.18885  0.34673  1.0000
  H   H266      1.0  0.28745  0.21006  0.32158  1.0000
  H   H267      1.0  0.29638  0.20759  0.36459  1.0000
  H   H268      1.0  0.29929  0.22230  0.41625  1.0000
  H   H269      1.0  0.32098  0.23502  0.36948  1.0000
  H   H270      1.0  0.11847  0.14319  0.32082  1.0000
  H   H271      1.0  0.35011  0.23416  0.34700  1.0000
  C   C153      1.0  0.24072  0.23167  0.38424  1.0000
  H   H272      1.0  0.29713  0.23451  0.56161  1.0000
  H   H273      1.0  0.28987  0.20390  0.39293  1.0000
  H   H274      1.0  0.27882  0.21669  0.41870  1.0000
  H   H275      1.0  0.24092  0.20523  0.39688  1.0000
  C   C154      1.0  0.24285  0.21996  0.41412  1.0000
  H   H276      1.0  0.14890  0.19302  0.35402  1.0000
  C   C155      1.0  0.16225  0.19068  0.32773  1.0000
  H   H277      1.0  0.34572  0.22035  0.33541  1.0000
  C   C156      1.0  0.28505  0.20904  0.33573  1.0000
  H   H278      1.0  0.29037  0.19564  0.34177  1.0000
  H   H279      1.0  0.31088  0.20849  0.39036  1.0000
  H   H280      1.0  0.42998  0.23401  0.32789  1.0000
  S   S35       1.0  0.23919  0.22734  0.36477  1.0000
  H   H281      1.0  0.27090  0.21198  0.34072  1.0000
  C   C157      1.0  0.24149  0.21780  0.39825  1.0000
  C   C158      1.0  0.29681  0.21314  0.39452  1.0000
  H   H282      1.0  0.29908  0.23551  0.64169  1.0000
  H   H283      1.0  0.13758  0.18370  0.33305  1.0000
  C   C159      1.0  0.29075  0.23138  0.38407  1.0000
  C   C160      1.0  0.31898  0.22807  0.44435  1.0000
  H   H284      1.0  0.24331  0.20904  0.42483  1.0000
  C   C161      1.0  0.29023  0.22090  0.35910  1.0000
  H   H285      1.0  0.15754  0.20449  0.32251  1.0000
  H   H286      1.0  0.29769  0.20002  0.42097  1.0000
  C   C162      1.0  0.29292  0.21308  0.41377  1.0000
  H   H287      1.0  0.31863  0.22312  0.43314  1.0000
  H   H288      1.0  0.16735  0.17531  0.35251  1.0000
  H   H289      1.0  0.15508  0.16595  0.33229  1.0000
  H   H290      1.0  0.32170  0.21723  0.36085  1.0000
  C   C163      1.0  0.29358  0.22175  0.33946  1.0000
  C   C164      1.0  0.15074  0.17940  0.32555  1.0000
  C   C165      1.0  0.31596  0.23119  0.35997  1.0000
  H   H291      1.0  0.27611  0.22196  0.36432  1.0000
  H   H292      1.0  0.32769  0.21821  0.45196  1.0000
  H   H293      1.0  0.44594  0.21446  0.32645  1.0000
  C   C166      1.0  0.44014  0.22688  0.31888  1.0000
  H   H294      1.0  0.30759  0.21807  0.33421  1.0000
  H   H295      1.0  0.17045  0.19707  0.34793  1.0000
  H   H296      1.0  0.11874  0.17010  0.32955  1.0000
  C   C167      1.0  0.34340  0.23380  0.33704  1.0000
  H   H297      1.0  0.30576  0.23015  0.45247  1.0000
  N   N10       1.0  0.29649  0.23391  0.36468  1.0000
  H   H298      1.0  0.17585  0.18694  0.32108  1.0000
  H   H299      1.0  0.09847  0.15870  0.32026  1.0000
  H   H300      1.0  0.27645  0.23453  0.38784  1.0000
  H   H301      1.0  0.28836  0.23467  0.33237  1.0000
  H   H302      1.0  0.34783  0.23701  0.63678  1.0000
  C   C168      1.0  0.24363  0.23601  0.41631  1.0000
  C   C169      1.0  0.42273  0.20834  0.70655  1.0000
  H   H303      1.0  0.04581  0.19772  0.92357  1.0000
  H   H304      1.0  0.03765  0.06761  0.92540  1.0000
  Fe  Fe18      1.0  0.02195  0.12200  0.85562  1.0000
  S   S36       1.0  0.00623  0.14874  0.85151  1.0000
  S   S37       1.0  0.02897  0.11025  0.83230  1.0000
  Fe  Fe19      1.0  0.02049  0.12149  0.89282  1.0000
  S   S38       1.0  0.11605  0.12344  0.97809  1.0000
  S   S39       1.0  0.02967  0.10520  0.91653  1.0000
  H   H305      1.0  0.00825  0.09191  0.78501  1.0000
  Fe  Fe20      1.0  0.02286  0.15419  0.86630  1.0000
  S   S40       1.0  0.03156  0.17940  0.85748  1.0000
  S   S41       1.0  0.00407  0.11268  0.88012  1.0000
  S   S42       1.0  0.03995  0.12809  0.86845  1.0000
  Fe  Fe21      1.0  0.10805  0.05424  0.88046  1.0000
  S   S43       1.0  0.13288  0.03575  0.88349  1.0000
  S   S44       1.0  0.09279  0.07313  0.89688  1.0000
  Fe  Fe22      1.0  0.10763  0.04505  0.84724  1.0000
  S   S45       1.0  0.13264  0.02604  0.84710  1.0000
  S   S46       1.0  0.09378  0.04961  0.82594  1.0000
  H   H306      1.0  0.44287  0.21826  0.71119  1.0000
  Fe  Fe23      1.0  0.14122  0.04602  0.85517  1.0000
  S   S47       1.0  0.16688  0.05332  0.84288  1.0000
  S   S48       1.0  0.09590  0.03542  0.87478  1.0000
  S   S49       1.0  0.11713  0.06577  0.85272  1.0000
  C   C170      1.0  0.11614  0.21601  0.94416  1.0000
  S   S50       1.0  0.09084  0.13146  0.95043  1.0000
  H   H307      1.0  0.07162  0.06064  0.93914  1.0000
  Fe  Fe24      1.0  0.10241  0.14653  0.96168  1.0000
  S   S51       1.0  0.11209  0.16913  0.94380  1.0000
  Fe  Fe25      1.0  0.10198  0.10854  0.96879  1.0000
  C   C171      1.0  0.05238  0.18409  0.92338  1.0000
  H   H308      1.0  0.33849  0.23444  0.65960  1.0000
  S   S52       1.0  0.12295  0.98954  0.88733  1.0000
  C   C172      1.0  0.10810  0.19898  0.97458  1.0000
  H   H309      1.0  0.22511  0.13550  0.75569  1.0000
  H   H310      1.0  0.24985  0.18119  0.73471  1.0000
  C   C173      1.0  0.43664  0.21962  0.70026  1.0000
  H   H311      1.0  0.09563  0.20839  0.97612  1.0000
  S   S53       1.0  0.11515  0.08296  0.96109  1.0000
  H   H312      1.0  0.44121  0.18389  0.70915  1.0000
  S   S54       1.0  0.20881  0.23185  0.73370  1.0000
  Fe  Fe26      1.0  0.13247  0.17931  0.83432  1.0000
  S   S55       1.0  0.15078  0.18512  0.84711  1.0000
  S   S56       1.0  0.10626  0.19638  0.83428  1.0000
  Fe  Fe27      1.0  0.15832  0.15034  0.82047  1.0000
  S   S57       1.0  0.17888  0.15324  0.83206  1.0000
  S   S58       1.0  0.16445  0.13091  0.80378  1.0000
  Fe  Fe28      1.0  0.15782  0.15650  0.85519  1.0000
  S   S59       1.0  0.16453  0.14274  0.88053  1.0000
  Fe  Fe29      1.0  0.17053  0.18166  0.82292  1.0000
  S   S60       1.0  0.19130  0.19747  0.81290  1.0000
  S   S61       1.0  0.13779  0.15086  0.84458  1.0000
  S   S62       1.0  0.15169  0.17856  0.80917  1.0000
  C   C174      1.0  0.06368  0.18726  0.94798  1.0000
  H   H313      1.0  0.06315  0.07694  0.96251  1.0000
  C   C175      1.0  0.18396  0.21011  0.78060  1.0000
  C   C176      1.0  0.19618  0.20643  0.79076  1.0000
  H   H314      1.0  0.41900  0.20613  0.69539  1.0000
  C   C177      1.0  0.34456  0.22556  0.70893  1.0000
  H   H315      1.0  0.19366  0.10766  0.76071  1.0000
  H   H316      1.0  0.17126  0.20740  0.78637  1.0000
  C   C178      1.0  0.32834  0.22144  0.71232  1.0000
  C   C179      1.0  0.08747  0.02436  0.93329  1.0000
  C   C180      1.0  0.12648  0.16186  0.92615  1.0000
  C   C181      1.0  0.13959  0.14737  0.92880  1.0000
  C   C182      1.0  0.15141  0.14179  0.91464  1.0000
  C   C183      1.0  0.14970  0.15022  0.89789  1.0000
  C   C184      1.0  0.13627  0.16442  0.89524  1.0000
  C   C185      1.0  0.12482  0.17044  0.90939  1.0000
  H   H317      1.0  0.14086  0.14075  0.94176  1.0000
  H   H318      1.0  0.16198  0.13102  0.91659  1.0000
  H   H319      1.0  0.13480  0.17087  0.88232  1.0000
  H   H320      1.0  0.11457  0.18156  0.90736  1.0000
  C   C186      1.0  0.09917  0.07472  0.91505  1.0000
  C   C187      1.0  0.11247  0.06274  0.92188  1.0000
  C   C188      1.0  0.11716  0.06507  0.93631  1.0000
  C   C189      1.0  0.10853  0.07932  0.94385  1.0000
  C   C190      1.0  0.09494  0.09083  0.93724  1.0000
  C   C191      1.0  0.09035  0.08856  0.92288  1.0000
  H   H321      1.0  0.11923  0.05188  0.91596  1.0000
  H   H322      1.0  0.12761  0.05600  0.94147  1.0000
  H   H323      1.0  0.08788  0.10150  0.94321  1.0000
  H   H324      1.0  0.07994  0.09762  0.91769  1.0000
  C   C192      1.0  0.16559  0.07502  0.83229  1.0000
  C   C193      1.0  0.15335  0.08826  0.83913  1.0000
  C   C194      1.0  0.15326  0.10555  0.83079  1.0000
  C   C195      1.0  0.16491  0.10955  0.81521  1.0000
  C   C196      1.0  0.17680  0.09628  0.80820  1.0000
  C   C197      1.0  0.17739  0.07913  0.81690  1.0000
  H   H325      1.0  0.14421  0.08517  0.85101  1.0000
  H   H326      1.0  0.14394  0.11573  0.83619  1.0000
  H   H327      1.0  0.18574  0.09925  0.79613  1.0000
  H   H328      1.0  0.18686  0.06896  0.81155  1.0000
  C   C198      1.0  0.03282  0.11670  0.93036  1.0000
  C   C199      1.0  0.04589  0.10948  0.93964  1.0000
  C   C200      1.0  0.04863  0.11815  0.95098  1.0000
  C   C201      1.0  0.03813  0.13406  0.95321  1.0000
  C   C202      1.0  0.02476  0.14119  0.94424  1.0000
  C   C203      1.0  0.02222  0.13260  0.93267  1.0000
  H   H329      1.0  0.05412  0.09728  0.93781  1.0000
  H   H330      1.0  0.05884  0.11251  0.95802  1.0000
  H   H331      1.0  0.03990  0.07424  0.94875  1.0000
  H   H332      1.0  0.01179  0.13806  0.92593  1.0000
  C   C204      1.0  0.04673  0.09313  0.83126  1.0000
  C   C205      1.0  0.05634  0.08741  0.84413  1.0000
  C   C206      1.0  0.07081  0.07391  0.84266  1.0000
  C   C207      1.0  0.07563  0.06624  0.82826  1.0000
  C   C208      1.0  0.06598  0.07201  0.81543  1.0000
  C   C209      1.0  0.05156  0.08545  0.81692  1.0000
  H   H333      1.0  0.05273  0.09349  0.85511  1.0000
  H   H334      1.0  0.07825  0.06951  0.85262  1.0000
  H   H335      1.0  0.06972  0.06613  0.80430  1.0000
  H   H336      1.0  0.04420  0.08996  0.80690  1.0000
  C   C210      1.0  0.05296  0.18247  0.85105  1.0000
  C   C211      1.0  0.05519  0.19936  0.84434  1.0000
  C   C212      1.0  0.07163  0.20310  0.83927  1.0000
  C   C213      1.0  0.08619  0.19005  0.84095  1.0000
  C   C214      1.0  0.08417  0.17299  0.84792  1.0000
  C   C215      1.0  0.06748  0.16916  0.85292  1.0000
  H   H337      1.0  0.04407  0.20970  0.84298  1.0000
  H   H338      1.0  0.07305  0.21628  0.83401  1.0000
  H   H339      1.0  0.09536  0.16288  0.84963  1.0000
  H   H340      1.0  0.06581  0.15608  0.85838  1.0000
  H   H341      1.0  0.00913  0.10050  0.81159  1.0000
  C   C216      1.0  0.12863  0.99218  0.80968  1.0000
  H   H342      1.0  0.08558  0.21171  0.86614  1.0000
  H   H343      1.0  0.10214  0.00402  0.86168  1.0000
  H   H344      1.0  0.07902  0.18609  0.92272  1.0000
  H   H345      1.0  0.18580  0.13644  0.76743  1.0000
  H   H346      1.0  0.35545  0.21561  0.71208  1.0000
  H   H347      1.0  0.32684  0.20835  0.71806  1.0000
  C   C217      1.0  0.21606  0.15916  0.79631  1.0000
  H   H348      1.0  0.21592  0.10942  0.75294  1.0000
  C   C218      1.0  0.20242  0.11683  0.75455  1.0000
  H   H349      1.0  0.05846  0.05840  0.97896  1.0000
  H   H350      1.0  0.99607  0.18260  0.90938  1.0000
  C   C219      1.0  0.21660  0.21789  0.76572  1.0000
  H   H351      1.0  0.05209  0.02263  0.96482  1.0000
  C   C220      1.0  0.04759  0.01930  0.95475  1.0000
  S   S63       1.0  0.04191  0.14525  0.96689  1.0000
  H   H352      1.0  0.29249  0.21300  0.66651  1.0000
  C   C221      1.0  0.13317  0.16533  0.97844  1.0000
  H   H353      1.0  0.04916  0.08284  0.88763  1.0000
  H   H354      1.0  0.05557  0.21511  0.88362  1.0000
  C   C222      1.0  0.06196  0.05239  0.94567  1.0000
  H   H355      1.0  0.12562  0.22342  0.93519  1.0000
  H   H356      1.0  0.10320  0.22463  0.94557  1.0000
  H   H357      1.0  0.20571  0.13930  0.79283  1.0000
  H   H358      1.0  0.20902  0.14871  0.74469  1.0000
  H   H359      1.0  0.22200  0.20752  0.79114  1.0000
  H   H360      1.0  0.03484  0.00017  0.97361  1.0000
  H   H361      1.0  0.18923  0.18708  0.74904  1.0000
  H   H362      1.0  0.18484  0.16733  0.74702  1.0000
  N   N11       1.0  0.05532  0.18060  0.90555  1.0000
  H   H363      1.0  0.41950  0.18281  0.72086  1.0000
  C   C223      1.0  0.11341  0.00621  0.81533  1.0000
  C   C224      1.0  0.05942  0.16148  0.90601  1.0000
  H   H364      1.0  0.18248  0.98747  0.79774  1.0000
  C   C225      1.0  0.19152  0.16636  0.77172  1.0000
  C   C226      1.0  0.22389  0.14864  0.81170  1.0000
  H   H365      1.0  0.41080  0.21434  0.71462  1.0000
  H   H366      1.0  0.46503  0.23321  0.69559  1.0000
  S   S64       1.0  0.29403  0.22788  0.71354  1.0000
  C   C227      1.0  0.07347  0.03497  0.92297  1.0000
  H   H367      1.0  0.13442  0.20082  0.95932  1.0000
  H   H368      1.0  0.22779  0.13849  0.78236  1.0000
  Fe  Fe30      1.0  0.06848  0.13512  0.97249  1.0000
  H   H369      1.0  0.00322  0.20262  0.90458  1.0000
  H   H370      1.0  0.04086  0.18785  0.88532  1.0000
  C   C228      1.0  0.04845  0.05687  0.90269  1.0000
  H   H371      1.0  0.23489  0.16347  0.76171  1.0000
  H   H372      1.0  0.15846  0.18942  0.75011  1.0000
  C   C229      1.0  0.23726  0.18582  0.73069  1.0000
  C   C230      1.0  0.22601  0.17235  0.73824  1.0000
  H   H373      1.0  0.19065  0.17635  0.77893  1.0000
  H   H374      1.0  0.06104  0.05140  0.89509  1.0000
  C   C231      1.0  0.21502  0.14740  0.78471  1.0000
  C   C232      1.0  0.07863  0.15220  0.90421  1.0000
  H   H375      1.0  0.19957  0.12349  0.74169  1.0000
  H   H376      1.0  0.03726  0.05487  0.96455  1.0000
  H   H377      1.0  0.05354  0.18116  0.95761  1.0000
  H   H378      1.0  0.04335  0.17635  0.93275  1.0000
  H   H379      1.0  0.48395  0.20111  0.75887  1.0000
  H   H380      1.0  0.21414  0.17705  0.73302  1.0000
  H   H381      1.0  0.06835  0.04198  0.95491  1.0000
  H   H382      1.0  0.21720  0.18124  0.76234  1.0000
  C   C233      1.0  0.20430  0.22179  0.75560  1.0000
  H   H383      1.0  0.02038  0.17934  0.92291  1.0000
  H   H384      1.0  0.08206  0.01677  0.94584  1.0000
  C   C234      1.0  0.10090  0.01193  0.92313  1.0000
  N   N12       1.0  0.15734  0.08720  0.89909  1.0000
  C   C235      1.0  0.14120  0.09269  0.89188  1.0000
  C   C236      1.0  0.16261  0.06783  0.90226  1.0000
  C   C237      1.0  0.15283  0.09235  0.91640  1.0000
  C   C238      1.0  0.17201  0.09541  0.88761  1.0000
  C   C239      1.0  0.17267  0.10012  0.86787  1.0000
  C   C240      1.0  0.13203  0.11182  0.89109  1.0000
  C   C241      1.0  0.16708  0.08605  0.92714  1.0000
  C   C242      1.0  0.16675  0.05943  0.88644  1.0000
  C   C243      1.0  0.17138  0.03984  0.89175  1.0000
  C   C244      1.0  0.18956  0.10545  0.85769  1.0000
  C   C245      1.0  0.11887  0.11719  0.87961  1.0000
  C   C246      1.0  0.16185  0.09368  0.94331  1.0000
  H   H385      1.0  0.13155  0.08491  0.89973  1.0000
  H   H386      1.0  0.14376  0.08998  0.87883  1.0000
  H   H387      1.0  0.17448  0.06337  0.90759  1.0000
  H   H388      1.0  0.15235  0.06200  0.91214  1.0000
  H   H389      1.0  0.14110  0.08772  0.92457  1.0000
  H   H390      1.0  0.14949  0.10660  0.91471  1.0000
  H   H391      1.0  0.17188  0.10755  0.89126  1.0000
  H   H392      1.0  0.18462  0.08706  0.88974  1.0000
  H   H393      1.0  0.16208  0.11110  0.86471  1.0000
  H   H394      1.0  0.17138  0.08933  0.86299  1.0000
  H   H395      1.0  0.12501  0.11382  0.90420  1.0000
  H   H396      1.0  0.14133  0.12046  0.88617  1.0000
  H   H397      1.0  0.17936  0.08971  0.91941  1.0000
  H   H398      1.0  0.16931  0.07187  0.93166  1.0000
  H   H399      1.0  0.15563  0.06272  0.88009  1.0000
  H   H400      1.0  0.17813  0.06342  0.87701  1.0000
  H   H401      1.0  0.16070  0.03485  0.90159  1.0000
  H   H402      1.0  0.17375  0.03408  0.88029  1.0000
  H   H403      1.0  0.18327  0.03577  0.89704  1.0000
  H   H404      1.0  0.20065  0.09460  0.85958  1.0000
  H   H405      1.0  0.18932  0.10919  0.84374  1.0000
  H   H406      1.0  0.19128  0.11666  0.86178  1.0000
  H   H407      1.0  0.12512  0.11518  0.86635  1.0000
  H   H408      1.0  0.10862  0.10957  0.88516  1.0000
  H   H409      1.0  0.11290  0.13105  0.87885  1.0000
  H   H410      1.0  0.17232  0.08904  0.95065  1.0000
  H   H411      1.0  0.15943  0.10792  0.93996  1.0000
  H   H412      1.0  0.15000  0.08965  0.95177  1.0000
  N   N13       1.0  0.09960  0.12782  0.81332  1.0000
  C   C247      1.0  0.10570  0.11124  0.80674  1.0000
  C   C248      1.0  0.08277  0.13783  0.80817  1.0000
  C   C249      1.0  0.11305  0.13864  0.80488  1.0000
  C   C250      1.0  0.09776  0.12473  0.83256  1.0000
  C   C251      1.0  0.08531  0.11284  0.84348  1.0000
  C   C252      1.0  0.12304  0.09989  0.81075  1.0000
  C   C253      1.0  0.10880  0.15679  0.80925  1.0000
  C   C254      1.0  0.07052  0.12744  0.80587  1.0000
  C   C255      1.0  0.05329  0.13910  0.80296  1.0000
  C   C256      1.0  0.08566  0.10925  0.86255  1.0000
  C   C257      1.0  0.12688  0.08275  0.80509  1.0000
  H   H413      1.0  0.10707  0.11412  0.79248  1.0000
  H   H414      1.0  0.09604  0.10291  0.81189  1.0000
  H   H415      1.0  0.07518  0.14606  0.81760  1.0000
  H   H416      1.0  0.08524  0.14699  0.79557  1.0000
  H   H417      1.0  0.11564  0.14010  0.79061  1.0000
  H   H418      1.0  0.12558  0.13223  0.80867  1.0000
  H   H419      1.0  0.11054  0.11959  0.83618  1.0000
  H   H420      1.0  0.09293  0.13712  0.83705  1.0000
  H   H421      1.0  0.08883  0.10023  0.83965  1.0000
  H   H422      1.0  0.07193  0.11907  0.84213  1.0000
  H   H423      1.0  0.13396  0.10632  0.80380  1.0000
  H   H424      1.0  0.12272  0.09690  0.82474  1.0000
  H   H425      1.0  0.11206  0.15566  0.82183  1.0000
  H   H426      1.0  0.07635  0.12145  0.79445  1.0000
  H   H427      1.0  0.06787  0.11712  0.81726  1.0000
  H   H428      1.0  0.04525  0.13158  0.80018  1.0000
  H   H429      1.0  0.04620  0.14422  0.81471  1.0000
  H   H430      1.0  0.05527  0.14997  0.79186  1.0000
  H   H431      1.0  0.07590  0.10150  0.87015  1.0000
  H   H432      1.0  0.09850  0.10170  0.86467  1.0000
  H   H433      1.0  0.08269  0.12141  0.86726  1.0000
  H   H434      1.0  0.11659  0.07542  0.81198  1.0000
  H   H435      1.0  0.12791  0.08487  0.79099  1.0000
  H   H436      1.0  0.13929  0.07490  0.80826  1.0000
  H   H437      1.0  0.13324  0.16275  0.79377  1.0000
  H   H438      1.0  0.08001  0.22943  0.87699  1.0000
  H   H439      1.0  0.03977  0.04773  0.90555  1.0000
  H   H440      1.0  0.00832  0.11384  0.77318  1.0000
  H   H441      1.0  0.11444  0.00935  0.82734  1.0000
  H   H442      1.0  0.03977  0.07020  0.87903  1.0000
  H   H443      1.0  0.02578  0.16616  0.90709  1.0000
  H   H444      1.0  0.15732  0.17186  0.76856  1.0000
  H   H445      1.0  0.10704  0.01904  0.91056  1.0000
  H   H446      1.0  0.03137  0.99110  0.84979  1.0000
  H   H447      1.0  0.07523  0.18434  0.95363  1.0000
  H   H448      1.0  0.16157  0.19188  0.77013  1.0000
  H   H449      1.0  0.05889  0.07047  0.91555  1.0000
  C   C258      1.0  0.10257  0.99035  0.86540  1.0000
  H   H450      1.0  0.11325  0.01812  0.80515  1.0000
  H   H451      1.0  0.12317  0.15744  0.98259  1.0000
  C   C259      1.0  0.08243  0.21521  0.87896  1.0000
  H   H452      1.0  0.02127  0.02125  0.96991  1.0000
  H   H453      1.0  0.17855  0.22051  0.75520  1.0000
  N   N14       1.0  0.05750  0.04546  0.93242  1.0000
  C   C260      1.0  0.29377  0.22530  0.66878  1.0000
  C   C261      1.0  0.21155  0.14290  0.75777  1.0000
  H   H454      1.0  0.04079  0.03002  0.93027  1.0000
  C   C262      1.0  0.04080  0.07325  0.89107  1.0000
  H   H455      1.0  0.00911  0.12225  0.79998  1.0000
  H   H456      1.0  0.09432  0.03320  0.93579  1.0000
  C   C263      1.0  0.19954  0.12980  0.76592  1.0000
  C   C264      1.0  0.22201  0.16862  0.75824  1.0000
  N   N15       1.0  0.20983  0.15652  0.76777  1.0000
  H   H457      1.0  0.23969  0.18851  0.71640  1.0000
  C   C265      1.0  0.18331  0.17584  0.75601  1.0000
  C   C266      1.0  0.00684  0.18927  0.90238  1.0000
  C   C267      1.0  0.18808  0.21761  0.76301  1.0000
  H   H458      1.0  0.20295  0.16598  0.80139  1.0000
  H   H459      1.0  0.07095  0.18587  0.87996  1.0000
  C   C268      1.0  0.21250  0.21034  0.78330  1.0000
  H   H460      1.0  0.23331  0.16049  0.73348  1.0000
  C   C269      1.0  0.30483  0.23447  0.65284  1.0000
  H   H461      1.0  0.20196  0.12234  0.77867  1.0000
  C   C270      1.0  0.42952  0.19072  0.71698  1.0000
  H   H462      1.0  0.18303  0.15780  0.78069  1.0000
  C   C271      1.0  0.05305  0.06937  0.96944  1.0000
  C   C272      1.0  0.06833  0.18023  0.93147  1.0000
  H   H463      1.0  0.05908  0.20143  0.94520  1.0000
  C   C273      1.0  0.16399  0.18263  0.76162  1.0000
  C   C274      1.0  0.04671  0.06290  0.95682  1.0000
  S   S65       1.0  0.00458  0.14822  0.89166  1.0000
  H   H464      1.0  0.01643  0.15337  0.94620  1.0000
  S   S66       1.0  0.07932  0.15197  0.98246  1.0000
  H   H465      1.0  0.05752  0.00908  0.94916  1.0000
  H   H466      1.0  0.08047  0.04352  0.91214  1.0000
  H   H467      1.0  0.09369  0.20962  0.88518  1.0000
  H   H468      1.0  0.14044  0.99749  0.80679  1.0000
  H   H469      1.0  0.02652  0.10138  0.78230  1.0000
  H   H470      1.0  0.06368  0.21272  0.90271  1.0000
  H   H471      1.0  0.24412  0.23487  0.77873  1.0000
  H   H472      1.0  0.22925  0.22074  0.76004  1.0000
  H   H473      1.0  0.41342  0.23194  0.72904  1.0000
  H   H474      1.0  0.12214  0.22017  0.96642  1.0000
  H   H475      1.0  0.04213  0.07782  0.97647  1.0000
  H   H476      1.0  0.13332  0.17201  0.96486  1.0000
  H   H477      1.0  0.10591  0.18935  0.96848  1.0000
  H   H478      1.0  0.17845  0.22845  0.83301  1.0000
  H   H479      1.0  0.11591  0.20527  0.93839  1.0000
  H   H480      1.0  0.39759  0.22288  0.67342  1.0000
  H   H481      1.0  0.09489  0.00233  0.92078  1.0000
  C   C275      1.0  0.00426  0.11054  0.80108  1.0000
  C   C276      1.0  0.42030  0.23422  0.66734  1.0000
  H   H482      1.0  0.15256  0.14394  0.97018  1.0000
  H   H483      1.0  0.09502  0.16313  0.81023  1.0000
  H   H484      1.0  0.03126  0.04347  0.94523  1.0000
  C   C277      1.0  0.01225  0.10403  0.78434  1.0000
  H   H485      1.0  0.06984  0.02621  0.91683  1.0000
  C   C278      1.0  0.02320  0.17957  0.90893  1.0000
  C   C279      1.0  0.11930  0.16875  0.79561  1.0000
  C   C280      1.0  0.05054  0.06077  0.91949  1.0000
  H   H486      1.0  0.11524  0.17154  0.78314  1.0000
  H   H487      1.0  0.43266  0.19211  0.72884  1.0000
  Fe  Fe31      1.0  0.12167  0.01768  0.87521  1.0000
  H   H488      1.0  0.11716  0.18110  0.79977  1.0000
  H   H489      1.0  0.22394  0.16893  0.78933  1.0000
  C   C281      1.0  0.06644  0.20869  0.89023  1.0000
  H   H490      1.0  0.23759  0.14263  0.80731  1.0000
  H   H491      1.0  0.21664  0.13843  0.81915  1.0000
  H   H492      1.0  0.23073  0.19803  0.73502  1.0000
  H   H493      1.0  0.07297  0.12882  0.92217  1.0000
  H   H494      1.0  0.07545  0.12829  0.89976  1.0000
  H   H495      1.0  0.22327  0.15724  0.82038  1.0000
  H   H496      1.0  0.02771  0.07895  0.89764  1.0000
  C   C282      1.0  0.08030  0.13275  0.90891  1.0000
  H   H497      1.0  0.09398  0.12639  0.90864  1.0000
  C   C283      1.0  0.06929  0.18889  0.89284  1.0000
  H   H498      1.0  0.08525  0.15572  0.91247  1.0000
  C   C284      1.0  0.04363  0.03508  0.94028  1.0000
  H   H499      1.0  0.10104  0.00205  0.81755  1.0000
  C   C285      1.0  0.03874  0.18825  0.89917  1.0000
  H   H500      1.0  0.08565  0.15557  0.89064  1.0000
  H   H501      1.0  0.05524  0.15883  0.89524  1.0000
  H   H502      1.0  0.05189  0.15470  0.91804  1.0000
  H   H503      1.0  0.07286  0.16616  0.93517  1.0000
  H   H504      1.0  0.03442  0.20208  0.89984  1.0000
  H   H505      1.0  0.08201  0.18344  0.89640  1.0000
  H   H506      1.0  0.08719  0.99079  0.84771  1.0000
  C   C286      1.0  0.12137  0.20903  0.96159  1.0000
  H   H507      1.0  0.36997  0.22970  0.65441  1.0000
  H   H508      1.0  0.05124  0.00032  0.86211  1.0000
  H   H509      1.0  0.02663  0.00787  0.95409  1.0000
  H   H510      1.0  0.00872  0.18965  0.88842  1.0000
  H   H511      1.0  0.29996  0.22234  0.67995  1.0000
  H   H512      1.0  0.03586  0.98970  0.87861  1.0000
  H   H513      1.0  0.11111  0.00496  0.93046  1.0000
  H   H514      1.0  0.44692  0.21326  0.69069  1.0000
  H   H515      1.0  0.00543  0.08371  0.85043  1.0000
  C   C287      1.0  0.04713  0.98783  0.86781  1.0000
  H   H516      1.0  0.42923  0.22151  0.66871  1.0000
  C   C288      1.0  0.03156  0.01173  0.96358  1.0000
  C   C289      1.0  0.40408  0.23217  0.66296  1.0000
  C   C290      1.0  0.31403  0.23412  0.70858  1.0000
  C   C291      1.0  0.15059  0.15301  0.97880  1.0000
  H   H517      1.0  0.12680  0.98955  0.79780  1.0000
  H   H518      1.0  0.28068  0.23337  0.67178  1.0000
  H   H519      1.0  0.16121  0.16022  0.97420  1.0000
  H   H520      1.0  0.99509  0.11326  0.83470  1.0000
  H   H521      1.0  0.31793  0.22625  0.65097  1.0000
  H   H522      1.0  0.48200  0.23617  0.66592  1.0000
  C   C292      1.0  0.99163  0.08281  0.85490  1.0000
  H   H523      1.0  0.45051  0.23694  0.66941  1.0000
  H   H524      1.0  0.40473  0.23702  0.69272  1.0000
  H   H525      1.0  0.40753  0.22736  0.65080  1.0000
  C   C293      1.0  0.32391  0.26623  0.30140  1.0000
  H   H526      1.0  0.28103  0.29694  0.28700  1.0000
  S   S67       1.0  0.42606  0.27312  0.31459  1.0000
  H   H527      1.0  0.27824  0.37519  0.25764  1.0000
  C   C294      1.0  0.27912  0.37002  0.27134  1.0000
  H   H528      1.0  0.27472  0.32398  0.30892  1.0000
  H   H529      1.0  0.35036  0.31551  0.25753  1.0000
  H   H530      1.0  0.28013  0.38059  0.27692  1.0000
  C   C295      1.0  0.04908  0.23919  0.18829  1.0000
  S   S68       1.0  0.23765  0.27232  0.29330  1.0000
  H   H531      1.0  0.21061  0.34525  0.30860  1.0000
  H   H532      1.0  0.15227  0.36014  0.27731  1.0000
  H   H533      1.0  0.34767  0.25174  0.26541  1.0000
  H   H534      1.0  0.28392  0.34888  0.29980  1.0000
  H   H535      1.0  0.20596  0.32662  0.25862  1.0000
  H   H536      1.0  0.29495  0.45476  0.29631  1.0000
  H   H537      1.0  0.15927  0.31212  0.31145  1.0000
  C   C296      1.0  0.17939  0.29316  0.29912  1.0000
  S   S69       1.0  0.35919  0.26486  0.28786  1.0000
  H   H538      1.0  0.41736  0.32725  0.28492  1.0000
  H   H539      1.0  0.22469  0.36795  0.30981  1.0000
  H   H540      1.0  0.15681  0.24865  0.21204  1.0000
  C   C297      1.0  0.35460  0.31436  0.26961  1.0000
  C   C298      1.0  0.30614  0.25612  0.28801  1.0000
  H   H541      1.0  0.18250  0.26506  0.24998  1.0000
  C   C299      1.0  0.30776  0.26319  0.30121  1.0000
  H   H542      1.0  0.16834  0.33443  0.29374  1.0000
  H   H543      1.0  0.36422  0.30216  0.27157  1.0000
  H   H544      1.0  0.41741  0.29898  0.25679  1.0000
  H   H545      1.0  0.30505  0.31416  0.27974  1.0000
  C   C300      1.0  0.19503  0.29141  0.26983  1.0000
  C   C301      1.0  0.33842  0.26195  0.28853  1.0000
  H   H546      1.0  0.32010  0.31460  0.31606  1.0000
  S   S70       1.0  0.38240  0.29269  0.30153  1.0000
  H   H547      1.0  0.45322  0.23804  0.26858  1.0000
  H   H548      1.0  0.30549  0.30409  0.30142  1.0000
  C   C302      1.0  0.16229  0.23930  0.20340  1.0000
  S   S71       1.0  0.20235  0.24540  0.29523  1.0000
  H   H549      1.0  0.34443  0.31277  0.29658  1.0000
  H   H550      1.0  0.16107  0.31340  0.27824  1.0000
  H   H551      1.0  0.29665  0.26618  0.31123  1.0000
  H   H552      1.0  0.17116  0.29145  0.26212  1.0000
  C   C303      1.0  0.27468  0.30279  0.29845  1.0000
  H   H553      1.0  0.32363  0.33328  0.26916  1.0000
  C   C304      1.0  0.17014  0.33550  0.27972  1.0000
  H   H554      1.0  0.17696  0.32039  0.26038  1.0000
  H   H555      1.0  0.26712  0.36536  0.27844  1.0000
  H   H556      1.0  0.29352  0.34511  0.26676  1.0000
  H   H557      1.0  0.33413  0.30252  0.28636  1.0000
  S   S72       1.0  0.35606  0.33252  0.31588  1.0000
  Fe  Fe32      1.0  0.22337  0.25071  0.30645  1.0000
  H   H558      1.0  0.15554  0.34936  0.25984  1.0000
  C   C305      1.0  0.30060  0.31652  0.29312  1.0000
  C   C306      1.0  0.29486  0.35534  0.27256  1.0000
  H   H559      1.0  0.18010  0.30942  0.31656  1.0000
  C   C307      1.0  0.41131  0.28833  0.25698  1.0000
  C   C308      1.0  0.32536  0.33085  0.28262  1.0000
  H   H560      1.0  0.20294  0.26246  0.25552  1.0000
  H   H561      1.0  0.20100  0.29838  0.25704  1.0000
  C   C309      1.0  0.15411  0.34742  0.27400  1.0000
  H   H562      1.0  0.41403  0.28614  0.24366  1.0000
  H   H563      1.0  0.17793  0.27274  0.27776  1.0000
  H   H564      1.0  0.16898  0.28767  0.29766  1.0000
  H   H565      1.0  0.22248  0.30761  0.26208  1.0000
  H   H566      1.0  0.27543  0.32909  0.28636  1.0000
  H   H567      1.0  0.23253  0.32006  0.28131  1.0000
  H   H568      1.0  0.45914  0.28280  0.30607  1.0000
  C   C310      1.0  0.18252  0.28214  0.26618  1.0000
  C   C311      1.0  0.17111  0.30273  0.31418  1.0000
  C   C312      1.0  0.41856  0.27207  0.26902  1.0000
  C   C313      1.0  0.29698  0.34835  0.29148  1.0000
  H   H569      1.0  0.18937  0.28192  0.30352  1.0000
  H   H570      1.0  0.30641  0.36044  0.26471  1.0000
  H   H571      1.0  0.17235  0.24290  0.28464  1.0000
  C   C314      1.0  0.33933  0.31410  0.28498  1.0000
  H   H572      1.0  0.33094  0.34162  0.28332  1.0000
  H   H573      1.0  0.21624  0.33942  0.27775  1.0000
  C   C315      1.0  0.22111  0.34188  0.31528  1.0000
  S   S73       1.0  0.28661  0.25190  0.28646  1.0000
  H   H574      1.0  0.41632  0.27530  0.28185  1.0000
  C   C316      1.0  0.22451  0.32839  0.27211  1.0000
  H   H575      1.0  0.20568  0.28130  0.27462  1.0000
  H   H576      1.0  0.19566  0.28087  0.23958  1.0000
  C   C317      1.0  0.17355  0.31773  0.27474  1.0000
  H   H577      1.0  0.19654  0.32000  0.29299  1.0000
  H   H578      1.0  0.42827  0.31805  0.30259  1.0000
  H   H579      1.0  0.31857  0.33701  0.31374  1.0000
  H   H580      1.0  0.38632  0.24112  0.26835  1.0000
  H   H581      1.0  0.39716  0.29228  0.26152  1.0000
  H   H582      1.0  0.27765  0.29346  0.31026  1.0000
  C   C318      1.0  0.33662  0.25501  0.27544  1.0000
  C   C319      1.0  0.21348  0.31810  0.26813  1.0000
  Fe  Fe33      1.0  0.26033  0.25561  0.30412  1.0000
  H   H583      1.0  0.20989  0.29977  0.29211  1.0000
  H   H584      1.0  0.18118  0.34193  0.27331  1.0000
  H   H585      1.0  0.40856  0.31191  0.30295  1.0000
  N   N16       1.0  0.30820  0.33066  0.29511  1.0000
  C   C320      1.0  0.20152  0.31030  0.28475  1.0000
  H   H586      1.0  0.30217  0.35794  0.29501  1.0000
  H   H587      1.0  0.14247  0.34197  0.28069  1.0000
  H   H588      1.0  0.39601  0.26156  0.27741  1.0000
  C   C321      1.0  0.19151  0.27207  0.25191  1.0000
  C   C322      1.0  0.42450  0.24077  0.29431  1.0000
  H   H589      1.0  0.26051  0.30560  0.29951  1.0000
  C   C323      1.0  0.28065  0.31936  0.29687  1.0000
  H   H590      1.0  0.36086  0.32522  0.26835  1.0000
  N   N17       1.0  0.18715  0.30359  0.28213  1.0000
  H   H591      1.0  0.23322  0.33344  0.26007  1.0000
  C   C324      1.0  0.31156  0.32736  0.31301  1.0000
  H   H592      1.0  0.32517  0.27175  0.31148  1.0000
  H   H593      1.0  0.24540  0.24056  0.17127  1.0000
  H   H594      1.0  0.18850  0.24124  0.20081  1.0000
  H   H595      1.0  0.03845  0.23937  0.19990  1.0000
  H   H596      1.0  0.40852  0.25677  0.25746  1.0000
  C   C325      1.0  0.40950  0.25716  0.27061  1.0000
  H   H597      1.0  0.29016  0.48592  0.28505  1.0000
  H   H598      1.0  0.04360  0.23969  0.17713  1.0000
  H   H599      1.0  0.16173  0.24624  0.18996  1.0000
  C   C326      1.0  0.40502  0.33749  0.30804  1.0000
  C   C327      1.0  0.41543  0.32274  0.29911  1.0000
  C   C328      1.0  0.32064  0.25214  0.27518  1.0000
  H   H600      1.0  0.44427  0.24850  0.24966  1.0000
  H   H601      1.0  0.43264  0.26881  0.26422  1.0000
  C   C329      1.0  0.28751  0.46352  0.30518  1.0000
  H   H602      1.0  0.39287  0.34261  0.30318  1.0000
  H   H603      1.0  0.30627  0.47933  0.29796  1.0000
  H   H604      1.0  0.23476  0.24613  0.15325  1.0000
  H   H605      1.0  0.31953  0.24671  0.26494  1.0000
  H   H606      1.0  0.41250  0.34779  0.30399  1.0000
  H   H607      1.0  0.43469  0.24848  0.28950  1.0000
  H   H608      1.0  0.41437  0.24802  0.30322  1.0000
  H   H609      1.0  0.05468  0.25075  0.18592  1.0000
  H   H610      1.0  0.27354  0.46450  0.30620  1.0000
  C   C330      1.0  0.29233  0.48118  0.29840  1.0000
  N   N18       1.0  0.41706  0.23941  0.27986  1.0000
  Fe  Fe34      1.0  0.36603  0.27295  0.30892  1.0000
  C   C331      1.0  0.22893  0.35481  0.31617  1.0000
  H   H611      1.0  0.33480  0.36592  0.31661  1.0000
  H   H612      1.0  0.36499  0.37672  0.63888  1.0000
  H   H613      1.0  0.31543  0.31104  0.41350  1.0000
  C   C332      1.0  0.34941  0.26855  0.43676  1.0000
  H   H614      1.0  0.29637  0.31382  0.43049  1.0000
  Fe  Fe35      1.0  0.32093  0.30746  0.56971  1.0000
  S   S74       1.0  0.30140  0.30669  0.59456  1.0000
  S   S75       1.0  0.34868  0.30033  0.57228  1.0000
  Fe  Fe36      1.0  0.29372  0.31642  0.54814  1.0000
  S   S76       1.0  0.27203  0.31646  0.57145  1.0000
  S   S77       1.0  0.28633  0.32342  0.52205  1.0000
  Fe  Fe37      1.0  0.28645  0.33072  0.58089  1.0000
  S   S78       1.0  0.27212  0.35381  0.59281  1.0000
  Fe  Fe38      1.0  0.28888  0.29258  0.58315  1.0000
  C   C333      1.0  0.34828  0.26664  0.49032  1.0000
  S   S79       1.0  0.30697  0.33272  0.55655  1.0000
  S   S80       1.0  0.30954  0.29127  0.55922  1.0000
  Fe  Fe39      1.0  0.27061  0.28856  0.42726  1.0000
  S   S81       1.0  0.28669  0.30170  0.40371  1.0000
  Fe  Fe40      1.0  0.23683  0.29513  0.45214  1.0000
  S   S82       1.0  0.24113  0.26849  0.46836  1.0000
  S   S83       1.0  0.21396  0.31581  0.45855  1.0000
  Fe  Fe41      1.0  0.26791  0.27248  0.46536  1.0000
  S   S84       1.0  0.28358  0.26494  0.48605  1.0000
  Fe  Fe42      1.0  0.25090  0.26037  0.44271  1.0000
  H   H615      1.0  0.23701  0.38906  0.62861  1.0000
  S   S85       1.0  0.26284  0.29966  0.45092  1.0000
  S   S86       1.0  0.24406  0.28667  0.42694  1.0000
  H   H616      1.0  0.24002  0.35895  0.63199  1.0000
  S   S87       1.0  0.26117  0.39725  0.38049  1.0000
  S   S88       1.0  0.27816  0.26158  0.44143  1.0000
  Fe  Fe43      1.0  0.24076  0.38396  0.37997  1.0000
  S   S89       1.0  0.21730  0.38376  0.40157  1.0000
  H   H617      1.0  0.24362  0.26256  0.40383  1.0000
  H   H618      1.0  0.34609  0.26187  0.61076  1.0000
  C   C334      1.0  0.24147  0.24794  0.38620  1.0000
  C   C335      1.0  0.33331  0.35841  0.32964  1.0000
  S   S90       1.0  0.35325  0.25318  0.37159  1.0000
  H   H619      1.0  0.36871  0.29238  0.62579  1.0000
  S   S91       1.0  0.21400  0.26104  0.33104  1.0000
  H   H620      1.0  0.33879  0.24821  0.48314  1.0000
  C   C336      1.0  0.24300  0.25009  0.40227  1.0000
  H   H621      1.0  0.31087  0.31416  0.34755  1.0000
  S   S92       1.0  0.24549  0.23726  0.43690  1.0000
  H   H622      1.0  0.28762  0.29405  0.35789  1.0000
  H   H623      1.0  0.21724  0.34485  0.35834  1.0000
  C   C337      1.0  0.22780  0.41194  0.63907  1.0000
  H   H624      1.0  0.38317  0.35116  0.62967  1.0000
  H   H625      1.0  0.22841  0.33088  0.64795  1.0000
  C   C338      1.0  0.28485  0.43818  0.35859  1.0000
  C   C339      1.0  0.29637  0.44571  0.36276  1.0000
  H   H626      1.0  0.28770  0.42448  0.35907  1.0000
  H   H627      1.0  0.30804  0.43773  0.36653  1.0000
  C   C340      1.0  0.21511  0.33458  0.44262  1.0000
  C   C341      1.0  0.22795  0.33454  0.42755  1.0000
  C   C342      1.0  0.22840  0.34947  0.41460  1.0000
  C   C343      1.0  0.21643  0.36462  0.41699  1.0000
  C   C344      1.0  0.20359  0.36466  0.43205  1.0000
  C   C345      1.0  0.20288  0.34964  0.44482  1.0000
  H   H628      1.0  0.23754  0.32302  0.42581  1.0000
  H   H629      1.0  0.23822  0.34932  0.40294  1.0000
  H   H630      1.0  0.19422  0.37635  0.43388  1.0000
  H   H631      1.0  0.19288  0.34969  0.45641  1.0000
  C   C346      1.0  0.30461  0.28789  0.39435  1.0000
  H   H632      1.0  0.37716  0.27379  0.40961  1.0000
  C   C347      1.0  0.32149  0.25923  0.39258  1.0000
  C   C348      1.0  0.33455  0.26639  0.38042  1.0000
  C   C349      1.0  0.33253  0.28421  0.37503  1.0000
  C   C350      1.0  0.31757  0.29494  0.38204  1.0000
  H   H633      1.0  0.34262  0.28976  0.36567  1.0000
  H   H634      1.0  0.31604  0.30873  0.37805  1.0000
  H   H635      1.0  0.21555  0.25281  0.59946  1.0000
  H   H636      1.0  0.22667  0.28186  0.53395  1.0000
  H   H637      1.0  0.31418  0.25233  0.46264  1.0000
  H   H638      1.0  0.35469  0.38654  0.32361  1.0000
  H   H639      1.0  0.25406  0.31451  0.39422  1.0000
  S   S93       1.0  0.25599  0.43982  0.34648  1.0000
  H   H640      1.0  0.35652  0.27724  0.43918  1.0000
  C   C351      1.0  0.26352  0.29257  0.62054  1.0000
  H   H641      1.0  0.32126  0.26196  0.58846  1.0000
  H   H642      1.0  0.26636  0.30231  0.60916  1.0000
  C   C352      1.0  0.28565  0.30692  0.51236  1.0000
  C   C353      1.0  0.27356  0.30995  0.50210  1.0000
  C   C354      1.0  0.27292  0.29725  0.49382  1.0000
  C   C355      1.0  0.28435  0.28135  0.49584  1.0000
  C   C356      1.0  0.29637  0.27825  0.50622  1.0000
  C   C357      1.0  0.29709  0.29103  0.51440  1.0000
  H   H643      1.0  0.26448  0.32207  0.50081  1.0000
  H   H644      1.0  0.26334  0.29965  0.48619  1.0000
  H   H645      1.0  0.30516  0.26592  0.50794  1.0000
  H   H646      1.0  0.30657  0.28865  0.52216  1.0000
  C   C358      1.0  0.28863  0.36138  0.63906  1.0000
  H   H647      1.0  0.36354  0.37021  0.35084  1.0000
  C   C359      1.0  0.28851  0.34291  0.62024  1.0000
  C   C360      1.0  0.27835  0.35645  0.61081  1.0000
  C   C361      1.0  0.27312  0.37245  0.61573  1.0000
  C   C362      1.0  0.27836  0.37496  0.62974  1.0000
  C   C363      1.0  0.32971  0.33924  0.36341  1.0000
  H   H648      1.0  0.29276  0.33062  0.61648  1.0000
  H   H649      1.0  0.26549  0.38307  0.60831  1.0000
  H   H650      1.0  0.27505  0.38754  0.63291  1.0000
  C   C364      1.0  0.34684  0.31333  0.62348  1.0000
  C   C365      1.0  0.33539  0.32306  0.61300  1.0000
  C   C366      1.0  0.33648  0.31943  0.59704  1.0000
  C   C367      1.0  0.34903  0.30587  0.59141  1.0000
  C   C368      1.0  0.36090  0.29624  0.60164  1.0000
  C   C369      1.0  0.35978  0.29995  0.61777  1.0000
  H   H651      1.0  0.32556  0.33348  0.61723  1.0000
  H   H652      1.0  0.32749  0.32715  0.58911  1.0000
  H   H653      1.0  0.37061  0.28569  0.59731  1.0000
  N   N19       1.0  0.20311  0.32298  0.38871  1.0000
  C   C370      1.0  0.20078  0.31585  0.37447  1.0000
  C   C371      1.0  0.22083  0.31495  0.39238  1.0000
  C   C372      1.0  0.19015  0.31737  0.40479  1.0000
  C   C373      1.0  0.20035  0.34242  0.38467  1.0000
  C   C374      1.0  0.18212  0.32039  0.37140  1.0000
  C   C375      1.0  0.19173  0.32157  0.42159  1.0000
  C   C376      1.0  0.23624  0.31867  0.37753  1.0000
  C   C377      1.0  0.25328  0.30989  0.38295  1.0000
  C   C378      1.0  0.17596  0.31897  0.43602  1.0000
  H   H654      1.0  0.20467  0.30153  0.37727  1.0000
  H   H655      1.0  0.22271  0.31959  0.40315  1.0000
  H   H656      1.0  0.22226  0.30071  0.39666  1.0000
  H   H657      1.0  0.19101  0.30321  0.40727  1.0000
  H   H658      1.0  0.17680  0.32351  0.40304  1.0000
  H   H659      1.0  0.18664  0.34836  0.38937  1.0000
  H   H660      1.0  0.20763  0.34664  0.39198  1.0000
  H   H661      1.0  0.17431  0.31172  0.38120  1.0000
  H   H662      1.0  0.17578  0.33382  0.37253  1.0000
  H   H663      1.0  0.19309  0.33508  0.41947  1.0000
  H   H664      1.0  0.20308  0.31283  0.42628  1.0000
  H   H665      1.0  0.25469  0.29569  0.38623  1.0000
  H   H666      1.0  0.32245  0.25479  0.34231  1.0000
  H   H667      1.0  0.31185  0.32742  0.42562  1.0000
  H   H668      1.0  0.16417  0.32790  0.43248  1.0000
  H   H669      1.0  0.17426  0.30548  0.43881  1.0000
  H   H670      1.0  0.17782  0.32164  0.44793  1.0000
  C   C379      1.0  0.26999  0.44849  0.35324  1.0000
  H   H671      1.0  0.23288  0.43373  0.38213  1.0000
  C   C380      1.0  0.42184  0.35707  0.32896  1.0000
  H   H672      1.0  0.34763  0.31868  0.35241  1.0000
  H   H673      1.0  0.28922  0.32478  0.35588  1.0000
  C   C381      1.0  0.23368  0.39241  0.64148  1.0000
  C   C382      1.0  0.37358  0.37477  0.33981  1.0000
  Fe  Fe44      1.0  0.25853  0.41088  0.35369  1.0000
  N   N20       1.0  0.26177  0.35689  0.45779  1.0000
  C   C383      1.0  0.24852  0.34565  0.46509  1.0000
  C   C384      1.0  0.27276  0.35287  0.44080  1.0000
  C   C385      1.0  0.27347  0.35257  0.47045  1.0000
  C   C386      1.0  0.25360  0.37578  0.45576  1.0000
  C   C387      1.0  0.24027  0.38260  0.44402  1.0000
  C   C388      1.0  0.23613  0.34865  0.48241  1.0000
  C   C389      1.0  0.28945  0.36106  0.46473  1.0000
  C   C390      1.0  0.26381  0.34786  0.42896  1.0000
  C   C391      1.0  0.27453  0.34874  0.41067  1.0000
  C   C392      1.0  0.23087  0.40101  0.44527  1.0000
  C   C393      1.0  0.22353  0.33645  0.48849  1.0000
  C   C394      1.0  0.30064  0.35463  0.47826  1.0000
  H   H674      1.0  0.25514  0.33184  0.46689  1.0000
  H   H675      1.0  0.24009  0.34712  0.45603  1.0000
  H   H676      1.0  0.27893  0.36388  0.43319  1.0000
  H   H677      1.0  0.28360  0.34174  0.44303  1.0000
  H   H678      1.0  0.27833  0.33838  0.47355  1.0000
  H   H679      1.0  0.26633  0.35635  0.48286  1.0000
  H   H680      1.0  0.24748  0.37910  0.46859  1.0000
  H   H681      1.0  0.26361  0.38369  0.45012  1.0000
  H   H682      1.0  0.23036  0.37466  0.44748  1.0000
  H   H683      1.0  0.24695  0.38293  0.43034  1.0000
  H   H684      1.0  0.24318  0.34638  0.49282  1.0000
  H   H685      1.0  0.22837  0.36197  0.48097  1.0000
  H   H686      1.0  0.28549  0.37524  0.46319  1.0000
  H   H687      1.0  0.29767  0.35803  0.45238  1.0000
  H   H688      1.0  0.26182  0.33451  0.43413  1.0000
  H   H689      1.0  0.25116  0.35632  0.42809  1.0000
  H   H690      1.0  0.26919  0.34245  0.40341  1.0000
  H   H691      1.0  0.27417  0.36237  0.40402  1.0000
  H   H692      1.0  0.28810  0.34205  0.41055  1.0000
  H   H693      1.0  0.24019  0.40968  0.44152  1.0000
  H   H694      1.0  0.22175  0.40562  0.43639  1.0000
  H   H695      1.0  0.22339  0.40154  0.45859  1.0000
  H   H696      1.0  0.21474  0.33942  0.47944  1.0000
  H   H697      1.0  0.23054  0.32283  0.48940  1.0000
  H   H698      1.0  0.21559  0.33804  0.50140  1.0000
  H   H699      1.0  0.29320  0.35780  0.49085  1.0000
  H   H700      1.0  0.30535  0.34047  0.48007  1.0000
  H   H701      1.0  0.31196  0.36086  0.47404  1.0000
  H   H702      1.0  0.21852  0.36901  0.63048  1.0000
  C   C395      1.0  0.22807  0.33761  0.62090  1.0000
  C   C396      1.0  0.28765  0.25174  0.35713  1.0000
  Fe  Fe45      1.0  0.36423  0.30392  0.32311  1.0000
  C   C397      1.0  0.25256  0.28967  0.55306  1.0000
  C   C398      1.0  0.23756  0.30338  0.54648  1.0000
  H   H703      1.0  0.24548  0.30719  0.33664  1.0000
  H   H704      1.0  0.42941  0.34737  0.32116  1.0000
  C   C399      1.0  0.45213  0.28649  0.31812  1.0000
  H   H705      1.0  0.47667  0.36359  0.39669  1.0000
  C   C400      1.0  0.23833  0.32137  0.54771  1.0000
  H   H706      1.0  0.27348  0.25252  0.35961  1.0000
  H   H707      1.0  0.21449  0.26912  0.61094  1.0000
  H   H708      1.0  0.47197  0.29838  0.32017  1.0000
  C   C401      1.0  0.23542  0.26693  0.56825  1.0000
  H   H709      1.0  0.25500  0.47426  0.34847  1.0000
  H   H710      1.0  0.36605  0.34067  0.63382  1.0000
  C   C402      1.0  0.43560  0.28294  0.32542  1.0000
  H   H711      1.0  0.34173  0.27001  0.63591  1.0000
  H   H712      1.0  0.26440  0.29247  0.54355  1.0000
  Fe  Fe46      1.0  0.39697  0.27649  0.32163  1.0000
  C   C403      1.0  0.23289  0.27056  0.58651  1.0000
  C   C404      1.0  0.27783  0.47367  0.35710  1.0000
  C   C405      1.0  0.40070  0.33119  0.32792  1.0000
  H   H713      1.0  0.33596  0.27142  0.49885  1.0000
  H   H714      1.0  0.39110  0.32301  0.33014  1.0000
  S   S94       1.0  0.25449  0.36674  0.32197  1.0000
  H   H715      1.0  0.27734  0.47854  0.39388  1.0000
  C   C406      1.0  0.48233  0.37062  0.40297  1.0000
  S   S95       1.0  0.34422  0.31859  0.64353  1.0000
  H   H716      1.0  0.33409  0.35920  0.64666  1.0000
  H   H717      1.0  0.23670  0.32215  0.56136  1.0000
  H   H718      1.0  0.40472  0.32575  0.61998  1.0000
  H   H719      1.0  0.22782  0.33098  0.54232  1.0000
  C   C407      1.0  0.36429  0.39032  0.32848  1.0000
  N   N21       1.0  0.39390  0.34474  0.33885  1.0000
  C   C408      1.0  0.30830  0.28138  0.63782  1.0000
  H   H720      1.0  0.31651  0.25416  0.43038  1.0000
  C   C409      1.0  0.35433  0.37457  0.63426  1.0000
  H   H721      1.0  0.27209  0.28668  0.35108  1.0000
  C   C410      1.0  0.38308  0.36039  0.32957  1.0000
  H   H722      1.0  0.24436  0.27829  0.50515  1.0000
  H   H723      1.0  0.42707  0.30001  0.36109  1.0000
  C   C411      1.0  0.33408  0.25860  0.59195  1.0000
  H   H724      1.0  0.23262  0.28427  0.58584  1.0000
  C   C412      1.0  0.32549  0.24491  0.43798  1.0000
  H   H725      1.0  0.23621  0.33263  0.37394  1.0000
  H   H726      1.0  0.39567  0.31014  0.35795  1.0000
  C   C413      1.0  0.26073  0.45991  0.40656  1.0000
  H   H727      1.0  0.41238  0.32233  0.33180  1.0000
  H   H728      1.0  0.30917  0.48393  0.32461  1.0000
  C   C414      1.0  0.29052  0.45837  0.41118  1.0000
  H   H729      1.0  0.19481  0.35171  0.35862  1.0000
  H   H730      1.0  0.44146  0.35138  0.34425  1.0000
  H   H731      1.0  0.48403  0.38310  0.39415  1.0000
  H   H732      1.0  0.26060  0.44906  0.41796  1.0000
  H   H733      1.0  0.26668  0.45391  0.39507  1.0000
  H   H734      1.0  0.31467  0.37862  0.34049  1.0000
  H   H735      1.0  0.35752  0.25482  0.46822  1.0000
  H   H736      1.0  0.28594  0.33956  0.32626  1.0000
  C   C415      1.0  0.24801  0.33364  0.33276  1.0000
  S   S96       1.0  0.25367  0.26611  0.32820  1.0000
  H   H737      1.0  0.28797  0.45063  0.42448  1.0000
  H   H738      1.0  0.29620  0.44962  0.40193  1.0000
  H   H739      1.0  0.24086  0.25874  0.37542  1.0000
  H   H740      1.0  0.22837  0.41819  0.40179  1.0000
  C   C416      1.0  0.24073  0.32048  0.33109  1.0000
  N   N22       1.0  0.36132  0.36640  0.61870  1.0000
  C   C417      1.0  0.37070  0.37846  0.60436  1.0000
  C   C418      1.0  0.34693  0.36319  0.61245  1.0000
  H   H741      1.0  0.47673  0.41723  0.34846  1.0000
  C   C419      1.0  0.37324  0.34948  0.62363  1.0000
  C   C420      1.0  0.38223  0.33947  0.60897  1.0000
  C   C421      1.0  0.38793  0.38084  0.60697  1.0000
  H   H742      1.0  0.29905  0.25113  0.57137  1.0000
  C   C422      1.0  0.33144  0.37852  0.61037  1.0000
  C   C423      1.0  0.31996  0.37544  0.60000  1.0000
  C   C424      1.0  0.39433  0.32288  0.61549  1.0000
  C   C425      1.0  0.39577  0.39379  0.59188  1.0000
  C   C426      1.0  0.30061  0.32575  0.34511  1.0000
  H   H743      1.0  0.36236  0.39150  0.60228  1.0000
  H   H744      1.0  0.37345  0.37426  0.59189  1.0000
  H   H745      1.0  0.35195  0.35920  0.59981  1.0000
  H   H746      1.0  0.34166  0.35214  0.62122  1.0000
  H   H747      1.0  0.34627  0.38758  0.63081  1.0000
  C   C427      1.0  0.22220  0.34168  0.63894  1.0000
  H   H748      1.0  0.22592  0.26851  0.51047  1.0000
  H   H749      1.0  0.20479  0.27482  0.59241  1.0000
  H   H750      1.0  0.38993  0.34721  0.59801  1.0000
  H   H751      1.0  0.37257  0.33577  0.60414  1.0000
  H   H752      1.0  0.38597  0.38569  0.61888  1.0000
  H   H753      1.0  0.39757  0.36857  0.60777  1.0000
  C   C428      1.0  0.28476  0.26049  0.55069  1.0000
  H   H754      1.0  0.25846  0.33039  0.33947  1.0000
  H   H755      1.0  0.32339  0.38026  0.62321  1.0000
  H   H756      1.0  0.33568  0.39071  0.60362  1.0000
  H   H757      1.0  0.32705  0.37489  0.58657  1.0000
  H   H758      1.0  0.31552  0.36321  0.60602  1.0000
  H   H759      1.0  0.30844  0.38605  0.59963  1.0000
  H   H760      1.0  0.40033  0.31570  0.60494  1.0000
  H   H761      1.0  0.30010  0.46609  0.41030  1.0000
  H   H762      1.0  0.38706  0.31452  0.62630  1.0000
  H   H763      1.0  0.39846  0.38930  0.57962  1.0000
  H   H764      1.0  0.38690  0.40659  0.59078  1.0000
  H   H765      1.0  0.40810  0.39522  0.59399  1.0000
  H   H766      1.0  0.34327  0.26460  0.58097  1.0000
  H   H767      1.0  0.37303  0.35637  0.32552  1.0000
  C   C429      1.0  0.45023  0.30050  0.34144  1.0000
  H   H768      1.0  0.22513  0.32508  0.62122  1.0000
  H   H769      1.0  0.28169  0.26707  0.37701  1.0000
  H   H770      1.0  0.21314  0.43816  0.39791  1.0000
  C   C430      1.0  0.42677  0.28757  0.34110  1.0000
  N   N23       1.0  0.25147  0.27113  0.55543  1.0000
  H   H771      1.0  0.29173  0.25474  0.34292  1.0000
  H   H772      1.0  0.40334  0.35762  0.35331  1.0000
  Fe  Fe47      1.0  0.48603  0.31329  0.34736  1.0000
  H   H773      1.0  0.29614  0.28303  0.63336  1.0000
  H   H774      1.0  0.26092  0.27432  0.52780  1.0000
  H   H775      1.0  0.28756  0.27349  0.54815  1.0000
  H   H776      1.0  0.33839  0.24206  0.42950  1.0000
  H   H777      1.0  0.44447  0.36775  0.32502  1.0000
  C   C431      1.0  0.23520  0.26924  0.53266  1.0000
  H   H778      1.0  0.19421  0.37747  0.36989  1.0000
  C   C432      1.0  0.23628  0.44023  0.40499  1.0000
  H   H779      1.0  0.25405  0.29221  0.56518  1.0000
  H   H780      1.0  0.25081  0.32474  0.54026  1.0000
  C   C433      1.0  0.22708  0.43217  0.39614  1.0000
  C   C434      1.0  0.23836  0.26768  0.51389  1.0000
  C   C435      1.0  0.23477  0.45983  0.39730  1.0000
  H   H781      1.0  0.30372  0.26461  0.36539  1.0000
  S   S97       1.0  0.45764  0.31344  0.35089  1.0000
  H   H782      1.0  0.25867  0.25306  0.53829  1.0000
  H   H783      1.0  0.32903  0.27936  0.60487  1.0000
  S   S98       1.0  0.30448  0.36415  0.37657  1.0000
  H   H784      1.0  0.31617  0.28950  0.62740  1.0000
  C   C436      1.0  0.38225  0.33749  0.35523  1.0000
  C   C437      1.0  0.29897  0.24792  0.55907  1.0000
  S   S99       1.0  0.38256  0.25521  0.32676  1.0000
  H   H785      1.0  0.23528  0.25307  0.56985  1.0000
  C   C438      1.0  0.34492  0.25940  0.47642  1.0000
  H   H786      1.0  0.34558  0.28786  0.41309  1.0000
  H   H787      1.0  0.33727  0.28537  0.46301  1.0000
  H   H788      1.0  0.31496  0.30573  0.45210  1.0000
  H   H789      1.0  0.33380  0.30268  0.43528  1.0000
  Fe  Fe48      1.0  0.22992  0.28122  0.31850  1.0000
  C   C439      1.0  0.30636  0.27003  0.39931  1.0000
  H   H790      1.0  0.24327  0.26246  0.59314  1.0000
  C   C440      1.0  0.16569  0.29020  0.33095  1.0000
  C   C441      1.0  0.27393  0.47034  0.40681  1.0000
  S   S100      1.0  0.25935  0.36163  0.36994  1.0000
  C   C442      1.0  0.32008  0.30158  0.43954  1.0000
  C   C443      1.0  0.31029  0.31419  0.42649  1.0000
  Fe  Fe49      1.0  0.36426  0.26906  0.34657  1.0000
  Fe  Fe50      1.0  0.23840  0.24528  0.33896  1.0000
  S   S101      1.0  0.23659  0.39913  0.35397  1.0000
  H   H791      1.0  0.37046  0.33589  0.35214  1.0000
  H   H792      1.0  0.28968  0.31640  0.32931  1.0000
  H   H793      1.0  0.20955  0.31990  0.36207  1.0000
  C   C444      1.0  0.33287  0.27306  0.46556  1.0000
  S   S102      1.0  0.21723  0.30899  0.31989  1.0000
  H   H794      1.0  0.37785  0.34653  0.36423  1.0000
  H   H795      1.0  0.16815  0.32063  0.35227  1.0000
  H   H796      1.0  0.39085  0.36653  0.31744  1.0000
  H   H797      1.0  0.24220  0.33673  0.61626  1.0000
  H   H798      1.0  0.23855  0.30362  0.53269  1.0000
  C   C445      1.0  0.29295  0.46350  0.36194  1.0000
  H   H799      1.0  0.31977  0.27506  0.47404  1.0000
  H   H800      1.0  0.21633  0.41645  0.63311  1.0000
  C   C446      1.0  0.23151  0.47048  0.42337  1.0000
  H   H801      1.0  0.36752  0.27309  0.39248  1.0000
  C   C447      1.0  0.33295  0.26522  0.60805  1.0000
  C   C448      1.0  0.20496  0.35141  0.36538  1.0000
  C   C449      1.0  0.18171  0.31812  0.35366  1.0000
  C   C450      1.0  0.36763  0.26834  0.40642  1.0000
  C   C451      1.0  0.43466  0.36256  0.33591  1.0000
  H   H802      1.0  0.18841  0.32738  0.34339  1.0000
  H   H803      1.0  0.18802  0.30480  0.35198  1.0000
  H   H804      1.0  0.21701  0.37019  0.36959  1.0000
  C   C452      1.0  0.31795  0.28284  0.44174  1.0000
  C   C453      1.0  0.26673  0.25988  0.56263  1.0000
  C   C454      1.0  0.21586  0.26656  0.59796  1.0000
  C   C455      1.0  0.25244  0.26683  0.53830  1.0000
  H   H805      1.0  0.24543  0.38890  0.64679  1.0000
  H   H806      1.0  0.29604  0.26452  0.40816  1.0000
  S   S103      1.0  0.30800  0.47272  0.36646  1.0000
  C   C456      1.0  0.20646  0.36995  0.36359  1.0000
  H   H807      1.0  0.42797  0.37270  0.34346  1.0000
  H   H808      1.0  0.35765  0.25548  0.43941  1.0000
  C   C457      1.0  0.22730  0.32461  0.32222  1.0000
  H   H809      1.0  0.30747  0.25966  0.61957  1.0000
  H   H810      1.0  0.26800  0.24923  0.63407  1.0000
  H   H811      1.0  0.25029  0.48601  0.38112  1.0000
  C   C458      1.0  0.40845  0.34906  0.34384  1.0000
  C   C459      1.0  0.34239  0.34143  0.33297  1.0000
  H   H812      1.0  0.37163  0.25409  0.40880  1.0000
  C   C460      1.0  0.39007  0.32003  0.36590  1.0000
  C   C461      1.0  0.29023  0.26652  0.36409  1.0000
  H   H813      1.0  0.41567  0.36860  0.32058  1.0000
  C   C462      1.0  0.26822  0.27518  0.61975  1.0000
  H   H814      1.0  0.23605  0.31383  0.36625  1.0000
  H   H815      1.0  0.20775  0.38887  0.64843  1.0000
  H   H816      1.0  0.28547  0.31062  0.64246  1.0000
  H   H817      1.0  0.22359  0.27404  0.56350  1.0000
  S   S104      1.0  0.34666  0.28535  0.32906  1.0000
  H   H818      1.0  0.26409  0.31327  0.37227  1.0000
  H   H819      1.0  0.22815  0.25907  0.54074  1.0000
  H   H820      1.0  0.32833  0.33190  0.37650  1.0000
  H   H821      1.0  0.34080  0.26784  0.41343  1.0000
  Fe  Fe51      1.0  0.27954  0.37656  0.36782  1.0000
  C   C463      1.0  0.34962  0.27371  0.41709  1.0000
  H   H822      1.0  0.23836  0.41818  0.63047  1.0000
  H   H823      1.0  0.24694  0.25519  0.51181  1.0000
  C   C464      1.0  0.32004  0.25709  0.62352  1.0000
  H   H824      1.0  0.29435  0.28427  0.33931  1.0000
  H   H825      1.0  0.31663  0.28106  0.42926  1.0000
  C   C465      1.0  0.25503  0.29755  0.63611  1.0000
  H   H826      1.0  0.30511  0.28176  0.45037  1.0000
  N   N24       1.0  0.33194  0.26910  0.44888  1.0000
  H   H827      1.0  0.22481  0.30092  0.55401  1.0000
  H   H828      1.0  0.32299  0.24542  0.39660  1.0000
  C   C466      1.0  0.31990  0.35592  0.35997  1.0000
  C   C467      1.0  0.34057  0.33179  0.34982  1.0000
  H   H829      1.0  0.35526  0.27735  0.48437  1.0000
  H   H830      1.0  0.48663  0.40032  0.33654  1.0000
  S   S105      1.0  0.27949  0.26927  0.60020  1.0000
  N   N25       1.0  0.31718  0.26268  0.64037  1.0000
  C   C468      1.0  0.45944  0.29527  0.32609  1.0000
  H   H831      1.0  0.26729  0.26348  0.57452  1.0000
  C   C469      1.0  0.32677  0.25189  0.45324  1.0000
  H   H832      1.0  0.40030  0.32155  0.37159  1.0000
  H   H833      1.0  0.24995  0.43332  0.40321  1.0000
  C   C470      1.0  0.26434  0.26272  0.63464  1.0000
  C   C471      1.0  0.43403  0.29634  0.34903  1.0000
  H   H834      1.0  0.33622  0.24170  0.45964  1.0000
  H   H835      1.0  0.23036  0.43778  0.41892  1.0000
  H   H836      1.0  0.23170  0.45739  0.43153  1.0000
  H   H837      1.0  0.22133  0.34774  0.61165  1.0000
  C   C472      1.0  0.22637  0.35902  0.63895  1.0000
  S   S106      1.0  0.27838  0.39105  0.34081  1.0000
  H   H838      1.0  0.47324  0.37297  0.41517  1.0000
  C   C473      1.0  0.33394  0.26112  0.64546  1.0000
  H   H839      1.0  0.48930  0.46335  0.32508  1.0000
  H   H840      1.0  0.30175  0.33491  0.64137  1.0000
  H   H841      1.0  0.35734  0.40029  0.33617  1.0000
  C   C474      1.0  0.26647  0.46623  0.35262  1.0000
  N   N26       1.0  0.24252  0.46960  0.40562  1.0000
  H   H842      1.0  0.24082  0.46113  0.38331  1.0000
  C   C475      1.0  0.23662  0.48078  0.43388  1.0000
  H   H843      1.0  0.20813  0.34219  0.64291  1.0000
  H   H844      1.0  0.25198  0.31096  0.63672  1.0000
  H   H845      1.0  0.38239  0.30095  0.38847  1.0000
  C   C476      1.0  0.37632  0.31311  0.38074  1.0000
  H   H846      1.0  0.41436  0.28434  0.34716  1.0000
  H   H847      1.0  0.30515  0.33736  0.34492  1.0000
  H   H848      1.0  0.28567  0.25705  0.53827  1.0000
  H   H849      1.0  0.36621  0.31038  0.37572  1.0000
  H   H850      1.0  0.37023  0.32249  0.38928  1.0000
  S   S107      1.0  0.37974  0.28911  0.34297  1.0000
  H   H851      1.0  0.37363  0.39598  0.31739  1.0000
  H   H852      1.0  0.38271  0.37920  0.34465  1.0000
  C   C477      1.0  0.28575  0.28394  0.35228  1.0000
  C   C478      1.0  0.32188  0.36558  0.34311  1.0000
  Fe  Fe52      1.0  0.25665  0.37768  0.34387  1.0000
  H   H853      1.0  0.20953  0.37613  0.34973  1.0000
  H   H854      1.0  0.22080  0.46531  0.39801  1.0000
  C   C479      1.0  0.29355  0.34535  0.63436  1.0000
  C   C480      1.0  0.29561  0.32744  0.32804  1.0000
  H   H855      1.0  0.41607  0.33722  0.35066  1.0000
  C   C481      1.0  0.24247  0.35082  0.32482  1.0000
  H   H856      1.0  0.29539  0.24041  0.38894  1.0000
  H   H857      1.0  0.35632  0.25639  0.49834  1.0000
  C   C482      1.0  0.34513  0.24279  0.64824  1.0000
  H   H858      1.0  0.36993  0.25064  0.64040  1.0000
  H   H859      1.0  0.15923  0.29740  0.34141  1.0000
  H   H860      1.0  0.15657  0.28305  0.32945  1.0000
  C   C483      1.0  0.22253  0.48393  0.44976  1.0000
  H   H861      1.0  0.26896  0.47895  0.41611  1.0000
  H   H862      1.0  0.31170  0.24881  0.55030  1.0000
  H   H863      1.0  0.21777  0.47578  0.42257  1.0000
  C   C484      1.0  0.48923  0.40961  0.34276  1.0000
  H   H864      1.0  0.24845  0.47337  0.43855  1.0000
  H   H865      1.0  0.34895  0.24167  0.32462  1.0000
  H   H866      1.0  0.32501  0.24305  0.62487  1.0000
  H   H867      1.0  0.17714  0.28086  0.33482  1.0000
  H   H868      1.0  0.21993  0.47155  0.45825  1.0000
  H   H869      1.0  0.31815  0.24043  0.33173  1.0000
  C   C485      1.0  0.32410  0.24102  0.34207  1.0000
  H   H870      1.0  0.33869  0.24443  0.59412  1.0000
  H   H871      1.0  0.26535  0.24618  0.56641  1.0000
  H   H872      1.0  0.29063  0.45773  0.31809  1.0000
  S   S108      1.0  0.35015  0.29692  0.68806  1.0000
  C   C486      1.0  0.20475  0.47456  0.77366  1.0000
  H   H873      1.0  0.22028  0.24336  0.80274  1.0000
  Fe  Fe53      1.0  0.36879  0.30832  0.69481  1.0000
  S   S109      1.0  0.36383  0.32065  0.71743  1.0000
  S   S110      1.0  0.38882  0.28404  0.69588  1.0000
  H   H874      1.0  0.25257  0.25820  0.66178  1.0000
  H   H875      1.0  0.32746  0.40541  0.74255  1.0000
  H   H876      1.0  0.21010  0.34322  0.67114  1.0000
  S   S111      1.0  0.29880  0.46773  0.72356  1.0000
  Fe  Fe54      1.0  0.26381  0.41187  0.68836  1.0000
  S   S112      1.0  0.29022  0.39514  0.68674  1.0000
  S   S113      1.0  0.26202  0.44057  0.68014  1.0000
  Fe  Fe55      1.0  0.24635  0.38122  0.70140  1.0000
  S   S114      1.0  0.27135  0.36216  0.70130  1.0000
  S   S115      1.0  0.22235  0.37043  0.70818  1.0000
  Fe  Fe56      1.0  0.27884  0.38058  0.71234  1.0000
  S   S116      1.0  0.29336  0.37263  0.73358  1.0000
  H   H877      1.0  0.30337  0.44047  0.66095  1.0000
  S   S117      1.0  0.25293  0.39836  0.71497  1.0000
  C   C487      1.0  0.29797  0.31521  0.71836  1.0000
  S   S118      1.0  0.24140  0.29343  0.74780  1.0000
  C   C488      1.0  0.22672  0.34924  0.71995  1.0000
  C   C489      1.0  0.22120  0.33621  0.71608  1.0000
  C   C490      1.0  0.22590  0.31905  0.72442  1.0000
  C   C491      1.0  0.23540  0.31492  0.73729  1.0000
  C   C492      1.0  0.24013  0.32806  0.74181  1.0000
  C   C493      1.0  0.23624  0.34513  0.73283  1.0000
  H   H878      1.0  0.21376  0.33923  0.70626  1.0000
  H   H879      1.0  0.22198  0.30909  0.72095  1.0000
  H   H880      1.0  0.24694  0.32505  0.75212  1.0000
  H   H881      1.0  0.24040  0.35517  0.73601  1.0000
  C   C494      1.0  0.28757  0.46121  0.71160  1.0000
  C   C495      1.0  0.27939  0.44727  0.71928  1.0000
  C   C496      1.0  0.27139  0.44098  0.70976  1.0000
  C   C497      1.0  0.27108  0.44893  0.69257  1.0000
  C   C498      1.0  0.27867  0.46329  0.68504  1.0000
  H   H882      1.0  0.22528  0.26417  0.79791  1.0000
  H   H883      1.0  0.27949  0.44108  0.73255  1.0000
  H   H884      1.0  0.26552  0.42993  0.71568  1.0000
  H   H885      1.0  0.36411  0.36141  0.70198  1.0000
  H   H886      1.0  0.33413  0.43759  0.70096  1.0000
  C   C499      1.0  0.34459  0.33578  0.72097  1.0000
  C   C500      1.0  0.33969  0.34164  0.73641  1.0000
  C   C501      1.0  0.32403  0.35314  0.74007  1.0000
  C   C502      1.0  0.31328  0.35898  0.72821  1.0000
  C   C503      1.0  0.31838  0.35357  0.71248  1.0000
  C   C504      1.0  0.33404  0.34187  0.70887  1.0000
  H   H887      1.0  0.34788  0.33699  0.74574  1.0000
  H   H888      1.0  0.32012  0.35729  0.75224  1.0000
  H   H889      1.0  0.31004  0.35804  0.70332  1.0000
  H   H890      1.0  0.33787  0.33743  0.69686  1.0000
  H   H891      1.0  0.19444  0.23739  0.80329  1.0000
  C   C505      1.0  0.44484  0.29213  0.69972  1.0000
  C   C506      1.0  0.43383  0.29349  0.68870  1.0000
  C   C507      1.0  0.28394  0.32507  0.75225  1.0000
  H   H892      1.0  0.29609  0.27717  0.72079  1.0000
  H   H893      1.0  0.42666  0.24306  0.65622  1.0000
  H   H894      1.0  0.43963  0.29160  0.71334  1.0000
  H   H895      1.0  0.42022  0.29418  0.69387  1.0000
  H   H896      1.0  0.46332  0.29400  0.65093  1.0000
  H   H897      1.0  0.29367  0.28517  0.75602  1.0000
  C   C508      1.0  0.23941  0.35702  0.66374  1.0000
  C   C509      1.0  0.30570  0.32142  0.68552  1.0000
  Fe  Fe57      1.0  0.24408  0.27531  0.73044  1.0000
  S   S119      1.0  0.24960  0.24661  0.73931  1.0000
  C   C510      1.0  0.30115  0.30793  0.70182  1.0000
  H   H898      1.0  0.21268  0.24737  0.77531  1.0000
  S   S120      1.0  0.42740  0.29320  0.65736  1.0000
  H   H899      1.0  0.33024  0.30619  0.72186  1.0000
  H   H900      1.0  0.43640  0.24739  0.71292  1.0000
  H   H901      1.0  0.25386  0.33856  0.69175  1.0000
  H   H902      1.0  0.32562  0.28713  0.71992  1.0000
  H   H903      1.0  0.16417  0.36132  0.67273  1.0000
  C   C511      1.0  0.18865  0.27129  0.75414  1.0000
  C   C512      1.0  0.24497  0.33726  0.66941  1.0000
  C   C513      1.0  0.20843  0.35736  0.66919  1.0000
  H   H904      1.0  0.25148  0.24173  0.79417  1.0000
  H   H905      1.0  0.34731  0.39046  0.72318  1.0000
  H   H906      1.0  0.18235  0.29660  0.78043  1.0000
  Fe  Fe58      1.0  0.37117  0.27367  0.68650  1.0000
  H   H907      1.0  0.20764  0.31942  0.76824  1.0000
  H   H908      1.0  0.17561  0.27461  0.80601  1.0000
  H   H909      1.0  0.46527  0.27101  0.76744  1.0000
  C   C514      1.0  0.34972  0.27486  0.73746  1.0000
  H   H910      1.0  0.21129  0.46926  0.78472  1.0000
  C   C515      1.0  0.34251  0.42479  0.70441  1.0000
  C   C516      1.0  0.33199  0.28538  0.74405  1.0000
  H   H911      1.0  0.27946  0.29560  0.74185  1.0000
  S   S121      1.0  0.22311  0.27560  0.71766  1.0000
  H   H912      1.0  0.30843  0.31592  0.67389  1.0000
  N   N27       1.0  0.30412  0.30332  0.73394  1.0000
  C   C517      1.0  0.36209  0.38909  0.69774  1.0000
  C   C518      1.0  0.46249  0.29173  0.69315  1.0000
  S   S122      1.0  0.37982  0.31987  0.66755  1.0000
  C   C519      1.0  0.28708  0.46930  0.69447  1.0000
  H   H913      1.0  0.26214  0.31866  0.68455  1.0000
  C   C520      1.0  0.18370  0.26673  0.77409  1.0000
  H   H914      1.0  0.22064  0.26638  0.76640  1.0000
  C   C521      1.0  0.46905  0.29274  0.67547  1.0000
  C   C522      1.0  0.25095  0.28525  0.65096  1.0000
  H   H915      1.0  0.26997  0.34177  0.77010  1.0000
  H   H916      1.0  0.29268  0.34166  0.76357  1.0000
  H   H917      1.0  0.35564  0.41281  0.72617  1.0000
  H   H918      1.0  0.17633  0.35330  0.68955  1.0000
  C   C523      1.0  0.21765  0.47997  0.75716  1.0000
  C   C524      1.0  0.25738  0.47226  0.76668  1.0000
  H   H919      1.0  0.27854  0.46943  0.67171  1.0000
  H   H920      1.0  0.29165  0.25983  0.65596  1.0000
  C   C525      1.0  0.24362  0.24609  0.78414  1.0000
  H   H921      1.0  0.27039  0.33770  0.67233  1.0000
  H   H922      1.0  0.35596  0.26787  0.74846  1.0000
  C   C526      1.0  0.34674  0.24240  0.70163  1.0000
  S   S123      1.0  0.36753  0.24663  0.69797  1.0000
  H   H923      1.0  0.28993  0.24950  0.73845  1.0000
  H   H924      1.0  0.36268  0.43926  0.72888  1.0000
  H   H925      1.0  0.34117  0.41356  0.67802  1.0000
  H   H926      1.0  0.37121  0.43554  0.70729  1.0000
  C   C527      1.0  0.35916  0.43882  0.71686  1.0000
  C   C528      1.0  0.28295  0.33347  0.76712  1.0000
  Fe  Fe59      1.0  0.36297  0.30607  0.66072  1.0000
  C   C529      1.0  0.19038  0.36556  0.66495  1.0000
  H   H927      1.0  0.19396  0.24052  0.83278  1.0000
  C   C530      1.0  0.21952  0.38313  0.65382  1.0000
  C   C531      1.0  0.37148  0.37053  0.70306  1.0000
  H   H928      1.0  0.39493  0.24472  0.66120  1.0000
  H   H929      1.0  0.25777  0.47277  0.74038  1.0000
  H   H930      1.0  0.33156  0.26548  0.65777  1.0000
  H   H931      1.0  0.35192  0.45180  0.71181  1.0000
  H   H932      1.0  0.30378  0.28016  0.66616  1.0000
  Fe  Fe60      1.0  0.28019  0.37848  0.67562  1.0000
  H   H933      1.0  0.29494  0.33276  0.68464  1.0000
  H   H934      1.0  0.33650  0.42933  0.73058  1.0000
  S   S124      1.0  0.38300  0.28199  0.65862  1.0000
  H   H935      1.0  0.46441  0.27168  0.74557  1.0000
  C   C532      1.0  0.31612  0.25102  0.70098  1.0000
  H   H936      1.0  0.36062  0.39071  0.68437  1.0000
  H   H937      1.0  0.24930  0.25601  0.77379  1.0000
  C   C533      1.0  0.33251  0.25517  0.69748  1.0000
  H   H938      1.0  0.38438  0.36823  0.69442  1.0000
  H   H939      1.0  0.17468  0.25362  0.75058  1.0000
  H   H940      1.0  0.20213  0.29241  0.80189  1.0000
  H   H941      1.0  0.31743  0.32577  0.68549  1.0000
  C   C534      1.0  0.30432  0.28967  0.65380  1.0000
  H   H942      1.0  0.24747  0.46421  0.77117  1.0000
  H   H943      1.0  0.20153  0.26360  0.74959  1.0000
  H   H944      1.0  0.32647  0.43362  0.65552  1.0000
  C   C535      1.0  0.17706  0.35482  0.67555  1.0000
  H   H945      1.0  0.22775  0.46849  0.75455  1.0000
  C   C536      1.0  0.45809  0.29361  0.66453  1.0000
  Fe  Fe61      1.0  0.23026  0.24681  0.72444  1.0000
  C   C537      1.0  0.30218  0.31417  0.74692  1.0000
  H   H946      1.0  0.42260  0.26293  0.70048  1.0000
  S   S125      1.0  0.25468  0.39644  0.67481  1.0000
  H   H947      1.0  0.28845  0.25643  0.75792  1.0000
  H   H948      1.0  0.31127  0.32316  0.74196  1.0000
  C   C538      1.0  0.27484  0.46019  0.76773  1.0000
  H   H949      1.0  0.21676  0.38695  0.66653  1.0000
  C   C539      1.0  0.20616  0.29572  0.78768  1.0000
  Fe  Fe62      1.0  0.39887  0.29471  0.66820  1.0000
  C   C540      1.0  0.44047  0.29379  0.67113  1.0000
  N   N28       1.0  0.22341  0.36375  0.65625  1.0000
  H   H950      1.0  0.19636  0.26686  0.81053  1.0000
  C   C541      1.0  0.32309  0.29577  0.72896  1.0000
  H   H951      1.0  0.28382  0.32028  0.72153  1.0000
  H   H952      1.0  0.34853  0.26530  0.73067  1.0000
  C   C542      1.0  0.18179  0.24139  0.82881  1.0000
  H   H953      1.0  0.30840  0.25130  0.66741  1.0000
  H   H954      1.0  0.30375  0.32681  0.71484  1.0000
  H   H955      1.0  0.21180  0.31983  0.78854  1.0000
  H   H956      1.0  0.18880  0.28513  0.74918  1.0000
  H   H957      1.0  0.31147  0.26675  0.73432  1.0000
  H   H958      1.0  0.27642  0.29559  0.66070  1.0000
  C   C543      1.0  0.34807  0.42538  0.72076  1.0000
  S   S126      1.0  0.26486  0.27549  0.70649  1.0000
  H   H959      1.0  0.28052  0.33558  0.74134  1.0000
  H   H960      1.0  0.27422  0.31687  0.75657  1.0000
  H   H961      1.0  0.32410  0.27644  0.75320  1.0000
  H   H962      1.0  0.35400  0.42445  0.69362  1.0000
  C   C544      1.0  0.21347  0.25939  0.77855  1.0000
  C   C545      1.0  0.20369  0.31531  0.78245  1.0000
  C   C546      1.0  0.29798  0.27366  0.73418  1.0000
  H   H963      1.0  0.30517  0.26081  0.69775  1.0000
  C   C547      1.0  0.19581  0.28894  0.77854  1.0000
  H   H964      1.0  0.30572  0.30595  0.75905  1.0000
  Fe  Fe63      1.0  0.24421  0.27353  0.69429  1.0000
  H   H965      1.0  0.18051  0.34189  0.67226  1.0000
  C   C548      1.0  0.48686  0.25419  0.75427  1.0000
  N   N29       1.0  0.19562  0.26995  0.78364  1.0000
  C   C549      1.0  0.44558  0.24489  0.67945  1.0000
  H   H966      1.0  0.35812  0.28345  0.72848  1.0000
  N   N30       1.0  0.33336  0.41059  0.70582  1.0000
  C   C550      1.0  0.34442  0.39293  0.71022  1.0000
  C   C551      1.0  0.31649  0.41228  0.71892  1.0000
  C   C552      1.0  0.32945  0.41233  0.68838  1.0000
  H   H967      1.0  0.28512  0.32355  0.77884  1.0000
  H   H968      1.0  0.19000  0.32149  0.78670  1.0000
  C   C553      1.0  0.46131  0.24528  0.68635  1.0000
  C   C554      1.0  0.31505  0.42777  0.68298  1.0000
  C   C555      1.0  0.31693  0.40315  0.73795  1.0000
  C   C556      1.0  0.30000  0.40892  0.75012  1.0000
  H   H969      1.0  0.28921  0.30421  0.70138  1.0000
  H   H970      1.0  0.33398  0.29430  0.75113  1.0000
  H   H971      1.0  0.41119  0.25586  0.67983  1.0000
  H   H972      1.0  0.33715  0.38293  0.71096  1.0000
  S   S127      1.0  0.23976  0.29232  0.66997  1.0000
  H   H973      1.0  0.31055  0.42611  0.71861  1.0000
  H   H974      1.0  0.30707  0.40672  0.71554  1.0000
  H   H975      1.0  0.32551  0.40051  0.68783  1.0000
  H   H976      1.0  0.37323  0.36785  0.71652  1.0000
  H   H977      1.0  0.31148  0.29642  0.70093  1.0000
  H   H978      1.0  0.20163  0.29255  0.76461  1.0000
  C   C557      1.0  0.29328  0.28985  0.74211  1.0000
  H   H979      1.0  0.22012  0.29049  0.78371  1.0000
  H   H980      1.0  0.17027  0.27381  0.77820  1.0000
  C   C558      1.0  0.18796  0.26540  0.80266  1.0000
  H   H981      1.0  0.31677  0.44007  0.68472  1.0000
  H   H982      1.0  0.30233  0.42551  0.69079  1.0000
  H   H983      1.0  0.31884  0.38907  0.73924  1.0000
  H   H984      1.0  0.33411  0.26816  0.69156  1.0000
  H   H985      1.0  0.28890  0.40724  0.74582  1.0000
  H   H986      1.0  0.30010  0.40103  0.76331  1.0000
  H   H987      1.0  0.29842  0.42262  0.75062  1.0000
  H   H988      1.0  0.18010  0.26982  0.73184  1.0000
  H   H989      1.0  0.37045  0.39769  0.69788  1.0000
  C   C559      1.0  0.17571  0.26732  0.74608  1.0000
  H   H990      1.0  0.18313  0.25284  0.77726  1.0000
  H   H991      1.0  0.20792  0.35982  0.68205  1.0000
  H   H992      1.0  0.27770  0.45091  0.75915  1.0000
  H   H993      1.0  0.32691  0.36696  0.67473  1.0000
  H   H994      1.0  0.23428  0.33106  0.67750  1.0000
  S   S128      1.0  0.47615  0.28900  0.70745  1.0000
  H   H995      1.0  0.16280  0.27558  0.74942  1.0000
  S   S129      1.0  0.24970  0.24470  0.69969  1.0000
  Fe  Fe64      1.0  0.26868  0.24680  0.71404  1.0000
  C   C560      1.0  0.25699  0.48250  0.74796  1.0000
  H   H996      1.0  0.23788  0.36280  0.67504  1.0000
  C   C561      1.0  0.25873  0.33282  0.68013  1.0000
  C   C562      1.0  0.31445  0.43004  0.66406  1.0000
  H   H997      1.0  0.39836  0.24653  0.71657  1.0000
  H   H998      1.0  0.17124  0.25055  0.83533  1.0000
  H   H999      1.0  0.44108  0.25819  0.67242  1.0000
  C   C563      1.0  0.22504  0.25356  0.79210  1.0000
  H   H1000     1.0  0.48262  0.29251  0.67025  1.0000
  H   H1001     1.0  0.19896  0.46442  0.77205  1.0000
  H   H1002     1.0  0.21066  0.48436  0.74640  1.0000
  C   C564      1.0  0.18404  0.24701  0.80926  1.0000
  H   H1003     1.0  0.17186  0.24669  0.80594  1.0000
  C   C565      1.0  0.28656  0.26088  0.74446  1.0000
  H   H1004     1.0  0.27281  0.26687  0.74460  1.0000
  C   C566      1.0  0.47692  0.24777  0.67168  1.0000
  H   H1005     1.0  0.48912  0.25347  0.72790  1.0000
  H   H1006     1.0  0.18589  0.37854  0.66816  1.0000
  H   H1007     1.0  0.31273  0.41805  0.66149  1.0000
  H   H1008     1.0  0.47342  0.25908  0.66148  1.0000
  C   C567      1.0  0.30532  0.25267  0.65464  1.0000
  H   H1009     1.0  0.29353  0.47990  0.68831  1.0000
  H   H1010     1.0  0.45820  0.25625  0.69293  1.0000
  H   H1011     1.0  0.28526  0.46764  0.76385  1.0000
  H   H1012     1.0  0.40289  0.27095  0.72707  1.0000
  C   C568      1.0  0.47312  0.27079  0.75421  1.0000
  H   H1013     1.0  0.47921  0.28222  0.74975  1.0000
  H   H1014     1.0  0.48720  0.25011  0.67672  1.0000
  H   H1015     1.0  0.32524  0.38616  0.65827  1.0000
  H   H1016     1.0  0.27472  0.45284  0.78114  1.0000
  H   H1017     1.0  0.25482  0.48071  0.77594  1.0000
  H   H1018     1.0  0.28672  0.31096  0.66384  1.0000
  H   H1019     1.0  0.47999  0.24335  0.75883  1.0000
  H   H1020     1.0  0.36040  0.24878  0.66313  1.0000
  H   H1021     1.0  0.34376  0.37912  0.66843  1.0000
  C   C569      1.0  0.33443  0.37483  0.66370  1.0000
  C   C570      1.0  0.41015  0.24512  0.72140  1.0000
  H   H1022     1.0  0.25081  0.36108  0.65434  1.0000
  H   H1023     1.0  0.41697  0.25558  0.74001  1.0000
  H   H1024     1.0  0.25067  0.33139  0.65790  1.0000
  H   H1025     1.0  0.31477  0.29650  0.65263  1.0000
  C   C571      1.0  0.28718  0.30251  0.65519  1.0000
  H   H1026     1.0  0.19068  0.36698  0.65108  1.0000
  S   S130      1.0  0.29733  0.36456  0.65513  1.0000
  H   H1027     1.0  0.35249  0.35272  0.65636  1.0000
  C   C572      1.0  0.40593  0.25733  0.73385  1.0000
  C   C573      1.0  0.41600  0.24176  0.68381  1.0000
  H   H1028     1.0  0.39452  0.25461  0.74411  1.0000
  C   C574      1.0  0.42557  0.24904  0.70651  1.0000
  N   N31       1.0  0.43076  0.23846  0.69274  1.0000
  C   C575      1.0  0.36241  0.24304  0.65174  1.0000
  H   H1029     1.0  0.22465  0.41593  0.65166  1.0000
  H   H1030     1.0  0.19425  0.48570  0.77650  1.0000
  C   C576      1.0  0.25574  0.26776  0.65032  1.0000
  C   C577      1.0  0.34382  0.36402  0.65017  1.0000
  S   S131      1.0  0.19205  0.71661  0.24238  1.0000
  C   C578      1.0  0.30492  0.50919  0.30667  1.0000
  H   H1031     1.0  0.20697  0.68544  0.26324  1.0000
  H   H1032     1.0  0.35907  0.59049  0.31370  1.0000
  H   H1033     1.0  0.16140  0.68500  0.26364  1.0000
  C   C579      1.0  0.20341  0.69542  0.27065  1.0000
  C   C580      1.0  0.19570  0.71216  0.26343  1.0000
  H   H1034     1.0  0.27598  0.59308  0.31532  1.0000
  H   H1035     1.0  0.22982  0.73088  0.25013  1.0000
  C   C581      1.0  0.25015  0.70303  0.26714  1.0000
  C   C582      1.0  0.29891  0.62224  0.28982  1.0000
  H   H1036     1.0  0.40446  0.72236  0.30765  1.0000
  H   H1037     1.0  0.14372  0.70446  0.23343  1.0000
  H   H1038     1.0  0.29362  0.51379  0.27835  1.0000
  C   C583      1.0  0.09169  0.70180  0.28532  1.0000
  C   C584      1.0  0.20659  0.69153  0.28739  1.0000
  H   H1039     1.0  0.32913  0.56700  0.30406  1.0000
  H   H1040     1.0  0.15852  0.68396  0.23491  1.0000
  H   H1041     1.0  0.23918  0.67415  0.26591  1.0000
  H   H1042     1.0  0.29676  0.71249  0.29385  1.0000
  H   H1043     1.0  0.30774  0.52195  0.30588  1.0000
  H   H1044     1.0  0.29152  0.63571  0.28791  1.0000
  H   H1045     1.0  0.16594  0.70296  0.23406  1.0000
  C   C585      1.0  0.41097  0.66599  0.30845  1.0000
  H   H1046     1.0  0.29408  0.54041  0.25544  1.0000
  H   H1047     1.0  0.28453  0.56103  0.26120  1.0000
  C   C586      1.0  0.33417  0.67369  0.30519  1.0000
  C   C587      1.0  0.15481  0.69646  0.23909  1.0000
  H   H1048     1.0  0.24327  0.68407  0.29069  1.0000
  C   C588      1.0  0.41650  0.67979  0.31395  1.0000
  H   H1049     1.0  0.34273  0.68149  0.29615  1.0000
  H   H1050     1.0  0.37145  0.61608  0.30279  1.0000
  H   H1051     1.0  0.13611  0.72006  0.25739  1.0000
  C   C589      1.0  0.15000  0.69337  0.25875  1.0000
  C   C590      1.0  0.35919  0.61678  0.31257  1.0000
  H   H1052     1.0  0.08217  0.70785  0.27696  1.0000
  H   H1053     1.0  0.21440  0.72516  0.09130  1.0000
  H   H1054     1.0  0.11279  0.70778  0.26476  1.0000
  C   C591      1.0  0.24118  0.71910  0.29028  1.0000
  C   C592      1.0  0.19388  0.72101  0.28991  1.0000
  N   N32       1.0  0.13722  0.70927  0.28418  1.0000
  H   H1055     1.0  0.34650  0.60626  0.29944  1.0000
  C   C593      1.0  0.13201  0.72717  0.28790  1.0000
  C   C594      1.0  0.34986  0.60306  0.31224  1.0000
  H   H1056     1.0  0.34851  0.57362  0.30358  1.0000
  H   H1057     1.0  0.30752  0.70943  0.27227  1.0000
  C   C595      1.0  0.14492  0.71054  0.26519  1.0000
  C   C596      1.0  0.20185  0.70436  0.29704  1.0000
  H   H1058     1.0  0.42726  0.70586  0.31637  1.0000
  H   H1059     1.0  0.25259  0.53141  0.30695  1.0000
  H   H1060     1.0  0.15688  0.71573  0.26164  1.0000
  C   C597      1.0  0.30458  0.61739  0.30705  1.0000
  H   H1061     1.0  0.41410  0.69188  0.30439  1.0000
  H   H1062     1.0  0.39697  0.66951  0.30844  1.0000
  C   C598      1.0  0.30756  0.66317  0.31270  1.0000
  H   H1063     1.0  0.29045  0.61376  0.28961  1.0000
  C   C599      1.0  0.25192  0.67120  0.26945  1.0000
  H   H1064     1.0  0.27492  0.54734  0.29132  1.0000
  H   H1065     1.0  0.09517  0.68776  0.28558  1.0000
  H   H1066     1.0  0.23647  0.70581  0.26599  1.0000
  H   H1067     1.0  0.10341  0.72381  0.27771  1.0000
  C   C600      1.0  0.37802  0.73501  0.31365  1.0000
  H   H1068     1.0  0.27092  0.54651  0.26256  1.0000
  H   H1069     1.0  0.08555  0.70399  0.29855  1.0000
  H   H1070     1.0  0.27249  0.70338  0.28938  1.0000
  C   C601      1.0  0.31437  0.59840  0.31031  1.0000
  C   C602      1.0  0.28360  0.54728  0.26441  1.0000
  H   H1071     1.0  0.30547  0.59019  0.31038  1.0000
  C   C603      1.0  0.25319  0.68469  0.27857  1.0000
  H   H1072     1.0  0.28036  0.70348  0.26711  1.0000
  H   H1073     1.0  0.16298  0.70232  0.28934  1.0000
  H   H1074     1.0  0.13936  0.68626  0.26298  1.0000
  H   H1075     1.0  0.32470  0.59691  0.29870  1.0000
  H   H1076     1.0  0.48283  0.48888  0.29841  1.0000
  H   H1077     1.0  0.25807  0.70238  0.25394  1.0000
  H   H1078     1.0  0.26224  0.67067  0.25763  1.0000
  H   H1079     1.0  0.21257  0.67862  0.29288  1.0000
  H   H1080     1.0  0.31030  0.62125  0.27900  1.0000
  C   C604      1.0  0.28387  0.52037  0.28811  1.0000
  H   H1081     1.0  0.26604  0.68090  0.28190  1.0000
  H   H1082     1.0  0.35108  0.62983  0.30964  1.0000
  N   N33       1.0  0.28629  0.51116  0.30600  1.0000
  H   H1083     1.0  0.24278  0.70697  0.30007  1.0000
  H   H1084     1.0  0.11475  0.70257  0.30289  1.0000
  H   H1085     1.0  0.25352  0.65834  0.27818  1.0000
  C   C605      1.0  0.31899  0.67285  0.30103  1.0000
  C   C606      1.0  0.28126  0.49397  0.30996  1.0000
  H   H1086     1.0  0.12416  0.73595  0.27871  1.0000
  C   C607      1.0  0.12137  0.70154  0.28940  1.0000
  H   H1087     1.0  0.12344  0.72730  0.30087  1.0000
  H   H1088     1.0  0.41823  0.66461  0.29526  1.0000
  C   C608      1.0  0.14525  0.69619  0.31400  1.0000
  H   H1089     1.0  0.27123  0.51955  0.28613  1.0000
  H   H1090     1.0  0.31603  0.67987  0.28873  1.0000
  C   C609      1.0  0.33873  0.56621  0.31171  1.0000
  H   H1091     1.0  0.31291  0.62623  0.30664  1.0000
  H   H1092     1.0  0.22783  0.72124  0.28857  1.0000
  H   H1093     1.0  0.29788  0.54110  0.28437  1.0000
  C   C610      1.0  0.22713  0.73566  0.31417  1.0000
  H   H1094     1.0  0.31372  0.50451  0.29525  1.0000
  H   H1095     1.0  0.12491  0.68748  0.28968  1.0000
  N   N34       1.0  0.25379  0.71711  0.27356  1.0000
  H   H1096     1.0  0.15354  0.68462  0.29187  1.0000
  C   C611      1.0  0.15049  0.69794  0.29415  1.0000
  C   C612      1.0  0.28528  0.53958  0.28307  1.0000
  H   H1097     1.0  0.26771  0.49565  0.30877  1.0000
  H   H1098     1.0  0.19022  0.73100  0.29731  1.0000
  S   S132      1.0  0.28883  0.66261  0.30642  1.0000
  H   H1099     1.0  0.26107  0.73127  0.24763  1.0000
  C   C613      1.0  0.10764  0.70978  0.27816  1.0000
  H   H1100     1.0  0.28507  0.73242  0.26017  1.0000
  H   H1101     1.0  0.45848  0.69329  0.31094  1.0000
  H   H1102     1.0  0.38891  0.70913  0.31070  1.0000
  C   C614      1.0  0.19110  0.72497  0.27306  1.0000
  C   C615      1.0  0.14697  0.73592  0.28679  1.0000
  C   C616      1.0  0.34758  0.54729  0.31580  1.0000
  H   H1103     1.0  0.35336  0.54254  0.30365  1.0000
  H   H1104     1.0  0.33799  0.49083  0.31103  1.0000
  H   H1105     1.0  0.19915  0.73675  0.06736  1.0000
  H   H1106     1.0  0.15507  0.72858  0.29621  1.0000
  C   C617      1.0  0.25168  0.73333  0.25983  1.0000
  H   H1107     1.0  0.18442  0.73609  0.08788  1.0000
  H   H1108     1.0  0.43063  0.67588  0.31312  1.0000
  C   C618      1.0  0.27213  0.71170  0.27631  1.0000
  C   C619      1.0  0.29906  0.71889  0.27999  1.0000
  H   H1109     1.0  0.25421  0.72958  0.30401  1.0000
  C   C620      1.0  0.28201  0.72616  0.27401  1.0000
  C   C621      1.0  0.24225  0.73331  0.29889  1.0000
  H   H1110     1.0  0.30585  0.72946  0.27829  1.0000
  C   C622      1.0  0.39225  0.71889  0.31571  1.0000
  H   H1111     1.0  0.27449  0.73621  0.28129  1.0000
  Fe  Fe65      1.0  0.30300  0.63100  0.57665  1.0000
  S   S133      1.0  0.27790  0.63076  0.59578  1.0000
  S   S134      1.0  0.30295  0.63828  0.54817  1.0000
  Fe  Fe66      1.0  0.32387  0.61968  0.60483  1.0000
  S   S135      1.0  0.30048  0.61846  0.62637  1.0000
  S   S136      1.0  0.35078  0.61088  0.60994  1.0000
  Fe  Fe67      1.0  0.29183  0.60619  0.60957  1.0000
  S   S137      1.0  0.27934  0.58341  0.62009  1.0000
  Fe  Fe68      1.0  0.28866  0.64323  0.61072  1.0000
  H   H1112     1.0  0.42082  0.64285  0.37045  1.0000
  S   S138      1.0  0.31614  0.60523  0.58931  1.0000
  S   S139      1.0  0.31285  0.64567  0.59035  1.0000
  Fe  Fe69      1.0  0.27625  0.58950  0.49413  1.0000
  S   S140      1.0  0.29014  0.60700  0.47257  1.0000
  S   S141      1.0  0.28168  0.58318  0.52086  1.0000
  Fe  Fe70      1.0  0.25820  0.58086  0.47013  1.0000
  S   S142      1.0  0.27123  0.59722  0.44652  1.0000
  S   S143      1.0  0.23734  0.56817  0.46925  1.0000
  Fe  Fe71      1.0  0.29478  0.58625  0.45786  1.0000
  S   S144      1.0  0.32074  0.57603  0.44277  1.0000
  Fe  Fe72      1.0  0.26532  0.61628  0.46338  1.0000
  S   S145      1.0  0.25483  0.64453  0.45563  1.0000
  S   S146      1.0  0.28232  0.56797  0.47998  1.0000
  S   S147      1.0  0.25076  0.60071  0.48657  1.0000
  Fe  Fe73      1.0  0.29081  0.53776  0.35516  1.0000
  S   S148      1.0  0.31628  0.51994  0.35714  1.0000
  S   S149      1.0  0.28681  0.55746  0.33109  1.0000
  Fe  Fe74      1.0  0.27399  0.52430  0.39209  1.0000
  H   H1113     1.0  0.37964  0.70125  0.37032  1.0000
  S   S150      1.0  0.24881  0.52595  0.41129  1.0000
  Fe  Fe75      1.0  0.31150  0.52684  0.38291  1.0000
  S   S151      1.0  0.32987  0.53470  0.39390  1.0000
  H   H1114     1.0  0.24102  0.68900  0.63267  1.0000
  S   S152      1.0  0.28726  0.54631  0.37981  1.0000
  S   S153      1.0  0.27514  0.51742  0.36707  1.0000
  Fe  Fe76      1.0  0.24286  0.67053  0.35990  1.0000
  S   S154      1.0  0.26040  0.64624  0.35332  1.0000
  S   S155      1.0  0.24107  0.68286  0.38179  1.0000
  S   S156      1.0  0.35771  0.66607  0.32529  1.0000
  H   H1115     1.0  0.38030  0.60684  0.62436  1.0000
  C   C623      1.0  0.40655  0.69255  0.35794  1.0000
  Fe  Fe77      1.0  0.23684  0.64183  0.34744  1.0000
  S   S157      1.0  0.22868  0.61657  0.35874  1.0000
  C   C624      1.0  0.25553  0.52578  0.31988  1.0000
  C   C625      1.0  0.46012  0.62170  0.40849  1.0000
  S   S158      1.0  0.21907  0.66506  0.35606  1.0000
  S   S159      1.0  0.24860  0.68628  0.33321  1.0000
  H   H1116     1.0  0.37750  0.67717  0.39502  1.0000
  C   C626      1.0  0.47991  0.59777  0.39414  1.0000
  H   H1117     1.0  0.31164  0.66041  0.42570  1.0000
  C   C627      1.0  0.46748  0.65087  0.35351  1.0000
  C   C628      1.0  0.30640  0.59416  0.34157  1.0000
  H   H1118     1.0  0.46487  0.62189  0.38166  1.0000
  S   S160      1.0  0.46517  0.66815  0.37879  1.0000
  H   H1119     1.0  0.43738  0.57998  0.38111  1.0000
  Fe  Fe78      1.0  0.38250  0.60441  0.35123  1.0000
  S   S161      1.0  0.35947  0.62340  0.36147  1.0000
  S   S162      1.0  0.38090  0.58064  0.34351  1.0000
  Fe  Fe79      1.0  0.40812  0.62647  0.34839  1.0000
  S   S163      1.0  0.38737  0.64745  0.35794  1.0000
  H   H1120     1.0  0.33011  0.64772  0.38248  1.0000
  Fe  Fe80      1.0  0.37667  0.62623  0.37730  1.0000
  S   S164      1.0  0.36578  0.63133  0.40382  1.0000
  Fe  Fe81      1.0  0.37194  0.64308  0.34131  1.0000
  H   H1121     1.0  0.21777  0.50249  0.40499  1.0000
  S   S165      1.0  0.39864  0.60521  0.36920  1.0000
  H   H1122     1.0  0.32090  0.68884  0.61224  1.0000
  H   H1123     1.0  0.49044  0.60314  0.39570  1.0000
  C   C629      1.0  0.34273  0.63632  0.62847  1.0000
  C   C630      1.0  0.35304  0.54354  0.36399  1.0000
  H   H1124     1.0  0.41643  0.68093  0.36143  1.0000
  C   C631      1.0  0.45722  0.65688  0.36811  1.0000
  C   C632      1.0  0.44034  0.65407  0.37412  1.0000
  H   H1125     1.0  0.44809  0.63166  0.40818  1.0000
  H   H1126     1.0  0.31956  0.56513  0.33486  1.0000
  Fe  Fe82      1.0  0.30028  0.49997  0.37109  1.0000
  H   H1127     1.0  0.15616  0.68448  0.33673  1.0000
  H   H1128     1.0  0.29397  0.64925  0.43413  1.0000
  C   C633      1.0  0.26744  0.59026  0.32766  1.0000
  N   N35       1.0  0.48618  0.58896  0.37897  1.0000
  C   C634      1.0  0.25859  0.66584  0.64131  1.0000
  C   C635      1.0  0.32262  0.65597  0.39185  1.0000
  H   H1129     1.0  0.41248  0.66946  0.34100  1.0000
  H   H1130     1.0  0.48048  0.65301  0.34876  1.0000
  H   H1131     1.0  0.27621  0.68303  0.38262  1.0000
  H   H1132     1.0  0.21395  0.52392  0.37838  1.0000
  C   C636      1.0  0.32737  0.65403  0.33238  1.0000
  H   H1133     1.0  0.46517  0.57547  0.39052  1.0000
  H   H1134     1.0  0.28611  0.70823  0.62981  1.0000
  H   H1135     1.0  0.29357  0.68002  0.40341  1.0000
  H   H1136     1.0  0.30304  0.64600  0.33743  1.0000
  H   H1137     1.0  0.33067  0.64666  0.34443  1.0000
  H   H1138     1.0  0.21048  0.49188  0.44587  1.0000
  C   C637      1.0  0.34321  0.54807  0.37944  1.0000
  C   C638      1.0  0.34491  0.56279  0.38393  1.0000
  C   C639      1.0  0.35629  0.57307  0.37291  1.0000
  C   C640      1.0  0.36636  0.56832  0.35762  1.0000
  H   H1139     1.0  0.42959  0.57975  0.63679  1.0000
  C   C641      1.0  0.46074  0.64245  0.34475  1.0000
  H   H1140     1.0  0.33744  0.56618  0.39600  1.0000
  H   H1141     1.0  0.35752  0.58441  0.37645  1.0000
  H   H1142     1.0  0.25067  0.55127  0.32567  1.0000
  H   H1143     1.0  0.30902  0.62716  0.37980  1.0000
  C   C642      1.0  0.26928  0.57350  0.33755  1.0000
  C   C643      1.0  0.25773  0.56985  0.35324  1.0000
  C   C644      1.0  0.24481  0.58303  0.35935  1.0000
  C   C645      1.0  0.24376  0.59999  0.35007  1.0000
  C   C646      1.0  0.25498  0.60359  0.33413  1.0000
  H   H1144     1.0  0.29093  0.67125  0.45028  1.0000
  H   H1145     1.0  0.25881  0.55688  0.36080  1.0000
  H   H1146     1.0  0.23597  0.58016  0.37154  1.0000
  C   C647      1.0  0.42301  0.56900  0.64405  1.0000
  H   H1147     1.0  0.47895  0.56838  0.37210  1.0000
  H   H1148     1.0  0.33535  0.55871  0.63551  1.0000
  C   C648      1.0  0.24150  0.55618  0.45316  1.0000
  C   C649      1.0  0.22852  0.54845  0.45235  1.0000
  C   C650      1.0  0.23096  0.53926  0.43945  1.0000
  C   C651      1.0  0.24647  0.53763  0.42725  1.0000
  C   C652      1.0  0.25961  0.54524  0.42805  1.0000
  C   C653      1.0  0.25712  0.55454  0.44102  1.0000
  H   H1149     1.0  0.21649  0.54961  0.46174  1.0000
  H   H1150     1.0  0.22081  0.53338  0.43893  1.0000
  H   H1151     1.0  0.27169  0.54392  0.41876  1.0000
  H   H1152     1.0  0.26726  0.56041  0.44161  1.0000
  C   C654      1.0  0.33334  0.59140  0.43223  1.0000
  C   C655      1.0  0.32902  0.60764  0.43639  1.0000
  C   C656      1.0  0.33936  0.61973  0.42802  1.0000
  C   C657      1.0  0.35360  0.61583  0.41495  1.0000
  C   C658      1.0  0.35771  0.59977  0.41043  1.0000
  C   C659      1.0  0.34775  0.58745  0.41930  1.0000
  H   H1153     1.0  0.31774  0.61092  0.44600  1.0000
  H   H1154     1.0  0.33614  0.63221  0.43136  1.0000
  H   H1155     1.0  0.36867  0.59674  0.40024  1.0000
  H   H1156     1.0  0.35105  0.57493  0.41595  1.0000
  C   C660      1.0  0.25003  0.65383  0.43517  1.0000
  C   C661      1.0  0.25344  0.64452  0.42211  1.0000
  C   C662      1.0  0.25036  0.65309  0.40559  1.0000
  C   C663      1.0  0.24392  0.67091  0.40227  1.0000
  C   C664      1.0  0.24028  0.67997  0.41545  1.0000
  C   C665      1.0  0.24321  0.67147  0.43180  1.0000
  H   H1157     1.0  0.25879  0.63088  0.42461  1.0000
  H   H1158     1.0  0.25331  0.64605  0.39538  1.0000
  H   H1159     1.0  0.23533  0.69371  0.41295  1.0000
  H   H1160     1.0  0.24050  0.67872  0.44182  1.0000
  H   H1161     1.0  0.22043  0.57733  0.60279  1.0000
  C   C666      1.0  0.38889  0.68890  0.36900  1.0000
  C   C667      1.0  0.39046  0.67867  0.38713  1.0000
  C   C668      1.0  0.30211  0.63689  0.40412  1.0000
  H   H1162     1.0  0.29588  0.58862  0.34033  1.0000
  H   H1163     1.0  0.24143  0.56418  0.60404  1.0000
  C   C669      1.0  0.35488  0.62222  0.62332  1.0000
  H   H1164     1.0  0.28641  0.65336  0.38083  1.0000
  C   C670      1.0  0.29920  0.70032  0.63047  1.0000
  C   C671      1.0  0.37040  0.61698  0.62910  1.0000
  H   H1165     1.0  0.23214  0.62741  0.56562  1.0000
  H   H1166     1.0  0.27813  0.69686  0.35249  1.0000
  C   C672      1.0  0.23666  0.63111  0.62780  1.0000
  H   H1167     1.0  0.34901  0.66962  0.39574  1.0000
  C   C673      1.0  0.29737  0.62300  0.54025  1.0000
  C   C674      1.0  0.29035  0.62811  0.52543  1.0000
  C   C675      1.0  0.28551  0.61601  0.51923  1.0000
  C   C676      1.0  0.28830  0.59868  0.52748  1.0000
  C   C677      1.0  0.29594  0.59353  0.54185  1.0000
  C   C678      1.0  0.30010  0.60567  0.54845  1.0000
  H   H1168     1.0  0.28825  0.64151  0.51901  1.0000
  H   H1169     1.0  0.27955  0.62012  0.50816  1.0000
  H   H1170     1.0  0.29851  0.58012  0.54799  1.0000
  H   H1171     1.0  0.30573  0.60155  0.55970  1.0000
  H   H1172     1.0  0.29619  0.58116  0.38627  1.0000
  N   N36       1.0  0.33938  0.59859  0.49415  1.0000
  C   C679      1.0  0.32586  0.61149  0.48554  1.0000
  C   C680      1.0  0.33446  0.58119  0.49916  1.0000
  C   C681      1.0  0.33893  0.60391  0.51057  1.0000
  C   C682      1.0  0.35738  0.59774  0.48308  1.0000
  C   C683      1.0  0.35909  0.60122  0.46325  1.0000
  C   C684      1.0  0.32654  0.63069  0.48299  1.0000
  C   C685      1.0  0.34974  0.59092  0.52307  1.0000
  C   C686      1.0  0.33302  0.57350  0.48440  1.0000
  C   C687      1.0  0.32554  0.55725  0.49155  1.0000
  C   C688      1.0  0.37789  0.59707  0.45388  1.0000
  C   C689      1.0  0.31451  0.64228  0.47136  1.0000
  C   C690      1.0  0.35096  0.59912  0.53731  1.0000
  H   H1173     1.0  0.31281  0.60999  0.49322  1.0000
  H   H1174     1.0  0.32621  0.60905  0.47282  1.0000
  H   H1175     1.0  0.34404  0.57135  0.50574  1.0000
  H   H1176     1.0  0.32190  0.58178  0.50867  1.0000
  H   H1177     1.0  0.32545  0.60658  0.51799  1.0000
  H   H1178     1.0  0.34349  0.61620  0.50758  1.0000
  H   H1179     1.0  0.36369  0.60724  0.48525  1.0000
  H   H1180     1.0  0.36566  0.58496  0.48702  1.0000
  H   H1181     1.0  0.35398  0.61499  0.45826  1.0000
  H   H1182     1.0  0.35195  0.59358  0.45952  1.0000
  H   H1183     1.0  0.32218  0.63479  0.49558  1.0000
  H   H1184     1.0  0.33982  0.63287  0.47730  1.0000
  H   H1185     1.0  0.36300  0.58624  0.51613  1.0000
  H   H1186     1.0  0.34350  0.57975  0.52951  1.0000
  H   H1187     1.0  0.32453  0.58256  0.47613  1.0000
  H   H1188     1.0  0.34598  0.56971  0.47639  1.0000
  H   H1189     1.0  0.33391  0.54725  0.49941  1.0000
  H   H1190     1.0  0.31239  0.56021  0.49959  1.0000
  H   H1191     1.0  0.32460  0.55205  0.48069  1.0000
  H   H1192     1.0  0.38347  0.58317  0.45772  1.0000
  H   H1193     1.0  0.37862  0.60015  0.43974  1.0000
  H   H1194     1.0  0.38561  0.60485  0.45675  1.0000
  H   H1195     1.0  0.31833  0.63905  0.45840  1.0000
  H   H1196     1.0  0.30098  0.64082  0.47711  1.0000
  H   H1197     1.0  0.31514  0.65592  0.46989  1.0000
  H   H1198     1.0  0.35813  0.58940  0.54650  1.0000
  H   H1199     1.0  0.35786  0.60993  0.53179  1.0000
  H   H1200     1.0  0.33790  0.60405  0.54457  1.0000
  H   H1201     1.0  0.37292  0.54961  0.34168  1.0000
  S   S166      1.0  0.20573  0.70040  0.31794  1.0000
  H   H1202     1.0  0.31946  0.68361  0.39158  1.0000
  H   H1203     1.0  0.27664  0.51397  0.33245  1.0000
  H   H1204     1.0  0.30708  0.65630  0.36858  1.0000
  C   C691      1.0  0.24086  0.59222  0.59555  1.0000
  S   S167      1.0  0.43609  0.62869  0.33957  1.0000
  H   H1205     1.0  0.40940  0.70295  0.36252  1.0000
  C   C692      1.0  0.30748  0.69629  0.61260  1.0000
  H   H1206     1.0  0.40487  0.57605  0.62759  1.0000
  H   H1207     1.0  0.39630  0.68539  0.39354  1.0000
  H   H1208     1.0  0.30781  0.70846  0.60283  1.0000
  N   N37       1.0  0.21332  0.61733  0.42397  1.0000
  C   C693      1.0  0.21947  0.61553  0.44028  1.0000
  C   C694      1.0  0.22827  0.61209  0.40975  1.0000
  C   C695      1.0  0.20569  0.63616  0.41830  1.0000
  C   C696      1.0  0.19952  0.60721  0.42689  1.0000
  C   C697      1.0  0.20419  0.58771  0.43444  1.0000
  C   C698      1.0  0.20545  0.62124  0.45568  1.0000
  C   C699      1.0  0.20034  0.64150  0.40059  1.0000
  C   C700      1.0  0.24310  0.59723  0.41514  1.0000
  C   C701      1.0  0.25407  0.58947  0.39985  1.0000
  C   C702      1.0  0.18854  0.57942  0.43861  1.0000
  C   C703      1.0  0.21291  0.61773  0.47169  1.0000
  C   C704      1.0  0.19272  0.66080  0.39669  1.0000
  H   H1209     1.0  0.22968  0.62310  0.43754  1.0000
  H   H1210     1.0  0.22580  0.60212  0.44506  1.0000
  H   H1211     1.0  0.22353  0.60878  0.39971  1.0000
  H   H1212     1.0  0.23470  0.62309  0.40281  1.0000
  H   H1213     1.0  0.21494  0.64420  0.41784  1.0000
  H   H1214     1.0  0.19384  0.64029  0.42775  1.0000
  H   H1215     1.0  0.18748  0.61285  0.43526  1.0000
  H   H1216     1.0  0.19586  0.60816  0.41452  1.0000
  H   H1217     1.0  0.20885  0.58514  0.44653  1.0000
  H   H1218     1.0  0.21415  0.58117  0.42486  1.0000
  H   H1219     1.0  0.20012  0.63526  0.45278  1.0000
  H   H1220     1.0  0.19482  0.61417  0.45906  1.0000
  H   H1221     1.0  0.19036  0.63471  0.40047  1.0000
  H   H1222     1.0  0.21153  0.63869  0.38998  1.0000
  H   H1223     1.0  0.25154  0.60234  0.42027  1.0000
  H   H1224     1.0  0.23852  0.58665  0.42522  1.0000
  H   H1225     1.0  0.24663  0.58229  0.39577  1.0000
  H   H1226     1.0  0.25819  0.59972  0.38886  1.0000
  H   H1227     1.0  0.26562  0.58028  0.40367  1.0000
  H   H1228     1.0  0.17825  0.58498  0.44866  1.0000
  H   H1229     1.0  0.18344  0.58131  0.42685  1.0000
  H   H1230     1.0  0.19239  0.56538  0.44357  1.0000
  H   H1231     1.0  0.22350  0.62477  0.46903  1.0000
  H   H1232     1.0  0.20274  0.62217  0.48243  1.0000
  H   H1233     1.0  0.21785  0.60372  0.47578  1.0000
  H   H1234     1.0  0.20266  0.66831  0.39534  1.0000
  H   H1235     1.0  0.18812  0.66429  0.38444  1.0000
  H   H1236     1.0  0.18158  0.66437  0.40708  1.0000
  C   C705      1.0  0.44392  0.63953  0.35079  1.0000
  C   C706      1.0  0.31021  0.58581  0.35978  1.0000
  H   H1237     1.0  0.33348  0.48810  0.33415  1.0000
  C   C707      1.0  0.29371  0.58846  0.37345  1.0000
  H   H1238     1.0  0.27930  0.66575  0.41075  1.0000
  H   H1239     1.0  0.31967  0.59163  0.36260  1.0000
  H   H1240     1.0  0.31526  0.57174  0.36127  1.0000
  H   H1241     1.0  0.38334  0.68157  0.36304  1.0000
  H   H1242     1.0  0.33917  0.59705  0.33911  1.0000
  C   C708      1.0  0.22684  0.51563  0.37923  1.0000
  H   H1243     1.0  0.28347  0.58371  0.37063  1.0000
  H   H1244     1.0  0.28907  0.60233  0.37379  1.0000
  N   N38       1.0  0.24732  0.59254  0.57655  1.0000
  C   C709      1.0  0.25597  0.60769  0.56861  1.0000
  C   C710      1.0  0.23224  0.59395  0.56865  1.0000
  C   C711      1.0  0.26025  0.57631  0.57326  1.0000
  C   C712      1.0  0.27493  0.57050  0.58345  1.0000
  C   C713      1.0  0.23601  0.59751  0.54865  1.0000
  C   C714      1.0  0.28663  0.55355  0.57967  1.0000
  C   C715      1.0  0.22021  0.59762  0.54209  1.0000
  H   H1245     1.0  0.26689  0.60662  0.57473  1.0000
  H   H1246     1.0  0.26197  0.60768  0.55484  1.0000
  H   H1247     1.0  0.22118  0.60404  0.57304  1.0000
  H   H1248     1.0  0.22724  0.58183  0.57329  1.0000
  H   H1249     1.0  0.25372  0.56533  0.57586  1.0000
  H   H1250     1.0  0.26661  0.57780  0.55938  1.0000
  H   H1251     1.0  0.26973  0.56819  0.59752  1.0000
  H   H1252     1.0  0.28298  0.58032  0.58011  1.0000
  H   H1253     1.0  0.28825  0.63611  0.40820  1.0000
  H   H1254     1.0  0.24662  0.58746  0.54362  1.0000
  H   H1255     1.0  0.23962  0.61021  0.54295  1.0000
  H   H1256     1.0  0.29748  0.55023  0.58644  1.0000
  H   H1257     1.0  0.27933  0.54301  0.58437  1.0000
  H   H1258     1.0  0.29201  0.55454  0.56565  1.0000
  H   H1259     1.0  0.21640  0.58492  0.54680  1.0000
  H   H1260     1.0  0.20923  0.60781  0.54636  1.0000
  H   H1261     1.0  0.22333  0.60026  0.52776  1.0000
  C   C716      1.0  0.34608  0.64493  0.63953  1.0000
  C   C717      1.0  0.22485  0.49896  0.39247  1.0000
  H   H1262     1.0  0.47081  0.62827  0.40706  1.0000
  C   C718      1.0  0.47272  0.58016  0.37748  1.0000
  C   C719      1.0  0.46359  0.61223  0.39379  1.0000
  H   H1263     1.0  0.45352  0.60353  0.36928  1.0000
  H   H1264     1.0  0.22047  0.58837  0.62856  1.0000
  C   C720      1.0  0.37322  0.62491  0.64102  1.0000
  C   C721      1.0  0.37355  0.56772  0.63254  1.0000
  H   H1265     1.0  0.43019  0.55717  0.63921  1.0000
  H   H1266     1.0  0.23443  0.52286  0.38306  1.0000
  C   C722      1.0  0.45773  0.69472  0.32420  1.0000
  H   H1267     1.0  0.27383  0.67683  0.43874  1.0000
  H   H1268     1.0  0.23067  0.60381  0.59768  1.0000
  H   H1269     1.0  0.24215  0.62245  0.61846  1.0000
  H   H1270     1.0  0.36674  0.56578  0.60176  1.0000
  C   C723      1.0  0.39335  0.71195  0.33486  1.0000
  H   H1271     1.0  0.25607  0.63943  0.54494  1.0000
  C   C724      1.0  0.45966  0.59082  0.36603  1.0000
  H   H1272     1.0  0.26557  0.63915  0.56255  1.0000
  C   C725      1.0  0.31154  0.62320  0.39302  1.0000
  C   C726      1.0  0.30578  0.60616  0.40135  1.0000
  H   H1273     1.0  0.30669  0.60227  0.41508  1.0000
  H   H1274     1.0  0.29219  0.60731  0.40070  1.0000
  H   H1275     1.0  0.31422  0.59589  0.39466  1.0000
  H   H1276     1.0  0.30086  0.60801  0.34167  1.0000
  H   H1277     1.0  0.32567  0.62078  0.39210  1.0000
  H   H1278     1.0  0.43685  0.58888  0.35875  1.0000
  C   C727      1.0  0.29684  0.66031  0.37954  1.0000
  H   H1279     1.0  0.24941  0.49478  0.39878  1.0000
  C   C728      1.0  0.32279  0.55650  0.63618  1.0000
  H   H1280     1.0  0.46893  0.68577  0.32902  1.0000
  H   H1281     1.0  0.48019  0.61184  0.35951  1.0000
  S   S168      1.0  0.39380  0.62404  0.32964  1.0000
  H   H1282     1.0  0.24154  0.57475  0.62958  1.0000
  H   H1283     1.0  0.37642  0.58069  0.62696  1.0000
  C   C729      1.0  0.28794  0.67525  0.43723  1.0000
  C   C730      1.0  0.25331  0.64007  0.55875  1.0000
  H   H1284     1.0  0.23338  0.51277  0.36633  1.0000
  C   C731      1.0  0.31085  0.56947  0.62830  1.0000
  H   H1285     1.0  0.38488  0.57611  0.59691  1.0000
  C   C732      1.0  0.29450  0.56674  0.62921  1.0000
  C   C733      1.0  0.38383  0.55567  0.61999  1.0000
  H   H1286     1.0  0.46617  0.59311  0.35223  1.0000
  S   S169      1.0  0.29790  0.50520  0.39725  1.0000
  H   H1287     1.0  0.44148  0.69097  0.34936  1.0000
  H   H1288     1.0  0.25132  0.59312  0.60137  1.0000
  H   H1289     1.0  0.39327  0.68103  0.33412  1.0000
  Fe  Fe83      1.0  0.22604  0.67879  0.32866  1.0000
  C   C734      1.0  0.28876  0.67962  0.37377  1.0000
  C   C735      1.0  0.36485  0.55347  0.35330  1.0000
  C   C736      1.0  0.40701  0.68157  0.33264  1.0000
  H   H1290     1.0  0.33706  0.65617  0.64300  1.0000
  H   H1291     1.0  0.39788  0.55328  0.61931  1.0000
  H   H1292     1.0  0.31080  0.67477  0.64198  1.0000
  H   H1293     1.0  0.29783  0.68206  0.34600  1.0000
  C   C737      1.0  0.44106  0.69034  0.33613  1.0000
  C   C738      1.0  0.23284  0.57658  0.60623  1.0000
  H   H1294     1.0  0.39850  0.66561  0.38656  1.0000
  H   H1295     1.0  0.46857  0.63826  0.33319  1.0000
  H   H1296     1.0  0.32486  0.67814  0.37051  1.0000
  C   C739      1.0  0.28545  0.68346  0.35558  1.0000
  H   H1297     1.0  0.37969  0.54314  0.62409  1.0000
  C   C740      1.0  0.42490  0.70301  0.33063  1.0000
  H   H1298     1.0  0.27772  0.67465  0.35457  1.0000
  H   H1299     1.0  0.48847  0.55665  0.40129  1.0000
  H   H1300     1.0  0.34905  0.68622  0.37643  1.0000
  H   H1301     1.0  0.35201  0.53200  0.36066  1.0000
  H   H1302     1.0  0.29694  0.68830  0.37393  1.0000
  H   H1303     1.0  0.35427  0.66394  0.37486  1.0000
  H   H1304     1.0  0.33090  0.64072  0.62375  1.0000
  H   H1305     1.0  0.32825  0.65032  0.40347  1.0000
  H   H1306     1.0  0.30699  0.70804  0.63326  1.0000
  H   H1307     1.0  0.44081  0.67693  0.33618  1.0000
  H   H1308     1.0  0.31433  0.58164  0.62171  1.0000
  H   H1309     1.0  0.30733  0.63238  0.41604  1.0000
  H   H1310     1.0  0.16497  0.67307  0.31931  1.0000
  C   C741      1.0  0.24428  0.62566  0.56993  1.0000
  H   H1311     1.0  0.24493  0.65276  0.56040  1.0000
  H   H1312     1.0  0.24890  0.53410  0.34444  1.0000
  N   N39       1.0  0.40806  0.69714  0.33862  1.0000
  C   C742      1.0  0.40444  0.57348  0.64161  1.0000
  Fe  Fe84      1.0  0.26404  0.66146  0.32614  1.0000
  H   H1313     1.0  0.23910  0.64415  0.62125  1.0000
  H   H1314     1.0  0.47659  0.58843  0.40632  1.0000
  S   S170      1.0  0.27174  0.66655  0.62051  1.0000
  C   C743      1.0  0.44534  0.58137  0.36781  1.0000
  H   H1315     1.0  0.43243  0.65855  0.38552  1.0000
  H   H1316     1.0  0.25405  0.61664  0.32679  1.0000
  H   H1317     1.0  0.45858  0.61265  0.42117  1.0000
  H   H1318     1.0  0.32711  0.61574  0.32822  1.0000
  H   H1319     1.0  0.24105  0.62745  0.58343  1.0000
  N   N40       1.0  0.30380  0.65522  0.39590  1.0000
  C   C744      1.0  0.34604  0.67336  0.38268  1.0000
  H   H1320     1.0  0.48681  0.61148  0.32783  1.0000
  H   H1321     1.0  0.35978  0.56935  0.63223  1.0000
  C   C745      1.0  0.29770  0.66156  0.42668  1.0000
  H   H1322     1.0  0.24998  0.51406  0.32535  1.0000
  C   C746      1.0  0.38067  0.56361  0.60180  1.0000
  H   H1323     1.0  0.38803  0.55480  0.59296  1.0000
  H   H1324     1.0  0.45852  0.70806  0.32395  1.0000
  C   C747      1.0  0.32707  0.67391  0.38387  1.0000
  H   H1325     1.0  0.33882  0.56947  0.33710  1.0000
  H   H1326     1.0  0.29175  0.68778  0.43092  1.0000
  C   C748      1.0  0.31172  0.65371  0.32845  1.0000
  C   C749      1.0  0.43374  0.64524  0.36558  1.0000
  H   H1327     1.0  0.23883  0.49350  0.42625  1.0000
  H   H1328     1.0  0.22679  0.49103  0.45718  1.0000
  H   H1329     1.0  0.45214  0.60670  0.39547  1.0000
  H   H1330     1.0  0.45080  0.56847  0.36459  1.0000
  H   H1331     1.0  0.27514  0.48735  0.35629  1.0000
  C   C750      1.0  0.29312  0.66627  0.40862  1.0000
  H   H1332     1.0  0.40227  0.54679  0.64681  1.0000
  H   H1333     1.0  0.38073  0.70822  0.34125  1.0000
  C   C751      1.0  0.22926  0.57630  0.62551  1.0000
  C   C752      1.0  0.29013  0.55093  0.63798  1.0000
  H   H1334     1.0  0.42438  0.71544  0.33404  1.0000
  H   H1335     1.0  0.27762  0.54864  0.63847  1.0000
  H   H1336     1.0  0.39372  0.72287  0.34038  1.0000
  H   H1337     1.0  0.28895  0.67730  0.64139  1.0000
  C   C753      1.0  0.32955  0.57305  0.32844  1.0000
  H   H1338     1.0  0.22316  0.56526  0.63292  1.0000
  H   H1339     1.0  0.29992  0.68874  0.60913  1.0000
  H   H1340     1.0  0.30323  0.50212  0.33478  1.0000
  H   H1341     1.0  0.21686  0.49266  0.38809  1.0000
  H   H1342     1.0  0.23217  0.54135  0.33222  1.0000
  H   H1343     1.0  0.39819  0.58554  0.64631  1.0000
  H   H1344     1.0  0.38504  0.62055  0.64575  1.0000
  N   N41       1.0  0.32142  0.59203  0.32654  1.0000
  H   H1345     1.0  0.28136  0.48762  0.32358  1.0000
  H   H1346     1.0  0.22251  0.63196  0.63191  1.0000
  H   H1347     1.0  0.22712  0.72353  0.32405  1.0000
  C   C754      1.0  0.36102  0.63890  0.64626  1.0000
  C   C755      1.0  0.33391  0.60234  0.32720  1.0000
  C   C756      1.0  0.24630  0.53890  0.33126  1.0000
  C   C757      1.0  0.24419  0.67917  0.64364  1.0000
  H   H1348     1.0  0.33814  0.53938  0.32391  1.0000
  C   C758      1.0  0.31824  0.54096  0.64548  1.0000
  C   C759      1.0  0.29808  0.68354  0.64429  1.0000
  H   H1349     1.0  0.25902  0.62490  0.63852  1.0000
  H   H1350     1.0  0.32882  0.68668  0.64885  1.0000
  C   C760      1.0  0.30188  0.53816  0.64644  1.0000
  H   H1351     1.0  0.36532  0.73214  0.32112  1.0000
  H   H1352     1.0  0.34405  0.58798  0.64864  1.0000
  H   H1353     1.0  0.24857  0.59792  0.64280  1.0000
  H   H1354     1.0  0.36223  0.61473  0.32542  1.0000
  H   H1355     1.0  0.35801  0.54569  0.32267  1.0000
  C   C761      1.0  0.24516  0.62456  0.64338  1.0000
  C   C762      1.0  0.32976  0.49642  0.32214  1.0000
  C   C763      1.0  0.33852  0.66422  0.32077  1.0000
  C   C764      1.0  0.31074  0.49728  0.32305  1.0000
  H   H1356     1.0  0.33212  0.50942  0.32093  1.0000
  C   C765      1.0  0.16031  0.68603  0.32251  1.0000
  S   S171      1.0  0.24188  0.65490  0.31950  1.0000
  H   H1357     1.0  0.13448  0.68922  0.31942  1.0000
  C   C766      1.0  0.27519  0.52123  0.31934  1.0000
  H   H1358     1.0  0.27967  0.53326  0.31779  1.0000
  H   H1359     1.0  0.17110  0.69300  0.31817  1.0000
  H   H1360     1.0  0.14113  0.70888  0.31775  1.0000
  H   H1361     1.0  0.41373  0.65340  0.31734  1.0000
  C   C767      1.0  0.49143  0.60191  0.36286  1.0000
  C   C768      1.0  0.24269  0.48726  0.39425  1.0000
  H   H1362     1.0  0.29274  0.61957  0.31718  1.0000
  Fe  Fe85      1.0  0.31928  0.52040  0.68439  1.0000
  H   H1363     1.0  0.26549  0.49557  0.71395  1.0000
  Fe  Fe86      1.0  0.28747  0.53234  0.71024  1.0000
  S   S172      1.0  0.26166  0.55033  0.71441  1.0000
  Fe  Fe87      1.0  0.32233  0.52038  0.72009  1.0000
  H   H1364     1.0  0.23095  0.58214  0.67668  1.0000
  S   S173      1.0  0.31246  0.54128  0.69940  1.0000
  C   C769      1.0  0.29611  0.62422  0.79118  1.0000
  Fe  Fe88      1.0  0.23772  0.66156  0.71761  1.0000
  S   S174      1.0  0.22775  0.64535  0.74313  1.0000
  S   S175      1.0  0.22488  0.66952  0.69486  1.0000
  Fe  Fe89      1.0  0.26649  0.66798  0.73009  1.0000
  S   S176      1.0  0.25911  0.65266  0.75674  1.0000
  S   S177      1.0  0.28962  0.68021  0.71959  1.0000
  Fe  Fe90      1.0  0.25559  0.63369  0.74324  1.0000
  S   S178      1.0  0.26750  0.60587  0.75202  1.0000
  Fe  Fe91      1.0  0.23184  0.66572  0.75463  1.0000
  S   S179      1.0  0.21145  0.67405  0.77723  1.0000
  S   S180      1.0  0.26519  0.64803  0.71669  1.0000
  S   S181      1.0  0.23957  0.68284  0.72904  1.0000
  H   H1365     1.0  0.29971  0.57052  0.66635  1.0000
  H   H1366     1.0  0.28330  0.62833  0.78757  1.0000
  H   H1367     1.0  0.31325  0.61965  0.75998  1.0000
  C   C770      1.0  0.24693  0.55037  0.67379  1.0000
  H   H1368     1.0  0.41469  0.64628  0.74630  1.0000
  H   H1369     1.0  0.33740  0.58463  0.68764  1.0000
  H   H1370     1.0  0.08704  0.70491  0.93698  1.0000
  H   H1371     1.0  0.42323  0.56703  0.65791  1.0000
  Fe  Fe92      1.0  0.37979  0.63167  0.67992  1.0000
  H   H1372     1.0  0.24836  0.72334  0.67547  1.0000
  H   H1373     1.0  0.31022  0.62325  0.73220  1.0000
  Fe  Fe93      1.0  0.37586  0.62438  0.71854  1.0000
  S   S182      1.0  0.40124  0.60566  0.71849  1.0000
  S   S183      1.0  0.35698  0.63193  0.74195  1.0000
  Fe  Fe94      1.0  0.41150  0.62485  0.69558  1.0000
  S   S184      1.0  0.43675  0.63400  0.68850  1.0000
  Fe  Fe95      1.0  0.39325  0.59584  0.69919  1.0000
  S   S185      1.0  0.39790  0.56740  0.69998  1.0000
  S   S186      1.0  0.38673  0.64437  0.69737  1.0000
  S   S187      1.0  0.36714  0.61294  0.70127  1.0000
  C   C771      1.0  0.46707  0.64580  0.72218  1.0000
  C   C772      1.0  0.45524  0.63490  0.72972  1.0000
  C   C773      1.0  0.44572  0.63116  0.71965  1.0000
  C   C774      1.0  0.44749  0.63883  0.70213  1.0000
  C   C775      1.0  0.45906  0.64994  0.69473  1.0000
  C   C776      1.0  0.46885  0.65334  0.70466  1.0000
  H   H1374     1.0  0.45383  0.62896  0.74327  1.0000
  H   H1375     1.0  0.43742  0.62198  0.72532  1.0000
  H   H1376     1.0  0.46061  0.65585  0.68117  1.0000
  C   C777      1.0  0.25510  0.56620  0.66710  1.0000
  H   H1377     1.0  0.27386  0.70645  0.68822  1.0000
  H   H1378     1.0  0.24587  0.54599  0.68792  1.0000
  C   C778      1.0  0.26266  0.65323  0.65562  1.0000
  C   C779      1.0  0.20544  0.69583  0.77904  1.0000
  C   C780      1.0  0.19190  0.70080  0.79247  1.0000
  C   C781      1.0  0.18591  0.71827  0.79343  1.0000
  C   C782      1.0  0.25225  0.53314  0.76250  1.0000
  H   H1379     1.0  0.13807  0.72312  0.84762  1.0000
  C   C783      1.0  0.21336  0.70836  0.76691  1.0000
  H   H1380     1.0  0.18584  0.69113  0.80199  1.0000
  H   H1381     1.0  0.23577  0.52509  0.74223  1.0000
  H   H1382     1.0  0.42279  0.67708  0.73922  1.0000
  H   H1383     1.0  0.22394  0.70466  0.75666  1.0000
  C   C784      1.0  0.30814  0.66659  0.72600  1.0000
  C   C785      1.0  0.30880  0.66097  0.74345  1.0000
  C   C786      1.0  0.32404  0.65078  0.74830  1.0000
  C   C787      1.0  0.33841  0.64574  0.73575  1.0000
  C   C788      1.0  0.33768  0.65128  0.71832  1.0000
  C   C789      1.0  0.32263  0.66180  0.71347  1.0000
  H   H1384     1.0  0.29765  0.66476  0.75318  1.0000
  H   H1385     1.0  0.32464  0.64667  0.76177  1.0000
  H   H1386     1.0  0.34866  0.64748  0.70850  1.0000
  H   H1387     1.0  0.32215  0.66600  0.70000  1.0000
  H   H1388     1.0  0.38140  0.65246  0.73334  1.0000
  H   H1389     1.0  0.46747  0.57949  0.71831  1.0000
  C   C790      1.0  0.11914  0.73430  0.87756  1.0000
  H   H1390     1.0  0.09449  0.72134  0.89640  1.0000
  C   C791      1.0  0.24925  0.51533  0.76337  1.0000
  C   C792      1.0  0.35458  0.53737  0.72511  1.0000
  C   C793      1.0  0.37185  0.52947  0.72504  1.0000
  C   C794      1.0  0.38492  0.53884  0.71729  1.0000
  C   C795      1.0  0.38086  0.55640  0.71012  1.0000
  C   C796      1.0  0.36354  0.56449  0.71047  1.0000
  C   C797      1.0  0.35041  0.55493  0.71774  1.0000
  C   C798      1.0  0.30274  0.65172  0.66900  1.0000
  H   H1391     1.0  0.39825  0.53246  0.71704  1.0000
  H   H1392     1.0  0.36034  0.57799  0.70483  1.0000
  H   H1393     1.0  0.33708  0.56115  0.71787  1.0000
  C   C799      1.0  0.26309  0.56607  0.72456  1.0000
  C   C800      1.0  0.27730  0.56375  0.73179  1.0000
  C   C801      1.0  0.27836  0.57596  0.74034  1.0000
  C   C802      1.0  0.26567  0.59101  0.74097  1.0000
  C   C803      1.0  0.25156  0.59358  0.73341  1.0000
  C   C804      1.0  0.25007  0.58088  0.72555  1.0000
  H   H1394     1.0  0.28732  0.55230  0.73125  1.0000
  H   H1395     1.0  0.28908  0.57365  0.74643  1.0000
  H   H1396     1.0  0.24158  0.60506  0.73414  1.0000
  H   H1397     1.0  0.23887  0.58252  0.72029  1.0000
  H   H1398     1.0  0.39989  0.68666  0.68268  1.0000
  C   C805      1.0  0.27874  0.58842  0.67880  1.0000
  H   H1399     1.0  0.14429  0.71662  0.87719  1.0000
  H   H1400     1.0  0.35240  0.59000  0.73515  1.0000
  C   C806      1.0  0.37949  0.68300  0.71796  1.0000
  S   S188      1.0  0.29324  0.51366  0.69293  1.0000
  C   C807      1.0  0.39516  0.68613  0.73814  1.0000
  C   C808      1.0  0.48834  0.58976  0.73349  1.0000
  H   H1401     1.0  0.37213  0.59095  0.75304  1.0000
  C   C809      1.0  0.20730  0.72579  0.76780  1.0000
  C   C810      1.0  0.23809  0.66772  0.67445  1.0000
  C   C811      1.0  0.25249  0.65432  0.67224  1.0000
  H   H1402     1.0  0.47233  0.56873  0.69085  1.0000
  H   H1403     1.0  0.38172  0.69573  0.71004  1.0000
  H   H1404     1.0  0.22266  0.69025  0.66163  1.0000
  H   H1405     1.0  0.25572  0.64486  0.68339  1.0000
  C   C812      1.0  0.48638  0.61609  0.67832  1.0000
  H   H1406     1.0  0.15129  0.71201  0.76346  1.0000
  H   H1407     1.0  0.28565  0.63382  0.68223  1.0000
  H   H1408     1.0  0.26535  0.68732  0.69279  1.0000
  C   C813      1.0  0.34654  0.58064  0.66145  1.0000
  H   H1409     1.0  0.14237  0.70043  0.85677  1.0000
  H   H1410     1.0  0.22650  0.50933  0.72602  1.0000
  H   H1411     1.0  0.38816  0.62325  0.75524  1.0000
  H   H1412     1.0  0.26015  0.50588  0.68453  1.0000
  S   S189      1.0  0.40548  0.61359  0.67609  1.0000
  H   H1413     1.0  0.48332  0.63600  0.65557  1.0000
  H   H1414     1.0  0.33107  0.69402  0.68297  1.0000
  C   C814      1.0  0.38911  0.65771  0.73927  1.0000
  H   H1415     1.0  0.27263  0.60935  0.65840  1.0000
  H   H1416     1.0  0.34456  0.60298  0.67217  1.0000
  H   H1417     1.0  0.46726  0.59066  0.67940  1.0000
  C   C815      1.0  0.31115  0.57708  0.77016  1.0000
  C   C816      1.0  0.41605  0.68554  0.70049  1.0000
  H   H1418     1.0  0.42162  0.68934  0.76380  1.0000
  H   H1419     1.0  0.13471  0.72071  0.90470  1.0000
  H   H1420     1.0  0.29271  0.66800  0.68780  1.0000
  H   H1421     1.0  0.25812  0.51627  0.73645  1.0000
  C   C817      1.0  0.18167  0.70923  0.73964  1.0000
  H   H1422     1.0  0.26428  0.53531  0.75304  1.0000
  N   N42       1.0  0.49011  0.58843  0.70193  1.0000
  H   H1423     1.0  0.32013  0.56052  0.75067  1.0000
  H   H1424     1.0  0.22742  0.49242  0.77179  1.0000
  H   H1425     1.0  0.32699  0.67198  0.66946  1.0000
  C   C818      1.0  0.29862  0.63563  0.68204  1.0000
  H   H1426     1.0  0.30480  0.57820  0.68266  1.0000
  C   C819      1.0  0.17480  0.69253  0.74294  1.0000
  C   C820      1.0  0.36092  0.68622  0.72913  1.0000
  H   H1427     1.0  0.26106  0.50602  0.76629  1.0000
  C   C821      1.0  0.22554  0.49473  0.75845  1.0000
  C   C822      1.0  0.25295  0.50412  0.71220  1.0000
  H   H1428     1.0  0.47759  0.66208  0.69879  1.0000
  H   H1429     1.0  0.34878  0.68863  0.66565  1.0000
  H   H1430     1.0  0.36394  0.51638  0.69825  1.0000
  H   H1431     1.0  0.30378  0.59520  0.74081  1.0000
  C   C823      1.0  0.49006  0.62237  0.65880  1.0000
  H   H1432     1.0  0.38058  0.66032  0.75171  1.0000
  H   H1433     1.0  0.29410  0.62298  0.80531  1.0000
  C   C824      1.0  0.30776  0.60806  0.76670  1.0000
  H   H1434     1.0  0.34004  0.60311  0.76046  1.0000
  H   H1435     1.0  0.34967  0.70627  0.70958  1.0000
  C   C825      1.0  0.41014  0.67011  0.71439  1.0000
  H   H1436     1.0  0.31517  0.53357  0.77050  1.0000
  N   N43       1.0  0.39379  0.67417  0.72762  1.0000
  H   H1437     1.0  0.37940  0.67534  0.70866  1.0000
  H   H1438     1.0  0.35953  0.69555  0.73727  1.0000
  C   C826      1.0  0.41009  0.68011  0.74793  1.0000
  H   H1439     1.0  0.26848  0.56225  0.66926  1.0000
  N   N44       1.0  0.31870  0.59247  0.75977  1.0000
  H   H1440     1.0  0.29565  0.54977  0.77184  1.0000
  H   H1441     1.0  0.23392  0.55328  0.67082  1.0000
  H   H1442     1.0  0.31643  0.65158  0.66790  1.0000
  H   H1443     1.0  0.23812  0.51311  0.77410  1.0000
  C   C827      1.0  0.33494  0.69485  0.66881  1.0000
  H   H1444     1.0  0.47423  0.59046  0.73783  1.0000
  C   C828      1.0  0.40413  0.64239  0.74319  1.0000
  C   C829      1.0  0.24479  0.58110  0.67635  1.0000
  H   H1445     1.0  0.36836  0.57178  0.67422  1.0000
  C   C830      1.0  0.07740  0.71500  0.93072  1.0000
  H   H1446     1.0  0.44304  0.57281  0.71024  1.0000
  C   C831      1.0  0.41364  0.68558  0.68263  1.0000
  H   H1447     1.0  0.40795  0.66867  0.75826  1.0000
  H   H1448     1.0  0.29707  0.57987  0.77030  1.0000
  H   H1449     1.0  0.19518  0.68057  0.72399  1.0000
  H   H1450     1.0  0.27364  0.57740  0.68757  1.0000
  C   C832      1.0  0.33705  0.59036  0.76152  1.0000
  C   C833      1.0  0.15873  0.72228  0.76083  1.0000
  H   H1451     1.0  0.33442  0.69533  0.72597  1.0000
  H   H1452     1.0  0.25399  0.51764  0.71066  1.0000
  C   C834      1.0  0.32414  0.61167  0.71069  1.0000
  H   H1453     1.0  0.33543  0.60144  0.70742  1.0000
  C   C835      1.0  0.39802  0.62841  0.75821  1.0000
  C   C836      1.0  0.35163  0.58167  0.74818  1.0000
  C   C837      1.0  0.31937  0.55965  0.76451  1.0000
  H   H1454     1.0  0.42128  0.67356  0.67836  1.0000
  H   H1455     1.0  0.33866  0.58308  0.77464  1.0000
  H   H1456     1.0  0.29754  0.59744  0.79391  1.0000
  C   C838      1.0  0.34761  0.69361  0.71775  1.0000
  H   H1457     1.0  0.42123  0.66360  0.72057  1.0000
  H   H1458     1.0  0.38315  0.68831  0.74811  1.0000
  C   C839      1.0  0.30882  0.54600  0.77455  1.0000
  H   H1459     1.0  0.40903  0.66032  0.70781  1.0000
  C   C840      1.0  0.47118  0.58805  0.70562  1.0000
  H   H1460     1.0  0.33245  0.55485  0.76733  1.0000
  C   C841      1.0  0.36923  0.57859  0.75265  1.0000
  H   H1461     1.0  0.18446  0.66572  0.74105  1.0000
  H   H1462     1.0  0.30298  0.70749  0.66182  1.0000
  H   H1463     1.0  0.40946  0.63652  0.73168  1.0000
  H   H1464     1.0  0.37861  0.54077  0.68292  1.0000
  C   C842      1.0  0.13123  0.71662  0.87570  1.0000
  N   N45       1.0  0.24191  0.49736  0.74540  1.0000
  H   H1465     1.0  0.30792  0.54409  0.78861  1.0000
  H   H1466     1.0  0.26931  0.48712  0.74261  1.0000
  H   H1467     1.0  0.32535  0.58462  0.73518  1.0000
  H   H1468     1.0  0.31820  0.60329  0.79003  1.0000
  H   H1469     1.0  0.29461  0.61100  0.76396  1.0000
  H   H1470     1.0  0.40910  0.61765  0.76047  1.0000
  C   C843      1.0  0.31712  0.59529  0.74134  1.0000
  C   C844      1.0  0.10059  0.72467  0.90540  1.0000
  H   H1471     1.0  0.21542  0.50673  0.75715  1.0000
  H   H1472     1.0  0.39872  0.69743  0.76596  1.0000
  H   H1473     1.0  0.16910  0.68853  0.75681  1.0000
  H   H1474     1.0  0.36960  0.56963  0.76531  1.0000
  H   H1475     1.0  0.46305  0.60090  0.70712  1.0000
  H   H1476     1.0  0.30820  0.62423  0.67844  1.0000
  H   H1477     1.0  0.24247  0.71283  0.69767  1.0000
  H   H1478     1.0  0.35565  0.54650  0.68481  1.0000
  H   H1479     1.0  0.37936  0.57279  0.74263  1.0000
  C   C845      1.0  0.26637  0.69974  0.68363  1.0000
  H   H1480     1.0  0.43006  0.68447  0.69944  1.0000
  H   H1481     1.0  0.33285  0.61519  0.73175  1.0000
  H   H1482     1.0  0.35734  0.54588  0.65535  1.0000
  H   H1483     1.0  0.34959  0.56920  0.74732  1.0000
  H   H1484     1.0  0.34842  0.68468  0.70934  1.0000
  H   H1485     1.0  0.40966  0.69822  0.70374  1.0000
  H   H1486     1.0  0.30096  0.65044  0.65649  1.0000
  S   S190      1.0  0.29670  0.51283  0.73225  1.0000
  H   H1487     1.0  0.24587  0.57683  0.69007  1.0000
  H   H1488     1.0  0.17528  0.72201  0.80362  1.0000
  H   H1489     1.0  0.43833  0.59481  0.69854  1.0000
  H   H1490     1.0  0.27476  0.58928  0.65332  1.0000
  H   H1491     1.0  0.14713  0.71957  0.73518  1.0000
  H   H1492     1.0  0.41824  0.69664  0.67315  1.0000
  C   C846      1.0  0.46523  0.58191  0.69221  1.0000
  H   H1493     1.0  0.31268  0.60878  0.70815  1.0000
  H   H1494     1.0  0.35748  0.67418  0.73764  1.0000
  N   N46       1.0  0.24983  0.59835  0.66861  1.0000
  C   C847      1.0  0.24269  0.60962  0.68171  1.0000
  C   C848      1.0  0.23837  0.49935  0.72775  1.0000
  C   C849      1.0  0.26912  0.59658  0.66382  1.0000
  S   S191      1.0  0.33112  0.49988  0.70429  1.0000
  C   C850      1.0  0.22277  0.61469  0.68665  1.0000
  C   C851      1.0  0.21705  0.62352  0.70203  1.0000
  H   H1495     1.0  0.39251  0.63357  0.77016  1.0000
  H   H1496     1.0  0.24733  0.60320  0.69381  1.0000
  H   H1497     1.0  0.24782  0.62160  0.67726  1.0000
  H   H1498     1.0  0.23983  0.70391  0.68092  1.0000
  H   H1499     1.0  0.37890  0.53457  0.65249  1.0000
  H   H1500     1.0  0.12628  0.70597  0.88552  1.0000
  H   H1501     1.0  0.06653  0.71922  0.94101  1.0000
  H   H1502     1.0  0.27746  0.59815  0.68652  1.0000
  H   H1503     1.0  0.16503  0.69418  0.73525  1.0000
  H   H1504     1.0  0.25367  0.53407  0.77528  1.0000
  H   H1505     1.0  0.21762  0.62375  0.67571  1.0000
  H   H1506     1.0  0.21678  0.60328  0.69027  1.0000
  H   H1507     1.0  0.20287  0.62833  0.70450  1.0000
  H   H1508     1.0  0.22043  0.61438  0.71379  1.0000
  H   H1509     1.0  0.22336  0.63459  0.69944  1.0000
  H   H1510     1.0  0.33334  0.70858  0.66212  1.0000
  H   H1511     1.0  0.32672  0.62415  0.70245  1.0000
  C   C852      1.0  0.36993  0.54512  0.65848  1.0000
  H   H1512     1.0  0.27384  0.64296  0.65391  1.0000
  H   H1513     1.0  0.19956  0.67566  0.74537  1.0000
  H   H1514     1.0  0.30375  0.63430  0.78461  1.0000
  C   C853      1.0  0.12748  0.73424  0.90392  1.0000
  C   C854      1.0  0.44599  0.58168  0.69761  1.0000
  C   C855      1.0  0.32121  0.61240  0.72959  1.0000
  C   C856      1.0  0.29786  0.58197  0.67193  1.0000
  H   H1515     1.0  0.39625  0.55614  0.66516  1.0000
  H   H1516     1.0  0.35690  0.51736  0.67897  1.0000
  C   C857      1.0  0.36781  0.53904  0.67829  1.0000
  S   S192      1.0  0.33849  0.52537  0.73599  1.0000
  H   H1517     1.0  0.44196  0.57728  0.68785  1.0000
  C   C858      1.0  0.18941  0.67775  0.73799  1.0000
  H   H1518     1.0  0.34040  0.56931  0.66524  1.0000
  C   C859      1.0  0.33775  0.59230  0.67433  1.0000
  C   C860      1.0  0.24815  0.71065  0.68438  1.0000
  C   C861      1.0  0.29093  0.66819  0.67477  1.0000
  Fe  Fe96      1.0  0.30441  0.49454  0.71412  1.0000
  H   H1519     1.0  0.24845  0.48916  0.69598  1.0000
  C   C862      1.0  0.16276  0.73110  0.71138  1.0000
  S   S193      1.0  0.36433  0.64920  0.66095  1.0000
  H   H1520     1.0  0.31223  0.57458  0.78382  1.0000
  H   H1521     1.0  0.25572  0.57012  0.65307  1.0000
  H   H1522     1.0  0.11575  0.72841  0.93150  1.0000
  H   H1523     1.0  0.37515  0.51598  0.73089  1.0000
  C   C863      1.0  0.30551  0.60697  0.78626  1.0000
  C   C864      1.0  0.30476  0.69351  0.66769  1.0000
  C   C865      1.0  0.13314  0.71280  0.85796  1.0000
  C   C866      1.0  0.32423  0.68562  0.66297  1.0000
  H   H1524     1.0  0.29839  0.52607  0.65353  1.0000
  H   H1525     1.0  0.29908  0.63661  0.69510  1.0000
  H   H1526     1.0  0.30157  0.69289  0.68184  1.0000
  C   C867      1.0  0.27502  0.69716  0.66498  1.0000
  H   H1527     1.0  0.18976  0.71077  0.72642  1.0000
  H   H1528     1.0  0.39606  0.69910  0.73004  1.0000
  H   H1529     1.0  0.25513  0.53974  0.66748  1.0000
  N   N47       1.0  0.29263  0.68545  0.66283  1.0000
  H   H1530     1.0  0.27560  0.71026  0.65703  1.0000
  H   H1531     1.0  0.20448  0.73020  0.73073  1.0000
  C   C868      1.0  0.23382  0.67992  0.66005  1.0000
  H   H1532     1.0  0.10841  0.71223  0.91098  1.0000
  H   H1533     1.0  0.12053  0.71182  0.85612  1.0000
  H   H1534     1.0  0.13123  0.72228  0.78895  1.0000
  H   H1535     1.0  0.48523  0.61460  0.65258  1.0000
  H   H1536     1.0  0.49026  0.62490  0.68414  1.0000
  H   H1537     1.0  0.41359  0.70581  0.74691  1.0000
  C   C869      1.0  0.41098  0.69408  0.75666  1.0000
  H   H1538     1.0  0.16810  0.71749  0.76949  1.0000
  C   C870      1.0  0.19334  0.73085  0.78082  1.0000
  C   C871      1.0  0.36616  0.57548  0.66084  1.0000
  C   C872      1.0  0.24613  0.51399  0.74602  1.0000
  H   H1539     1.0  0.23725  0.51147  0.69276  1.0000
  H   H1540     1.0  0.30342  0.59212  0.66183  1.0000
  C   C873      1.0  0.24940  0.50255  0.69537  1.0000
  H   H1541     1.0  0.24130  0.54340  0.75872  1.0000
  H   H1542     1.0  0.47232  0.61718  0.68247  1.0000
  H   H1543     1.0  0.26605  0.69223  0.66024  1.0000
  C   C874      1.0  0.36702  0.52001  0.68396  1.0000
  H   H1544     1.0  0.48469  0.61126  0.71249  1.0000
  H   H1545     1.0  0.19085  0.70671  0.74827  1.0000
  H   H1546     1.0  0.32438  0.59805  0.67279  1.0000
  H   H1547     1.0  0.37961  0.51195  0.67914  1.0000
  S   S194      1.0  0.33269  0.52560  0.65671  1.0000
  H   H1548     1.0  0.23589  0.48714  0.72637  1.0000
  H   H1549     1.0  0.23939  0.63374  0.65212  1.0000
  S   S195      1.0  0.47951  0.64984  0.73475  1.0000
  H   H1550     1.0  0.27764  0.66610  0.67700  1.0000
  C   C875      1.0  0.13758  0.73339  0.78619  1.0000
  C   C876      1.0  0.15536  0.72935  0.73097  1.0000
  C   C877      1.0  0.24261  0.60607  0.65255  1.0000
  H   H1551     1.0  0.14659  0.72029  0.93025  1.0000
  H   H1552     1.0  0.22859  0.60614  0.65536  1.0000
  C   C878      1.0  0.39488  0.55865  0.65155  1.0000
  C   C879      1.0  0.14022  0.73410  0.92890  1.0000
  H   H1553     1.0  0.07238  0.70948  0.92250  1.0000
  H   H1554     1.0  0.14756  0.73020  0.79401  1.0000
  H   H1555     1.0  0.17258  0.71961  0.70834  1.0000
  H   H1556     1.0  0.14260  0.72177  0.70590  1.0000
  H   H1557     1.0  0.37096  0.58758  0.65527  1.0000
  N   N48       1.0  0.16830  0.72536  0.74223  1.0000
  H   H1558     1.0  0.48978  0.59331  0.75831  1.0000
  H   H1559     1.0  0.48723  0.61288  0.74235  1.0000
  C   C880      1.0  0.08540  0.73030  0.92001  1.0000
  H   H1560     1.0  0.03629  0.73285  0.96317  1.0000
  H   H1561     1.0  0.21326  0.73545  0.75815  1.0000
  H   H1562     1.0  0.10831  0.73540  0.87131  1.0000
  N   N49       1.0  0.37612  0.56178  0.65081  1.0000
  H   H1563     1.0  0.08929  0.73594  0.92885  1.0000
  H   H1564     1.0  0.15412  0.73482  0.68764  1.0000
  C   C881      1.0  0.14855  0.73328  0.70168  1.0000
  Fe  Fe97      1.0  0.11745  0.82671  0.06428  1.0000
  S   S196      1.0  0.09117  0.83569  0.07971  1.0000
  S   S197      1.0  0.12143  0.83006  0.03544  1.0000
  Fe  Fe98      1.0  0.13411  0.81563  0.09533  1.0000
  S   S198      1.0  0.10932  0.82329  0.11343  1.0000
  S   S199      1.0  0.15916  0.80609  0.10445  1.0000
  Fe  Fe99      1.0  0.09760  0.81145  0.09898  1.0000
  S   S200      1.0  0.07864  0.79485  0.11381  1.0000
  Fe  Fe100     1.0  0.10499  0.84685  0.09298  1.0000
  S   S201      1.0  0.09424  0.87118  0.10300  1.0000
  S   S202      1.0  0.12278  0.80138  0.08257  1.0000
  S   S203      1.0  0.13079  0.84028  0.07573  1.0000
  H   H1565     1.0  0.11599  0.89833  0.07611  1.0000
  H   H1566     1.0  0.05593  0.84970  0.20982  1.0000
  H   H1567     1.0  0.05251  0.87087  0.30148  1.0000
  C   C882      1.0  0.07148  0.95279  0.20132  1.0000
  H   H1568     1.0  0.08527  0.82141  0.05119  1.0000
  H   H1569     1.0  0.09179  0.85012  0.98714  1.0000
  Fe  Fe101     1.0  0.12754  0.89092  0.17041  1.0000
  S   S204      1.0  0.10949  0.91652  0.16790  1.0000
  S   S205      1.0  0.14242  0.87960  0.14736  1.0000
  Fe  Fe102     1.0  0.12105  0.88604  0.20898  1.0000
  S   S206      1.0  0.10262  0.91148  0.20976  1.0000
  S   S207      1.0  0.12543  0.86714  0.23332  1.0000
  Fe  Fe103     1.0  0.09205  0.90402  0.19081  1.0000
  S   S208      1.0  0.06356  0.90991  0.19189  1.0000
  Fe  Fe104     1.0  0.12187  0.92170  0.18686  1.0000
  S   S209      1.0  0.12865  0.94805  0.17835  1.0000
  S   S210      1.0  0.10901  0.87786  0.19168  1.0000
  S   S211      1.0  0.14136  0.89675  0.18771  1.0000
  H   H1570     1.0  0.08910  0.98384  0.07038  1.0000
  C   C883      1.0  0.17056  0.81627  0.04672  1.0000
  C   C884      1.0  0.06719  0.84350  0.04214  1.0000
  Fe  Fe105     1.0  0.13986  0.76531  0.23624  1.0000
  S   S212      1.0  0.16373  0.76412  0.24530  1.0000
  S   S213      1.0  0.11328  0.76971  0.25293  1.0000
  Fe  Fe106     1.0  0.17138  0.78042  0.21930  1.0000
  S   S214      1.0  0.18343  0.80265  0.21715  1.0000
  H   H1571     1.0  0.09220  0.83922  0.24538  1.0000
  S   S215      1.0  0.14640  0.78372  0.21134  1.0000
  C   C885      1.0  0.14107  0.97336  0.18397  1.0000
  H   H1572     1.0  0.11010  0.98121  0.24656  1.0000
  Fe  Fe107     1.0  0.03430  0.79675  0.21263  1.0000
  C   C886      1.0  0.08499  0.84596  0.25604  1.0000
  S   S216      1.0  0.04025  0.82275  0.19995  1.0000
  H   H1573     1.0  0.10717  0.81324  0.25376  1.0000
  C   C887      1.0  0.10150  0.76334  0.22736  1.0000
  H   H1574     1.0  0.02568  0.80236  0.07374  1.0000
  C   C888      1.0  0.10148  0.81552  0.21662  1.0000
  C   C889      1.0  0.04992  0.82782  0.26991  1.0000
  N   N50       1.0  0.06147  0.79722  0.06762  1.0000
  H   H1575     1.0  0.00482  0.80116  0.10190  1.0000
  H   H1576     1.0  0.13519  0.87147  0.99462  1.0000
  H   H1577     1.0  0.05494  0.84696  0.03755  1.0000
  S   S217      1.0  0.01401  0.79938  0.19782  1.0000
  H   H1578     1.0  0.06013  0.82128  0.07467  1.0000
  C   C890      1.0  0.05260  0.89313  0.20301  1.0000
  C   C891      1.0  0.03648  0.89715  0.21378  1.0000
  C   C892      1.0  0.02763  0.88413  0.22342  1.0000
  C   C893      1.0  0.05964  0.87598  0.20150  1.0000
  H   H1579     1.0  0.03100  0.91034  0.21503  1.0000
  H   H1580     1.0  0.01537  0.88734  0.23205  1.0000
  C   C894      1.0  0.16751  0.82050  0.22230  1.0000
  C   C895      1.0  0.15052  0.81869  0.22968  1.0000
  C   C896      1.0  0.13769  0.83313  0.23297  1.0000
  C   C897      1.0  0.14172  0.84940  0.22876  1.0000
  C   C898      1.0  0.15869  0.85128  0.22129  1.0000
  C   C899      1.0  0.17164  0.83677  0.21828  1.0000
  H   H1581     1.0  0.14725  0.80618  0.23296  1.0000
  H   H1582     1.0  0.12457  0.83181  0.23852  1.0000
  H   H1583     1.0  0.16184  0.86387  0.21814  1.0000
  H   H1584     1.0  0.18479  0.83819  0.21266  1.0000
  N   N51       1.0  0.10008  0.93150  0.11149  1.0000
  C   C900      1.0  0.13750  0.96113  0.21945  1.0000
  C   C901      1.0  0.13371  0.95170  0.20928  1.0000
  C   C902      1.0  0.13518  0.95801  0.19153  1.0000
  H   H1585     1.0  0.13603  0.95639  0.23322  1.0000
  H   H1586     1.0  0.12932  0.93978  0.21522  1.0000
  C   C903      1.0  0.10758  0.87211  0.11609  1.0000
  C   C904      1.0  0.10041  0.87720  0.13187  1.0000
  C   C905      1.0  0.11110  0.87892  0.14187  1.0000
  C   C906      1.0  0.12895  0.87612  0.13577  1.0000
  C   C907      1.0  0.13612  0.87091  0.12002  1.0000
  C   C908      1.0  0.12547  0.86853  0.11039  1.0000
  H   H1587     1.0  0.08660  0.87976  0.13639  1.0000
  H   H1588     1.0  0.10548  0.88280  0.15409  1.0000
  H   H1589     1.0  0.14988  0.86883  0.11515  1.0000
  H   H1590     1.0  0.13108  0.86457  0.09821  1.0000
  C   C909      1.0  0.06128  0.80727  0.12574  1.0000
  C   C910      1.0  0.04987  0.79929  0.13944  1.0000
  C   C911      1.0  0.03695  0.80917  0.14995  1.0000
  C   C912      1.0  0.03498  0.82708  0.14626  1.0000
  C   C913      1.0  0.04582  0.83508  0.13202  1.0000
  C   C914      1.0  0.05920  0.82517  0.12203  1.0000
  H   H1591     1.0  0.05145  0.78543  0.14238  1.0000
  H   H1592     1.0  0.02852  0.80293  0.16086  1.0000
  H   H1593     1.0  0.04430  0.84893  0.12911  1.0000
  H   H1594     1.0  0.06800  0.83145  0.11163  1.0000
  C   C915      1.0  0.15661  0.79334  0.12539  1.0000
  C   C916      1.0  0.14215  0.78586  0.13233  1.0000
  C   C917      1.0  0.15691  0.75969  0.07913  1.0000
  C   C918      1.0  0.15328  0.77171  0.15826  1.0000
  C   C919      1.0  0.16737  0.77981  0.15169  1.0000
  C   C920      1.0  0.16916  0.79044  0.13514  1.0000
  C   C921      1.0  0.11492  0.93733  0.11442  1.0000
  H   H1595     1.0  0.09195  0.81536  0.29188  1.0000
  H   H1596     1.0  0.17725  0.77722  0.15903  1.0000
  H   H1597     1.0  0.18031  0.79628  0.12983  1.0000
  C   C922      1.0  0.11673  0.81366  0.02842  1.0000
  C   C923      1.0  0.10927  0.81791  0.01400  1.0000
  C   C924      1.0  0.10449  0.80524  0.00867  1.0000
  C   C925      1.0  0.10738  0.78817  0.01766  1.0000
  C   C926      1.0  0.11522  0.78384  0.03186  1.0000
  C   C927      1.0  0.11981  0.79658  0.03729  1.0000
  H   H1598     1.0  0.10651  0.83115  0.00747  1.0000
  H   H1599     1.0  0.09809  0.80877  0.99797  1.0000
  H   H1600     1.0  0.11746  0.77063  0.03880  1.0000
  H   H1601     1.0  0.12556  0.79324  0.04842  1.0000
  N   N52       1.0  0.18452  0.83612  0.16059  1.0000
  C   C928      1.0  0.18136  0.85111  0.16914  1.0000
  C   C929      1.0  0.16733  0.83227  0.16139  1.0000
  C   C930      1.0  0.19594  0.82093  0.16972  1.0000
  C   C931      1.0  0.19360  0.84015  0.14193  1.0000
  C   C932      1.0  0.18474  0.85642  0.13053  1.0000
  C   C933      1.0  0.19737  0.85841  0.16772  1.0000
  C   C934      1.0  0.19614  0.80310  0.16646  1.0000
  C   C935      1.0  0.15652  0.82633  0.17968  1.0000
  C   C936      1.0  0.14187  0.84059  0.18595  1.0000
  C   C937      1.0  0.19574  0.85984  0.11234  1.0000
  C   C938      1.0  0.19254  0.87320  0.17730  1.0000
  C   C939      1.0  0.21027  0.78920  0.17371  1.0000
  H   H1602     1.0  0.17592  0.84731  0.18311  1.0000
  H   H1603     1.0  0.17128  0.86183  0.16422  1.0000
  H   H1604     1.0  0.15914  0.84370  0.15483  1.0000
  H   H1605     1.0  0.16904  0.82232  0.15379  1.0000
  H   H1606     1.0  0.19244  0.82012  0.18385  1.0000
  H   H1607     1.0  0.20949  0.82274  0.16613  1.0000
  H   H1608     1.0  0.20704  0.84138  0.14086  1.0000
  H   H1609     1.0  0.19499  0.82924  0.13566  1.0000
  H   H1610     1.0  0.18245  0.86805  0.13592  1.0000
  H   H1611     1.0  0.17225  0.85466  0.12928  1.0000
  H   H1612     1.0  0.20735  0.84832  0.17345  1.0000
  H   H1613     1.0  0.20302  0.86351  0.15409  1.0000
  H   H1614     1.0  0.19837  0.80332  0.15251  1.0000
  H   H1615     1.0  0.18366  0.79917  0.17288  1.0000
  H   H1616     1.0  0.15052  0.81584  0.17920  1.0000
  H   H1617     1.0  0.16444  0.82078  0.18950  1.0000
  H   H1618     1.0  0.13354  0.83503  0.19802  1.0000
  H   H1619     1.0  0.14685  0.85067  0.18871  1.0000
  H   H1620     1.0  0.13382  0.84675  0.17622  1.0000
  H   H1621     1.0  0.20834  0.86224  0.11269  1.0000
  H   H1622     1.0  0.19795  0.84874  0.10612  1.0000
  H   H1623     1.0  0.18893  0.87140  0.10444  1.0000
  H   H1624     1.0  0.18723  0.86871  0.19120  1.0000
  H   H1625     1.0  0.20416  0.87830  0.17612  1.0000
  H   H1626     1.0  0.18280  0.88382  0.17175  1.0000
  H   H1627     1.0  0.20975  0.77656  0.17161  1.0000
  H   H1628     1.0  0.22319  0.79206  0.16718  1.0000
  H   H1629     1.0  0.20839  0.78829  0.18779  1.0000
  H   H1630     1.0  0.02854  0.82038  0.26479  1.0000
  H   H1631     1.0  0.06403  0.85467  0.24201  1.0000
  H   H1632     1.0  0.10745  0.95591  0.07996  1.0000
  H   H1633     1.0  0.07738  0.84836  0.03145  1.0000
  C   C940      1.0  0.07069  0.86016  0.24878  1.0000
  S   S218      1.0  0.99834  0.83748  0.20793  1.0000
  S   S219      1.0  0.01554  0.80530  0.23564  1.0000
  H   H1634     1.0  0.07207  0.87279  0.19316  1.0000
  H   H1635     1.0  0.05489  0.78836  0.24147  1.0000
  C   C941      1.0  0.09205  0.98688  0.22074  1.0000
  H   H1636     1.0  0.13143  0.79209  0.26362  1.0000
  C   C942      1.0  0.06965  0.82160  0.26861  1.0000
  H   H1637     1.0  0.04638  0.82282  0.06056  1.0000
  H   H1638     1.0  0.08610  0.76395  0.06436  1.0000
  H   H1639     1.0  0.10136  0.76942  0.09240  1.0000
  H   H1640     1.0  0.18699  0.76420  0.04124  1.0000
  C   C943      1.0  0.08309  0.97335  0.07942  1.0000
  H   H1641     1.0  0.06208  0.95988  0.19307  1.0000
  H   H1642     1.0  0.06307  0.97093  0.21818  1.0000
  H   H1643     1.0  0.06378  0.93054  0.12330  1.0000
  H   H1644     1.0  0.08012  0.86486  0.28044  1.0000
  H   H1645     1.0  0.07171  0.97919  0.08837  1.0000
  H   H1646     1.0  0.12335  0.79551  0.28537  1.0000
  H   H1647     1.0  0.22019  0.74523  0.07910  1.0000
  H   H1648     1.0  0.14823  0.93903  0.11558  1.0000
  H   H1649     1.0  0.16797  0.82082  0.05895  1.0000
  H   H1650     1.0  0.16521  0.75537  0.10378  1.0000
  H   H1651     1.0  0.14446  0.76549  0.07495  1.0000
  H   H1652     1.0  0.16369  0.79136  0.07520  1.0000
  C   C944      1.0  0.07674  0.85450  0.29164  1.0000
  H   H1653     1.0  0.06481  0.83228  0.29839  1.0000
  H   H1654     1.0  0.15193  0.91964  0.13170  1.0000
  C   C945      1.0  0.18755  0.76234  0.07340  1.0000
  H   H1655     1.0  0.10597  0.75025  0.08388  1.0000
  H   H1656     1.0  0.17972  0.82348  0.03689  1.0000
  C   C946      1.0  0.04919  0.79252  0.08451  1.0000
  C   C947      1.0  0.08809  0.94648  0.10271  1.0000
  H   H1657     1.0  0.05342  0.79517  0.09521  1.0000
  H   H1658     1.0  0.06589  0.94235  0.21095  1.0000
  H   H1659     1.0  0.08281  0.98008  0.23100  1.0000
  C   C948      1.0  0.03445  0.86704  0.22185  1.0000
  H   H1660     1.0  0.13725  0.75508  0.12299  1.0000
  H   H1661     1.0  0.04641  0.84114  0.26277  1.0000
  H   H1662     1.0  0.05894  0.76399  0.06515  1.0000
  C   C949      1.0  0.08866  0.76408  0.21866  1.0000
  H   H1663     1.0  0.11522  0.86482  0.00628  1.0000
  C   C950      1.0  0.10634  0.91729  0.10148  1.0000
  C   C951      1.0  0.04278  0.81622  0.26291  1.0000
  C   C952      1.0  0.08482  0.76990  0.07544  1.0000
  H   H1664     1.0  0.07553  0.81847  0.25564  1.0000
  H   H1665     1.0  0.06109  0.86623  0.25884  1.0000
  S   S220      1.0  0.02332  0.85103  0.23500  1.0000
  C   C953      1.0  0.15383  0.76187  0.09800  1.0000
  N   N53       1.0  0.17132  0.76736  0.06642  1.0000
  H   H1666     1.0  0.07741  0.78623  0.25759  1.0000
  H   H1667     1.0  0.04586  0.80261  0.26973  1.0000
  H   H1668     1.0  0.09455  0.85234  0.25800  1.0000
  H   H1669     1.0  0.23565  0.76712  0.24679  1.0000
  H   H1670     1.0  0.07095  0.80905  0.27798  1.0000
  H   H1671     1.0  0.15893  0.74571  0.07940  1.0000
  C   C954      1.0  0.05045  0.86295  0.21078  1.0000
  N   N54       1.0  0.09093  0.81536  0.17271  1.0000
  C   C955      1.0  0.09038  0.82036  0.18935  1.0000
  C   C956      1.0  0.07773  0.82798  0.16315  1.0000
  C   C957      1.0  0.08626  0.79788  0.17732  1.0000
  C   C958      1.0  0.10866  0.81395  0.16131  1.0000
  C   C959      1.0  0.11579  0.83061  0.15530  1.0000
  C   C960      1.0  0.10398  0.80931  0.19995  1.0000
  C   C961      1.0  0.08578  0.79048  0.16190  1.0000
  C   C962      1.0  0.07301  0.84686  0.16569  1.0000
  C   C963      1.0  0.06135  0.85850  0.15377  1.0000
  C   C964      1.0  0.13418  0.82731  0.14485  1.0000
  C   C965      1.0  0.07970  0.78971  0.07001  1.0000
  C   C966      1.0  0.07702  0.77506  0.16798  1.0000
  H   H1672     1.0  0.07738  0.82018  0.19789  1.0000
  H   H1673     1.0  0.09223  0.83371  0.18705  1.0000
  H   H1674     1.0  0.08188  0.82830  0.14904  1.0000
  H   H1675     1.0  0.06521  0.82366  0.16691  1.0000
  H   H1676     1.0  0.07348  0.79830  0.18637  1.0000
  H   H1677     1.0  0.09555  0.78802  0.18423  1.0000
  H   H1678     1.0  0.11804  0.80345  0.16761  1.0000
  H   H1679     1.0  0.10882  0.80999  0.14935  1.0000
  H   H1680     1.0  0.11579  0.83588  0.16639  1.0000
  H   H1681     1.0  0.10799  0.84037  0.14675  1.0000
  H   H1682     1.0  0.10304  0.79562  0.20367  1.0000
  H   H1683     1.0  0.11722  0.81026  0.19254  1.0000
  H   H1684     1.0  0.09908  0.78600  0.15489  1.0000
  H   H1685     1.0  0.07880  0.80017  0.15264  1.0000
  H   H1686     1.0  0.06586  0.84739  0.17910  1.0000
  H   H1687     1.0  0.08455  0.85241  0.16328  1.0000
  H   H1688     1.0  0.05857  0.87190  0.15569  1.0000
  H   H1689     1.0  0.06764  0.85831  0.14006  1.0000
  H   H1690     1.0  0.04892  0.85428  0.15685  1.0000
  H   H1691     1.0  0.13954  0.83901  0.14187  1.0000
  H   H1692     1.0  0.14243  0.81651  0.15209  1.0000
  H   H1693     1.0  0.13436  0.82424  0.13245  1.0000
  H   H1694     1.0  0.09952  0.79727  0.27141  1.0000
  S   S221      1.0  0.01947  0.83957  0.15964  1.0000
  H   H1695     1.0  0.02878  0.81561  0.08656  1.0000
  H   H1696     1.0  0.06320  0.77914  0.17389  1.0000
  H   H1697     1.0  0.07782  0.76945  0.15681  1.0000
  H   H1698     1.0  0.08341  0.76502  0.17757  1.0000
  H   H1699     1.0  0.06559  0.84984  0.05304  1.0000
  C   C967      1.0  0.07835  0.87458  0.23570  1.0000
  H   H1700     1.0  0.08561  0.88037  0.24158  1.0000
  H   H1701     1.0  0.08710  0.86950  0.22455  1.0000
  H   H1702     1.0  0.06789  0.88489  0.23109  1.0000
  C   C968      1.0  0.14186  0.93031  0.12677  1.0000
  H   H1703     1.0  0.06121  0.85001  0.98828  1.0000
  Fe  Fe108     1.0  0.01825  0.82623  0.18726  1.0000
  Fe  Fe109     1.0  0.15924  0.76012  0.20056  1.0000
  H   H1704     1.0  0.12985  0.76846  0.15358  1.0000
  C   C969      1.0  0.12404  0.80173  0.27157  1.0000
  Fe  Fe110     1.0  0.02004  0.83171  0.22168  1.0000
  C   C970      1.0  0.06790  0.78149  0.23749  1.0000
  S   S222      1.0  0.05600  0.77357  0.21274  1.0000
  H   H1705     1.0  0.12786  0.92801  0.08308  1.0000
  H   H1706     1.0  0.04324  0.82730  0.28362  1.0000
  C   C971      1.0  0.06438  0.86310  0.30590  1.0000
  C   C972      1.0  0.07187  0.77321  0.22364  1.0000
  C   C973      1.0  0.03015  0.80211  0.08544  1.0000
  H   H1707     1.0  0.07410  0.81823  0.03644  1.0000
  H   H1708     1.0  0.15814  0.78118  0.03486  1.0000
  H   H1709     1.0  0.11239  0.76952  0.07023  1.0000
  C   C974      1.0  0.08061  0.78024  0.24660  1.0000
  C   C975      1.0  0.14471  0.98279  0.19412  1.0000
  H   H1710     1.0  0.13276  0.90908  0.06230  1.0000
  C   C976      1.0  0.09745  0.77122  0.24148  1.0000
  H   H1711     1.0  0.15116  0.76013  0.28912  1.0000
  H   H1712     1.0  0.12643  0.76136  0.10528  1.0000
  H   H1713     1.0  0.18117  0.79323  0.03677  1.0000
  H   H1714     1.0  0.13511  0.93746  0.13724  1.0000
  C   C977      1.0  0.01827  0.79374  0.10129  1.0000
  C   C978      1.0  0.16574  0.78668  0.06315  1.0000
  H   H1715     1.0  0.09536  0.91283  0.09974  1.0000
  H   H1716     1.0  0.03781  0.77667  0.06446  1.0000
  C   C979      1.0  0.07257  0.82401  0.04768  1.0000
  H   H1717     1.0  0.08256  0.79562  0.07940  1.0000
  H   H1718     1.0  0.07025  0.79014  0.04264  1.0000
  H   H1719     1.0  0.13533  0.89698  0.08344  1.0000
  H   H1720     1.0  0.08041  0.94167  0.09629  1.0000
  H   H1721     1.0  0.13235  0.78813  0.12498  1.0000
  C   C980      1.0  0.05936  0.81659  0.06335  1.0000
  H   H1722     1.0  0.08898  0.79308  0.05786  1.0000
  C   C981      1.0  0.05137  0.77469  0.05720  1.0000
  H   H1723     1.0  0.17746  0.74651  0.05291  1.0000
  H   H1724     1.0  0.09179  0.75763  0.20797  1.0000
  C   C982      1.0  0.10595  0.80840  0.26780  1.0000
  H   H1725     1.0  0.13240  0.75346  0.30388  1.0000
  N   N55       1.0  0.07924  0.83328  0.27221  1.0000
  S   S223      1.0  0.10039  0.77222  0.01215  1.0000
  H   H1726     1.0  0.25486  0.74410  0.26334  1.0000
  H   H1727     1.0  0.05587  0.84968  0.28357  1.0000
  C   C983      1.0  0.09528  0.82232  0.27826  1.0000
  H   H1728     1.0  0.10055  0.96858  0.09626  1.0000
  H   H1729     1.0  0.08349  0.94681  0.19317  1.0000
  C   C984      1.0  0.09621  0.96098  0.08942  1.0000
  H   H1730     1.0  0.12182  0.94452  0.10237  1.0000
  C   C985      1.0  0.05824  0.79155  0.05284  1.0000
  H   H1731     1.0  0.13208  0.76206  0.28131  1.0000
  H   H1732     1.0  0.04936  0.77854  0.08800  1.0000
  H   H1733     1.0  0.04871  0.80164  0.04634  1.0000
  H   H1734     1.0  0.15098  0.77561  0.09861  1.0000
  S   S224      1.0  0.18508  0.75831  0.20616  1.0000
  H   H1735     1.0  0.08663  0.93406  0.13751  1.0000
  H   H1736     1.0  0.11370  0.90578  0.10892  1.0000
  C   C986      1.0  0.14068  0.77482  0.14857  1.0000
  S   S225      1.0  0.15199  0.75614  0.17750  1.0000
  H   H1737     1.0  0.12390  0.91386  0.13292  1.0000
  H   H1738     1.0  0.15305  0.79076  0.05935  1.0000
  H   H1739     1.0  0.01679  0.77037  0.99782  1.0000
  H   H1740     1.0  0.08849  0.81449  0.22473  1.0000
  Fe  Fe111     1.0  0.99555  0.81019  0.21972  1.0000
  C   C987      1.0  0.06837  0.84211  0.28661  1.0000
  H   H1741     1.0  0.07193  0.90227  0.15463  1.0000
  H   H1742     1.0  0.04820  0.81720  0.24888  1.0000
  H   H1743     1.0  0.10413  0.83056  0.27824  1.0000
  H   H1744     1.0  0.10301  0.82908  0.21378  1.0000
  C   C988      1.0  0.12096  0.87479  0.99602  1.0000
  H   H1745     1.0  0.13113  0.81236  0.26826  1.0000
  H   H1746     1.0  0.08369  0.95686  0.21957  1.0000
  H   H1747     1.0  0.11126  0.80737  0.22404  1.0000
  H   H1748     1.0  0.05172  0.90918  0.14775  1.0000
  C   C989      1.0  0.12922  0.92289  0.12152  1.0000
  H   H1749     1.0  0.11444  0.75640  0.22327  1.0000
  H   H1750     1.0  0.07542  0.76451  0.08656  1.0000
  C   C990      1.0  0.08989  0.92455  0.12904  1.0000
  C   C991      1.0  0.17494  0.76082  0.05001  1.0000
  H   H1751     1.0  0.18582  0.76856  0.08447  1.0000
  H   H1752     1.0  0.24193  0.74591  0.28982  1.0000
  C   C992      1.0  0.11742  0.92170  0.08319  1.0000
  C   C993      1.0  0.07279  0.91951  0.12933  1.0000
  H   H1753     1.0  0.09766  0.91289  0.13573  1.0000
  C   C994      1.0  0.17831  0.79699  0.04940  1.0000
  H   H1754     1.0  0.10990  0.94657  0.12328  1.0000
  Fe  Fe112     1.0  0.09541  0.77808  0.98525  1.0000
  H   H1755     1.0  0.07879  0.96651  0.07181  1.0000
  C   C995      1.0  0.08477  0.97859  0.19752  1.0000
  H   H1756     1.0  0.19826  0.76733  0.06357  1.0000
  H   H1757     1.0  0.07523  0.90890  0.12245  1.0000
  C   C996      1.0  0.12585  0.90551  0.07585  1.0000
  C   C997      1.0  0.10224  0.76450  0.08076  1.0000
  C   C998      1.0  0.06352  0.91336  0.14781  1.0000
  Fe  Fe113     1.0  0.17561  0.74201  0.23185  1.0000
  H   H1758     1.0  0.06526  0.76587  0.03348  1.0000
  H   H1759     1.0  0.18552  0.73798  0.26750  1.0000
  H   H1760     1.0  0.13671  0.91534  0.11156  1.0000
  H   H1761     1.0  0.10909  0.93030  0.07443  1.0000
  H   H1762     1.0  0.05967  0.92391  0.15505  1.0000
  H   H1763     1.0  0.07845  0.95326  0.11243  1.0000
  H   H1764     1.0  0.02228  0.79360  0.11325  1.0000
  H   H1765     1.0  0.19059  0.79503  0.05356  1.0000
  H   H1766     1.0  0.01856  0.78034  0.10061  1.0000
  C   C999      1.0  0.16036  0.76705  0.03967  1.0000
  H   H1767     1.0  0.14811  0.76365  0.04774  1.0000
  C   C1000     1.0  0.16489  0.75880  0.02397  1.0000
  H   H1768     1.0  0.08857  0.84749  0.29648  1.0000
  C   C1001     1.0  0.23286  0.75692  0.24195  1.0000
  H   H1769     1.0  0.04408  0.77915  0.03243  1.0000
  H   H1770     1.0  0.07071  0.87180  0.30931  1.0000
  H   H1771     1.0  0.15423  0.76358  0.01684  1.0000
  C   C1002     1.0  0.05178  0.76893  0.04080  1.0000
  C   C1003     1.0  0.07535  0.96487  0.21052  1.0000
  H   H1772     1.0  0.15833  0.81914  0.04215  1.0000
  C   C1004     1.0  0.14016  0.75399  0.29053  1.0000
  C   C1005     1.0  0.13858  0.75417  0.10943  1.0000
  H   H1773     1.0  0.04631  0.75717  0.04422  1.0000
  H   H1774     1.0  0.09817  0.97177  0.19286  1.0000
  H   H1775     1.0  0.14255  0.97816  0.17021  1.0000
  H   H1776     1.0  0.99480  0.82626  0.15101  1.0000
  H   H1777     1.0  0.01741  0.80113  0.98876  1.0000
  C   C1006     1.0  0.19444  0.74272  0.07885  1.0000
  C   C1007     1.0  0.20950  0.73925  0.08778  1.0000
  H   H1778     1.0  0.24230  0.75490  0.22983  1.0000
  H   H1779     1.0  0.11605  0.88731  0.00016  1.0000
  S   S226      1.0  0.15093  0.74182  0.22507  1.0000
  C   C1008     1.0  0.14247  0.97700  0.21196  1.0000
  H   H1780     1.0  0.22351  0.74291  0.26705  1.0000
  H   H1781     1.0  0.21977  0.76140  0.23901  1.0000
  H   H1782     1.0  0.00352  0.79534  0.14982  1.0000
  H   H1783     1.0  0.10413  0.97706  0.21852  1.0000
  H   H1784     1.0  0.07895  0.98271  0.18601  1.0000
  H   H1785     1.0  0.37728  0.73955  0.29985  1.0000
  C   C1009     1.0  0.23347  0.74017  0.25548  1.0000
  H   H1786     1.0  0.14054  0.74040  0.10901  1.0000
  H   H1787     1.0  0.17686  0.76220  0.01513  1.0000
  H   H1788     1.0  0.12023  0.84834  0.98380  1.0000
  H   H1789     1.0  0.16664  0.74458  0.02799  1.0000
  H   H1790     1.0  0.21468  0.73952  0.30987  1.0000
  H   H1791     1.0  0.20525  0.74444  0.09977  1.0000
  H   H1792     1.0  0.15522  0.73705  0.27373  1.0000
  C   C1010     1.0  0.02404  0.77518  0.98473  1.0000
  H   H1793     1.0  0.03784  0.77277  0.98515  1.0000
  H   H1794     1.0  0.38076  0.74548  0.31811  1.0000
  H   H1795     1.0  0.22821  0.74583  0.32023  1.0000
  H   H1796     1.0  0.06083  0.85329  0.31761  1.0000
  C   C1011     1.0  0.07797  0.77938  0.88594  1.0000
  S   S227      1.0  0.08817  0.78739  0.93805  1.0000
  C   C1012     1.0  0.04520  0.95713  0.83230  1.0000
  H   H1797     1.0  0.11014  0.96012  0.81205  1.0000
  H   H1798     1.0  0.05273  0.80418  0.93313  1.0000
  Fe  Fe114     1.0  0.07934  0.80437  0.95745  1.0000
  S   S228      1.0  0.06384  0.83097  0.95148  1.0000
  H   H1799     1.0  0.13748  0.85713  0.96992  1.0000
  Fe  Fe115     1.0  0.10108  0.89142  0.87385  1.0000
  S   S229      1.0  0.07565  0.91016  0.87382  1.0000
  S   S230      1.0  0.11272  0.87451  0.89563  1.0000
  Fe  Fe116     1.0  0.11262  0.89775  0.83557  1.0000
  S   S231      1.0  0.08880  0.91735  0.83158  1.0000
  S   S232      1.0  0.13374  0.89182  0.81307  1.0000
  Fe  Fe117     1.0  0.09155  0.92717  0.85346  1.0000
  S   S233      1.0  0.08620  0.95595  0.84968  1.0000
  Fe  Fe118     1.0  0.07471  0.89897  0.85192  1.0000
  S   S234      1.0  0.05147  0.89560  0.84462  1.0000
  S   S235      1.0  0.11699  0.90946  0.85535  1.0000
  S   S236      1.0  0.09841  0.87843  0.85414  1.0000
  C   C1013     1.0  0.17371  0.81648  0.90446  1.0000
  S   S237      1.0  0.13332  0.82513  0.78871  1.0000
  H   H1800     1.0  0.12220  0.82087  0.88965  1.0000
  S   S238      1.0  0.18449  0.75300  0.77961  1.0000
  C   C1014     1.0  0.06577  0.82786  0.84324  1.0000
  Fe  Fe119     1.0  0.00665  0.78595  0.89309  1.0000
  H   H1801     1.0  0.05844  0.85591  0.83920  1.0000
  Fe  Fe120     1.0  0.01700  0.80461  0.85637  1.0000
  C   C1015     1.0  0.14709  0.81324  0.94902  1.0000
  S   S239      1.0  0.03451  0.80427  0.83034  1.0000
  S   S240      1.0  0.06426  0.74817  0.96100  1.0000
  C   C1016     1.0  0.11828  0.94255  0.79487  1.0000
  S   S241      1.0  0.02617  0.80242  0.88041  1.0000
  C   C1017     1.0  0.03160  0.93736  0.85752  1.0000
  H   H1802     1.0  0.06791  0.80256  0.80802  1.0000
  H   H1803     1.0  0.03672  0.80247  0.92259  1.0000
  H   H1804     1.0  0.17058  0.80956  0.85531  1.0000
  H   H1805     1.0  0.16810  0.88446  0.85637  1.0000
  H   H1806     1.0  0.02285  0.77070  0.81184  1.0000
  N   N56       1.0  0.15211  0.83092  0.86428  1.0000
  H   H1807     1.0  0.04416  0.77464  0.85646  1.0000
  C   C1018     1.0  0.03951  0.88130  0.85953  1.0000
  C   C1019     1.0  0.02592  0.87745  0.85493  1.0000
  C   C1020     1.0  0.01631  0.86579  0.86636  1.0000
  C   C1021     1.0  0.01968  0.85864  0.88281  1.0000
  C   C1022     1.0  0.03288  0.86299  0.88770  1.0000
  C   C1023     1.0  0.04312  0.87396  0.87589  1.0000
  H   H1808     1.0  0.02278  0.88353  0.84250  1.0000
  C   C1024     1.0  0.18445  0.97661  0.79125  1.0000
  C   C1025     1.0  0.01164  0.76697  0.82179  1.0000
  H   H1809     1.0  0.05355  0.87698  0.87955  1.0000
  C   C1026     1.0  0.13404  0.87278  0.80690  1.0000
  C   C1027     1.0  0.14030  0.87158  0.78963  1.0000
  C   C1028     1.0  0.14018  0.85679  0.78424  1.0000
  C   C1029     1.0  0.13444  0.84284  0.79619  1.0000
  C   C1030     1.0  0.12848  0.84382  0.81357  1.0000
  C   C1031     1.0  0.12804  0.85890  0.81886  1.0000
  H   H1810     1.0  0.14492  0.88224  0.78031  1.0000
  H   H1811     1.0  0.14465  0.85612  0.77076  1.0000
  H   H1812     1.0  0.12376  0.83315  0.82277  1.0000
  H   H1813     1.0  0.12318  0.85973  0.83216  1.0000
  C   C1032     1.0  0.02505  0.74594  0.94118  1.0000
  H   H1814     1.0  0.11939  0.93835  0.82132  1.0000
  H   H1815     1.0  0.16780  0.75285  0.73564  1.0000
  C   C1033     1.0  0.09523  0.96501  0.86150  1.0000
  C   C1034     1.0  0.10401  0.95481  0.87428  1.0000
  C   C1035     1.0  0.11213  0.96244  0.88258  1.0000
  H   H1816     1.0  0.15187  0.74901  0.76516  1.0000
  C   C1036     1.0  0.06839  0.85877  0.97787  1.0000
  H   H1817     1.0  0.10465  0.94108  0.87765  1.0000
  H   H1818     1.0  0.11911  0.95455  0.89233  1.0000
  C   C1037     1.0  0.07653  0.84256  0.93417  1.0000
  C   C1038     1.0  0.09366  0.83500  0.92819  1.0000
  C   C1039     1.0  0.10466  0.84484  0.91608  1.0000
  C   C1040     1.0  0.09837  0.86208  0.90939  1.0000
  C   C1041     1.0  0.08095  0.86944  0.91449  1.0000
  C   C1042     1.0  0.07004  0.85970  0.92709  1.0000
  H   H1819     1.0  0.09867  0.82170  0.93328  1.0000
  H   H1820     1.0  0.11810  0.83913  0.91209  1.0000
  H   H1821     1.0  0.07607  0.88279  0.90928  1.0000
  H   H1822     1.0  0.05673  0.86552  0.93159  1.0000
  H   H1823     1.0  0.06363  0.86060  0.96592  1.0000
  C   C1043     1.0  0.02743  0.80202  0.96111  1.0000
  C   C1044     1.0  0.06891  0.79229  0.81918  1.0000
  H   H1824     1.0  0.08687  0.89450  0.78521  1.0000
  H   H1825     1.0  0.02217  0.83347  0.92511  1.0000
  C   C1045     1.0  0.05857  0.94832  0.80343  1.0000
  C   C1046     1.0  0.17686  0.74048  0.73915  1.0000
  H   H1826     1.0  0.03889  0.77871  0.91036  1.0000
  H   H1827     1.0  0.04477  0.93011  0.85909  1.0000
  H   H1828     1.0  0.19302  0.82737  0.82099  1.0000
  H   H1829     1.0  0.18064  0.82430  0.80726  1.0000
  H   H1830     1.0  0.99509  0.82283  0.81531  1.0000
  H   H1831     1.0  0.01166  0.96271  0.82247  1.0000
  C   C1047     1.0  0.04244  0.98149  0.85405  1.0000
  C   C1048     1.0  0.07124  0.76499  0.84751  1.0000
  H   H1832     1.0  0.02022  0.80806  0.76124  1.0000
  C   C1049     1.0  0.08928  0.76199  0.88332  1.0000
  H   H1833     1.0  0.05322  0.93092  0.82755  1.0000
  S   S242      1.0  0.99656  0.82825  0.85988  1.0000
  H   H1834     1.0  0.18626  0.80714  0.82482  1.0000
  H   H1835     1.0  0.15821  0.98154  0.78878  1.0000
  H   H1836     1.0  0.09914  0.82702  0.76490  1.0000
  C   C1050     1.0  0.07067  0.86806  0.80653  1.0000
  C   C1051     1.0  0.15484  0.82359  0.88250  1.0000
  Fe  Fe121     1.0  0.07962  0.76728  0.96083  1.0000
  H   H1837     1.0  0.15432  0.88262  0.84337  1.0000
  H   H1838     1.0  0.09913  0.84782  0.78090  1.0000
  H   H1839     1.0  0.05938  0.82963  0.90980  1.0000
  H   H1840     1.0  0.13671  0.85519  0.87003  1.0000
  C   C1052     1.0  0.09415  0.98281  0.85743  1.0000
  H   H1841     1.0  0.12865  0.94445  0.84122  1.0000
  C   C1053     1.0  0.00150  0.86273  0.96528  1.0000
  H   H1842     1.0  0.09388  0.82398  0.88358  1.0000
  H   H1843     1.0  0.16732  0.82832  0.90958  1.0000
  C   C1054     1.0  0.05274  0.84703  0.81059  1.0000
  H   H1844     1.0  0.17383  0.77253  0.91294  1.0000
  C   C1055     1.0  0.08837  0.84079  0.78585  1.0000
  H   H1845     1.0  0.11690  0.97281  0.82913  1.0000
  H   H1846     1.0  0.05266  0.83312  0.81280  1.0000
  C   C1056     1.0  0.00983  0.78792  0.78131  1.0000
  C   C1057     1.0  0.13669  0.82520  0.86252  1.0000
  H   H1847     1.0  0.10004  0.89460  0.79956  1.0000
  H   H1848     1.0  0.03743  0.83331  0.93646  1.0000
  H   H1849     1.0  0.02314  0.93850  0.88512  1.0000
  H   H1850     1.0  0.11239  0.76437  0.88924  1.0000
  H   H1851     1.0  0.18722  0.81271  0.90624  1.0000
  C   C1058     1.0  0.01918  0.93411  0.87534  1.0000
  H   H1852     1.0  0.03228  0.79179  0.95348  1.0000
  H   H1853     1.0  0.13294  0.83196  0.85007  1.0000
  C   C1059     1.0  0.01336  0.83173  0.96206  1.0000
  S   S243      1.0  0.14022  0.77865  0.93257  1.0000
  H   H1854     1.0  0.11921  0.95265  0.78290  1.0000
  H   H1855     1.0  0.18911  0.98110  0.77721  1.0000
  H   H1856     1.0  0.03238  0.90773  0.88346  1.0000
  C   C1060     1.0  0.03678  0.74305  0.95179  1.0000
  H   H1857     1.0  0.06010  0.87683  0.81359  1.0000
  Fe  Fe122     1.0  0.16368  0.76394  0.80051  1.0000
  H   H1858     1.0  0.07118  0.77870  0.89957  1.0000
  H   H1859     1.0  0.09443  0.86059  0.94772  1.0000
  C   C1061     1.0  0.05545  0.77649  0.84642  1.0000
  H   H1860     1.0  0.14638  0.83211  0.89129  1.0000
  C   C1062     1.0  0.12568  0.86813  0.94084  1.0000
  H   H1861     1.0  0.02836  0.74593  0.83545  1.0000
  C   C1063     1.0  0.04317  0.81144  0.92515  1.0000
  H   H1862     1.0  0.08090  0.75257  0.88598  1.0000
  H   H1863     1.0  0.01551  0.73802  0.94450  1.0000
  H   H1864     1.0  0.15083  0.81096  0.88750  1.0000
  H   H1865     1.0  0.14856  0.94237  0.80249  1.0000
  C   C1064     1.0  0.10555  0.82189  0.87322  1.0000
  H   H1866     1.0  0.03539  0.85765  0.90050  1.0000
  C   C1065     1.0  0.18249  0.82134  0.82072  1.0000
  C   C1066     1.0  0.17356  0.81966  0.88533  1.0000
  S   S244      1.0  0.15491  0.75168  0.82819  1.0000
  C   C1067     1.0  0.12006  0.82809  0.87671  1.0000
  H   H1867     1.0  0.10235  0.82916  0.86065  1.0000
  H   H1868     1.0  0.13899  0.86846  0.94138  1.0000
  H   H1869     1.0  0.14930  0.93333  0.83192  1.0000
  C   C1068     1.0  0.14310  0.77858  0.88221  1.0000
  Fe  Fe123     1.0  0.12838  0.76606  0.82462  1.0000
  H   H1870     1.0  0.16472  0.85592  0.87466  1.0000
  S   S245      1.0  0.16754  0.78742  0.80690  1.0000
  C   C1069     1.0  0.08604  0.76753  0.83480  1.0000
  H   H1871     1.0  0.15569  0.82228  0.83091  1.0000
  C   C1070     1.0  0.06847  0.84603  0.83308  1.0000
  H   H1872     1.0  0.10938  0.80795  0.87304  1.0000
  C   C1071     1.0  0.13623  0.77948  0.89971  1.0000
  C   C1072     1.0  0.06088  0.82732  0.86258  1.0000
  H   H1873     1.0  0.08076  0.84728  0.83545  1.0000
  H   H1874     1.0  0.08936  0.87050  0.82037  1.0000
  H   H1875     1.0  0.08587  0.78939  0.88210  1.0000
  H   H1876     1.0  0.06063  0.81392  0.86965  1.0000
  H   H1877     1.0  0.07022  0.83215  0.86673  1.0000
  H   H1878     1.0  0.04783  0.83531  0.86595  1.0000
  H   H1879     1.0  0.10460  0.88693  0.93056  1.0000
  S   S246      1.0  0.12926  0.78974  0.83295  1.0000
  H   H1880     1.0  0.04442  0.82609  0.89892  1.0000
  H   H1881     1.0  0.07692  0.89999  0.80611  1.0000
  S   S247      1.0  0.10482  0.79931  0.96472  1.0000
  H   H1882     1.0  0.10384  0.81481  0.78533  1.0000
  C   C1073     1.0  0.11169  0.98019  0.87791  1.0000
  H   H1883     1.0  0.12629  0.74448  0.86949  1.0000
  H   H1884     1.0  0.11137  0.89376  0.94627  1.0000
  H   H1885     1.0  0.16693  0.80593  0.91192  1.0000
  C   C1074     1.0  0.00525  0.96025  0.83629  1.0000
  C   C1075     1.0  0.17193  0.77360  0.88714  1.0000
  N   N57       1.0  0.01809  0.81830  0.95115  1.0000
  H   H1886     1.0  0.11770  0.83642  0.94563  1.0000
  C   C1076     1.0  0.14824  0.85032  0.86063  1.0000
  N   N58       1.0  0.11736  0.85728  0.95731  1.0000
  H   H1887     1.0  0.09600  0.83683  0.81018  1.0000
  H   H1888     1.0  0.09899  0.86496  0.79964  1.0000
  H   H1889     1.0  0.00487  0.94642  0.84086  1.0000
  C   C1077     1.0  0.16755  0.97062  0.79436  1.0000
  S   S248      1.0  0.10578  0.75328  0.83666  1.0000
  Fe  Fe124     1.0  0.00396  0.82437  0.88516  1.0000
  H   H1890     1.0  0.12718  0.86220  0.92961  1.0000
  C   C1078     1.0  0.12751  0.89738  0.92102  1.0000
  H   H1891     1.0  0.13467  0.78042  0.87348  1.0000
  H   H1892     1.0  0.06343  0.80999  0.90224  1.0000
  N   N59       1.0  0.03216  0.95595  0.84923  1.0000
  H   H1893     1.0  0.07785  0.81817  0.84053  1.0000
  S   S249      1.0  0.17068  0.77595  0.85419  1.0000
  H   H1894     1.0  0.05839  0.95522  0.83465  1.0000
  H   H1895     1.0  0.14010  0.81126  0.86214  1.0000
  S   S250      1.0  0.10534  0.75848  0.96849  1.0000
  Fe  Fe125     1.0  0.14017  0.79878  0.80491  1.0000
  H   H1896     1.0  0.14470  0.85564  0.84787  1.0000
  C   C1079     1.0  0.05425  0.79003  0.83214  1.0000
  H   H1897     1.0  0.05539  0.82390  0.83990  1.0000
  C   C1080     1.0  0.16258  0.85898  0.86134  1.0000
  C   C1081     1.0  0.05319  0.81989  0.90797  1.0000
  H   H1898     1.0  0.08190  0.82390  0.81085  1.0000
  H   H1899     1.0  0.13848  0.89885  0.92566  1.0000
  H   H1900     1.0  0.00795  0.85975  0.82347  1.0000
  H   H1901     1.0  0.13258  0.89102  0.90979  1.0000
  H   H1902     1.0  0.11541  0.84190  0.87720  1.0000
  H   H1903     1.0  0.05968  0.77370  0.92950  1.0000
  C   C1082     1.0  0.01923  0.91495  0.88199  1.0000
  H   H1904     1.0  0.11991  0.91038  0.91668  1.0000
  H   H1905     1.0  0.18054  0.83012  0.87845  1.0000
  C   C1083     1.0  0.08769  0.87267  0.80696  1.0000
  H   H1906     1.0  0.09283  0.87548  0.96030  1.0000
  C   C1084     1.0  0.09800  0.86181  0.95945  1.0000
  C   C1085     1.0  0.11600  0.88694  0.93545  1.0000
  H   H1907     1.0  0.18575  0.77142  0.88237  1.0000
  H   H1908     1.0  0.00593  0.96774  0.85953  1.0000
  C   C1086     1.0  0.08408  0.83726  0.80592  1.0000
  H   H1909     1.0  0.13609  0.92965  0.86997  1.0000
  C   C1087     1.0  0.08780  0.89162  0.79894  1.0000
  S   S251      1.0  0.13687  0.77623  0.79636  1.0000
  C   C1088     1.0  0.16517  0.77429  0.90443  1.0000
  H   H1910     1.0  0.18101  0.80786  0.88053  1.0000
  H   H1911     1.0  0.16850  0.74270  0.70628  1.0000
  H   H1912     1.0  0.03932  0.80438  0.96340  1.0000
  N   N60       1.0  0.11219  0.73725  0.89577  1.0000
  N   N61       1.0  0.06902  0.84960  0.81402  1.0000
  C   C1089     1.0  0.14939  0.94812  0.85026  1.0000
  Fe  Fe126     1.0  0.11290  0.78036  0.94736  1.0000
  H   H1913     1.0  0.00893  0.80217  0.92659  1.0000
  C   C1090     1.0  0.09380  0.82415  0.77898  1.0000
  H   H1914     1.0  0.06904  0.87190  0.79296  1.0000
  H   H1915     1.0  0.08252  0.81816  0.78131  1.0000
  C   C1091     1.0  0.19992  0.75761  0.72259  1.0000
  C   C1092     1.0  0.03556  0.85570  0.82109  1.0000
  H   H1916     1.0  0.12244  0.78200  0.90459  1.0000
  H   H1917     1.0  0.05218  0.85199  0.79678  1.0000
  H   H1918     1.0  0.07750  0.84887  0.78003  1.0000
  H   H1919     1.0  0.03416  0.84979  0.83502  1.0000
  H   H1920     1.0  0.03495  0.86963  0.81930  1.0000
  H   H1921     1.0  0.99648  0.82733  0.93832  1.0000
  H   H1922     1.0  0.02811  0.96427  0.87328  1.0000
  C   C1093     1.0  0.02000  0.85374  0.81541  1.0000
  C   C1094     1.0  0.03814  0.76896  0.92205  1.0000
  C   C1095     1.0  0.04989  0.76613  0.93282  1.0000
  C   C1096     1.0  0.14738  0.77736  0.91078  1.0000
  H   H1923     1.0  0.12770  0.74452  0.79015  1.0000
  H   H1924     1.0  0.09627  0.78326  0.81080  1.0000
  C   C1097     1.0  0.16752  0.82383  0.85150  1.0000
  H   H1925     1.0  0.03460  0.94270  0.81935  1.0000
  H   H1926     1.0  0.01985  0.83995  0.81706  1.0000
  C   C1098     1.0  0.15736  0.87855  0.85642  1.0000
  H   H1927     1.0  0.02449  0.76595  0.84220  1.0000
  C   C1099     1.0  0.04924  0.75310  0.94768  1.0000
  S   S252      1.0  0.01057  0.76182  0.91341  1.0000
  H   H1928     1.0  0.17927  0.82792  0.85171  1.0000
  Fe  Fe127     1.0  0.15645  0.77620  0.83427  1.0000
  H   H1929     1.0  0.14595  0.88330  0.86600  1.0000
  C   C1100     1.0  0.16570  0.82829  0.83243  1.0000
  C   C1101     1.0  0.02562  0.75890  0.92630  1.0000
  C   C1102     1.0  0.00440  0.84993  0.95372  1.0000
  H   H1930     1.0  0.17477  0.85497  0.85232  1.0000
  C   C1103     1.0  0.10295  0.75580  0.89469  1.0000
  C   C1104     1.0  0.02982  0.82491  0.93445  1.0000
  H   H1931     1.0  0.12168  0.88652  0.96947  1.0000
  H   H1932     1.0  0.16236  0.84239  0.82769  1.0000
  H   H1933     1.0  0.06816  0.78307  0.87785  1.0000
  C   C1105     1.0  0.08491  0.78133  0.82072  1.0000
  C   C1106     1.0  0.16101  0.77579  0.87595  1.0000
  C   C1107     1.0  0.00148  0.79962  0.79469  1.0000
  H   H1934     1.0  0.10537  0.93928  0.79802  1.0000
  H   H1935     1.0  0.09669  0.75859  0.90766  1.0000
  H   H1936     1.0  0.14156  0.81239  0.93837  1.0000
  C   C1108     1.0  0.12320  0.85893  0.97266  1.0000
  H   H1937     1.0  0.07201  0.75422  0.85831  1.0000
  H   H1938     1.0  0.09582  0.76369  0.86953  1.0000
  H   H1939     1.0  0.00784  0.75339  0.84871  1.0000
  C   C1109     1.0  0.04707  0.94382  0.82119  1.0000
  H   H1940     1.0  0.02264  0.76778  0.97580  1.0000
  H   H1941     1.0  0.04979  0.95450  0.86534  1.0000
  C   C1110     1.0  0.14296  0.83179  0.95139  1.0000
  H   H1942     1.0  0.99495  0.87558  0.95912  1.0000
  H   H1943     1.0  0.14891  0.83196  0.96199  1.0000
  H   H1944     1.0  0.07512  0.74013  0.91449  1.0000
  H   H1945     1.0  0.07143  0.94922  0.80470  1.0000
  H   H1946     1.0  0.01226  0.85499  0.94108  1.0000
  H   H1947     1.0  0.14932  0.74192  0.91989  1.0000
  H   H1948     1.0  0.13724  0.73763  0.94169  1.0000
  H   H1949     1.0  0.13280  0.97968  0.83488  1.0000
  C   C1111     1.0  0.01692  0.79434  0.97888  1.0000
  S   S253      1.0  0.99936  0.78603  0.86852  1.0000
  H   H1950     1.0  0.05794  0.97848  0.87294  1.0000
  C   C1112     1.0  0.12357  0.73743  0.92245  1.0000
  H   H1951     1.0  0.04266  0.97027  0.82417  1.0000
  H   H1952     1.0  0.13673  0.74241  0.89565  1.0000
  H   H1953     1.0  0.14921  0.83952  0.93928  1.0000
  H   H1954     1.0  0.15386  0.93439  0.87558  1.0000
  C   C1113     1.0  0.03808  0.96330  0.86125  1.0000
  H   H1955     1.0  0.02803  0.93084  0.84913  1.0000
  H   H1956     1.0  0.11682  0.75087  0.92309  1.0000
  C   C1114     1.0  0.02474  0.79473  0.76807  1.0000
  H   H1957     1.0  0.16241  0.97255  0.82128  1.0000
  C   C1115     1.0  0.08767  0.85091  0.97513  1.0000
  C   C1116     1.0  0.12317  0.83865  0.95569  1.0000
  C   C1117     1.0  0.01464  0.96650  0.84682  1.0000
  C   C1118     1.0  0.14219  0.94591  0.83540  1.0000
  H   H1958     1.0  0.02025  0.86017  0.80171  1.0000
  H   H1959     1.0  0.01018  0.78805  0.94724  1.0000
  H   H1960     1.0  0.11816  0.83003  0.96786  1.0000
  C   C1119     1.0  0.00170  0.81603  0.94773  1.0000
  H   H1961     1.0  0.05255  0.96075  0.79603  1.0000
  H   H1962     1.0  0.08940  0.83770  0.97303  1.0000
  S   S254      1.0  0.06896  0.78490  0.97961  1.0000
  C   C1120     1.0  0.16097  0.96360  0.81385  1.0000
  H   H1963     1.0  0.13912  0.96360  0.79343  1.0000
  C   C1121     1.0  0.12073  0.94890  0.80982  1.0000
  H   H1964     1.0  0.16126  0.80858  0.94576  1.0000
  H   H1965     1.0  0.00323  0.79565  0.97866  1.0000
  H   H1966     1.0  0.19047  0.76843  0.71687  1.0000
  H   H1967     1.0  0.05359  0.98135  0.84295  1.0000
  C   C1122     1.0  0.01843  0.75752  0.83808  1.0000
  H   H1968     1.0  0.00596  0.86269  0.86265  1.0000
  H   H1969     1.0  0.03019  0.78642  0.75841  1.0000
  H   H1970     1.0  0.00451  0.82773  0.97447  1.0000
  H   H1971     1.0  0.16288  0.94995  0.84592  1.0000
  H   H1972     1.0  0.06041  0.93811  0.79614  1.0000
  H   H1973     1.0  0.06573  0.87138  0.98164  1.0000
  H   H1974     1.0  0.10179  0.87964  0.98122  1.0000
  H   H1975     1.0  0.14149  0.95936  0.85569  1.0000
  H   H1976     1.0  0.15796  0.92075  0.86031  1.0000
  H   H1977     1.0  0.02514  0.83305  0.96557  1.0000
  H   H1978     1.0  0.12814  0.93078  0.79260  1.0000
  H   H1979     1.0  0.00456  0.79156  0.82831  1.0000
  S   S255      1.0  0.00730  0.84447  0.89735  1.0000
  C   C1123     1.0  0.00285  0.80001  0.94053  1.0000
  C   C1124     1.0  0.13860  0.95386  0.80563  1.0000
  H   H1980     1.0  0.21265  0.75710  0.71353  1.0000
  H   H1981     1.0  0.17005  0.96026  0.78706  1.0000
  C   C1125     1.0  0.14930  0.93222  0.86488  1.0000
  H   H1982     1.0  0.19449  0.96590  0.79616  1.0000
  N   N62       1.0  0.14287  0.96013  0.81945  1.0000
  H   H1983     1.0  0.01403  0.86391  0.96714  1.0000
  H   H1984     1.0  0.17054  0.95148  0.81694  1.0000
  C   C1126     1.0  0.19419  0.74058  0.72578  1.0000
  H   H1985     1.0  0.20119  0.76002  0.73486  1.0000
  C   C1127     1.0  0.11604  0.87608  0.97896  1.0000
  H   H1986     1.0  0.03514  0.79460  0.77448  1.0000
  H   H1987     1.0  0.00575  0.94078  0.87451  1.0000
  C   C1128     1.0  0.12993  0.97583  0.82410  1.0000
  H   H1988     1.0  0.14180  0.80465  0.96104  1.0000
  H   H1989     1.0  0.13499  0.74231  0.75994  1.0000
  H   H1990     1.0  0.00021  0.78756  0.77420  1.0000
  H   H1991     1.0  0.99164  0.84962  0.95173  1.0000
  H   H1992     1.0  0.17997  0.74128  0.75124  1.0000
  H   H1993     1.0  0.99326  0.85855  0.97802  1.0000
  H   H1994     1.0  0.13843  0.74488  0.70391  1.0000
  H   H1995     1.0  0.01487  0.90979  0.87300  1.0000
  H   H1996     1.0  0.01035  0.91289  0.89477  1.0000
  H   H1997     1.0  0.99534  0.81206  0.78729  1.0000
  H   H1998     1.0  0.19340  0.73853  0.71325  1.0000
  H   H1999     1.0  0.01559  0.97991  0.84007  1.0000
  H   H2000     1.0  0.14623  0.74172  0.73255  1.0000
  H   H2001     1.0  0.00656  0.75774  0.81776  1.0000
  H   H2002     1.0  0.01205  0.80279  0.79872  1.0000
  H   H2003     1.0  0.01488  0.77452  0.78735  1.0000
  C   C1129     1.0  0.14564  0.73800  0.76700  1.0000
  C   C1130     1.0  0.99773  0.78321  0.82500  1.0000
  Fe  Fe128     1.0  0.80163  0.13766  0.07288  1.0000
  S   S256      1.0  0.79701  0.11393  0.09274  1.0000
  S   S257      1.0  0.79226  0.14625  0.04780  1.0000
  Fe  Fe129     1.0  0.82451  0.14595  0.09251  1.0000
  S   S258      1.0  0.82200  0.12271  0.11366  1.0000
  S   S259      1.0  0.84069  0.16481  0.09111  1.0000
  Fe  Fe130     1.0  0.82514  0.10895  0.09241  1.0000
  S   S260      1.0  0.84252  0.08347  0.08930  1.0000
  Fe  Fe131     1.0  0.79416  0.13010  0.11194  1.0000
  C   C1131     1.0  0.69641  0.20381  0.26682  1.0000
  S   S261      1.0  0.83017  0.13158  0.07123  1.0000
  S   S262      1.0  0.79629  0.15444  0.09219  1.0000
  S   S263      1.0  0.75116  0.10093  0.02851  1.0000
  Fe  Fe132     1.0  0.79803  0.00821  0.20467  1.0000
  S   S264      1.0  0.79739  0.02361  0.17808  1.0000
  C   C1132     1.0  0.96204  0.19804  0.17839  1.0000
  Fe  Fe133     1.0  0.80780  0.03654  0.21540  1.0000
  S   S265      1.0  0.80825  0.05405  0.18944  1.0000
  S   S266      1.0  0.81389  0.04735  0.23503  1.0000
  Fe  Fe134     1.0  0.78394  0.04578  0.19089  1.0000
  S   S267      1.0  0.76135  0.06441  0.18180  1.0000
  Fe  Fe135     1.0  0.82167  0.03025  0.17924  1.0000
  S   S268      1.0  0.84477  0.02729  0.15768  1.0000
  S   S269      1.0  0.78228  0.02989  0.21771  1.0000
  S   S270      1.0  0.82345  0.01328  0.20510  1.0000
  S   S271      1.0  0.96625  0.16666  0.23013  1.0000
  Fe  Fe136     1.0  0.88783  0.13841  0.16714  1.0000
  S   S272      1.0  0.86255  0.13132  0.18090  1.0000
  S   S273      1.0  0.89519  0.14725  0.13845  1.0000
  Fe  Fe137     1.0  0.90229  0.12847  0.20030  1.0000
  S   S274      1.0  0.87770  0.12088  0.21671  1.0000
  S   S275      1.0  0.92709  0.11996  0.21019  1.0000
  Fe  Fe138     1.0  0.87809  0.10828  0.19539  1.0000
  S   S276      1.0  0.87847  0.08063  0.19647  1.0000
  Fe  Fe139     1.0  0.86465  0.14477  0.20060  1.0000
  S   S277      1.0  0.84253  0.16542  0.20928  1.0000
  S   S278      1.0  0.90330  0.11443  0.18001  1.0000
  S   S279      1.0  0.88925  0.15342  0.18580  1.0000
  Fe  Fe140     1.0  0.74363  0.17200  0.20767  1.0000
  S   S280      1.0  0.71648  0.16774  0.21643  1.0000
  H   H2004     1.0  0.90829  0.11228  0.27279  1.0000
  Fe  Fe141     1.0  0.75335  0.15300  0.24163  1.0000
  S   S281      1.0  0.72728  0.14687  0.25319  1.0000
  H   H2005     1.0  0.78766  0.09289  0.20330  1.0000
  Fe  Fe142     1.0  0.72870  0.14089  0.22773  1.0000
  S   S282      1.0  0.71866  0.11771  0.22825  1.0000
  Fe  Fe143     1.0  0.71736  0.17423  0.24109  1.0000
  H   H2006     1.0  0.71198  0.17786  0.98681  1.0000
  S   S283      1.0  0.75578  0.14464  0.21725  1.0000
  C   C1133     1.0  0.77741  0.10277  0.22711  1.0000
  C   C1134     1.0  0.67694  0.17122  0.99642  1.0000
  H   H2007     1.0  0.82103  0.11889  0.03141  1.0000
  H   H2008     1.0  0.98989  0.14731  0.15743  1.0000
  C   C1135     1.0  0.82407  0.15834  0.22242  1.0000
  C   C1136     1.0  0.80850  0.17032  0.22458  1.0000
  C   C1137     1.0  0.79329  0.16499  0.23414  1.0000
  C   C1138     1.0  0.79381  0.14782  0.24255  1.0000
  C   C1139     1.0  0.80947  0.13586  0.24083  1.0000
  C   C1140     1.0  0.82455  0.14105  0.23042  1.0000
  H   H2009     1.0  0.80819  0.18367  0.21851  1.0000
  H   H2010     1.0  0.79919  0.07529  0.26664  1.0000
  H   H2011     1.0  0.80992  0.12257  0.24727  1.0000
  H   H2012     1.0  0.83656  0.13174  0.22877  1.0000
  C   C1141     1.0  0.95431  0.15344  0.22633  1.0000
  C   C1142     1.0  0.96071  0.13577  0.22770  1.0000
  C   C1143     1.0  0.95176  0.12561  0.22340  1.0000
  C   C1144     1.0  0.93645  0.13305  0.21746  1.0000
  C   C1145     1.0  0.92958  0.15060  0.21675  1.0000
  C   C1146     1.0  0.93840  0.16071  0.22143  1.0000
  H   H2013     1.0  0.97249  0.12985  0.23224  1.0000
  H   H2014     1.0  0.95700  0.11200  0.22425  1.0000
  H   H2015     1.0  0.91766  0.15641  0.21237  1.0000
  H   H2016     1.0  0.93313  0.17429  0.22080  1.0000
  C   C1147     1.0  0.83163  0.05699  0.22443  1.0000
  C   C1148     1.0  0.83231  0.07305  0.22687  1.0000
  C   C1149     1.0  0.84638  0.08082  0.21789  1.0000
  C   C1150     1.0  0.86003  0.07218  0.20698  1.0000
  C   C1151     1.0  0.85945  0.05604  0.20481  1.0000
  C   C1152     1.0  0.84513  0.04864  0.21320  1.0000
  H   H2017     1.0  0.82191  0.07956  0.23548  1.0000
  H   H2018     1.0  0.84682  0.09327  0.21967  1.0000
  H   H2019     1.0  0.87011  0.04918  0.19664  1.0000
  H   H2020     1.0  0.84472  0.03625  0.21126  1.0000
  C   C1153     1.0  0.75097  0.07852  0.19586  1.0000
  C   C1154     1.0  0.73662  0.07477  0.20861  1.0000
  C   C1155     1.0  0.72691  0.08688  0.21855  1.0000
  C   C1156     1.0  0.73154  0.10274  0.21586  1.0000
  C   C1157     1.0  0.74599  0.10644  0.20322  1.0000
  C   C1158     1.0  0.75567  0.09436  0.19315  1.0000
  H   H2021     1.0  0.73279  0.06266  0.21054  1.0000
  H   H2022     1.0  0.71568  0.08400  0.22826  1.0000
  H   H2023     1.0  0.74948  0.11877  0.20090  1.0000
  H   H2024     1.0  0.76651  0.09747  0.18298  1.0000
  C   C1159     1.0  0.83314  0.09802  0.01729  1.0000
  C   C1160     1.0  0.76344  0.05184  0.25736  1.0000
  H   H2025     1.0  0.72190  0.12039  0.12027  1.0000
  C   C1161     1.0  0.74899  0.08957  0.25567  1.0000
  C   C1162     1.0  0.85541  0.15928  0.10478  1.0000
  C   C1163     1.0  0.85175  0.14992  0.12172  1.0000
  C   C1164     1.0  0.86381  0.14611  0.13231  1.0000
  C   C1165     1.0  0.87958  0.15149  0.12588  1.0000
  C   C1166     1.0  0.88313  0.16077  0.10896  1.0000
  C   C1167     1.0  0.87102  0.16485  0.09855  1.0000
  H   H2026     1.0  0.83957  0.14583  0.12668  1.0000
  H   H2027     1.0  0.86091  0.13900  0.14536  1.0000
  H   H2028     1.0  0.89522  0.16504  0.10391  1.0000
  H   H2029     1.0  0.87385  0.17218  0.08552  1.0000
  C   C1168     1.0  0.84277  0.06832  0.10861  1.0000
  C   C1169     1.0  0.85585  0.05356  0.10898  1.0000
  C   C1170     1.0  0.85631  0.04106  0.12416  1.0000
  C   C1171     1.0  0.84360  0.04320  0.13898  1.0000
  C   C1172     1.0  0.83039  0.05790  0.13864  1.0000
  C   C1173     1.0  0.83004  0.07057  0.12344  1.0000
  H   H2030     1.0  0.86567  0.05182  0.09751  1.0000
  H   H2031     1.0  0.86652  0.02971  0.12441  1.0000
  H   H2032     1.0  0.82051  0.05957  0.15008  1.0000
  H   H2033     1.0  0.81984  0.08195  0.12316  1.0000
  C   C1174     1.0  0.76875  0.14386  0.14779  1.0000
  C   C1175     1.0  0.77469  0.15926  0.14108  1.0000
  C   C1176     1.0  0.76992  0.17211  0.15089  1.0000
  H   H2034     1.0  0.86291  0.12700  0.09585  1.0000
  H   H2035     1.0  0.80272  0.16291  0.26593  1.0000
  C   C1177     1.0  0.93158  0.17453  0.15084  1.0000
  H   H2036     1.0  0.78274  0.16134  0.12831  1.0000
  H   H2037     1.0  0.77433  0.18407  0.14566  1.0000
  H   H2038     1.0  0.86094  0.10734  0.09141  1.0000
  H   H2039     1.0  0.88401  0.06446  0.16506  1.0000
  C   C1178     1.0  0.76250  0.11363  0.03380  1.0000
  C   C1179     1.0  0.76717  0.12822  0.02213  1.0000
  C   C1180     1.0  0.77593  0.13834  0.02678  1.0000
  C   C1181     1.0  0.78042  0.13372  0.04293  1.0000
  C   C1182     1.0  0.77571  0.11914  0.05460  1.0000
  C   C1183     1.0  0.76667  0.10920  0.05009  1.0000
  H   H2040     1.0  0.82821  0.08566  0.18540  1.0000
  H   H2041     1.0  0.77924  0.14980  0.01789  1.0000
  H   H2042     1.0  0.77894  0.11556  0.06712  1.0000
  H   H2043     1.0  0.76296  0.09800  0.05921  1.0000
  C   C1184     1.0  0.79302  0.08912  0.26491  1.0000
  H   H2044     1.0  0.74498  0.08419  0.24657  1.0000
  H   H2045     1.0  0.81113  0.09471  0.27669  1.0000
  H   H2046     1.0  0.76566  0.06172  0.27860  1.0000
  H   H2047     1.0  0.70240  0.11621  0.17967  1.0000
  H   H2048     1.0  0.76417  0.10842  0.22517  1.0000
  H   H2049     1.0  0.71429  0.08853  0.26239  1.0000
  C   C1185     1.0  0.71765  0.09447  0.27144  1.0000
  H   H2050     1.0  0.80604  0.99967  0.15349  1.0000
  H   H2051     1.0  0.79107  0.11018  0.27737  1.0000
  N   N63       1.0  0.82554  0.10263  0.00144  1.0000
  H   H2052     1.0  0.76793  0.16414  0.29185  1.0000
  H   H2053     1.0  0.81773  0.98856  0.11415  1.0000
  H   H2054     1.0  0.77320  0.22808  0.24641  1.0000
  H   H2055     1.0  0.76017  0.19877  0.30497  1.0000
  N   N64       1.0  0.81045  0.01067  0.12615  1.0000
  C   C1186     1.0  0.79467  0.02459  0.12977  1.0000
  H   H2056     1.0  0.64497  0.22277  0.30242  1.0000
  C   C1187     1.0  0.81682  0.00337  0.14278  1.0000
  C   C1188     1.0  0.82473  0.01772  0.11268  1.0000
  C   C1189     1.0  0.82044  0.02666  0.09483  1.0000
  C   C1190     1.0  0.79795  0.04122  0.13285  1.0000
  C   C1191     1.0  0.75032  0.19218  0.30401  1.0000
  H   H2057     1.0  0.78355  0.04080  0.99920  1.0000
  H   H2058     1.0  0.68758  0.16666  0.00352  1.0000
  C   C1192     1.0  0.83404  0.03685  0.08373  1.0000
  C   C1193     1.0  0.78103  0.05311  0.13899  1.0000
  H   H2059     1.0  0.78517  0.01932  0.14109  1.0000
  H   H2060     1.0  0.78773  0.02909  0.11905  1.0000
  H   H2061     1.0  0.97725  0.17403  0.18929  1.0000
  C   C1194     1.0  0.66491  0.18660  0.00339  1.0000
  C   C1195     1.0  0.83950  0.09786  0.98633  1.0000
  H   H2062     1.0  0.82137  0.01316  0.14655  1.0000
  H   H2063     1.0  0.82938  0.02681  0.11751  1.0000
  H   H2064     1.0  0.83619  0.00730  0.11024  1.0000
  H   H2065     1.0  0.80784  0.03577  0.09588  1.0000
  H   H2066     1.0  0.82027  0.01678  0.08791  1.0000
  H   H2067     1.0  0.80580  0.03845  0.14262  1.0000
  H   H2068     1.0  0.80482  0.04845  0.12074  1.0000
  H   H2069     1.0  0.80880  0.15628  0.98379  1.0000
  C   C1196     1.0  0.80592  0.99617  0.12112  1.0000
  H   H2070     1.0  0.72992  0.15247  0.00256  1.0000
  H   H2071     1.0  0.79357  0.01212  0.09950  1.0000
  H   H2072     1.0  0.74351  0.15610  0.29064  1.0000
  H   H2073     1.0  0.65366  0.19141  0.99709  1.0000
  H   H2074     1.0  0.71383  0.15215  0.30262  1.0000
  H   H2075     1.0  0.84714  0.02854  0.08257  1.0000
  H   H2076     1.0  0.83129  0.04218  0.07064  1.0000
  H   H2077     1.0  0.83372  0.04780  0.08945  1.0000
  H   H2078     1.0  0.77371  0.04657  0.15126  1.0000
  H   H2079     1.0  0.78380  0.06473  0.14137  1.0000
  H   H2080     1.0  0.77301  0.05715  0.12912  1.0000
  H   H2081     1.0  0.75248  0.17952  0.31304  1.0000
  C   C1197     1.0  0.90291  0.08803  0.13654  1.0000
  C   C1198     1.0  0.91645  0.09752  0.13700  1.0000
  H   H2082     1.0  0.85212  0.10863  0.15774  1.0000
  H   H2083     1.0  0.85857  0.08780  0.16965  1.0000
  H   H2084     1.0  0.90618  0.07467  0.14385  1.0000
  H   H2085     1.0  0.90428  0.08732  0.12300  1.0000
  H   H2086     1.0  0.92942  0.09108  0.13091  1.0000
  H   H2087     1.0  0.91380  0.11106  0.12982  1.0000
  H   H2088     1.0  0.91652  0.09741  0.15050  1.0000
  H   H2089     1.0  0.82226  0.10778  0.17444  1.0000
  H   H2090     1.0  0.81155  0.09180  0.17308  1.0000
  H   H2091     1.0  0.68131  0.21157  0.22147  1.0000
  C   C1199     1.0  0.94952  0.20355  0.19430  1.0000
  H   H2092     1.0  0.94633  0.21780  0.19226  1.0000
  H   H2093     1.0  0.95450  0.03966  0.26511  1.0000
  H   H2094     1.0  0.87181  0.20002  0.14432  1.0000
  H   H2095     1.0  0.71502  0.16569  0.28145  1.0000
  H   H2096     1.0  0.80835  0.07760  0.02974  1.0000
  S   S284      1.0  0.76271  0.07601  0.99167  1.0000
  C   C1200     1.0  0.63362  0.22537  0.29651  1.0000
  H   H2097     1.0  0.70777  0.14687  0.99025  1.0000
  H   H2098     1.0  0.79180  0.20822  0.20439  1.0000
  H   H2099     1.0  0.81859  0.10129  0.06066  1.0000
  C   C1201     1.0  0.63919  0.22819  0.27689  1.0000
  H   H2100     1.0  0.79688  0.20160  0.11557  1.0000
  H   H2101     1.0  0.74187  0.16895  0.99077  1.0000
  H   H2102     1.0  0.62751  0.22997  0.27176  1.0000
  H   H2103     1.0  0.95541  0.19840  0.20579  1.0000
  C   C1202     1.0  0.79697  0.09628  0.27853  1.0000
  H   H2104     1.0  0.65992  0.22318  0.24573  1.0000
  C   C1203     1.0  0.71257  0.14468  0.18038  1.0000
  C   C1204     1.0  0.79249  0.02829  0.99801  1.0000
  H   H2105     1.0  0.70492  0.14247  0.15833  1.0000
  C   C1205     1.0  0.82410  0.09414  0.17362  1.0000
  H   H2106     1.0  0.62728  0.21414  0.30149  1.0000
  C   C1206     1.0  0.96178  0.17469  0.15347  1.0000
  N   N65       1.0  0.75297  0.18989  0.28577  1.0000
  H   H2107     1.0  0.93457  0.07869  0.21404  1.0000
  H   H2108     1.0  0.88450  0.09488  0.15862  1.0000
  C   C1207     1.0  0.66560  0.23474  0.24312  1.0000
  H   H2109     1.0  0.76365  0.13197  0.00971  1.0000
  C   C1208     1.0  0.86995  0.11401  0.09376  1.0000
  C   C1209     1.0  0.68472  0.20720  0.28198  1.0000
  H   H2110     1.0  0.73714  0.07314  0.27944  1.0000
  H   H2111     1.0  0.88455  0.09091  0.10646  1.0000
  C   C1210     1.0  0.85480  0.09474  0.15722  1.0000
  C   C1211     1.0  0.88449  0.09692  0.14467  1.0000
  C   C1212     1.0  0.77082  0.06355  0.26445  1.0000
  C   C1213     1.0  0.83748  0.09030  0.15751  1.0000
  H   H2112     1.0  0.72047  0.07947  0.15769  1.0000
  N   N66       1.0  0.86940  0.09110  0.14215  1.0000
  H   H2113     1.0  0.88301  0.11111  0.14012  1.0000
  H   H2114     1.0  0.83212  0.09798  0.14617  1.0000
  C   C1214     1.0  0.78934  0.10280  0.20935  1.0000
  C   C1215     1.0  0.87659  0.05972  0.15842  1.0000
  H   H2115     1.0  0.85692  0.11493  0.12778  1.0000
  H   H2116     1.0  0.86400  0.05830  0.16727  1.0000
  C   C1216     1.0  0.86354  0.10172  0.12595  1.0000
  C   C1217     1.0  0.87344  0.07235  0.14139  1.0000
  H   H2117     1.0  0.83914  0.07647  0.15767  1.0000
  H   H2118     1.0  0.87936  0.03675  0.14857  1.0000
  H   H2119     1.0  0.88734  0.03298  0.16791  1.0000
  H   H2120     1.0  0.98465  0.19439  0.15059  1.0000
  H   H2121     1.0  0.77171  0.09573  0.12886  1.0000
  C   C1218     1.0  0.88632  0.04190  0.15534  1.0000
  H   H2122     1.0  0.88463  0.06949  0.13081  1.0000
  H   H2123     1.0  0.88689  0.11085  0.11050  1.0000
  H   H2124     1.0  0.74679  0.10370  0.25050  1.0000
  H   H2125     1.0  0.79920  0.09577  0.25211  1.0000
  C   C1219     1.0  0.69807  0.23037  0.28170  1.0000
  H   H2126     1.0  0.85379  0.09619  0.12313  1.0000
  H   H2127     1.0  0.86283  0.06897  0.13771  1.0000
  H   H2128     1.0  0.73518  0.09256  0.12905  1.0000
  H   H2129     1.0  0.90542  0.05885  0.22216  1.0000
  C   C1220     1.0  0.87765  0.10370  0.10929  1.0000
  H   H2130     1.0  0.89951  0.04248  0.14754  1.0000
  S   S285      1.0  0.77357  0.12766  0.13597  1.0000
  H   H2131     1.0  0.88038  0.11550  0.08208  1.0000
  C   C1221     1.0  0.75939  0.20701  0.25423  1.0000
  H   H2132     1.0  0.78487  0.05808  0.26303  1.0000
  H   H2133     1.0  0.70048  0.08963  0.19202  1.0000
  C   C1222     1.0  0.76800  0.03303  0.26639  1.0000
  H   H2134     1.0  0.78618  0.11548  0.20076  1.0000
  C   C1223     1.0  0.86514  0.18912  0.14733  1.0000
  H   H2135     1.0  0.74001  0.18241  0.26990  1.0000
  C   C1224     1.0  0.81064  0.07638  0.01615  1.0000
  H   H2136     1.0  0.79185  0.07813  0.23756  1.0000
  H   H2137     1.0  0.80890  0.09316  0.99116  1.0000
  C   C1225     1.0  0.83191  0.98745  0.14284  1.0000
  C   C1226     1.0  0.75956  0.16936  0.16750  1.0000
  C   C1227     1.0  0.69582  0.13407  0.12114  1.0000
  C   C1228     1.0  0.75824  0.14132  0.16422  1.0000
  S   S286      1.0  0.77496  0.14157  0.25568  1.0000
  C   C1229     1.0  0.79649  0.06815  0.01488  1.0000
  H   H2138     1.0  0.82707  0.08180  0.05256  1.0000
  S   S287      1.0  0.75450  0.18460  0.18057  1.0000
  H   H2139     1.0  0.79197  0.08927  0.29167  1.0000
  H   H2140     1.0  0.75362  0.12946  0.16936  1.0000
  C   C1230     1.0  0.75359  0.15405  0.17398  1.0000
  H   H2141     1.0  0.76511  0.08809  0.11347  1.0000
  H   H2142     1.0  0.66008  0.18266  0.01748  1.0000
  H   H2143     1.0  0.72221  0.13818  0.18849  1.0000
  H   H2144     1.0  0.76255  0.02495  0.26112  1.0000
  H   H2145     1.0  0.76263  0.03143  0.28047  1.0000
  C   C1231     1.0  0.77332  0.09210  0.26620  1.0000
  H   H2146     1.0  0.76728  0.08872  0.28010  1.0000
  C   C1232     1.0  0.76094  0.09709  0.12247  1.0000
  H   H2147     1.0  0.74881  0.20399  0.25029  1.0000
  H   H2148     1.0  0.78115  0.11116  0.23351  1.0000
  H   H2149     1.0  0.76850  0.10622  0.26234  1.0000
  C   C1233     1.0  0.97895  0.12208  0.18422  1.0000
  H   H2150     1.0  0.74679  0.10241  0.15738  1.0000
  H   H2151     1.0  0.72797  0.13826  0.15650  1.0000
  H   H2152     1.0  0.95655  0.17243  0.18874  1.0000
  H   H2153     1.0  0.96158  0.18741  0.14443  1.0000
  H   H2154     1.0  0.79657  0.05565  0.02417  1.0000
  S   S288      1.0  0.74357  0.18095  0.23135  1.0000
  H   H2155     1.0  0.80300  0.10026  0.21043  1.0000
  H   H2156     1.0  0.78223  0.02846  0.26408  1.0000
  N   N67       1.0  0.76778  0.08240  0.25601  1.0000
  C   C1234     1.0  0.77812  0.08425  0.23777  1.0000
  N   N68       1.0  0.71954  0.10601  0.15796  1.0000
  H   H2157     1.0  0.74511  0.15210  0.18646  1.0000
  S   S289      1.0  0.69376  0.18850  0.25683  1.0000
  H   H2158     1.0  0.67188  0.19716  0.00116  1.0000
  H   H2159     1.0  0.73970  0.11874  0.14074  1.0000
  H   H2160     1.0  0.76883  0.05247  0.24343  1.0000
  H   H2161     1.0  0.94131  0.16356  0.17387  1.0000
  C   C1235     1.0  0.73794  0.10577  0.14822  1.0000
  C   C1236     1.0  0.74501  0.09285  0.13591  1.0000
  C   C1237     1.0  0.71558  0.13601  0.16517  1.0000
  H   H2162     1.0  0.72459  0.11106  0.18044  1.0000
  H   H2163     1.0  0.74874  0.07969  0.14353  1.0000
  H   H2164     1.0  0.96561  0.16512  0.14500  1.0000
  H   H2165     1.0  0.74920  0.05557  0.25928  1.0000
  H   H2166     1.0  0.77370  0.07738  0.23028  1.0000
  H   H2167     1.0  0.77452  0.00053  0.18510  1.0000
  C   C1238     1.0  0.71549  0.11662  0.17155  1.0000
  H   H2168     1.0  0.72894  0.08204  0.17435  1.0000
  C   C1239     1.0  0.73384  0.16712  0.29516  1.0000
  H   H2169     1.0  0.78124  0.17423  0.23533  1.0000
  C   C1240     1.0  0.94270  0.17471  0.16306  1.0000
  H   H2170     1.0  0.80577  0.13428  0.20004  1.0000
  H   H2171     1.0  0.69151  0.12389  0.11769  1.0000
  C   C1241     1.0  0.71841  0.08772  0.16715  1.0000
  H   H2172     1.0  0.66956  0.16087  0.99949  1.0000
  H   H2173     1.0  0.93206  0.18579  0.13992  1.0000
  H   H2174     1.0  0.68842  0.06446  0.19551  1.0000
  C   C1242     1.0  0.70132  0.08510  0.18014  1.0000
  H   H2175     1.0  0.90465  0.09928  0.23273  1.0000
  H   H2176     1.0  0.78851  0.14913  0.19092  1.0000
  H   H2177     1.0  0.68999  0.09216  0.17446  1.0000
  H   H2178     1.0  0.86873  0.18320  0.13586  1.0000
  C   C1243     1.0  0.84566  0.19564  0.15171  1.0000
  C   C1244     1.0  0.70045  0.06605  0.18574  1.0000
  C   C1245     1.0  0.80246  0.14321  0.18814  1.0000
  H   H2179     1.0  0.80502  0.13584  0.17785  1.0000
  H   H2180     1.0  0.88998  0.10003  0.26179  1.0000
  H   H2181     1.0  0.87944  0.08591  0.24096  1.0000
  H   H2182     1.0  0.91071  0.11957  0.24979  1.0000
  H   H2183     1.0  0.85425  0.05030  0.25553  1.0000
  H   H2184     1.0  0.78366  0.07661  0.01803  1.0000
  C   C1246     1.0  0.91317  0.10815  0.26025  1.0000
  H   H2185     1.0  0.85204  0.07311  0.25316  1.0000
  H   H2186     1.0  0.88270  0.07509  0.26199  1.0000
  C   C1247     1.0  0.90400  0.09433  0.25981  1.0000
  C   C1248     1.0  0.85995  0.06031  0.25757  1.0000
  C   C1249     1.0  0.81317  0.15707  0.18262  1.0000
  H   H2187     1.0  0.85946  0.05839  0.27156  1.0000
  H   H2188     1.0  0.90232  0.08163  0.21558  1.0000
  H   H2189     1.0  0.87831  0.05924  0.23386  1.0000
  H   H2190     1.0  0.92730  0.10313  0.25861  1.0000
  C   C1250     1.0  0.88637  0.07387  0.24826  1.0000
  C   C1251     1.0  0.91026  0.08850  0.24229  1.0000
  C   C1252     1.0  0.87856  0.05888  0.24737  1.0000
  H   H2191     1.0  0.74246  0.21657  0.27596  1.0000
  H   H2192     1.0  0.69783  0.22055  0.22467  1.0000
  H   H2193     1.0  0.92381  0.07972  0.18810  1.0000
  H   H2194     1.0  0.90612  0.08340  0.27075  1.0000
  H   H2195     1.0  0.88607  0.04618  0.25260  1.0000
  H   H2196     1.0  0.92434  0.08790  0.23810  1.0000
  C   C1253     1.0  0.73627  0.08695  0.27337  1.0000
  C   C1254     1.0  0.90967  0.07022  0.22326  1.0000
  N   N69       1.0  0.90565  0.07205  0.24180  1.0000
  H   H2197     1.0  0.73893  0.09352  0.28230  1.0000
  H   H2198     1.0  0.93710  0.18645  0.16851  1.0000
  H   H2199     1.0  0.97358  0.20368  0.17610  1.0000
  H   H2200     1.0  0.93386  0.03448  0.27626  1.0000
  C   C1255     1.0  0.93073  0.06747  0.19492  1.0000
  H   H2201     1.0  0.90682  0.05403  0.26622  1.0000
  C   C1256     1.0  0.91467  0.05638  0.25285  1.0000
  C   C1257     1.0  0.92881  0.06798  0.21381  1.0000
  H   H2202     1.0  0.93193  0.06576  0.26316  1.0000
  H   H2203     1.0  0.91570  0.04467  0.24789  1.0000
  H   H2204     1.0  0.93625  0.05555  0.21971  1.0000
  C   C1258     1.0  0.98255  0.15242  0.16907  1.0000
  H   H2205     1.0  0.67487  0.19967  0.28789  1.0000
  H   H2206     1.0  0.70047  0.06082  0.17456  1.0000
  C   C1259     1.0  0.93288  0.05669  0.25488  1.0000
  H   H2207     1.0  0.71162  0.05859  0.19157  1.0000
  C   C1260     1.0  0.70667  0.11252  0.14635  1.0000
  H   H2208     1.0  0.71578  0.10861  0.26653  1.0000
  H   H2209     1.0  0.81347  0.16928  0.27896  1.0000
  C   C1261     1.0  0.78482  0.21224  0.19368  1.0000
  C   C1262     1.0  0.73787  0.18427  0.28329  1.0000
  H   H2210     1.0  0.67641  0.23045  0.24998  1.0000
  H   H2211     1.0  0.79520  0.17283  0.16676  1.0000
  H   H2212     1.0  0.93602  0.16250  0.14575  1.0000
  H   H2213     1.0  0.67666  0.22284  0.30126  1.0000
  N   N70       1.0  0.97496  0.17139  0.16443  1.0000
  H   H2214     1.0  0.78673  0.18683  0.19018  1.0000
  H   H2215     1.0  0.83290  0.18868  0.12415  1.0000
  C   C1263     1.0  0.81949  0.12197  0.99756  1.0000
  C   C1264     1.0  0.94174  0.03895  0.26339  1.0000
  H   H2216     1.0  0.79859  0.06580  0.00171  1.0000
  H   H2217     1.0  0.70582  0.17504  0.30028  1.0000
  H   H2218     1.0  0.78312  0.20373  0.17183  1.0000
  C   C1265     1.0  0.81039  0.09433  0.00387  1.0000
  C   C1266     1.0  0.76217  0.22466  0.24354  1.0000
  C   C1267     1.0  0.80133  0.16583  0.27873  1.0000
  H   H2219     1.0  0.73403  0.16636  0.30875  1.0000
  C   C1268     1.0  0.79050  0.19896  0.18222  1.0000
  H   H2220     1.0  0.86962  0.17948  0.15833  1.0000
  H   H2221     1.0  0.80573  0.02944  0.99778  1.0000
  C   C1269     1.0  0.80939  0.16947  0.16573  1.0000
  H   H2222     1.0  0.82694  0.15058  0.18084  1.0000
  H   H2223     1.0  0.81009  0.16387  0.19331  1.0000
  Fe  Fe144     1.0  0.75506  0.10120  0.00030  1.0000
  H   H2224     1.0  0.71543  0.13691  0.13239  1.0000
  H   H2225     1.0  0.96936  0.11370  0.18987  1.0000
  C   C1270     1.0  0.82117  0.10499  0.03313  1.0000
  H   H2226     1.0  0.71783  0.21137  0.24722  1.0000
  H   H2227     1.0  0.81452  0.16175  0.15553  1.0000
  H   H2228     1.0  0.94381  0.02947  0.25520  1.0000
  H   H2229     1.0  0.94456  0.06563  0.18844  1.0000
  H   H2230     1.0  0.77894  0.00428  0.11867  1.0000
  H   H2231     1.0  0.91797  0.17509  0.15791  1.0000
  H   H2232     1.0  0.77004  0.17267  0.26960  1.0000
  H   H2233     1.0  0.78720  0.22499  0.18601  1.0000
  C   C1271     1.0  0.70905  0.21365  0.25915  1.0000
  H   H2234     1.0  0.76440  0.21250  0.27671  1.0000
  H   H2235     1.0  0.93740  0.19889  0.19671  1.0000
  H   H2236     1.0  0.84008  0.17291  0.16995  1.0000
  H   H2237     1.0  0.84111  0.17174  0.14854  1.0000
  H   H2238     1.0  0.81327  0.20967  0.14211  1.0000
  N   N71       1.0  0.81665  0.18556  0.16076  1.0000
  H   H2239     1.0  0.85233  0.07253  0.99936  1.0000
  H   H2240     1.0  0.81329  0.21431  0.11058  1.0000
  H   H2241     1.0  0.81685  0.18981  0.18573  1.0000
  C   C1272     1.0  0.83602  0.18050  0.15781  1.0000
  C   C1273     1.0  0.81022  0.19589  0.17477  1.0000
  H   H2242     1.0  0.70876  0.09198  0.28415  1.0000
  H   H2243     1.0  0.96184  0.14006  0.16924  1.0000
  C   C1274     1.0  0.76893  0.17626  0.28207  1.0000
  C   C1275     1.0  0.81082  0.19646  0.14465  1.0000
  H   H2244     1.0  0.82962  0.12848  0.99813  1.0000
  H   H2245     1.0  0.77079  0.21350  0.19927  1.0000
  H   H2246     1.0  0.98823  0.11703  0.17327  1.0000
  C   C1276     1.0  0.81877  0.18940  0.12786  1.0000
  C   C1277     1.0  0.78618  0.18081  0.28186  1.0000
  H   H2247     1.0  0.78841  0.01850  0.00952  1.0000
  H   H2248     1.0  0.84516  0.10308  0.01441  1.0000
  H   H2249     1.0  0.72608  0.19454  0.28478  1.0000
  H   H2250     1.0  0.81699  0.19600  0.10096  1.0000
  C   C1278     1.0  0.68690  0.22326  0.21813  1.0000
  H   H2251     1.0  0.75041  0.23469  0.24626  1.0000
  H   H2252     1.0  0.84055  0.09726  0.04893  1.0000
  H   H2253     1.0  0.71375  0.15835  0.17556  1.0000
  C   C1279     1.0  0.84757  0.07853  0.98732  1.0000
  H   H2254     1.0  0.94146  0.06082  0.24244  1.0000
  C   C1280     1.0  0.82730  0.09570  0.04977  1.0000
  H   H2255     1.0  0.80819  0.12598  0.00768  1.0000
  H   H2256     1.0  0.79661  0.19834  0.14648  1.0000
  H   H2257     1.0  0.81368  0.20876  0.16992  1.0000
  H   H2258     1.0  0.80772  0.10367  0.03474  1.0000
  H   H2259     1.0  0.81633  0.17641  0.12928  1.0000
  H   H2260     1.0  0.84287  0.20295  0.16209  1.0000
  H   H2261     1.0  0.68497  0.14091  0.12981  1.0000
  H   H2262     1.0  0.84189  0.20459  0.14006  1.0000
  H   H2263     1.0  0.83731  0.08391  0.02132  1.0000
  C   C1281     1.0  0.75471  0.20700  0.27379  1.0000
  H   H2264     1.0  0.92546  0.05671  0.19387  1.0000
  C   C1282     1.0  0.68565  0.22035  0.28951  1.0000
  H   H2265     1.0  0.79805  0.10265  0.00907  1.0000
  H   H2266     1.0  0.72201  0.19578  0.31290  1.0000
  H   H2267     1.0  0.78594  0.18376  0.29436  1.0000
  H   H2268     1.0  0.83793  0.07171  0.98637  1.0000
  H   H2269     1.0  0.70459  0.10175  0.14176  1.0000
  H   H2270     1.0  0.78882  0.19208  0.27148  1.0000
  H   H2271     1.0  0.75814  0.11041  0.11486  1.0000
  H   H2272     1.0  0.64817  0.21627  0.27368  1.0000
  C   C1283     1.0  0.71122  0.12627  0.12979  1.0000
  C   C1284     1.0  0.71604  0.16490  0.29483  1.0000
  H   H2273     1.0  0.77138  0.19758  0.25074  1.0000
  H   H2274     1.0  0.69960  0.14347  0.10914  1.0000
  C   C1285     1.0  0.96965  0.14050  0.17821  1.0000
  C   C1286     1.0  0.81096  0.20111  0.11288  1.0000
  H   H2275     1.0  0.82306  0.06733  0.01337  1.0000
  H   H2276     1.0  0.69380  0.11779  0.15380  1.0000
  C   C1287     1.0  0.73526  0.15931  0.98945  1.0000
  H   H2277     1.0  0.71931  0.23484  0.26040  1.0000
  C   C1288     1.0  0.96763  0.17816  0.18086  1.0000
  C   C1289     1.0  0.79185  0.00099  0.11025  1.0000
  C   C1290     1.0  0.70984  0.22693  0.26659  1.0000
  H   H2278     1.0  0.69950  0.14424  0.18856  1.0000
  H   H2279     1.0  0.95583  0.20370  0.16716  1.0000
  H   H2280     1.0  0.69198  0.22610  0.20399  1.0000
  H   H2281     1.0  0.76508  0.22440  0.22962  1.0000
  H   H2282     1.0  0.85006  0.10487  0.98419  1.0000
  H   H2283     1.0  0.96103  0.14494  0.18967  1.0000
  H   H2284     1.0  0.79950  0.15413  0.28884  1.0000
  H   H2285     1.0  0.72944  0.21548  0.30294  1.0000
  H   H2286     1.0  0.98587  0.12162  0.19431  1.0000
  C   C1291     1.0  0.98959  0.18032  0.15431  1.0000
  H   H2287     1.0  0.76793  0.99278  0.16068  1.0000
  H   H2288     1.0  0.78117  0.98969  0.09535  1.0000
  C   C1292     1.0  0.73244  0.20268  0.31142  1.0000
  S   S290      1.0  0.73511  0.11239  0.98422  1.0000
  H   H2289     1.0  0.84380  0.99089  0.13392  1.0000
  H   H2290     1.0  0.62430  0.23686  0.30042  1.0000
  H   H2291     1.0  0.83957  0.99067  0.16515  1.0000
  H   H2292     1.0  0.79003  0.14681  0.98837  1.0000
  C   C1293     1.0  0.77967  0.98774  0.18254  1.0000
  H   H2293     1.0  0.99126  0.17319  0.12958  1.0000
  H   H2294     1.0  0.68482  0.14090  0.98403  1.0000
  H   H2295     1.0  0.57886  0.21943  0.43640  1.0000
  H   H2296     1.0  0.64669  0.23118  0.61489  1.0000
  H   H2297     1.0  0.60885  0.23165  0.37943  1.0000
  H   H2298     1.0  0.56728  0.23009  0.40981  1.0000
  C   C1294     1.0  0.60037  0.22455  0.61706  1.0000
  H   H2299     1.0  0.62560  0.22127  0.63466  1.0000
  C   C1295     1.0  0.57941  0.23266  0.42883  1.0000
  H   H2300     1.0  0.74157  0.21316  0.32840  1.0000
  C   C1296     1.0  0.61534  0.23296  0.63611  1.0000
  H   H2301     1.0  0.73424  0.19316  0.33839  1.0000
  H   H2302     1.0  0.58998  0.22092  0.62820  1.0000
  H   H2303     1.0  0.60058  0.21458  0.35406  1.0000
  H   H2304     1.0  0.59021  0.22355  0.40529  1.0000
  C   C1297     1.0  0.73184  0.20563  0.32919  1.0000
  H   H2305     1.0  0.57644  0.22981  0.38058  1.0000
  H   H2306     1.0  0.62038  0.20937  0.36166  1.0000
  C   C1298     1.0  0.60278  0.23232  0.36864  1.0000
  C   C1299     1.0  0.57932  0.23356  0.41004  1.0000
  H   H2307     1.0  0.71888  0.21303  0.33416  1.0000
  H   H2308     1.0  0.61080  0.21306  0.61535  1.0000
  C   C1300     1.0  0.60625  0.21429  0.36504  1.0000
  H   H2309     1.0  0.59132  0.23605  0.42980  1.0000
  H   H2310     1.0  0.59488  0.22915  0.60529  1.0000
  H   H2311     1.0  0.60072  0.20537  0.37663  1.0000
  H   H2312     1.0  0.60509  0.22841  0.64697  1.0000
  Fe  Fe145     1.0  0.78199  0.08875  0.97095  1.0000
  H   H2313     1.0  0.75225  0.01831  0.96081  1.0000
  S   S291      1.0  0.80956  0.07554  0.96311  1.0000
  Fe  Fe146     1.0  0.75640  0.12197  0.96353  1.0000
  H   H2314     1.0  0.59090  0.23524  0.70213  1.0000
  S   S292      1.0  0.75339  0.14762  0.94516  1.0000
  H   H2315     1.0  0.69605  0.10903  0.95638  1.0000
  H   H2316     1.0  0.64308  0.22772  0.65022  1.0000
  H   H2317     1.0  0.97459  0.14734  0.80423  1.0000
  H   H2318     1.0  0.70763  0.99290  0.89555  1.0000
  S   S293      1.0  0.76469  0.09854  0.95201  1.0000
  S   S294      1.0  0.96054  0.14849  0.88032  1.0000
  Fe  Fe147     1.0  0.86060  0.11837  0.88093  1.0000
  S   S295      1.0  0.87713  0.09232  0.87857  1.0000
  S   S296      1.0  0.84614  0.12879  0.90451  1.0000
  Fe  Fe148     1.0  0.86755  0.13241  0.84252  1.0000
  S   S297      1.0  0.88570  0.10817  0.83669  1.0000
  S   S298      1.0  0.86069  0.15539  0.82192  1.0000
  Fe  Fe149     1.0  0.86554  0.09516  0.85579  1.0000
  S   S299      1.0  0.85633  0.07700  0.84571  1.0000
  Fe  Fe150     1.0  0.89586  0.10754  0.85973  1.0000
  S   S300      1.0  0.92388  0.09905  0.86158  1.0000
  S   S301      1.0  0.84693  0.11954  0.86037  1.0000
  S   S302      1.0  0.87992  0.13335  0.86346  1.0000
  H   H2319     1.0  0.75268  0.16868  0.91120  1.0000
  Fe  Fe151     1.0  0.72613  0.17940  0.82578  1.0000
  S   S303      1.0  0.75293  0.17360  0.81002  1.0000
  S   S304      1.0  0.70230  0.19767  0.81782  1.0000
  Fe  Fe152     1.0  0.73597  0.15353  0.85757  1.0000
  S   S305      1.0  0.76362  0.14556  0.84466  1.0000
  S   S306      1.0  0.72491  0.13983  0.88392  1.0000
  Fe  Fe153     1.0  0.76161  0.17384  0.83364  1.0000
  S   S307      1.0  0.78136  0.18923  0.83122  1.0000
  Fe  Fe154     1.0  0.75258  0.14584  0.82241  1.0000
  S   S308      1.0  0.76132  0.12589  0.80602  1.0000
  S   S309      1.0  0.73479  0.18185  0.84867  1.0000
  S   S310      1.0  0.72505  0.15156  0.83610  1.0000
  Fe  Fe155     1.0  0.75567  0.02476  0.89813  1.0000
  S   S311      1.0  0.77649  0.00280  0.90600  1.0000
  S   S312      1.0  0.73057  0.03303  0.91581  1.0000
  Fe  Fe156     1.0  0.77374  0.03050  0.86068  1.0000
  S   S313      1.0  0.79645  0.00881  0.86511  1.0000
  S   S314      1.0  0.76943  0.04549  0.83447  1.0000
  H   H2320     1.0  0.67223  0.18051  0.97079  1.0000
  Fe  Fe157     1.0  0.79437  0.01940  0.88837  1.0000
  S   S315      1.0  0.81607  0.02249  0.89837  1.0000
  S   S316      1.0  0.75427  0.01452  0.87590  1.0000
  S   S317      1.0  0.77340  0.04229  0.88248  1.0000
  H   H2321     1.0  0.67402  0.19958  0.74908  1.0000
  C   C1301     1.0  0.76269  0.10385  0.81526  1.0000
  C   C1302     1.0  0.76501  0.09674  0.83218  1.0000
  C   C1303     1.0  0.76741  0.07873  0.83834  1.0000
  C   C1304     1.0  0.76684  0.06802  0.82779  1.0000
  C   C1305     1.0  0.76423  0.07530  0.81107  1.0000
  C   C1306     1.0  0.76236  0.09305  0.80479  1.0000
  H   H2322     1.0  0.76538  0.10502  0.84031  1.0000
  H   H2323     1.0  0.76994  0.07313  0.85108  1.0000
  H   H2324     1.0  0.76395  0.06710  0.80280  1.0000
  H   H2325     1.0  0.76075  0.09840  0.79168  1.0000
  C   C1307     1.0  0.69898  0.21878  0.76121  1.0000
  C   C1308     1.0  0.97023  0.16886  0.82561  1.0000
  H   H2326     1.0  0.70956  0.18043  0.94878  1.0000
  C   C1309     1.0  0.70140  0.20639  0.79601  1.0000
  C   C1310     1.0  0.71626  0.20518  0.78301  1.0000
  C   C1311     1.0  0.71504  0.21141  0.76567  1.0000
  H   H2327     1.0  0.67833  0.19004  0.73062  1.0000
  C   C1312     1.0  0.68936  0.17101  0.77071  1.0000
  H   H2328     1.0  0.72869  0.19942  0.78630  1.0000
  H   H2329     1.0  0.72659  0.21024  0.75564  1.0000
  C   C1313     1.0  0.84496  0.06228  0.86080  1.0000
  C   C1314     1.0  0.83485  0.05443  0.85515  1.0000
  C   C1315     1.0  0.82561  0.04257  0.86676  1.0000
  C   C1316     1.0  0.82705  0.03794  0.88399  1.0000
  C   C1317     1.0  0.83738  0.04558  0.88968  1.0000
  C   C1318     1.0  0.84607  0.05803  0.87815  1.0000
  H   H2330     1.0  0.83417  0.05751  0.84174  1.0000
  H   H2331     1.0  0.81777  0.03665  0.86227  1.0000
  H   H2332     1.0  0.83873  0.04187  0.90294  1.0000
  H   H2333     1.0  0.85399  0.06395  0.88254  1.0000
  C   C1319     1.0  0.83849  0.16394  0.82328  1.0000
  C   C1320     1.0  0.83312  0.18157  0.81725  1.0000
  C   C1321     1.0  0.81554  0.18912  0.81957  1.0000
  C   C1322     1.0  0.80316  0.17899  0.82721  1.0000
  C   C1323     1.0  0.80842  0.16118  0.83247  1.0000
  C   C1324     1.0  0.82609  0.15371  0.83074  1.0000
  H   H2334     1.0  0.84260  0.18954  0.81138  1.0000
  H   H2335     1.0  0.81153  0.20288  0.81546  1.0000
  H   H2336     1.0  0.79891  0.15331  0.83847  1.0000
  H   H2337     1.0  0.83005  0.14010  0.83522  1.0000
  C   C1325     1.0  0.94963  0.13447  0.87655  1.0000
  C   C1326     1.0  0.93468  0.14130  0.86987  1.0000
  C   C1327     1.0  0.92640  0.13046  0.86567  1.0000
  C   C1328     1.0  0.93286  0.11272  0.86841  1.0000
  C   C1329     1.0  0.94745  0.10584  0.87566  1.0000
  C   C1330     1.0  0.95581  0.11669  0.87976  1.0000
  H   H2338     1.0  0.92991  0.15507  0.86729  1.0000
  H   H2339     1.0  0.91542  0.13592  0.85970  1.0000
  H   H2340     1.0  0.95249  0.09211  0.87784  1.0000
  H   H2341     1.0  0.88022  0.14973  0.93363  1.0000
  C   C1331     1.0  0.82004  0.09006  0.94677  1.0000
  C   C1332     1.0  0.81223  0.10748  0.94376  1.0000
  C   C1333     1.0  0.82055  0.11929  0.93101  1.0000
  C   C1334     1.0  0.83636  0.11364  0.92060  1.0000
  C   C1335     1.0  0.84413  0.09615  0.92326  1.0000
  C   C1336     1.0  0.83608  0.08436  0.93657  1.0000
  H   H2342     1.0  0.79969  0.11196  0.95110  1.0000
  H   H2343     1.0  0.81444  0.13274  0.92888  1.0000
  H   H2344     1.0  0.85635  0.09173  0.91517  1.0000
  H   H2345     1.0  0.84207  0.07085  0.93871  1.0000
  C   C1337     1.0  0.72633  0.06531  0.95501  1.0000
  C   C1338     1.0  0.74187  0.06227  0.94302  1.0000
  C   C1339     1.0  0.74354  0.05223  0.93086  1.0000
  C   C1340     1.0  0.72957  0.04547  0.93067  1.0000
  C   C1341     1.0  0.71405  0.04884  0.94248  1.0000
  C   C1342     1.0  0.71245  0.05867  0.95459  1.0000
  H   H2346     1.0  0.75250  0.06760  0.94323  1.0000
  H   H2347     1.0  0.75554  0.04972  0.92167  1.0000
  H   H2348     1.0  0.70322  0.04369  0.94239  1.0000
  H   H2349     1.0  0.80905  0.04007  0.96661  1.0000
  C   C1343     1.0  0.74571  0.14559  0.92792  1.0000
  C   C1344     1.0  0.73778  0.13192  0.92977  1.0000
  C   C1345     1.0  0.73134  0.13035  0.91623  1.0000
  C   C1346     1.0  0.73326  0.14216  0.90053  1.0000
  C   C1347     1.0  0.74124  0.15588  0.89857  1.0000
  C   C1348     1.0  0.74707  0.15781  0.91245  1.0000
  H   H2350     1.0  0.73624  0.12268  0.94178  1.0000
  H   H2351     1.0  0.72498  0.11986  0.91794  1.0000
  H   H2352     1.0  0.68258  0.14168  0.80826  1.0000
  H   H2353     1.0  0.67197  0.16406  0.80396  1.0000
  H   H2354     1.0  0.85513  0.16591  0.85947  1.0000
  H   H2355     1.0  0.90704  0.14022  0.94392  1.0000
  C   C1349     1.0  0.62154  0.22876  0.67157  1.0000
  H   H2356     1.0  0.73125  0.12729  0.77566  1.0000
  H   H2357     1.0  0.78708  0.04816  0.96627  1.0000
  H   H2358     1.0  0.90995  0.07626  0.90069  1.0000
  H   H2359     1.0  0.89239  0.10284  0.93342  1.0000
  H   H2360     1.0  0.98610  0.08854  0.86651  1.0000
  H   H2361     1.0  0.92012  0.13937  0.80497  1.0000
  H   H2362     1.0  0.72585  0.15933  0.75669  1.0000
  H   H2363     1.0  0.71574  0.10744  0.77049  1.0000
  C   C1350     1.0  0.96727  0.15045  0.83085  1.0000
  H   H2364     1.0  0.71817  0.12638  0.79717  1.0000
  H   H2365     1.0  0.73819  0.14687  0.78487  1.0000
  H   H2366     1.0  0.91540  0.11533  0.93028  1.0000
  H   H2367     1.0  0.92010  0.12795  0.90935  1.0000
  H   H2368     1.0  0.71081  0.15139  0.80353  1.0000
  C   C1351     1.0  0.71536  0.10859  0.78377  1.0000
  H   H2369     1.0  0.69172  0.14619  0.83285  1.0000
  H   H2370     1.0  0.68697  0.18372  0.77438  1.0000
  H   H2371     1.0  0.87727  0.13966  0.90048  1.0000
  H   H2372     1.0  0.67716  0.16622  0.77604  1.0000
  C   C1352     1.0  0.72057  0.16455  0.76869  1.0000
  H   H2373     1.0  0.70275  0.10648  0.79218  1.0000
  H   H2374     1.0  0.74944  0.17919  0.76051  1.0000
  C   C1353     1.0  0.68322  0.15493  0.80842  1.0000
  N   N72       1.0  0.72133  0.08659  0.88021  1.0000
  C   C1354     1.0  0.70847  0.09727  0.89213  1.0000
  C   C1355     1.0  0.72373  0.09738  0.86220  1.0000
  C   C1356     1.0  0.71465  0.07084  0.88117  1.0000
  C   C1357     1.0  0.73858  0.08074  0.88536  1.0000
  C   C1358     1.0  0.74677  0.09509  0.88706  1.0000
  C   C1359     1.0  0.70608  0.08892  0.91162  1.0000
  C   C1360     1.0  0.72434  0.06002  0.86727  1.0000
  C   C1361     1.0  0.70764  0.10330  0.85398  1.0000
  C   C1362     1.0  0.71278  0.10922  0.83443  1.0000
  C   C1363     1.0  0.76379  0.08757  0.89301  1.0000
  C   C1364     1.0  0.69252  0.10066  0.92244  1.0000
  C   C1365     1.0  0.71618  0.04465  0.86951  1.0000
  H   H2375     1.0  0.69557  0.10042  0.88883  1.0000
  H   H2376     1.0  0.71187  0.10995  0.89024  1.0000
  H   H2377     1.0  0.72784  0.10937  0.86185  1.0000
  H   H2378     1.0  0.73444  0.09046  0.85352  1.0000
  H   H2379     1.0  0.70072  0.07423  0.88082  1.0000
  H   H2380     1.0  0.71521  0.06195  0.89384  1.0000
  H   H2381     1.0  0.73783  0.07104  0.89766  1.0000
  H   H2382     1.0  0.74809  0.07390  0.87577  1.0000
  H   H2383     1.0  0.73818  0.10246  0.89666  1.0000
  H   H2384     1.0  0.74951  0.10412  0.87454  1.0000
  H   H2385     1.0  0.70177  0.07660  0.91433  1.0000
  H   H2386     1.0  0.71825  0.08637  0.91618  1.0000
  H   H2387     1.0  0.73803  0.05501  0.86821  1.0000
  H   H2388     1.0  0.72395  0.06767  0.85406  1.0000
  H   H2389     1.0  0.70046  0.09295  0.85634  1.0000
  H   H2390     1.0  0.69874  0.11422  0.85940  1.0000
  H   H2391     1.0  0.72078  0.09827  0.82846  1.0000
  H   H2392     1.0  0.70106  0.11429  0.82891  1.0000
  H   H2393     1.0  0.72032  0.11947  0.83111  1.0000
  H   H2394     1.0  0.76164  0.07913  0.90598  1.0000
  H   H2395     1.0  0.77313  0.08009  0.88379  1.0000
  H   H2396     1.0  0.76940  0.09820  0.89378  1.0000
  H   H2397     1.0  0.67986  0.10325  0.91881  1.0000
  H   H2398     1.0  0.69107  0.09424  0.93627  1.0000
  H   H2399     1.0  0.69650  0.11303  0.92069  1.0000
  H   H2400     1.0  0.71671  0.03613  0.88238  1.0000
  H   H2401     1.0  0.70256  0.04903  0.86812  1.0000
  H   H2402     1.0  0.72340  0.03714  0.85946  1.0000
  H   H2403     1.0  0.71359  0.15998  0.94391  1.0000
  H   H2404     1.0  0.75882  0.01535  0.93881  1.0000
  C   C1366     1.0  0.75175  0.16533  0.76675  1.0000
  C   C1367     1.0  0.70321  0.16966  0.94990  1.0000
  S   S318      1.0  0.65537  0.23251  0.71952  1.0000
  H   H2405     1.0  0.81117  0.04224  0.92188  1.0000
  C   C1368     1.0  0.79924  0.07667  0.91687  1.0000
  H   H2406     1.0  0.78412  0.03138  0.93127  1.0000
  H   H2407     1.0  0.81015  0.07991  0.92012  1.0000
  H   H2408     1.0  0.96830  0.09004  0.84532  1.0000
  S   S319      1.0  0.69819  0.22490  0.73922  1.0000
  H   H2409     1.0  0.86606  0.12830  0.97842  1.0000
  C   C1369     1.0  0.95614  0.12118  0.82363  1.0000
  C   C1370     1.0  0.69745  0.13389  0.95961  1.0000
  H   H2410     1.0  0.87337  0.16847  0.88191  1.0000
  H   H2411     1.0  0.97152  0.14461  0.84318  1.0000
  C   C1371     1.0  0.94608  0.13267  0.80980  1.0000
  H   H2412     1.0  0.87679  0.11161  0.92032  1.0000
  H   H2413     1.0  0.81583  0.01238  0.93382  1.0000
  H   H2414     1.0  0.89025  0.11979  0.95491  1.0000
  H   H2415     1.0  0.88450  0.16563  0.90808  1.0000
  C   C1372     1.0  0.92713  0.13121  0.81508  1.0000
  C   C1373     1.0  0.68959  0.17685  0.93847  1.0000
  C   C1374     1.0  0.87878  0.13679  0.93332  1.0000
  C   C1375     1.0  0.50601  0.21174  0.75787  1.0000
  H   H2416     1.0  0.80066  0.01014  0.98155  1.0000
  H   H2417     1.0  0.94936  0.12466  0.83618  1.0000
  H   H2418     1.0  0.95455  0.10781  0.82502  1.0000
  H   H2419     1.0  0.72163  0.14635  0.96987  1.0000
  H   H2420     1.0  0.65825  0.99115  0.89037  1.0000
  C   C1376     1.0  0.68536  0.21428  0.79159  1.0000
  H   H2421     1.0  0.90741  0.07616  0.92318  1.0000
  C   C1377     1.0  0.84564  0.00049  0.94569  1.0000
  H   H2422     1.0  0.88862  0.08054  0.91389  1.0000
  H   H2423     1.0  0.94645  0.14641  0.80804  1.0000
  C   C1378     1.0  0.83258  0.01727  0.94757  1.0000
  N   N73       1.0  0.69648  0.16223  0.96856  1.0000
  H   H2424     1.0  0.74249  0.16521  0.88655  1.0000
  H   H2425     1.0  0.83748  0.02750  0.93707  1.0000
  H   H2426     1.0  0.68740  0.11251  0.97792  1.0000
  H   H2427     1.0  0.91592  0.10284  0.90476  1.0000
  H   H2428     1.0  0.89517  0.16206  0.87023  1.0000
  H   H2429     1.0  0.96717  0.11131  0.88518  1.0000
  C   C1379     1.0  0.91351  0.14185  0.93011  1.0000
  C   C1380     1.0  0.78003  0.01024  0.95197  1.0000
  H   H2430     1.0  0.72693  0.17527  0.96680  1.0000
  H   H2431     1.0  0.92592  0.11769  0.81677  1.0000
  H   H2432     1.0  0.92091  0.13562  0.82737  1.0000
  N   N74       1.0  0.80226  0.17244  0.88284  1.0000
  C   C1381     1.0  0.79331  0.15874  0.88239  1.0000
  C   C1382     1.0  0.79302  0.19005  0.87480  1.0000
  C   C1383     1.0  0.82027  0.16911  0.87197  1.0000
  C   C1384     1.0  0.80388  0.17203  0.90086  1.0000
  C   C1385     1.0  0.78771  0.17027  0.91539  1.0000
  C   C1386     1.0  0.80223  0.13988  0.88863  1.0000
  C   C1387     1.0  0.83161  0.18186  0.87125  1.0000
  C   C1388     1.0  0.77319  0.19308  0.87670  1.0000
  C   C1389     1.0  0.76572  0.21175  0.86921  1.0000
  C   C1390     1.0  0.79114  0.17073  0.93265  1.0000
  C   C1391     1.0  0.78941  0.12788  0.89476  1.0000
  H   H2433     1.0  0.79189  0.15987  0.86899  1.0000
  H   H2434     1.0  0.77995  0.16074  0.89012  1.0000
  H   H2435     1.0  0.79561  0.20034  0.87969  1.0000
  H   H2436     1.0  0.79813  0.19300  0.86058  1.0000
  H   H2437     1.0  0.81967  0.16927  0.85856  1.0000
  H   H2438     1.0  0.82758  0.15605  0.87674  1.0000
  H   H2439     1.0  0.81447  0.16128  0.90475  1.0000
  H   H2440     1.0  0.80789  0.18385  0.90119  1.0000
  H   H2441     1.0  0.78393  0.15785  0.91693  1.0000
  H   H2442     1.0  0.77683  0.18100  0.91284  1.0000
  H   H2443     1.0  0.81226  0.13541  0.87780  1.0000
  H   H2444     1.0  0.80854  0.13850  0.89938  1.0000
  H   H2445     1.0  0.83524  0.17956  0.88388  1.0000
  H   H2446     1.0  0.82480  0.19543  0.86813  1.0000
  H   H2447     1.0  0.77002  0.18490  0.86960  1.0000
  H   H2448     1.0  0.76643  0.19013  0.89027  1.0000
  H   H2449     1.0  0.75166  0.21339  0.87027  1.0000
  H   H2450     1.0  0.76778  0.22058  0.87632  1.0000
  H   H2451     1.0  0.77182  0.21526  0.85535  1.0000
  H   H2452     1.0  0.77956  0.16884  0.94299  1.0000
  H   H2453     1.0  0.80214  0.16030  0.93590  1.0000
  H   H2454     1.0  0.79404  0.18332  0.93220  1.0000
  H   H2455     1.0  0.78147  0.12981  0.88510  1.0000
  H   H2456     1.0  0.79657  0.11435  0.89684  1.0000
  H   H2457     1.0  0.78071  0.13027  0.90716  1.0000
  C   C1392     1.0  0.89025  0.13964  0.90225  1.0000
  H   H2458     1.0  0.75665  0.15743  0.75671  1.0000
  H   H2459     1.0  0.76175  0.16286  0.77440  1.0000
  H   H2460     1.0  0.95152  0.12869  0.79723  1.0000
  H   H2461     1.0  0.72676  0.99869  0.91170  1.0000
  H   H2462     1.0  0.85685  0.18756  0.85861  1.0000
  H   H2463     1.0  0.70711  0.14057  0.76226  1.0000
  H   H2464     1.0  0.73139  0.16817  0.78890  1.0000
  H   H2465     1.0  0.84545  0.18373  0.84458  1.0000
  H   H2466     1.0  0.93967  0.14280  0.91545  1.0000
  C   C1393     1.0  0.97755  0.13993  0.81687  1.0000
  N   N75       1.0  0.70396  0.15872  0.77832  1.0000
  H   H2467     1.0  0.72570  0.09839  0.78885  1.0000
  H   H2468     1.0  0.70318  0.18050  0.74417  1.0000
  C   C1394     1.0  0.70037  0.15967  0.79710  1.0000
  H   H2469     1.0  0.69162  0.13746  0.78154  1.0000
  C   C1395     1.0  0.69180  0.17463  0.75076  1.0000
  H   H2470     1.0  0.69340  0.16267  0.74616  1.0000
  H   H2471     1.0  0.66436  0.18173  0.75029  1.0000
  C   C1396     1.0  0.84827  0.17955  0.85766  1.0000
  C   C1397     1.0  0.71825  0.12622  0.78373  1.0000
  H   H2472     1.0  0.68212  0.16887  0.82811  1.0000
  H   H2473     1.0  0.72287  0.00361  0.86980  1.0000
  H   H2474     1.0  0.89956  0.13376  0.89190  1.0000
  H   H2475     1.0  0.87053  0.11530  0.95327  1.0000
  H   H2476     1.0  0.79622  0.11925  0.85931  1.0000
  H   H2477     1.0  0.51672  0.21275  0.73113  1.0000
  C   C1398     1.0  0.91080  0.12790  0.92200  1.0000
  H   H2478     1.0  0.70026  0.17293  0.79810  1.0000
  H   H2479     1.0  0.80364  0.09787  0.87099  1.0000
  C   C1399     1.0  0.98174  0.09206  0.84061  1.0000
  H   H2480     1.0  0.68119  0.18895  0.94189  1.0000
  H   H2481     1.0  0.61854  0.21704  0.66970  1.0000
  H   H2482     1.0  0.71809  0.17876  0.76429  1.0000
  C   C1400     1.0  0.76141  0.01027  0.95197  1.0000
  H   H2483     1.0  0.93846  0.12760  0.93584  1.0000
  H   H2484     1.0  0.68832  0.18693  0.91154  1.0000
  H   H2485     1.0  0.87332  0.08184  0.97285  1.0000
  C   C1401     1.0  0.93264  0.14050  0.92910  1.0000
  H   H2486     1.0  0.77259  0.03785  0.95098  1.0000
  C   C1402     1.0  0.67613  0.18724  0.74491  1.0000
  H   H2487     1.0  0.80376  0.07229  0.90443  1.0000
  C   C1403     1.0  0.89032  0.11124  0.92084  1.0000
  C   C1404     1.0  0.87735  0.12578  0.95191  1.0000
  H   H2488     1.0  0.79712  0.16138  0.77536  1.0000
  N   N76       1.0  0.97494  0.12174  0.82021  1.0000
  C   C1405     1.0  0.70448  0.14091  0.77615  1.0000
  C   C1406     1.0  0.90237  0.10163  0.90676  1.0000
  Fe  Fe158     1.0  0.77675  0.99378  0.88231  1.0000
  C   C1407     1.0  0.90200  0.08247  0.91151  1.0000
  H   H2489     1.0  0.98025  0.10217  0.80510  1.0000
  H   H2490     1.0  0.99136  0.13990  0.81578  1.0000
  C   C1408     1.0  0.72140  0.99745  0.85992  1.0000
  N   N77       1.0  0.89278  0.12913  0.91975  1.0000
  C   C1409     1.0  0.73522  0.16056  0.77866  1.0000
  H   H2491     1.0  0.67460  0.15284  0.96699  1.0000
  H   H2492     1.0  0.66876  0.15306  0.83485  1.0000
  H   H2493     1.0  0.97437  0.11673  0.84745  1.0000
  C   C1410     1.0  0.68141  0.15583  0.82718  1.0000
  N   N78       1.0  0.82041  0.10896  0.80998  1.0000
  C   C1411     1.0  0.81214  0.11885  0.79499  1.0000
  C   C1412     1.0  0.82510  0.09011  0.80926  1.0000
  C   C1413     1.0  0.80780  0.11211  0.82642  1.0000
  C   C1414     1.0  0.83661  0.11479  0.80920  1.0000
  C   C1415     1.0  0.85022  0.11474  0.79208  1.0000
  C   C1416     1.0  0.80792  0.13875  0.79263  1.0000
  C   C1417     1.0  0.81344  0.10182  0.84338  1.0000
  C   C1418     1.0  0.80977  0.08092  0.81320  1.0000
  C   C1419     1.0  0.81588  0.06268  0.80978  1.0000
  C   C1420     1.0  0.86594  0.12087  0.79302  1.0000
  C   C1421     1.0  0.80081  0.14723  0.77635  1.0000
  C   C1422     1.0  0.79924  0.10535  0.85902  1.0000
  H   H2494     1.0  0.79968  0.11516  0.79633  1.0000
  H   H2495     1.0  0.82019  0.11536  0.78271  1.0000
  H   H2496     1.0  0.83271  0.08835  0.79625  1.0000
  H   H2497     1.0  0.83380  0.08278  0.81823  1.0000
  H   H2498     1.0  0.79508  0.10965  0.82655  1.0000
  H   H2499     1.0  0.80527  0.12588  0.82713  1.0000
  H   H2500     1.0  0.83348  0.12790  0.81191  1.0000
  H   H2501     1.0  0.84329  0.10646  0.81953  1.0000
  H   H2502     1.0  0.84493  0.12347  0.78109  1.0000
  H   H2503     1.0  0.85476  0.10160  0.78937  1.0000
  H   H2504     1.0  0.79794  0.14286  0.80365  1.0000
  H   H2505     1.0  0.81948  0.14389  0.79147  1.0000
  H   H2506     1.0  0.82497  0.10559  0.84468  1.0000
  H   H2507     1.0  0.81648  0.08781  0.84395  1.0000
  H   H2508     1.0  0.80305  0.07992  0.82690  1.0000
  H   H2509     1.0  0.80028  0.08787  0.80509  1.0000
  H   H2510     1.0  0.80471  0.05629  0.81323  1.0000
  H   H2511     1.0  0.82182  0.06297  0.79594  1.0000
  H   H2512     1.0  0.82538  0.05490  0.81767  1.0000
  H   H2513     1.0  0.87209  0.11224  0.80356  1.0000
  H   H2514     1.0  0.87555  0.12077  0.78067  1.0000
  H   H2515     1.0  0.86216  0.13420  0.79535  1.0000
  H   H2516     1.0  0.81069  0.14448  0.76472  1.0000
  H   H2517     1.0  0.78919  0.14244  0.77683  1.0000
  H   H2518     1.0  0.78742  0.10144  0.85860  1.0000
  Fe  Fe159     1.0  0.74460  0.08828  0.97367  1.0000
  H   H2519     1.0  0.86799  0.06192  0.97278  1.0000
  C   C1423     1.0  0.98426  0.11428  0.80450  1.0000
  H   H2520     1.0  0.90624  0.15884  0.89645  1.0000
  H   H2521     1.0  0.64427  0.21476  0.68201  1.0000
  H   H2522     1.0  0.89809  0.10694  0.89436  1.0000
  H   H2523     1.0  0.78120  0.06018  0.92694  1.0000
  C   C1424     1.0  0.68413  0.22045  0.77421  1.0000
  H   H2524     1.0  0.98050  0.12317  0.79274  1.0000
  C   C1425     1.0  0.71158  0.15507  0.97734  1.0000
  H   H2525     1.0  0.93426  0.15036  0.93525  1.0000
  C   C1426     1.0  0.98188  0.11156  0.83591  1.0000
  H   H2526     1.0  0.90830  0.15504  0.92366  1.0000
  H   H2527     1.0  0.62423  0.21622  0.69772  1.0000
  H   H2528     1.0  0.63395  0.23479  0.68903  1.0000
  S   S320      1.0  0.77544  0.11317  0.98074  1.0000
  C   C1427     1.0  0.80277  0.14780  0.97968  1.0000
  H   H2529     1.0  0.53538  0.23175  0.71461  1.0000
  H   H2530     1.0  0.95321  0.15122  0.83311  1.0000
  H   H2531     1.0  0.71055  0.12864  0.96214  1.0000
  H   H2532     1.0  0.80746  0.12176  0.97654  1.0000
  H   H2533     1.0  0.53703  0.22770  0.74351  1.0000
  H   H2534     1.0  0.67382  0.21531  0.80164  1.0000
  H   H2535     1.0  0.67170  0.22614  0.77086  1.0000
  H   H2536     1.0  0.69859  0.13928  0.94559  1.0000
  H   H2537     1.0  0.70575  0.16890  0.91509  1.0000
  H   H2538     1.0  0.78904  0.08847  0.91539  1.0000
  H   H2539     1.0  0.67531  0.12311  0.96112  1.0000
  H   H2540     1.0  0.70703  0.18991  0.91711  1.0000
  C   C1428     1.0  0.88715  0.16822  0.88105  1.0000
  C   C1429     1.0  0.78388  0.02864  0.94536  1.0000
  C   C1430     1.0  0.72091  0.16831  0.97953  1.0000
  C   C1431     1.0  0.69826  0.18091  0.91941  1.0000
  C   C1432     1.0  0.81433  0.12996  0.97987  1.0000
  C   C1433     1.0  0.68750  0.14778  0.97033  1.0000
  H   H2541     1.0  0.50474  0.18767  0.75215  1.0000
  C   C1434     1.0  0.79737  0.03640  0.96542  1.0000
  C   C1435     1.0  0.80591  0.04632  0.93439  1.0000
  C   C1436     1.0  0.79187  0.06279  0.93113  1.0000
  N   N79       1.0  0.80030  0.03150  0.94825  1.0000
  H   H2542     1.0  0.78653  0.06808  0.94294  1.0000
  H   H2543     1.0  0.80059  0.15370  0.96649  1.0000
  C   C1437     1.0  0.81449  0.01579  0.94643  1.0000
  H   H2544     1.0  0.68133  0.16762  0.93995  1.0000
  H   H2545     1.0  0.81651  0.05046  0.93733  1.0000
  H   H2546     1.0  0.96322  0.17584  0.83614  1.0000
  C   C1438     1.0  0.89248  0.15851  0.89801  1.0000
  H   H2547     1.0  0.88895  0.18167  0.87822  1.0000
  C   C1439     1.0  0.49735  0.19653  0.76095  1.0000
  H   H2548     1.0  0.86594  0.13900  0.92999  1.0000
  H   H2549     1.0  0.81126  0.00434  0.95617  1.0000
  H   H2550     1.0  0.85391  0.14239  0.96296  1.0000
  H   H2551     1.0  0.85878  0.08163  0.95974  1.0000
  H   H2552     1.0  0.51908  0.20650  0.76078  1.0000
  H   H2553     1.0  0.68935  0.18789  0.97387  1.0000
  H   H2554     1.0  0.96538  0.17575  0.81373  1.0000
  H   H2555     1.0  0.78862  0.00168  0.94332  1.0000
  C   C1440     1.0  0.50754  0.22188  0.73893  1.0000
  H   H2556     1.0  0.84177  0.98973  0.95618  1.0000
  H   H2557     1.0  0.99084  0.06902  0.85852  1.0000
  C   C1441     1.0  0.68838  0.11878  0.96408  1.0000
  H   H2558     1.0  0.73246  0.01622  0.83880  1.0000
  H   H2559     1.0  0.84669  0.99737  0.93302  1.0000
  H   H2560     1.0  0.73440  0.99583  0.83333  1.0000
  H   H2561     1.0  0.78215  0.00444  0.96514  1.0000
  S   S321      1.0  0.72343  0.07717  0.97091  1.0000
  H   H2562     1.0  0.83227  0.02007  0.96015  1.0000
  H   H2563     1.0  0.50611  0.23036  0.70641  1.0000
  C   C1442     1.0  0.63166  0.22330  0.68592  1.0000
  C   C1443     1.0  0.68378  0.17622  0.97669  1.0000
  H   H2564     1.0  0.70041  0.06101  0.96380  1.0000
  H   H2565     1.0  0.74799  0.99796  0.84646  1.0000
  H   H2566     1.0  0.87369  0.14694  0.96482  1.0000
  H   H2567     1.0  0.82608  0.13128  0.96959  1.0000
  C   C1444     1.0  0.86710  0.13655  0.96530  1.0000
  H   H2568     1.0  0.61133  0.23682  0.71907  1.0000
  H   H2569     1.0  0.85852  0.00189  0.94638  1.0000
  H   H2570     1.0  0.49687  0.18926  0.77444  1.0000
  H   H2571     1.0  0.98777  0.08576  0.82947  1.0000
  H   H2572     1.0  0.53456  0.22617  0.68666  1.0000
  C   C1445     1.0  0.86285  0.07590  0.97223  1.0000
  C   C1446     1.0  0.73488  0.00207  0.84363  1.0000
  C   C1447     1.0  0.79200  0.02291  0.98170  1.0000
  H   H2573     1.0  0.83449  0.10191  0.97425  1.0000
  H   H2574     1.0  0.49849  0.21989  0.76722  1.0000
  H   H2575     1.0  0.98416  0.16891  0.82338  1.0000
  H   H2576     1.0  0.74499  0.14989  0.98250  1.0000
  H   H2577     1.0  0.70852  0.00316  0.85679  1.0000
  H   H2578     1.0  0.75912  0.99695  0.95633  1.0000
  Fe  Fe160     1.0  0.98954  0.14005  0.87704  1.0000
  H   H2579     1.0  0.68947  0.99171  0.87904  1.0000
  H   H2580     1.0  0.49490  0.22377  0.73536  1.0000
  H   H2581     1.0  0.72180  0.23178  0.80004  1.0000
  H   H2582     1.0  0.77854  0.02184  0.98278  1.0000
  H   H2583     1.0  0.51971  0.23553  0.75944  1.0000
  H   H2584     1.0  0.57575  0.37845  0.29548  1.0000
  S   S322      1.0  0.61219  0.39321  0.29385  1.0000
  H   H2585     1.0  0.59452  0.27683  0.24790  1.0000
  H   H2586     1.0  0.60362  0.32958  0.26777  1.0000
  C   C1448     1.0  0.59926  0.33261  0.29476  1.0000
  C   C1449     1.0  0.56954  0.32814  0.29798  1.0000
  H   H2587     1.0  0.65283  0.38232  0.31053  1.0000
  S   S323      1.0  0.66091  0.28595  0.28895  1.0000
  S   S324      1.0  0.61542  0.27945  0.29051  1.0000
  C   C1450     1.0  0.55907  0.31122  0.28247  1.0000
  H   H2588     1.0  0.62365  0.27773  0.24977  1.0000
  C   C1451     1.0  0.62648  0.37324  0.29709  1.0000
  H   H2589     1.0  0.61008  0.34799  0.26979  1.0000
  C   C1452     1.0  0.62808  0.32442  0.27475  1.0000
  H   H2590     1.0  0.58723  0.39709  0.26887  1.0000
  C   C1453     1.0  0.60584  0.26812  0.24166  1.0000
  H   H2591     1.0  0.55722  0.43580  0.28562  1.0000
  C   C1454     1.0  0.65027  0.34188  0.30182  1.0000
  N   N80       1.0  0.58025  0.34066  0.29770  1.0000
  H   H2592     1.0  0.56243  0.25758  0.30606  1.0000
  H   H2593     1.0  0.59036  0.38084  0.25666  1.0000
  H   H2594     1.0  0.58552  0.31171  0.28020  1.0000
  H   H2595     1.0  0.56155  0.36120  0.28629  1.0000
  H   H2596     1.0  0.62842  0.31054  0.28008  1.0000
  H   H2597     1.0  0.55097  0.41526  0.29473  1.0000
  C   C1455     1.0  0.64811  0.24383  0.26954  1.0000
  H   H2598     1.0  0.57297  0.33121  0.26971  1.0000
  H   H2599     1.0  0.67403  0.47116  0.31450  1.0000
  C   C1456     1.0  0.57583  0.35674  0.28442  1.0000
  H   H2600     1.0  0.63477  0.32926  0.28205  1.0000
  H   H2601     1.0  0.57160  0.31659  0.30825  1.0000
  H   H2602     1.0  0.59685  0.36814  0.28590  1.0000
  C   C1457     1.0  0.62074  0.26505  0.25069  1.0000
  C   C1458     1.0  0.64219  0.37069  0.28533  1.0000
  C   C1459     1.0  0.65422  0.35524  0.28795  1.0000
  C   C1460     1.0  0.58600  0.26695  0.29952  1.0000
  H   H2603     1.0  0.54632  0.32013  0.28270  1.0000
  C   C1461     1.0  0.50750  0.47675  0.30582  1.0000
  H   H2604     1.0  0.64533  0.38093  0.27451  1.0000
  H   H2605     1.0  0.66666  0.35366  0.27921  1.0000
  C   C1462     1.0  0.58229  0.38602  0.26806  1.0000
  C   C1463     1.0  0.60949  0.33437  0.27578  1.0000
  C   C1464     1.0  0.65948  0.26544  0.24557  1.0000
  H   H2606     1.0  0.49871  0.47817  0.28253  1.0000
  H   H2607     1.0  0.67348  0.29112  0.24953  1.0000
  H   H2608     1.0  0.52002  0.42990  0.29810  1.0000
  H   H2609     1.0  0.52130  0.47444  0.29927  1.0000
  H   H2610     1.0  0.68586  0.28431  0.22981  1.0000
  H   H2611     1.0  0.52611  0.45014  0.28838  1.0000
  C   C1465     1.0  0.62243  0.35988  0.31105  1.0000
  H   H2612     1.0  0.63516  0.32600  0.26111  1.0000
  C   C1466     1.0  0.68324  0.28067  0.24410  1.0000
  H   H2613     1.0  0.60604  0.33825  0.30133  1.0000
  Fe  Fe161     1.0  0.67419  0.26180  0.30425  1.0000
  H   H2614     1.0  0.58002  0.35412  0.27122  1.0000
  H   H2615     1.0  0.54585  0.42757  0.27456  1.0000
  H   H2616     1.0  0.56874  0.39067  0.26644  1.0000
  H   H2617     1.0  0.49862  0.45368  0.30712  1.0000
  C   C1467     1.0  0.58325  0.37226  0.28451  1.0000
  C   C1468     1.0  0.56969  0.26498  0.30950  1.0000
  H   H2618     1.0  0.66066  0.27116  0.23157  1.0000
  H   H2619     1.0  0.65025  0.27541  0.25222  1.0000
  C   C1469     1.0  0.57295  0.32096  0.28148  1.0000
  C   C1470     1.0  0.49674  0.48608  0.29226  1.0000
  Fe  Fe162     1.0  0.63629  0.27794  0.30418  1.0000
  H   H2620     1.0  0.69535  0.27924  0.24845  1.0000
  H   H2621     1.0  0.67578  0.26010  0.26449  1.0000
  H   H2622     1.0  0.60206  0.25580  0.24271  1.0000
  H   H2623     1.0  0.59120  0.26113  0.28837  1.0000
  C   C1471     1.0  0.67702  0.26369  0.25033  1.0000
  Fe  Fe163     1.0  0.65897  0.29799  0.31106  1.0000
  H   H2624     1.0  0.56233  0.30521  0.27108  1.0000
  H   H2625     1.0  0.54378  0.38338  0.30469  1.0000
  H   H2626     1.0  0.60120  0.31866  0.30088  1.0000
  S   S325      1.0  0.69922  0.24723  0.29055  1.0000
  C   C1472     1.0  0.54702  0.42848  0.28744  1.0000
  H   H2627     1.0  0.55815  0.30091  0.29425  1.0000
  H   H2628     1.0  0.54070  0.44815  0.31168  1.0000
  H   H2629     1.0  0.67956  0.24983  0.21970  1.0000
  C   C1473     1.0  0.52974  0.43750  0.29686  1.0000
  H   H2630     1.0  0.61609  0.25956  0.26446  1.0000
  C   C1474     1.0  0.63681  0.25274  0.24255  1.0000
  C   C1475     1.0  0.63420  0.34403  0.31320  1.0000
  H   H2631     1.0  0.60950  0.27424  0.22786  1.0000
  C   C1476     1.0  0.59555  0.27630  0.30400  1.0000
  H   H2632     1.0  0.55555  0.33406  0.30122  1.0000
  H   H2633     1.0  0.50568  0.48553  0.31469  1.0000
  S   S326      1.0  0.66645  0.32356  0.30576  1.0000
  H   H2634     1.0  0.63988  0.25854  0.22856  1.0000
  H   H2635     1.0  0.68725  0.25388  0.24444  1.0000
  N   N81       1.0  0.65250  0.24918  0.25018  1.0000
  H   H2636     1.0  0.64005  0.25480  0.27536  1.0000
  S   S327      1.0  0.52350  0.35738  0.31442  1.0000
  H   H2637     1.0  0.65992  0.24043  0.27484  1.0000
  H   H2638     1.0  0.66306  0.24123  0.21606  1.0000
  H   H2639     1.0  0.63294  0.24054  0.24319  1.0000
  C   C1477     1.0  0.57471  0.34570  0.31507  1.0000
  C   C1478     1.0  0.53104  0.43988  0.31462  1.0000
  H   H2640     1.0  0.58198  0.35518  0.31559  1.0000
  C   C1479     1.0  0.67327  0.23860  0.22349  1.0000
  C   C1480     1.0  0.50184  0.45971  0.31616  1.0000
  Fe  Fe164     1.0  0.65229  0.30793  0.58958  1.0000
  S   S328      1.0  0.62653  0.31305  0.60718  1.0000
  S   S329      1.0  0.67649  0.29595  0.59971  1.0000
  Fe  Fe165     1.0  0.63786  0.32162  0.55709  1.0000
  S   S330      1.0  0.61093  0.32815  0.57191  1.0000
  S   S331      1.0  0.64091  0.32790  0.52823  1.0000
  Fe  Fe166     1.0  0.62229  0.33807  0.58837  1.0000
  S   S332      1.0  0.60737  0.36145  0.59882  1.0000
  Fe  Fe167     1.0  0.61744  0.30268  0.58930  1.0000
  S   S333      1.0  0.59919  0.28470  0.60055  1.0000
  S   S334      1.0  0.64895  0.33402  0.57199  1.0000
  S   S335      1.0  0.64364  0.29510  0.57321  1.0000
  Fe  Fe168     1.0  0.58283  0.29445  0.44365  1.0000
  S   S336      1.0  0.59435  0.31524  0.42409  1.0000
  S   S337      1.0  0.56781  0.27807  0.43785  1.0000
  Fe  Fe169     1.0  0.59819  0.29855  0.47214  1.0000
  S   S338      1.0  0.61119  0.31939  0.45469  1.0000
  S   S339      1.0  0.60154  0.28810  0.49966  1.0000
  Fe  Fe170     1.0  0.58636  0.32941  0.44575  1.0000
  S   S340      1.0  0.57464  0.35751  0.44158  1.0000
  Fe  Fe171     1.0  0.61806  0.30316  0.43490  1.0000
  S   S341      1.0  0.64430  0.29925  0.41748  1.0000
  S   S342      1.0  0.57259  0.30976  0.46454  1.0000
  S   S343      1.0  0.60715  0.28127  0.45305  1.0000
  H   H2641     1.0  0.61725  0.24240  0.60806  1.0000
  Fe  Fe172     1.0  0.60340  0.40302  0.35355  1.0000
  H   H2642     1.0  0.55241  0.40280  0.64617  1.0000
  S   S344      1.0  0.62007  0.39095  0.37286  1.0000
  Fe  Fe173     1.0  0.56836  0.40688  0.34609  1.0000
  S   S345      1.0  0.54275  0.39959  0.35828  1.0000
  H   H2643     1.0  0.58798  0.41578  0.41894  1.0000
  Fe  Fe174     1.0  0.58756  0.43630  0.33225  1.0000
  C   C1481     1.0  0.55735  0.35602  0.39944  1.0000
  H   H2644     1.0  0.51655  0.39108  0.46306  1.0000
  S   S346      1.0  0.57860  0.42186  0.35883  1.0000
  H   H2645     1.0  0.59776  0.28794  0.55851  1.0000
  C   C1482     1.0  0.61058  0.46130  0.34282  1.0000
  H   H2646     1.0  0.58010  0.28566  0.57651  1.0000
  H   H2647     1.0  0.59499  0.30949  0.36746  1.0000
  H   H2648     1.0  0.55329  0.39824  0.32221  1.0000
  C   C1483     1.0  0.66022  0.35591  0.33878  1.0000
  Fe  Fe175     1.0  0.50998  0.31581  0.36923  1.0000
  S   S347      1.0  0.51213  0.31939  0.39469  1.0000
  H   H2649     1.0  0.67028  0.38556  0.31815  1.0000
  H   H2650     1.0  0.61724  0.26448  0.39684  1.0000
  H   H2651     1.0  0.59145  0.34393  0.53923  1.0000
  H   H2652     1.0  0.51371  0.35814  0.35080  1.0000
  H   H2653     1.0  0.64976  0.25524  0.59001  1.0000
  H   H2654     1.0  0.57884  0.24356  0.36013  1.0000
  H   H2655     1.0  0.58180  0.35979  0.38250  1.0000
  C   C1484     1.0  0.59963  0.41161  0.42459  1.0000
  H   H2656     1.0  0.52934  0.31120  0.60301  1.0000
  H   H2657     1.0  0.54521  0.25198  0.40543  1.0000
  H   H2658     1.0  0.63405  0.28409  0.47297  1.0000
  N   N82       1.0  0.52613  0.36070  0.41792  1.0000
  H   H2659     1.0  0.52312  0.43759  0.36096  1.0000
  H   H2660     1.0  0.65400  0.29033  0.49370  1.0000
  H   H2661     1.0  0.68763  0.28738  0.50966  1.0000
  C   C1485     1.0  0.53754  0.38785  0.34606  1.0000
  C   C1486     1.0  0.52628  0.37660  0.35405  1.0000
  C   C1487     1.0  0.52193  0.36722  0.34439  1.0000
  H   H2662     1.0  0.67541  0.27799  0.48985  1.0000
  H   H2663     1.0  0.58477  0.41626  0.44979  1.0000
  H   H2664     1.0  0.52106  0.37498  0.36774  1.0000
  S   S348      1.0  0.52952  0.32639  0.63691  1.0000
  H   H2665     1.0  0.56533  0.37885  0.38219  1.0000
  H   H2666     1.0  0.65295  0.38004  0.34839  1.0000
  H   H2667     1.0  0.56152  0.35829  0.41024  1.0000
  H   H2668     1.0  0.61020  0.36170  0.32003  1.0000
  C   C1488     1.0  0.67639  0.29831  0.50929  1.0000
  H   H2669     1.0  0.58450  0.28489  0.38839  1.0000
  C   C1489     1.0  0.55375  0.28841  0.42377  1.0000
  C   C1490     1.0  0.53895  0.28209  0.42567  1.0000
  C   C1491     1.0  0.52665  0.29096  0.41574  1.0000
  C   C1492     1.0  0.52945  0.30576  0.40332  1.0000
  C   C1493     1.0  0.54490  0.31134  0.40047  1.0000
  C   C1494     1.0  0.55690  0.30287  0.41093  1.0000
  H   H2670     1.0  0.53651  0.27087  0.43553  1.0000
  H   H2671     1.0  0.51461  0.28678  0.41822  1.0000
  H   H2672     1.0  0.54705  0.32283  0.39092  1.0000
  H   H2673     1.0  0.56847  0.30761  0.40919  1.0000
  C   C1495     1.0  0.58755  0.36745  0.42315  1.0000
  C   C1496     1.0  0.60489  0.35980  0.41808  1.0000
  C   C1497     1.0  0.61500  0.36741  0.40289  1.0000
  C   C1498     1.0  0.60760  0.38222  0.39237  1.0000
  C   C1499     1.0  0.59031  0.38993  0.39750  1.0000
  C   C1500     1.0  0.58036  0.38273  0.41304  1.0000
  H   H2674     1.0  0.61052  0.34800  0.42583  1.0000
  H   H2675     1.0  0.62839  0.36153  0.39906  1.0000
  H   H2676     1.0  0.58458  0.40152  0.38966  1.0000
  H   H2677     1.0  0.56699  0.38869  0.41695  1.0000
  C   C1501     1.0  0.64340  0.28727  0.40297  1.0000
  C   C1502     1.0  0.65666  0.28529  0.38843  1.0000
  C   C1503     1.0  0.65533  0.27639  0.37648  1.0000
  C   C1504     1.0  0.64112  0.26875  0.37957  1.0000
  C   C1505     1.0  0.62818  0.27038  0.39433  1.0000
  C   C1506     1.0  0.62912  0.27990  0.40577  1.0000
  H   H2678     1.0  0.66789  0.29068  0.38638  1.0000
  H   H2679     1.0  0.66548  0.27498  0.36519  1.0000
  N   N83       1.0  0.67878  0.33008  0.63710  1.0000
  H   H2680     1.0  0.61880  0.28132  0.41688  1.0000
  C   C1507     1.0  0.57936  0.29604  0.61012  1.0000
  C   C1508     1.0  0.56896  0.28765  0.62449  1.0000
  C   C1509     1.0  0.55366  0.29699  0.63282  1.0000
  C   C1510     1.0  0.54837  0.31456  0.62637  1.0000
  C   C1511     1.0  0.55836  0.32275  0.61157  1.0000
  C   C1512     1.0  0.57397  0.31357  0.60364  1.0000
  H   H2681     1.0  0.57285  0.27405  0.62947  1.0000
  H   H2682     1.0  0.70210  0.41434  0.60110  1.0000
  H   H2683     1.0  0.55419  0.33624  0.60642  1.0000
  H   H2684     1.0  0.58159  0.32005  0.59233  1.0000
  C   C1513     1.0  0.61850  0.36740  0.61112  1.0000
  C   C1514     1.0  0.60968  0.37146  0.62702  1.0000
  H   H2685     1.0  0.51157  0.31447  0.46341  1.0000
  C   C1515     1.0  0.63500  0.37890  0.63059  1.0000
  C   C1516     1.0  0.64393  0.37486  0.61462  1.0000
  C   C1517     1.0  0.63575  0.36887  0.60497  1.0000
  H   H2686     1.0  0.51168  0.41301  0.32306  1.0000
  C   C1518     1.0  0.66026  0.47115  0.32062  1.0000
  H   H2687     1.0  0.65708  0.37651  0.60960  1.0000
  H   H2688     1.0  0.64258  0.36588  0.59258  1.0000
  C   C1519     1.0  0.67415  0.28046  0.61900  1.0000
  H   H2689     1.0  0.61119  0.29019  0.36671  1.0000
  H   H2690     1.0  0.56467  0.36249  0.37141  1.0000
  C   C1520     1.0  0.58668  0.28143  0.56435  1.0000
  H   H2691     1.0  0.59652  0.37008  0.63187  1.0000
  C   C1521     1.0  0.65996  0.28290  0.63264  1.0000
  H   H2692     1.0  0.67180  0.45394  0.61474  1.0000
  H   H2693     1.0  0.65974  0.32259  0.34179  1.0000
  H   H2694     1.0  0.66170  0.26385  0.60022  1.0000
  H   H2695     1.0  0.64980  0.29417  0.63118  1.0000
  C   C1522     1.0  0.62934  0.31705  0.52082  1.0000
  C   C1523     1.0  0.62653  0.30067  0.52961  1.0000
  C   C1524     1.0  0.61812  0.29182  0.52293  1.0000
  C   C1525     1.0  0.61207  0.29947  0.50772  1.0000
  C   C1526     1.0  0.61437  0.31607  0.49930  1.0000
  C   C1527     1.0  0.62329  0.32470  0.50562  1.0000
  H   H2696     1.0  0.63122  0.29466  0.54132  1.0000
  H   H2697     1.0  0.61640  0.27897  0.52953  1.0000
  H   H2698     1.0  0.60917  0.32239  0.48799  1.0000
  H   H2699     1.0  0.62527  0.33744  0.49889  1.0000
  H   H2700     1.0  0.60795  0.40031  0.41951  1.0000
  H   H2701     1.0  0.53453  0.35552  0.39198  1.0000
  S   S349      1.0  0.63924  0.25679  0.36550  1.0000
  C   C1528     1.0  0.59364  0.40557  0.44399  1.0000
  H   H2702     1.0  0.56692  0.33957  0.52899  1.0000
  N   N84       1.0  0.61684  0.43280  0.40171  1.0000
  C   C1529     1.0  0.63162  0.41897  0.39564  1.0000
  C   C1530     1.0  0.60946  0.42647  0.42053  1.0000
  C   C1531     1.0  0.60352  0.43645  0.39094  1.0000
  C   C1532     1.0  0.62277  0.44922  0.39984  1.0000
  C   C1533     1.0  0.63820  0.44747  0.40817  1.0000
  C   C1534     1.0  0.64207  0.42371  0.37698  1.0000
  C   C1535     1.0  0.69243  0.37024  0.64260  1.0000
  C   C1536     1.0  0.65767  0.40937  0.37301  1.0000
  H   H2703     1.0  0.62685  0.40736  0.39615  1.0000
  H   H2704     1.0  0.64073  0.41447  0.40456  1.0000
  H   H2705     1.0  0.61993  0.42178  0.42792  1.0000
  H   H2706     1.0  0.60067  0.43719  0.42640  1.0000
  H   H2707     1.0  0.59986  0.42436  0.39082  1.0000
  H   H2708     1.0  0.60900  0.44141  0.37723  1.0000
  H   H2709     1.0  0.62606  0.45555  0.38603  1.0000
  H   H2710     1.0  0.61208  0.45876  0.40572  1.0000
  H   H2711     1.0  0.64981  0.43871  0.40250  1.0000
  H   H2712     1.0  0.63493  0.44246  0.42227  1.0000
  H   H2713     1.0  0.63398  0.42558  0.36748  1.0000
  H   H2714     1.0  0.64697  0.43560  0.37490  1.0000
  C   C1537     1.0  0.53049  0.44583  0.35014  1.0000
  H   H2715     1.0  0.54191  0.43752  0.34364  1.0000
  H   H2716     1.0  0.62556  0.45147  0.62489  1.0000
  H   H2717     1.0  0.66676  0.40762  0.38152  1.0000
  H   H2718     1.0  0.65356  0.39706  0.37483  1.0000
  H   H2719     1.0  0.66450  0.41279  0.35940  1.0000
  N   N85       1.0  0.55143  0.37464  0.63054  1.0000
  H   H2720     1.0  0.59325  0.33475  0.64165  1.0000
  C   C1538     1.0  0.56168  0.38882  0.62478  1.0000
  C   C1539     1.0  0.54294  0.37544  0.61602  1.0000
  C   C1540     1.0  0.54610  0.25286  0.39152  1.0000
  S   S350      1.0  0.58255  0.46510  0.32883  1.0000
  C   C1541     1.0  0.69241  0.30370  0.34438  1.0000
  C   C1542     1.0  0.55533  0.37450  0.59819  1.0000
  H   H2721     1.0  0.59468  0.25253  0.39859  1.0000
  H   H2722     1.0  0.54525  0.46518  0.34793  1.0000
  H   H2723     1.0  0.57543  0.32369  0.64919  1.0000
  H   H2724     1.0  0.71508  0.29170  0.43067  1.0000
  C   C1543     1.0  0.54559  0.37433  0.58476  1.0000
  C   C1544     1.0  0.67779  0.34741  0.64067  1.0000
  N   N86       1.0  0.57815  0.25570  0.38081  1.0000
  H   H2725     1.0  0.57441  0.38463  0.61645  1.0000
  H   H2726     1.0  0.55495  0.40016  0.61646  1.0000
  H   H2727     1.0  0.53290  0.38746  0.61438  1.0000
  H   H2728     1.0  0.53609  0.36461  0.61908  1.0000
  H   H2729     1.0  0.53253  0.31089  0.44938  1.0000
  H   H2730     1.0  0.57498  0.35635  0.62344  1.0000
  H   H2731     1.0  0.49608  0.40219  0.35322  1.0000
  C   C1545     1.0  0.61556  0.48332  0.35476  1.0000
  H   H2732     1.0  0.49888  0.36942  0.42840  1.0000
  H   H2733     1.0  0.59055  0.32413  0.32991  1.0000
  H   H2734     1.0  0.56558  0.36268  0.59897  1.0000
  H   H2735     1.0  0.56166  0.38574  0.59333  1.0000
  H   H2736     1.0  0.52260  0.34121  0.45347  1.0000
  C   C1546     1.0  0.57573  0.41015  0.63094  1.0000
  H   H2737     1.0  0.58352  0.25502  0.57546  1.0000
  C   C1547     1.0  0.56245  0.27309  0.32350  1.0000
  H   H2738     1.0  0.52432  0.27456  0.38994  1.0000
  H   H2739     1.0  0.57288  0.26147  0.40614  1.0000
  C   C1548     1.0  0.56479  0.39643  0.63890  1.0000
  H   H2740     1.0  0.67922  0.30892  0.51347  1.0000
  H   H2741     1.0  0.67413  0.35632  0.33579  1.0000
  H   H2742     1.0  0.57247  0.36077  0.54160  1.0000
  C   C1549     1.0  0.51892  0.45677  0.33734  1.0000
  H   H2743     1.0  0.53556  0.38626  0.58301  1.0000
  H   H2744     1.0  0.55475  0.37358  0.57221  1.0000
  H   H2745     1.0  0.53940  0.36299  0.58874  1.0000
  H   H2746     1.0  0.57210  0.29389  0.37174  1.0000
  C   C1550     1.0  0.63382  0.25485  0.62513  1.0000
  H   H2747     1.0  0.60270  0.26327  0.36981  1.0000
  H   H2748     1.0  0.55754  0.26766  0.36707  1.0000
  H   H2749     1.0  0.49444  0.43865  0.34712  1.0000
  C   C1551     1.0  0.57153  0.33860  0.34740  1.0000
  H   H2750     1.0  0.64765  0.46987  0.39142  1.0000
  H   H2751     1.0  0.56331  0.29439  0.50074  1.0000
  C   C1552     1.0  0.50788  0.36889  0.41578  1.0000
  C   C1553     1.0  0.57336  0.45086  0.38602  1.0000
  H   H2752     1.0  0.55554  0.27582  0.38573  1.0000
  H   H2753     1.0  0.56863  0.32184  0.33296  1.0000
  S   S351      1.0  0.50724  0.31318  0.32353  1.0000
  H   H2754     1.0  0.68922  0.29475  0.35688  1.0000
  C   C1554     1.0  0.64480  0.27310  0.47562  1.0000
  H   H2755     1.0  0.49238  0.42889  0.31973  1.0000
  H   H2756     1.0  0.57322  0.30700  0.52038  1.0000
  H   H2757     1.0  0.54214  0.36097  0.43494  1.0000
  C   C1555     1.0  0.59829  0.29673  0.36402  1.0000
  H   H2758     1.0  0.58262  0.28193  0.53969  1.0000
  C   C1556     1.0  0.55073  0.29525  0.52731  1.0000
  H   H2759     1.0  0.53829  0.38056  0.41987  1.0000
  H   H2760     1.0  0.60099  0.25731  0.55673  1.0000
  H   H2761     1.0  0.70399  0.35131  0.62701  1.0000
  C   C1557     1.0  0.57781  0.34696  0.54621  1.0000
  C   C1558     1.0  0.56716  0.33587  0.54293  1.0000
  C   C1559     1.0  0.64138  0.25729  0.47161  1.0000
  N   N87       1.0  0.66694  0.29315  0.46674  1.0000
  C   C1560     1.0  0.68484  0.29386  0.45605  1.0000
  C   C1561     1.0  0.66713  0.29069  0.48558  1.0000
  C   C1562     1.0  0.66222  0.27734  0.46455  1.0000
  C   C1563     1.0  0.65368  0.30879  0.46118  1.0000
  C   C1564     1.0  0.65953  0.32631  0.45477  1.0000
  C   C1565     1.0  0.68729  0.29337  0.43675  1.0000
  C   C1566     1.0  0.67288  0.30462  0.49107  1.0000
  C   C1567     1.0  0.64444  0.34117  0.45127  1.0000
  C   C1568     1.0  0.70351  0.29964  0.42581  1.0000
  H   H2762     1.0  0.69439  0.28286  0.46153  1.0000
  H   H2763     1.0  0.68897  0.30548  0.45657  1.0000
  H   H2764     1.0  0.66134  0.27864  0.45095  1.0000
  H   H2765     1.0  0.64881  0.30705  0.45042  1.0000
  H   H2766     1.0  0.64217  0.31020  0.47186  1.0000
  H   H2767     1.0  0.66925  0.32640  0.44250  1.0000
  H   H2768     1.0  0.66534  0.32911  0.46415  1.0000
  H   H2769     1.0  0.68861  0.27995  0.43540  1.0000
  H   H2770     1.0  0.67610  0.30140  0.43129  1.0000
  H   H2771     1.0  0.68480  0.30825  0.48254  1.0000
  H   H2772     1.0  0.66237  0.31624  0.49133  1.0000
  H   H2773     1.0  0.66495  0.29417  0.51858  1.0000
  H   H2774     1.0  0.63913  0.33968  0.44074  1.0000
  H   H2775     1.0  0.63409  0.34172  0.46308  1.0000
  H   H2776     1.0  0.64891  0.35354  0.44721  1.0000
  C   C1569     1.0  0.56300  0.35705  0.63364  1.0000
  H   H2777     1.0  0.70508  0.29856  0.41226  1.0000
  H   H2778     1.0  0.70245  0.31333  0.42600  1.0000
  C   C1570     1.0  0.69522  0.35197  0.63973  1.0000
  H   H2779     1.0  0.66125  0.35305  0.40134  1.0000
  H   H2780     1.0  0.56205  0.46119  0.38923  1.0000
  C   C1571     1.0  0.67999  0.42653  0.61810  1.0000
  C   C1572     1.0  0.57429  0.28571  0.55180  1.0000
  C   C1573     1.0  0.69024  0.32795  0.61977  1.0000
  C   C1574     1.0  0.50017  0.42142  0.32936  1.0000
  H   H2781     1.0  0.70171  0.34306  0.64988  1.0000
  H   H2782     1.0  0.65957  0.23845  0.62513  1.0000
  H   H2783     1.0  0.70749  0.42532  0.61469  1.0000
  C   C1575     1.0  0.68622  0.34247  0.60412  1.0000
  H   H2784     1.0  0.57106  0.32812  0.35901  1.0000
  H   H2785     1.0  0.56898  0.43847  0.38961  1.0000
  C   C1576     1.0  0.53693  0.45725  0.35805  1.0000
  H   H2786     1.0  0.50366  0.34319  0.44518  1.0000
  C   C1577     1.0  0.69854  0.33860  0.58743  1.0000
  C   C1578     1.0  0.59400  0.26212  0.56866  1.0000
  H   H2787     1.0  0.68947  0.31588  0.61658  1.0000
  H   H2788     1.0  0.70403  0.32636  0.62009  1.0000
  S   S352      1.0  0.64519  0.38595  0.64298  1.0000
  H   H2789     1.0  0.68026  0.41455  0.62806  1.0000
  H   H2790     1.0  0.66137  0.31636  0.63326  1.0000
  H   H2791     1.0  0.69058  0.32517  0.35546  1.0000
  H   H2792     1.0  0.55669  0.28153  0.53134  1.0000
  H   H2793     1.0  0.51331  0.31291  0.44153  1.0000
  H   H2794     1.0  0.62488  0.43335  0.60560  1.0000
  H   H2795     1.0  0.61474  0.44873  0.33962  1.0000
  H   H2796     1.0  0.67299  0.34372  0.60237  1.0000
  H   H2797     1.0  0.68755  0.35505  0.60563  1.0000
  C   C1579     1.0  0.59526  0.47197  0.33888  1.0000
  H   H2798     1.0  0.64485  0.46798  0.62651  1.0000
  C   C1580     1.0  0.57191  0.28260  0.32796  1.0000
  H   H2799     1.0  0.69837  0.43750  0.59623  1.0000
  H   H2800     1.0  0.64630  0.33490  0.39295  1.0000
  H   H2801     1.0  0.56530  0.27662  0.55685  1.0000
  H   H2802     1.0  0.54470  0.44907  0.36751  1.0000
  H   H2803     1.0  0.56081  0.34193  0.40001  1.0000
  H   H2804     1.0  0.57737  0.34479  0.56023  1.0000
  H   H2805     1.0  0.63183  0.47440  0.41053  1.0000
  H   H2806     1.0  0.69724  0.32637  0.58499  1.0000
  H   H2807     1.0  0.69537  0.34910  0.57643  1.0000
  H   H2808     1.0  0.71209  0.33762  0.58814  1.0000
  C   C1581     1.0  0.57517  0.31646  0.54787  1.0000
  H   H2809     1.0  0.62182  0.42140  0.62747  1.0000
  H   H2810     1.0  0.63112  0.34822  0.34783  1.0000
  C   C1582     1.0  0.61046  0.33208  0.37796  1.0000
  H   H2811     1.0  0.62999  0.35498  0.36690  1.0000
  S   S353      1.0  0.63313  0.29218  0.32498  1.0000
  H   H2812     1.0  0.60810  0.34059  0.38721  1.0000
  H   H2813     1.0  0.60293  0.33839  0.36778  1.0000
  H   H2814     1.0  0.60611  0.32001  0.38519  1.0000
  H   H2815     1.0  0.64956  0.39984  0.32115  1.0000
  C   C1583     1.0  0.52819  0.26116  0.38787  1.0000
  H   H2816     1.0  0.64240  0.41724  0.61290  1.0000
  H   H2817     1.0  0.68789  0.29491  0.63839  1.0000
  C   C1584     1.0  0.49968  0.35983  0.40651  1.0000
  H   H2818     1.0  0.65835  0.47045  0.33467  1.0000
  H   H2819     1.0  0.50962  0.38976  0.43609  1.0000
  H   H2820     1.0  0.67137  0.42629  0.60984  1.0000
  H   H2821     1.0  0.50786  0.35748  0.39399  1.0000
  H   H2822     1.0  0.68642  0.37974  0.63240  1.0000
  H   H2823     1.0  0.55841  0.34688  0.34824  1.0000
  H   H2824     1.0  0.67249  0.26576  0.46732  1.0000
  H   H2825     1.0  0.63549  0.46284  0.64875  1.0000
  H   H2826     1.0  0.63880  0.26447  0.62863  1.0000
  H   H2827     1.0  0.55386  0.33908  0.55049  1.0000
  C   C1585     1.0  0.67361  0.44301  0.62587  1.0000
  C   C1586     1.0  0.57694  0.33112  0.33109  1.0000
  N   N88       1.0  0.51455  0.44720  0.32613  1.0000
  Fe  Fe176     1.0  0.64849  0.26749  0.33747  1.0000
  C   C1587     1.0  0.64305  0.46488  0.40537  1.0000
  S   S354      1.0  0.50195  0.29362  0.36467  1.0000
  C   C1588     1.0  0.56789  0.36479  0.38281  1.0000
  C   C1589     1.0  0.68576  0.25325  0.63628  1.0000
  H   H2828     1.0  0.58078  0.34634  0.34741  1.0000
  H   H2829     1.0  0.56899  0.42108  0.62235  1.0000
  H   H2830     1.0  0.50691  0.46344  0.34502  1.0000
  H   H2831     1.0  0.52241  0.32462  0.58399  1.0000
  C   C1590     1.0  0.62962  0.32789  0.36997  1.0000
  C   C1591     1.0  0.50588  0.43307  0.33797  1.0000
  H   H2832     1.0  0.55328  0.29428  0.58581  1.0000
  H   H2833     1.0  0.54475  0.31186  0.50325  1.0000
  H   H2834     1.0  0.59009  0.46298  0.39269  1.0000
  H   H2835     1.0  0.52989  0.39130  0.64346  1.0000
  C   C1592     1.0  0.54714  0.30658  0.56044  1.0000
  H   H2836     1.0  0.58664  0.39498  0.44641  1.0000
  C   C1593     1.0  0.60746  0.23885  0.61981  1.0000
  H   H2837     1.0  0.62659  0.26252  0.61504  1.0000
  H   H2838     1.0  0.55667  0.34703  0.63256  1.0000
  C   C1594     1.0  0.56086  0.30751  0.53013  1.0000
  N   N89       1.0  0.56435  0.30409  0.54800  1.0000
  C   C1595     1.0  0.63642  0.34443  0.35975  1.0000
  H   H2839     1.0  0.65412  0.36015  0.37193  1.0000
  H   H2840     1.0  0.63626  0.32082  0.38055  1.0000
  H   H2841     1.0  0.54035  0.29613  0.56155  1.0000
  H   H2842     1.0  0.57855  0.45385  0.37191  1.0000
  H   H2843     1.0  0.50729  0.38253  0.40877  1.0000
  C   C1596     1.0  0.63702  0.44113  0.62205  1.0000
  H   H2844     1.0  0.60484  0.40059  0.45034  1.0000
  H   H2845     1.0  0.64468  0.27002  0.48960  1.0000
  H   H2846     1.0  0.53722  0.29759  0.53471  1.0000
  C   C1597     1.0  0.65037  0.37481  0.33839  1.0000
  H   H2847     1.0  0.54592  0.29052  0.64413  1.0000
  C   C1598     1.0  0.58471  0.28631  0.37454  1.0000
  C   C1599     1.0  0.66780  0.33989  0.39928  1.0000
  H   H2848     1.0  0.66598  0.33077  0.41189  1.0000
  H   H2849     1.0  0.63156  0.31898  0.36118  1.0000
  C   C1600     1.0  0.63119  0.42742  0.61674  1.0000
  S   S355      1.0  0.59239  0.38651  0.34326  1.0000
  C   C1601     1.0  0.66167  0.34745  0.36921  1.0000
  C   C1602     1.0  0.66005  0.33475  0.38684  1.0000
  H   H2850     1.0  0.64143  0.25929  0.45769  1.0000
  C   C1603     1.0  0.53767  0.36263  0.40015  1.0000
  C   C1604     1.0  0.62076  0.46703  0.35058  1.0000
  H   H2851     1.0  0.58112  0.44702  0.40984  1.0000
  H   H2852     1.0  0.66682  0.32148  0.38557  1.0000
  N   N90       1.0  0.65576  0.34305  0.35527  1.0000
  H   H2853     1.0  0.68182  0.33940  0.39424  1.0000
  H   H2854     1.0  0.53544  0.37641  0.39341  1.0000
  C   C1605     1.0  0.58885  0.26851  0.36959  1.0000
  H   H2855     1.0  0.53849  0.31863  0.55533  1.0000
  H   H2856     1.0  0.52805  0.26123  0.37437  1.0000
  H   H2857     1.0  0.67527  0.34907  0.36477  1.0000
  H   H2858     1.0  0.64616  0.44686  0.61084  1.0000
  H   H2859     1.0  0.52132  0.30203  0.58982  1.0000
  C   C1606     1.0  0.52807  0.34181  0.42582  1.0000
  C   C1607     1.0  0.54730  0.30705  0.57909  1.0000
  H   H2860     1.0  0.57859  0.31428  0.56058  1.0000
  H   H2861     1.0  0.58775  0.31401  0.53864  1.0000
  C   C1608     1.0  0.51822  0.37841  0.44235  1.0000
  H   H2862     1.0  0.51624  0.36816  0.64260  1.0000
  S   S356      1.0  0.53294  0.31570  0.34748  1.0000
  H   H2863     1.0  0.55414  0.31691  0.57934  1.0000
  H   H2864     1.0  0.65557  0.33883  0.62691  1.0000
  C   C1609     1.0  0.61785  0.37722  0.63673  1.0000
  C   C1610     1.0  0.53744  0.37788  0.64612  1.0000
  H   H2865     1.0  0.52472  0.33504  0.41750  1.0000
  H   H2866     1.0  0.65809  0.35187  0.32773  1.0000
  C   C1611     1.0  0.66483  0.32540  0.35184  1.0000
  S   S357      1.0  0.49207  0.33556  0.35417  1.0000
  H   H2867     1.0  0.69814  0.26376  0.61050  1.0000
  C   C1612     1.0  0.65848  0.25190  0.59920  1.0000
  H   H2868     1.0  0.52592  0.46582  0.36483  1.0000
  H   H2869     1.0  0.56635  0.28885  0.33880  1.0000
  C   C1613     1.0  0.52812  0.36971  0.32655  1.0000
  H   H2870     1.0  0.67079  0.35771  0.63182  1.0000
  H   H2871     1.0  0.66197  0.31520  0.36328  1.0000
  C   C1614     1.0  0.58700  0.44999  0.39592  1.0000
  C   C1615     1.0  0.55946  0.26381  0.38061  1.0000
  C   C1616     1.0  0.66092  0.32854  0.63698  1.0000
  H   H2872     1.0  0.53465  0.39404  0.44533  1.0000
  C   C1617     1.0  0.51885  0.31765  0.44995  1.0000
  H   H2873     1.0  0.55320  0.32071  0.52670  1.0000
  C   C1618     1.0  0.68474  0.32236  0.34604  1.0000
  C   C1619     1.0  0.54421  0.38995  0.32833  1.0000
  H   H2874     1.0  0.54177  0.33585  0.42640  1.0000
  C   C1620     1.0  0.52665  0.38468  0.45346  1.0000
  C   C1621     1.0  0.52895  0.31150  0.58953  1.0000
  H   H2875     1.0  0.51020  0.36938  0.45103  1.0000
  Fe  Fe177     1.0  0.52368  0.29509  0.34145  1.0000
  H   H2876     1.0  0.59883  0.29850  0.35006  1.0000
  C   C1622     1.0  0.53202  0.36994  0.42840  1.0000
  C   C1623     1.0  0.68713  0.26571  0.62097  1.0000
  H   H2877     1.0  0.58792  0.27070  0.35590  1.0000
  C   C1624     1.0  0.53893  0.38145  0.31847  1.0000
  Fe  Fe178     1.0  0.51456  0.33386  0.33187  1.0000
  H   H2878     1.0  0.65124  0.42007  0.63846  1.0000
  H   H2879     1.0  0.57795  0.41510  0.64137  1.0000
  C   C1625     1.0  0.51749  0.33710  0.44429  1.0000
  H   H2880     1.0  0.54193  0.29007  0.50681  1.0000
  H   H2881     1.0  0.68442  0.44496  0.63050  1.0000
  H   H2882     1.0  0.62855  0.25491  0.47919  1.0000
  H   H2883     1.0  0.53496  0.37366  0.46048  1.0000
  H   H2884     1.0  0.51861  0.25374  0.39663  1.0000
  H   H2885     1.0  0.65359  0.46345  0.41208  1.0000
  H   H2886     1.0  0.68740  0.30055  0.33452  1.0000
  C   C1626     1.0  0.55013  0.29817  0.50835  1.0000
  H   H2887     1.0  0.70499  0.37321  0.64216  1.0000
  H   H2888     1.0  0.63277  0.45885  0.35319  1.0000
  S   S358      1.0  0.54176  0.27073  0.33534  1.0000
  H   H2889     1.0  0.52585  0.46704  0.32919  1.0000
  H   H2890     1.0  0.63626  0.37593  0.34041  1.0000
  H   H2891     1.0  0.60321  0.25958  0.57723  1.0000
  C   C1627     1.0  0.58135  0.25159  0.39887  1.0000
  C   C1628     1.0  0.69811  0.42596  0.60685  1.0000
  C   C1629     1.0  0.64513  0.43378  0.63824  1.0000
  Fe  Fe179     1.0  0.60006  0.40367  0.31783  1.0000
  S   S359      1.0  0.61336  0.41855  0.32779  1.0000
  H   H2892     1.0  0.53718  0.42723  0.32159  1.0000
  H   H2893     1.0  0.51462  0.42403  0.34607  1.0000
  H   H2894     1.0  0.68864  0.33047  0.33318  1.0000
  H   H2895     1.0  0.70665  0.30183  0.34022  1.0000
  H   H2896     1.0  0.63115  0.33373  0.32399  1.0000
  S   S360      1.0  0.57504  0.42297  0.31972  1.0000
  S   S361      1.0  0.67421  0.27449  0.32539  1.0000
  H   H2897     1.0  0.58843  0.40471  0.62345  1.0000
  H   H2898     1.0  0.60137  0.26794  0.63510  1.0000
  H   H2899     1.0  0.49731  0.34729  0.41477  1.0000
  H   H2900     1.0  0.60932  0.24043  0.35694  1.0000
  N   N91       1.0  0.65751  0.44364  0.64002  1.0000
  H   H2901     1.0  0.70008  0.31635  0.64933  1.0000
  H   H2902     1.0  0.63422  0.43344  0.64968  1.0000
  C   C1630     1.0  0.64992  0.24271  0.61682  1.0000
  H   H2903     1.0  0.67150  0.47238  0.63601  1.0000
  H   H2904     1.0  0.67058  0.24338  0.59403  1.0000
  H   H2905     1.0  0.65698  0.45953  0.31882  1.0000
  S   S362      1.0  0.64963  0.25260  0.31764  1.0000
  H   H2906     1.0  0.65131  0.24574  0.47515  1.0000
  H   H2907     1.0  0.63518  0.48586  0.31803  1.0000
  H   H2908     1.0  0.57145  0.38655  0.64821  1.0000
  H   H2909     1.0  0.59601  0.29108  0.32196  1.0000
  H   H2910     1.0  0.69563  0.24165  0.63752  1.0000
  C   C1631     1.0  0.64810  0.46216  0.63937  1.0000
  H   H2911     1.0  0.62622  0.33470  0.64040  1.0000
  H   H2912     1.0  0.59666  0.25007  0.62106  1.0000
  C   C1632     1.0  0.65616  0.38627  0.32098  1.0000
  N   N92       1.0  0.62202  0.24637  0.64054  1.0000
  C   C1633     1.0  0.58868  0.28381  0.31848  1.0000
  C   C1634     1.0  0.65782  0.47434  0.64294  1.0000
  H   H2913     1.0  0.56803  0.24168  0.43453  1.0000
  H   H2914     1.0  0.56091  0.35205  0.31714  1.0000
  C   C1635     1.0  0.58317  0.24017  0.37261  1.0000
  C   C1636     1.0  0.60684  0.26005  0.64631  1.0000
  H   H2915     1.0  0.59083  0.29449  0.64662  1.0000
  C   C1637     1.0  0.65908  0.27086  0.64837  1.0000
  H   H2916     1.0  0.62102  0.27931  0.64690  1.0000
  H   H2917     1.0  0.54930  0.23979  0.38878  1.0000
  H   H2918     1.0  0.61077  0.38048  0.64891  1.0000
  Fe  Fe180     1.0  0.52591  0.31823  0.69966  1.0000
  S   S363      1.0  0.52091  0.29192  0.71249  1.0000
  S   S364      1.0  0.52822  0.33472  0.71662  1.0000
  H   H2919     1.0  0.70697  0.32498  0.72492  1.0000
  C   C1638     1.0  0.70921  0.27366  0.72265  1.0000
  H   H2920     1.0  0.57892  0.28369  0.73146  1.0000
  Fe  Fe181     1.0  0.52549  0.31342  0.66477  1.0000
  Fe  Fe182     1.0  0.54035  0.28324  0.69005  1.0000
  S   S365      1.0  0.56053  0.25879  0.69307  1.0000
  S   S366      1.0  0.64506  0.27317  0.69874  1.0000
  H   H2921     1.0  0.65145  0.32065  0.66516  1.0000
  H   H2922     1.0  0.53326  0.24910  0.68053  1.0000
  S   S367      1.0  0.65729  0.26448  0.73606  1.0000
  H   H2923     1.0  0.52177  0.26591  0.74558  1.0000
  H   H2924     1.0  0.66559  0.40883  0.65926  1.0000
  H   H2925     1.0  0.72593  0.32654  0.73107  1.0000
  H   H2926     1.0  0.56777  0.46219  0.74376  1.0000
  S   S368      1.0  0.67014  0.23963  0.66880  1.0000
  Fe  Fe183     1.0  0.66564  0.27816  0.70896  1.0000
  C   C1639     1.0  0.57093  0.27320  0.71418  1.0000
  C   C1640     1.0  0.68623  0.31632  0.65088  1.0000
  H   H2927     1.0  0.63152  0.31287  0.65234  1.0000
  S   S369      1.0  0.59304  0.40859  0.70536  1.0000
  Fe  Fe184     1.0  0.61550  0.38614  0.70488  1.0000
  S   S370      1.0  0.62143  0.36631  0.72827  1.0000
  H   H2928     1.0  0.53088  0.35218  0.65439  1.0000
  H   H2929     1.0  0.70554  0.32829  0.74625  1.0000
  C   C1641     1.0  0.64440  0.46209  0.70166  1.0000
  H   H2930     1.0  0.65296  0.45529  0.71035  1.0000
  C   C1642     1.0  0.65925  0.32038  0.70918  1.0000
  Fe  Fe185     1.0  0.61105  0.42318  0.68474  1.0000
  C   C1643     1.0  0.63881  0.33262  0.73236  1.0000
  C   C1644     1.0  0.63624  0.34867  0.72113  1.0000
  C   C1645     1.0  0.64537  0.35056  0.70403  1.0000
  C   C1646     1.0  0.65705  0.33653  0.69817  1.0000
  H   H2931     1.0  0.67871  0.27822  0.74824  1.0000
  H   H2932     1.0  0.67842  0.26842  0.78721  1.0000
  H   H2933     1.0  0.66430  0.33819  0.68503  1.0000
  C   C1647     1.0  0.53760  0.35271  0.70660  1.0000
  C   C1648     1.0  0.55397  0.35119  0.69572  1.0000
  C   C1649     1.0  0.56166  0.36566  0.68895  1.0000
  H   H2934     1.0  0.63200  0.33122  0.74566  1.0000
  H   H2935     1.0  0.59616  0.47897  0.74856  1.0000
  H   H2936     1.0  0.71785  0.26909  0.69661  1.0000
  H   H2937     1.0  0.56076  0.33882  0.69275  1.0000
  H   H2938     1.0  0.57444  0.36447  0.68084  1.0000
  H   H2939     1.0  0.68663  0.25750  0.75954  1.0000
  C   C1650     1.0  0.57433  0.25952  0.70584  1.0000
  C   C1651     1.0  0.58011  0.44495  0.72648  1.0000
  H   H2940     1.0  0.52875  0.32005  0.75371  1.0000
  C   C1652     1.0  0.59665  0.26066  0.72604  1.0000
  H   H2941     1.0  0.64444  0.34313  0.65641  1.0000
  H   H2942     1.0  0.61418  0.26622  0.66769  1.0000
  S   S371      1.0  0.68493  0.25534  0.70134  1.0000
  H   H2943     1.0  0.73503  0.26559  0.70774  1.0000
  H   H2944     1.0  0.71435  0.25303  0.74396  1.0000
  C   C1653     1.0  0.51200  0.36938  0.66907  1.0000
  Fe  Fe186     1.0  0.63813  0.25741  0.72534  1.0000
  H   H2945     1.0  0.64366  0.36292  0.69535  1.0000
  N   N93       1.0  0.57884  0.33152  0.73868  1.0000
  C   C1654     1.0  0.58638  0.32296  0.72342  1.0000
  C   C1655     1.0  0.56060  0.32889  0.74651  1.0000
  C   C1656     1.0  0.57804  0.35060  0.73204  1.0000
  C   C1657     1.0  0.58993  0.32542  0.75198  1.0000
  C   C1658     1.0  0.59472  0.30574  0.75875  1.0000
  C   C1659     1.0  0.60503  0.32470  0.71394  1.0000
  C   C1660     1.0  0.56783  0.36232  0.74503  1.0000
  C   C1661     1.0  0.55666  0.31128  0.74704  1.0000
  S   S372      1.0  0.60405  0.41592  0.66333  1.0000
  C   C1662     1.0  0.60906  0.30115  0.76881  1.0000
  C   C1663     1.0  0.61177  0.31378  0.70018  1.0000
  C   C1664     1.0  0.56895  0.38107  0.73727  1.0000
  H   H2946     1.0  0.57802  0.32802  0.71380  1.0000
  H   H2947     1.0  0.58647  0.30906  0.72713  1.0000
  H   H2948     1.0  0.55655  0.33137  0.75984  1.0000
  H   H2949     1.0  0.55142  0.33845  0.73908  1.0000
  H   H2950     1.0  0.57209  0.35519  0.72052  1.0000
  H   H2951     1.0  0.59123  0.35342  0.72757  1.0000
  H   H2952     1.0  0.60206  0.33041  0.74699  1.0000
  H   H2953     1.0  0.58351  0.33102  0.76357  1.0000
  H   H2954     1.0  0.59937  0.29844  0.74826  1.0000
  H   H2955     1.0  0.58338  0.30118  0.76775  1.0000
  H   H2956     1.0  0.60559  0.33824  0.70747  1.0000
  H   H2957     1.0  0.61392  0.32015  0.72298  1.0000
  H   H2958     1.0  0.57298  0.35858  0.75695  1.0000
  H   H2959     1.0  0.55397  0.36172  0.74857  1.0000
  C   C1665     1.0  0.53894  0.30927  0.75825  1.0000
  H   H2960     1.0  0.56623  0.30035  0.75215  1.0000
  C   C1666     1.0  0.65550  0.27231  0.77781  1.0000
  H   H2961     1.0  0.54307  0.37699  0.65732  1.0000
  H   H2962     1.0  0.60529  0.30805  0.77963  1.0000
  H   H2963     1.0  0.61164  0.28708  0.77414  1.0000
  H   H2964     1.0  0.62114  0.30449  0.76016  1.0000
  H   H2965     1.0  0.60342  0.31785  0.69058  1.0000
  H   H2966     1.0  0.62511  0.31526  0.69351  1.0000
  H   H2967     1.0  0.61205  0.29997  0.70618  1.0000
  H   H2968     1.0  0.56076  0.38934  0.74633  1.0000
  H   H2969     1.0  0.58246  0.38257  0.73500  1.0000
  H   H2970     1.0  0.56444  0.38545  0.72492  1.0000
  Fe  Fe187     1.0  0.66370  0.24897  0.69358  1.0000
  C   C1667     1.0  0.61053  0.27286  0.65518  1.0000
  C   C1668     1.0  0.67557  0.41276  0.67933  1.0000
  H   H2971     1.0  0.72134  0.25003  0.71312  1.0000
  H   H2972     1.0  0.50579  0.38322  0.66782  1.0000
  H   H2973     1.0  0.71106  0.28493  0.65448  1.0000
  H   H2974     1.0  0.66324  0.41431  0.68897  1.0000
  H   H2975     1.0  0.69610  0.27176  0.72361  1.0000
  H   H2976     1.0  0.71046  0.25249  0.80463  1.0000
  H   H2977     1.0  0.63520  0.43948  0.70216  1.0000
  H   H2978     1.0  0.51907  0.36546  0.67971  1.0000
  H   H2979     1.0  0.70144  0.24576  0.78092  1.0000
  S   S373      1.0  0.52064  0.28661  0.67439  1.0000
  C   C1669     1.0  0.53616  0.38324  0.70306  1.0000
  S   S374      1.0  0.60978  0.45184  0.68001  1.0000
  C   C1670     1.0  0.55259  0.38177  0.69240  1.0000
  N   N94       1.0  0.70311  0.27585  0.75469  1.0000
  Fe  Fe188     1.0  0.50158  0.29740  0.69588  1.0000
  C   C1671     1.0  0.52890  0.36869  0.71051  1.0000
  H   H2980     1.0  0.55662  0.31029  0.73381  1.0000
  H   H2981     1.0  0.52907  0.39566  0.70571  1.0000
  H   H2982     1.0  0.65743  0.47199  0.65696  1.0000
  H   H2983     1.0  0.51630  0.36990  0.71902  1.0000
  C   C1672     1.0  0.59459  0.28690  0.65885  1.0000
  H   H2984     1.0  0.68004  0.31910  0.66392  1.0000
  S   S375      1.0  0.56080  0.40050  0.68262  1.0000
  Fe  Fe189     1.0  0.58798  0.39954  0.68400  1.0000
  H   H2985     1.0  0.50367  0.25331  0.70003  1.0000
  C   C1673     1.0  0.71439  0.26705  0.74042  1.0000
  H   H2986     1.0  0.59077  0.45543  0.74156  1.0000
  H   H2987     1.0  0.50171  0.36188  0.67241  1.0000
  H   H2988     1.0  0.72810  0.26779  0.73869  1.0000
  C   C1674     1.0  0.71373  0.32170  0.73578  1.0000
  S   S376      1.0  0.67440  0.30328  0.70149  1.0000
  C   C1675     1.0  0.67240  0.41809  0.66097  1.0000
  H   H2989     1.0  0.53607  0.29706  0.75745  1.0000
  S   S377      1.0  0.60903  0.37605  0.68503  1.0000
  H   H2990     1.0  0.72463  0.27259  0.76657  1.0000
  H   H2991     1.0  0.68225  0.39905  0.68180  1.0000
  C   C1676     1.0  0.72003  0.24588  0.79484  1.0000
  C   C1677     1.0  0.52558  0.23888  0.68519  1.0000
  C   C1678     1.0  0.58869  0.24620  0.70793  1.0000
  S   S378      1.0  0.63411  0.40152  0.68616  1.0000
  H   H2992     1.0  0.50212  0.26610  0.73055  1.0000
  H   H2993     1.0  0.67002  0.34845  0.65380  1.0000
  H   H2994     1.0  0.72629  0.29645  0.73158  1.0000
  H   H2995     1.0  0.69355  0.30134  0.76031  1.0000
  N   N95       1.0  0.51332  0.23888  0.73451  1.0000
  C   C1679     1.0  0.68555  0.27143  0.75888  1.0000
  C   C1680     1.0  0.70089  0.29516  0.74929  1.0000
  H   H2996     1.0  0.70428  0.27711  0.78036  1.0000
  C   C1681     1.0  0.71146  0.26980  0.77009  1.0000
  C   C1682     1.0  0.64319  0.47987  0.69529  1.0000
  H   H2997     1.0  0.64919  0.28059  0.76725  1.0000
  C   C1683     1.0  0.62212  0.47963  0.67951  1.0000
  S   S379      1.0  0.61026  0.26162  0.73892  1.0000
  H   H2998     1.0  0.67150  0.28990  0.77570  1.0000
  C   C1684     1.0  0.65005  0.31835  0.72629  1.0000
  H   H2999     1.0  0.70935  0.28752  0.71767  1.0000
  C   C1685     1.0  0.63437  0.45312  0.69704  1.0000
  H   H3000     1.0  0.72495  0.29962  0.75279  1.0000
  H   H3001     1.0  0.53865  0.30896  0.77191  1.0000
  C   C1686     1.0  0.67329  0.27607  0.77571  1.0000
  C   C1687     1.0  0.56852  0.35060  0.65115  1.0000
  C   C1688     1.0  0.58184  0.27348  0.72461  1.0000
  C   C1689     1.0  0.58241  0.47625  0.72027  1.0000
  H   H3002     1.0  0.65190  0.30593  0.73489  1.0000
  C   C1690     1.0  0.71774  0.30224  0.74240  1.0000
  C   C1691     1.0  0.62314  0.46196  0.68599  1.0000
  H   H3003     1.0  0.59274  0.44144  0.71775  1.0000
  H   H3004     1.0  0.69282  0.30031  0.73936  1.0000
  H   H3005     1.0  0.60929  0.23737  0.67599  1.0000
  H   H3006     1.0  0.58469  0.32872  0.66446  1.0000
  H   H3007     1.0  0.59353  0.47259  0.70982  1.0000
  H   H3008     1.0  0.55976  0.28345  0.71283  1.0000
  H   H3009     1.0  0.72335  0.24277  0.76901  1.0000
  S   S380      1.0  0.54700  0.30914  0.67849  1.0000
  H   H3010     1.0  0.65655  0.25857  0.77776  1.0000
  H   H3011     1.0  0.59607  0.25426  0.65519  1.0000
  H   H3012     1.0  0.59742  0.29568  0.66551  1.0000
  Fe  Fe190     1.0  0.62577  0.39324  0.66625  1.0000
  C   C1692     1.0  0.72168  0.26396  0.70927  1.0000
  H   H3013     1.0  0.73260  0.24966  0.79263  1.0000
  C   C1693     1.0  0.58019  0.45980  0.73441  1.0000
  H   H3014     1.0  0.69559  0.28654  0.67450  1.0000
  H   H3015     1.0  0.52675  0.25418  0.71175  1.0000
  C   C1694     1.0  0.71368  0.25025  0.77803  1.0000
  S   S381      1.0  0.50473  0.32468  0.68503  1.0000
  Fe  Fe191     1.0  0.67533  0.24102  0.72790  1.0000
  C   C1695     1.0  0.49800  0.25360  0.73599  1.0000
  H   H3016     1.0  0.57793  0.43348  0.73680  1.0000
  H   H3017     1.0  0.56975  0.44848  0.71906  1.0000
  H   H3018     1.0  0.64830  0.27294  0.65900  1.0000
  C   C1696     1.0  0.68494  0.29769  0.65142  1.0000
  H   H3019     1.0  0.58363  0.28120  0.66730  1.0000
  C   C1697     1.0  0.53252  0.25502  0.74264  1.0000
  C   C1698     1.0  0.51317  0.24103  0.70236  1.0000
  H   H3020     1.0  0.54952  0.26493  0.75209  1.0000
  H   H3021     1.0  0.64997  0.43770  0.66779  1.0000
  C   C1699     1.0  0.60012  0.24700  0.71763  1.0000
  H   H3022     1.0  0.64723  0.27507  0.79025  1.0000
  H   H3023     1.0  0.68379  0.42072  0.68111  1.0000
  H   H3024     1.0  0.61992  0.33009  0.66344  1.0000
  H   H3025     1.0  0.55721  0.34865  0.66175  1.0000
  C   C1700     1.0  0.63022  0.32665  0.65238  1.0000
  H   H3026     1.0  0.60972  0.47467  0.72875  1.0000
  H   H3027     1.0  0.68528  0.41703  0.65222  1.0000
  H   H3028     1.0  0.69551  0.27127  0.66227  1.0000
  H   H3029     1.0  0.68390  0.37152  0.65537  1.0000
  H   H3030     1.0  0.49472  0.25369  0.76354  1.0000
  H   H3031     1.0  0.63319  0.47901  0.74099  1.0000
  C   C1701     1.0  0.54505  0.25274  0.75430  1.0000
  H   H3032     1.0  0.61347  0.48654  0.67093  1.0000
  C   C1702     1.0  0.52428  0.36589  0.65223  1.0000
  H   H3033     1.0  0.53970  0.25848  0.72927  1.0000
  C   C1703     1.0  0.66197  0.43676  0.65757  1.0000
  H   H3034     1.0  0.57490  0.35964  0.65363  1.0000
  C   C1704     1.0  0.64721  0.32995  0.65388  1.0000
  C   C1705     1.0  0.52565  0.23840  0.74553  1.0000
  H   H3035     1.0  0.53869  0.24943  0.76809  1.0000
  C   C1706     1.0  0.58128  0.33337  0.65160  1.0000
  C   C1707     1.0  0.69756  0.28435  0.66131  1.0000
  H   H3036     1.0  0.66991  0.44465  0.65994  1.0000
  H   H3037     1.0  0.55654  0.24251  0.75125  1.0000
  H   H3038     1.0  0.67170  0.29573  0.65786  1.0000
  H   H3039     1.0  0.51826  0.23973  0.67532  1.0000
  H   H3040     1.0  0.57081  0.47978  0.71454  1.0000
  C   C1708     1.0  0.60018  0.48501  0.73475  1.0000
  H   H3041     1.0  0.63781  0.24714  0.65748  1.0000
  C   C1709     1.0  0.52303  0.24145  0.71596  1.0000
  C   C1710     1.0  0.63195  0.23777  0.65457  1.0000
  C   C1711     1.0  0.67187  0.25587  0.65008  1.0000
  H   H3042     1.0  0.65769  0.53260  0.25322  1.0000
  S   S382      1.0  0.66000  0.66281  0.30449  1.0000
  H   H3043     1.0  0.95575  0.73265  0.24461  1.0000
  N   N96       1.0  0.75451  0.71830  0.28377  1.0000
  C   C1712     1.0  0.75177  0.72122  0.26572  1.0000
  H   H3044     1.0  0.74952  0.73284  0.04970  1.0000
  C   C1713     1.0  0.65498  0.70071  0.26778  1.0000
  H   H3045     1.0  0.76707  0.69122  0.28686  1.0000
  C   C1714     1.0  0.69634  0.73503  0.27987  1.0000
  H   H3046     1.0  0.67258  0.50935  0.28398  1.0000
  H   H3047     1.0  0.65075  0.62561  0.31382  1.0000
  S   S383      1.0  0.69890  0.68509  0.27994  1.0000
  H   H3048     1.0  0.62337  0.66334  0.27617  1.0000
  H   H3049     1.0  0.64862  0.73656  0.31353  1.0000
  C   C1715     1.0  0.69474  0.71777  0.28521  1.0000
  H   H3050     1.0  0.76793  0.69669  0.25930  1.0000
  H   H3051     1.0  0.59017  0.73239  0.26880  1.0000
  H   H3052     1.0  0.66139  0.50932  0.25872  1.0000
  H   H3053     1.0  0.90796  0.71814  0.28192  1.0000
  C   C1716     1.0  0.76148  0.73549  0.04029  1.0000
  H   H3054     1.0  0.71506  0.70422  0.24792  1.0000
  C   C1717     1.0  0.64519  0.52286  0.28842  1.0000
  H   H3055     1.0  0.62059  0.71837  0.26230  1.0000
  H   H3056     1.0  0.62768  0.73239  0.31468  1.0000
  C   C1718     1.0  0.65817  0.71809  0.25579  1.0000
  H   H3057     1.0  0.67675  0.68478  0.25361  1.0000
  C   C1719     1.0  0.61035  0.53798  0.31032  1.0000
  C   C1720     1.0  0.66259  0.68590  0.25820  1.0000
  H   H3058     1.0  0.73897  0.71888  0.26614  1.0000
  H   H3059     1.0  0.72693  0.72581  0.29326  1.0000
  H   H3060     1.0  0.73115  0.66768  0.30356  1.0000
  C   C1721     1.0  0.62012  0.65752  0.29010  1.0000
  H   H3061     1.0  0.76161  0.72619  0.12041  1.0000
  H   H3062     1.0  0.76799  0.72384  0.03486  1.0000
  C   C1722     1.0  0.60453  0.64924  0.29384  1.0000
  H   H3063     1.0  0.57134  0.64502  0.29779  1.0000
  C   C1723     1.0  0.61742  0.73074  0.26658  1.0000
  H   H3064     1.0  0.68840  0.71310  0.29826  1.0000
  H   H3065     1.0  0.66904  0.53262  0.27839  1.0000
  H   H3066     1.0  0.60803  0.63918  0.28607  1.0000
  H   H3067     1.0  0.64279  0.54768  0.30338  1.0000
  H   H3068     1.0  0.77010  0.70538  0.22792  1.0000
  H   H3069     1.0  0.59381  0.65932  0.28939  1.0000
  H   H3070     1.0  0.63383  0.60721  0.30829  1.0000
  C   C1724     1.0  0.75549  0.69969  0.29294  1.0000
  C   C1725     1.0  0.73989  0.69178  0.29389  1.0000
  H   H3071     1.0  0.77862  0.71756  0.10408  1.0000
  C   C1726     1.0  0.64626  0.53541  0.31260  1.0000
  H   H3072     1.0  0.80178  0.72669  0.28936  1.0000
  H   H3073     1.0  0.66606  0.50297  0.31196  1.0000
  H   H3074     1.0  0.75737  0.72635  0.23013  1.0000
  C   C1727     1.0  0.70132  0.70664  0.27369  1.0000
  H   H3075     1.0  0.74789  0.70751  0.23922  1.0000
  H   H3076     1.0  0.63150  0.64776  0.29360  1.0000
  C   C1728     1.0  0.78785  0.71121  0.28222  1.0000
  C   C1729     1.0  0.66564  0.52078  0.25962  1.0000
  H   H3077     1.0  0.76896  0.72895  0.29566  1.0000
  H   H3078     1.0  0.66019  0.67361  0.26700  1.0000
  H   H3079     1.0  0.50073  0.49846  0.28552  1.0000
  H   H3080     1.0  0.77767  0.71533  0.24999  1.0000
  H   H3081     1.0  0.64021  0.72110  0.28852  1.0000
  C   C1730     1.0  0.56906  0.64289  0.31207  1.0000
  H   H3082     1.0  0.67475  0.52913  0.30348  1.0000
  C   C1731     1.0  0.66415  0.52122  0.27845  1.0000
  H   H3083     1.0  0.81528  0.71047  0.27776  1.0000
  C   C1732     1.0  0.73915  0.72882  0.29390  1.0000
  H   H3084     1.0  0.63849  0.53580  0.28264  1.0000
  C   C1733     1.0  0.70993  0.71279  0.25689  1.0000
  H   H3085     1.0  0.55105  0.67379  0.29476  1.0000
  H   H3086     1.0  0.92823  0.73058  0.25568  1.0000
  H   H3087     1.0  0.58305  0.59399  0.29385  1.0000
  C   C1734     1.0  0.54697  0.67093  0.30903  1.0000
  H   H3088     1.0  0.61725  0.66780  0.29751  1.0000
  H   H3089     1.0  0.63938  0.51368  0.28504  1.0000
  H   H3090     1.0  0.54193  0.68330  0.31349  1.0000
  C   C1735     1.0  0.75977  0.71262  0.23669  1.0000
  C   C1736     1.0  0.76548  0.71060  0.25349  1.0000
  H   H3091     1.0  0.59122  0.61994  0.29645  1.0000
  H   H3092     1.0  0.61560  0.72829  0.28078  1.0000
  N   N97       1.0  0.64892  0.73442  0.26230  1.0000
  H   H3093     1.0  0.77212  0.73584  0.27290  1.0000
  H   H3094     1.0  0.53640  0.66368  0.31286  1.0000
  H   H3095     1.0  0.78802  0.70165  0.29456  1.0000
  H   H3096     1.0  0.65653  0.68790  0.24706  1.0000
  H   H3097     1.0  0.61905  0.51090  0.31057  1.0000
  C   C1737     1.0  0.58476  0.58846  0.30728  1.0000
  H   H3098     1.0  0.71839  0.73473  0.23862  1.0000
  H   H3099     1.0  0.67929  0.52006  0.25263  1.0000
  H   H3100     1.0  0.61249  0.54319  0.29627  1.0000
  C   C1738     1.0  0.80298  0.72012  0.27874  1.0000
  S   S384      1.0  0.61718  0.69752  0.30994  1.0000
  H   H3101     1.0  0.79014  0.70409  0.27185  1.0000
  H   H3102     1.0  0.75701  0.69816  0.30637  1.0000
  C   C1739     1.0  0.77046  0.72441  0.28358  1.0000
  H   H3103     1.0  0.64118  0.70064  0.27311  1.0000
  H   H3104     1.0  0.75131  0.73492  0.25913  1.0000
  H   H3105     1.0  0.66557  0.56078  0.30503  1.0000
  H   H3106     1.0  0.92748  0.73014  0.22773  1.0000
  Fe  Fe192     1.0  0.67935  0.67787  0.30438  1.0000
  C   C1740     1.0  0.71183  0.73003  0.25162  1.0000
  H   H3107     1.0  0.82028  0.72544  0.23707  1.0000
  C   C1741     1.0  0.66841  0.55030  0.31617  1.0000
  H   H3108     1.0  0.73814  0.69232  0.28082  1.0000
  H   H3109     1.0  0.80344  0.72975  0.26640  1.0000
  H   H3110     1.0  0.84919  0.73104  0.23397  1.0000
  H   H3111     1.0  0.75415  0.66520  0.29606  1.0000
  C   C1742     1.0  0.59940  0.64149  0.31332  1.0000
  H   H3112     1.0  0.58950  0.52633  0.30973  1.0000
  H   H3113     1.0  0.65523  0.71864  0.24316  1.0000
  H   H3114     1.0  0.73974  0.72548  0.30781  1.0000
  H   H3115     1.0  0.78197  0.73282  0.11473  1.0000
  H   H3116     1.0  0.66137  0.69798  0.27882  1.0000
  H   H3117     1.0  0.67243  0.71688  0.25326  1.0000
  H   H3118     1.0  0.88578  0.72923  0.28633  1.0000
  H   H3119     1.0  0.93121  0.72617  0.19778  1.0000
  C   C1743     1.0  0.77246  0.72923  0.10956  1.0000
  C   C1744     1.0  0.74251  0.67290  0.30309  1.0000
  C   C1745     1.0  0.64741  0.73141  0.28150  1.0000
  C   C1746     1.0  0.89927  0.73102  0.28118  1.0000
  H   H3120     1.0  0.58281  0.54810  0.31299  1.0000
  H   H3121     1.0  0.60399  0.60957  0.31183  1.0000
  H   H3122     1.0  0.66044  0.72651  0.28457  1.0000
  H   H3123     1.0  0.58601  0.72210  0.31053  1.0000
  C   C1747     1.0  0.62308  0.52070  0.31494  1.0000
  H   H3124     1.0  0.95499  0.73306  0.22280  1.0000
  H   H3125     1.0  0.89740  0.73359  0.25508  1.0000
  H   H3126     1.0  0.59844  0.58201  0.30712  1.0000
  H   H3127     1.0  0.57219  0.66855  0.31308  1.0000
  N   N98       1.0  0.64204  0.52065  0.30773  1.0000
  H   H3128     1.0  0.57664  0.57868  0.31314  1.0000
  H   H3129     1.0  0.77704  0.72876  0.05925  1.0000
  C   C1748     1.0  0.59062  0.61618  0.31057  1.0000
  H   H3130     1.0  0.72776  0.69851  0.30116  1.0000
  H   H3131     1.0  0.98398  0.73419  0.22572  1.0000
  C   C1749     1.0  0.65197  0.50369  0.31598  1.0000
  C   C1750     1.0  0.66507  0.53344  0.31448  1.0000
  C   C1751     1.0  0.64869  0.48728  0.31246  1.0000
  H   H3132     1.0  0.65143  0.48759  0.29844  1.0000
  H   H3133     1.0  0.74382  0.67155  0.31652  1.0000
  H   H3134     1.0  0.68211  0.54864  0.31672  1.0000
  H   H3135     1.0  0.61173  0.54780  0.31667  1.0000
  C   C1752     1.0  0.59168  0.53561  0.31625  1.0000
  S   S385      1.0  0.53535  0.61622  0.34527  1.0000
  H   H3136     1.0  0.49928  0.56776  0.41017  1.0000
  S   S386      1.0  0.54372  0.64554  0.37112  1.0000
  Fe  Fe193     1.0  0.59323  0.54415  0.38384  1.0000
  S   S387      1.0  0.61195  0.52222  0.39574  1.0000
  S   S388      1.0  0.56548  0.55081  0.39657  1.0000
  Fe  Fe194     1.0  0.62002  0.55519  0.35266  1.0000
  S   S389      1.0  0.64102  0.53392  0.36167  1.0000
  H   H3137     1.0  0.57202  0.59409  0.48149  1.0000
  Fe  Fe195     1.0  0.62142  0.51724  0.36889  1.0000
  H   H3138     1.0  0.59567  0.50622  0.35478  1.0000
  Fe  Fe196     1.0  0.62957  0.54108  0.38749  1.0000
  S   S390      1.0  0.64730  0.54259  0.40360  1.0000
  S   S391      1.0  0.60139  0.53799  0.35755  1.0000
  S   S392      1.0  0.60990  0.56346  0.37800  1.0000
  H   H3139     1.0  0.58367  0.72213  0.51548  1.0000
  H   H3140     1.0  0.55525  0.51544  0.44097  1.0000
  S   S393      1.0  0.66977  0.69127  0.36217  1.0000
  Fe  Fe197     1.0  0.64651  0.66951  0.57119  1.0000
  S   S394      1.0  0.63534  0.64721  0.58748  1.0000
  S   S395      1.0  0.65222  0.67118  0.54235  1.0000
  Fe  Fe198     1.0  0.64669  0.68197  0.60335  1.0000
  S   S396      1.0  0.63510  0.66057  0.62187  1.0000
  S   S397      1.0  0.65396  0.70245  0.61202  1.0000
  Fe  Fe199     1.0  0.65381  0.64438  0.60404  1.0000
  S   S398      1.0  0.67033  0.61874  0.61209  1.0000
  Fe  Fe200     1.0  0.61793  0.66586  0.60304  1.0000
  S   S399      1.0  0.58998  0.66611  0.60654  1.0000
  S   S400      1.0  0.66660  0.66535  0.58671  1.0000
  S   S401      1.0  0.62790  0.68867  0.58580  1.0000
  Fe  Fe201     1.0  0.59613  0.64884  0.45610  1.0000
  S   S402      1.0  0.61743  0.63338  0.43942  1.0000
  S   S403      1.0  0.57409  0.66762  0.44589  1.0000
  Fe  Fe202     1.0  0.61190  0.63505  0.48789  1.0000
  S   S404      1.0  0.63453  0.61834  0.47415  1.0000
  S   S405      1.0  0.60702  0.63529  0.51627  1.0000
  Fe  Fe203     1.0  0.63458  0.64107  0.45204  1.0000
  S   S406      1.0  0.65981  0.64878  0.43882  1.0000
  Fe  Fe204     1.0  0.61556  0.61195  0.46272  1.0000
  S   S407      1.0  0.61700  0.58407  0.46334  1.0000
  S   S408      1.0  0.61351  0.65849  0.46675  1.0000
  S   S409      1.0  0.59264  0.62674  0.47844  1.0000
  S   S410      1.0  0.62905  0.49022  0.36392  1.0000
  C   C1753     1.0  0.57660  0.67473  0.62394  1.0000
  H   H3141     1.0  0.55512  0.70332  0.40958  1.0000
  C   C1754     1.0  0.54173  0.64053  0.42841  1.0000
  C   C1755     1.0  0.56076  0.68551  0.62181  1.0000
  H   H3142     1.0  0.55610  0.72124  0.32627  1.0000
  C   C1756     1.0  0.60841  0.68957  0.41100  1.0000
  H   H3143     1.0  0.55767  0.68967  0.60917  1.0000
  C   C1757     1.0  0.65733  0.60366  0.62201  1.0000
  C   C1758     1.0  0.63956  0.60826  0.62279  1.0000
  C   C1759     1.0  0.62920  0.59617  0.63098  1.0000
  H   H3144     1.0  0.55748  0.65912  0.33140  1.0000
  Fe  Fe205     1.0  0.64083  0.68152  0.31931  1.0000
  H   H3145     1.0  0.55254  0.57399  0.64856  1.0000
  H   H3146     1.0  0.63372  0.62117  0.61733  1.0000
  H   H3147     1.0  0.66031  0.55406  0.32823  1.0000
  C   C1760     1.0  0.54873  0.69066  0.63605  1.0000
  H   H3148     1.0  0.59275  0.66079  0.64196  1.0000
  C   C1761     1.0  0.66222  0.69789  0.63083  1.0000
  C   C1762     1.0  0.58669  0.67399  0.39608  1.0000
  Fe  Fe206     1.0  0.52892  0.67211  0.36301  1.0000
  H   H3149     1.0  0.54377  0.68045  0.43139  1.0000
  C   C1763     1.0  0.57274  0.70393  0.38412  1.0000
  C   C1764     1.0  0.67491  0.70650  0.63058  1.0000
  C   C1765     1.0  0.58286  0.66586  0.38288  1.0000
  H   H3150     1.0  0.58748  0.56718  0.47221  1.0000
  H   H3151     1.0  0.58206  0.58392  0.45434  1.0000
  C   C1766     1.0  0.64024  0.66031  0.53536  1.0000
  C   C1767     1.0  0.64555  0.65670  0.51875  1.0000
  C   C1768     1.0  0.63555  0.64892  0.51270  1.0000
  C   C1769     1.0  0.62043  0.64432  0.52343  1.0000
  C   C1770     1.0  0.61549  0.64737  0.54021  1.0000
  C   C1771     1.0  0.62512  0.65570  0.54600  1.0000
  H   H3152     1.0  0.65727  0.66019  0.51044  1.0000
  H   H3153     1.0  0.63951  0.64652  0.49974  1.0000
  H   H3154     1.0  0.60377  0.64391  0.54853  1.0000
  H   H3155     1.0  0.62056  0.65892  0.55856  1.0000
  C   C1772     1.0  0.66176  0.66071  0.41757  1.0000
  C   C1773     1.0  0.65046  0.66124  0.40722  1.0000
  C   C1774     1.0  0.65307  0.67020  0.38994  1.0000
  C   C1775     1.0  0.66654  0.67919  0.38333  1.0000
  C   C1776     1.0  0.67752  0.67892  0.39384  1.0000
  C   C1777     1.0  0.67533  0.66946  0.41079  1.0000
  H   H3156     1.0  0.63985  0.65468  0.41247  1.0000
  H   H3157     1.0  0.64455  0.67040  0.38185  1.0000
  H   H3158     1.0  0.68791  0.68588  0.38879  1.0000
  H   H3159     1.0  0.68409  0.66909  0.41874  1.0000
  C   C1778     1.0  0.63984  0.55586  0.41888  1.0000
  C   C1779     1.0  0.64607  0.55038  0.43409  1.0000
  C   C1780     1.0  0.63940  0.55955  0.44736  1.0000
  C   C1781     1.0  0.62714  0.57484  0.44522  1.0000
  C   C1782     1.0  0.62170  0.58109  0.42953  1.0000
  C   C1783     1.0  0.62782  0.57142  0.41643  1.0000
  H   H3160     1.0  0.65549  0.53850  0.43598  1.0000
  H   H3161     1.0  0.64359  0.55461  0.45947  1.0000
  H   H3162     1.0  0.61210  0.59285  0.42787  1.0000
  H   H3163     1.0  0.62315  0.57588  0.40458  1.0000
  H   H3164     1.0  0.63526  0.70102  0.35615  1.0000
  C   C1784     1.0  0.56466  0.58608  0.47842  1.0000
  H   H3165     1.0  0.57866  0.64146  0.38131  1.0000
  H   H3166     1.0  0.57628  0.63888  0.34348  1.0000
  H   H3167     1.0  0.58074  0.69632  0.41614  1.0000
  C   C1785     1.0  0.57671  0.57503  0.46599  1.0000
  H   H3168     1.0  0.60967  0.71073  0.42178  1.0000
  S   S411      1.0  0.50936  0.67194  0.38805  1.0000
  C   C1786     1.0  0.63945  0.60320  0.31955  1.0000
  H   H3169     1.0  0.69185  0.62362  0.63420  1.0000
  H   H3170     1.0  0.58868  0.67341  0.56458  1.0000
  H   H3171     1.0  0.69100  0.67020  0.61619  1.0000
  C   C1787     1.0  0.56228  0.63551  0.62041  1.0000
  C   C1788     1.0  0.60001  0.49383  0.35125  1.0000
  C   C1789     1.0  0.54309  0.59760  0.35945  1.0000
  C   C1790     1.0  0.55143  0.58240  0.35360  1.0000
  C   C1791     1.0  0.55827  0.56785  0.36500  1.0000
  C   C1792     1.0  0.55598  0.56829  0.38239  1.0000
  C   C1793     1.0  0.54673  0.58315  0.38833  1.0000
  C   C1794     1.0  0.54092  0.59793  0.37679  1.0000
  H   H3172     1.0  0.57337  0.71768  0.38208  1.0000
  H   H3173     1.0  0.56512  0.55627  0.36038  1.0000
  H   H3174     1.0  0.54450  0.58354  0.40175  1.0000
  C   C1795     1.0  0.55516  0.63094  0.43663  1.0000
  C   C1796     1.0  0.56498  0.63918  0.44223  1.0000
  C   C1797     1.0  0.56101  0.65707  0.44018  1.0000
  C   C1798     1.0  0.54709  0.66665  0.43267  1.0000
  H   H3175     1.0  0.56699  0.71415  0.51242  1.0000
  H   H3176     1.0  0.57568  0.63168  0.44803  1.0000
  Fe  Fe207     1.0  0.52296  0.64450  0.39515  1.0000
  H   H3177     1.0  0.59871  0.60154  0.37209  1.0000
  H   H3178     1.0  0.52718  0.66591  0.42029  1.0000
  C   C1799     1.0  0.58029  0.62719  0.33786  1.0000
  H   H3179     1.0  0.59011  0.53386  0.46470  1.0000
  N   N99       1.0  0.57681  0.55413  0.44713  1.0000
  H   H3180     1.0  0.56227  0.59004  0.43590  1.0000
  C   C1800     1.0  0.65421  0.57518  0.63843  1.0000
  H   H3181     1.0  0.61690  0.68472  0.51680  1.0000
  H   H3182     1.0  0.58671  0.56036  0.41958  1.0000
  C   C1801     1.0  0.57531  0.68035  0.34211  1.0000
  H   H3183     1.0  0.55463  0.53223  0.47061  1.0000
  H   H3184     1.0  0.59039  0.67437  0.53334  1.0000
  H   H3185     1.0  0.57302  0.51867  0.45984  1.0000
  C   C1802     1.0  0.58172  0.56687  0.43076  1.0000
  H   H3186     1.0  0.52796  0.71274  0.39894  1.0000
  C   C1803     1.0  0.60976  0.69674  0.42588  1.0000
  C   C1804     1.0  0.56213  0.69490  0.33951  1.0000
  H   H3187     1.0  0.61240  0.70748  0.51158  1.0000
  H   H3188     1.0  0.60914  0.67556  0.41580  1.0000
  C   C1805     1.0  0.62122  0.69444  0.48985  1.0000
  H   H3189     1.0  0.59257  0.68897  0.48750  1.0000
  C   C1806     1.0  0.56713  0.58219  0.42592  1.0000
  C   C1807     1.0  0.56720  0.56303  0.46183  1.0000
  H   H3190     1.0  0.59066  0.71258  0.40150  1.0000
  H   H3191     1.0  0.56280  0.60478  0.40570  1.0000
  H   H3192     1.0  0.62336  0.68100  0.48816  1.0000
  Fe  Fe208     1.0  0.66489  0.68010  0.34218  1.0000
  C   C1808     1.0  0.63888  0.69878  0.48707  1.0000
  C   C1809     1.0  0.61042  0.69593  0.50823  1.0000
  S   S412      1.0  0.68619  0.66165  0.32908  1.0000
  H   H3193     1.0  0.59645  0.67143  0.50452  1.0000
  C   C1810     1.0  0.54300  0.60064  0.63685  1.0000
  H   H3194     1.0  0.51276  0.58191  0.38180  1.0000
  H   H3195     1.0  0.56191  0.64918  0.62000  1.0000
  H   H3196     1.0  0.64580  0.69071  0.49727  1.0000
  C   C1811     1.0  0.69166  0.63015  0.64455  1.0000
  C   C1812     1.0  0.63720  0.58765  0.33107  1.0000
  H   H3197     1.0  0.59452  0.66360  0.37256  1.0000
  H   H3198     1.0  0.59549  0.70844  0.62454  1.0000
  H   H3199     1.0  0.60427  0.62326  0.34668  1.0000
  H   H3200     1.0  0.69500  0.59570  0.64228  1.0000
  H   H3201     1.0  0.57630  0.65792  0.49619  1.0000
  H   H3202     1.0  0.55828  0.61716  0.43828  1.0000
  H   H3203     1.0  0.59255  0.57220  0.43138  1.0000
  C   C1813     1.0  0.57927  0.60247  0.31788  1.0000
  H   H3204     1.0  0.58045  0.59613  0.33131  1.0000
  C   C1814     1.0  0.68496  0.64961  0.63793  1.0000
  C   C1815     1.0  0.60398  0.53130  0.43857  1.0000
  C   C1816     1.0  0.53765  0.65844  0.42647  1.0000
  C   C1817     1.0  0.50107  0.59427  0.34667  1.0000
  S   S413      1.0  0.50590  0.63418  0.38478  1.0000
  H   H3205     1.0  0.60177  0.55008  0.45328  1.0000
  H   H3206     1.0  0.59625  0.52391  0.43524  1.0000
  S   S414      1.0  0.64401  0.66582  0.34548  1.0000
  H   H3207     1.0  0.67986  0.71496  0.61885  1.0000
  H   H3208     1.0  0.70964  0.65480  0.62206  1.0000
  H   H3209     1.0  0.64678  0.69635  0.47438  1.0000
  H   H3210     1.0  0.61122  0.63281  0.31717  1.0000
  H   H3211     1.0  0.55406  0.59483  0.47243  1.0000
  H   H3212     1.0  0.63817  0.53755  0.32537  1.0000
  C   C1818     1.0  0.59256  0.68111  0.33379  1.0000
  H   H3213     1.0  0.62672  0.52497  0.44979  1.0000
  C   C1819     1.0  0.66470  0.58702  0.62953  1.0000
  H   H3214     1.0  0.53493  0.60957  0.38145  1.0000
  C   C1820     1.0  0.61883  0.51836  0.44559  1.0000
  H   H3215     1.0  0.58100  0.59739  0.36567  1.0000
  C   C1821     1.0  0.54032  0.71500  0.39009  1.0000
  H   H3216     1.0  0.56887  0.62108  0.34221  1.0000
  H   H3217     1.0  0.63745  0.71255  0.48725  1.0000
  C   C1822     1.0  0.59305  0.54241  0.45184  1.0000
  C   C1823     1.0  0.58791  0.60750  0.36531  1.0000
  H   H3218     1.0  0.59890  0.69449  0.43702  1.0000
  C   C1824     1.0  0.50017  0.60780  0.33004  1.0000
  H   H3219     1.0  0.57121  0.69036  0.53421  1.0000
  H   H3220     1.0  0.64906  0.50256  0.33022  1.0000
  H   H3221     1.0  0.53672  0.52889  0.45193  1.0000
  H   H3222     1.0  0.53986  0.71388  0.37704  1.0000
  C   C1825     1.0  0.56949  0.68232  0.50460  1.0000
  C   C1826     1.0  0.50221  0.57558  0.38202  1.0000
  H   H3223     1.0  0.56442  0.55343  0.47396  1.0000
  H   H3224     1.0  0.57808  0.49652  0.34023  1.0000
  H   H3225     1.0  0.69618  0.64931  0.61080  1.0000
  H   H3226     1.0  0.60961  0.53964  0.42655  1.0000
  H   H3227     1.0  0.57883  0.61726  0.37223  1.0000
  N   N100      1.0  0.65681  0.60070  0.56309  1.0000
  C   C1827     1.0  0.65895  0.58178  0.57124  1.0000
  C   C1828     1.0  0.65762  0.60358  0.54394  1.0000
  C   C1829     1.0  0.67175  0.60689  0.56536  1.0000
  C   C1830     1.0  0.64042  0.61110  0.57179  1.0000
  C   C1831     1.0  0.62334  0.60583  0.57290  1.0000
  C   C1832     1.0  0.65850  0.57704  0.59090  1.0000
  C   C1833     1.0  0.67357  0.62548  0.55567  1.0000
  C   C1834     1.0  0.64985  0.59146  0.53781  1.0000
  C   C1835     1.0  0.64935  0.59752  0.51868  1.0000
  C   C1836     1.0  0.60847  0.61538  0.58481  1.0000
  C   C1837     1.0  0.65955  0.55775  0.59788  1.0000
  C   C1838     1.0  0.68881  0.63035  0.55927  1.0000
  H   H3228     1.0  0.67138  0.57463  0.56469  1.0000
  H   H3229     1.0  0.64886  0.57618  0.56931  1.0000
  H   H3230     1.0  0.65145  0.61711  0.53894  1.0000
  H   H3231     1.0  0.67129  0.60197  0.53671  1.0000
  H   H3232     1.0  0.68417  0.59813  0.56116  1.0000
  H   H3233     1.0  0.67080  0.60658  0.57921  1.0000
  H   H3234     1.0  0.64125  0.61129  0.58504  1.0000
  H   H3235     1.0  0.63880  0.62472  0.56491  1.0000
  H   H3236     1.0  0.62391  0.59189  0.57804  1.0000
  H   H3237     1.0  0.62012  0.60943  0.55997  1.0000
  H   H3238     1.0  0.66955  0.58038  0.59378  1.0000
  H   H3239     1.0  0.64636  0.58376  0.59815  1.0000
  H   H3240     1.0  0.66194  0.63495  0.55986  1.0000
  H   H3241     1.0  0.67562  0.62696  0.54151  1.0000
  H   H3242     1.0  0.65797  0.57828  0.53947  1.0000
  H   H3243     1.0  0.63661  0.59061  0.54508  1.0000
  H   H3244     1.0  0.64097  0.61047  0.51629  1.0000
  H   H3245     1.0  0.66249  0.59802  0.51071  1.0000
  H   H3246     1.0  0.64400  0.58851  0.51455  1.0000
  H   H3247     1.0  0.59620  0.61201  0.58489  1.0000
  H   H3248     1.0  0.61060  0.61173  0.59821  1.0000
  H   H3249     1.0  0.60725  0.62952  0.58030  1.0000
  H   H3250     1.0  0.64836  0.55375  0.59601  1.0000
  H   H3251     1.0  0.67171  0.55028  0.59136  1.0000
  H   H3252     1.0  0.65931  0.55475  0.61192  1.0000
  H   H3253     1.0  0.68714  0.62965  0.57329  1.0000
  H   H3254     1.0  0.70108  0.62169  0.55469  1.0000
  H   H3255     1.0  0.68958  0.64378  0.55242  1.0000
  C   C1839     1.0  0.50017  0.56194  0.39909  1.0000
  C   C1840     1.0  0.58832  0.68450  0.50157  1.0000
  H   H3256     1.0  0.66743  0.52377  0.32634  1.0000
  H   H3257     1.0  0.58568  0.64069  0.40060  1.0000
  H   H3258     1.0  0.61527  0.68361  0.37791  1.0000
  H   H3259     1.0  0.62203  0.69008  0.43009  1.0000
  C   C1841     1.0  0.65706  0.60795  0.33676  1.0000
  N   N101      1.0  0.66561  0.61036  0.39870  1.0000
  C   C1842     1.0  0.66932  0.60930  0.41603  1.0000
  C   C1843     1.0  0.67418  0.62369  0.38504  1.0000
  C   C1844     1.0  0.64637  0.61616  0.40017  1.0000
  C   C1845     1.0  0.67094  0.59315  0.39345  1.0000
  C   C1846     1.0  0.68954  0.58323  0.39422  1.0000
  C   C1847     1.0  0.66070  0.59669  0.43140  1.0000
  C   C1848     1.0  0.63988  0.61881  0.38336  1.0000
  C   C1849     1.0  0.69116  0.62687  0.38740  1.0000
  C   C1850     1.0  0.69940  0.63870  0.37144  1.0000
  C   C1851     1.0  0.69266  0.56568  0.38954  1.0000
  C   C1852     1.0  0.66841  0.59377  0.44718  1.0000
  C   C1853     1.0  0.62055  0.62615  0.38597  1.0000
  H   H3260     1.0  0.66512  0.62225  0.41938  1.0000
  H   H3261     1.0  0.68336  0.60569  0.41566  1.0000
  H   H3262     1.0  0.67675  0.62063  0.37208  1.0000
  H   H3263     1.0  0.66540  0.63657  0.38401  1.0000
  H   H3264     1.0  0.64177  0.62840  0.40492  1.0000
  H   H3265     1.0  0.63944  0.60670  0.40985  1.0000
  H   H3266     1.0  0.66196  0.58453  0.40121  1.0000
  H   H3267     1.0  0.66976  0.59477  0.37994  1.0000
  H   H3268     1.0  0.69209  0.58086  0.40731  1.0000
  H   H3269     1.0  0.69889  0.59044  0.38479  1.0000
  H   H3270     1.0  0.64672  0.60208  0.43512  1.0000
  H   H3271     1.0  0.66235  0.58397  0.42827  1.0000
  H   H3272     1.0  0.64219  0.60638  0.37936  1.0000
  H   H3273     1.0  0.64637  0.62785  0.37267  1.0000
  H   H3274     1.0  0.68845  0.63326  0.39849  1.0000
  H   H3275     1.0  0.70073  0.61476  0.38977  1.0000
  H   H3276     1.0  0.71119  0.64125  0.37367  1.0000
  H   H3277     1.0  0.70302  0.63263  0.36004  1.0000
  H   H3278     1.0  0.69035  0.65120  0.36869  1.0000
  H   H3279     1.0  0.70611  0.55875  0.39001  1.0000
  H   H3280     1.0  0.68375  0.55774  0.39879  1.0000
  H   H3281     1.0  0.69067  0.56724  0.37631  1.0000
  H   H3282     1.0  0.66104  0.58586  0.45836  1.0000
  H   H3283     1.0  0.68206  0.58686  0.44471  1.0000
  H   H3284     1.0  0.66777  0.60624  0.45046  1.0000
  H   H3285     1.0  0.61624  0.62778  0.37381  1.0000
  H   H3286     1.0  0.61335  0.61729  0.39626  1.0000
  H   H3287     1.0  0.61760  0.63890  0.38951  1.0000
  Fe  Fe209     1.0  0.66501  0.64840  0.33047  1.0000
  H   H3288     1.0  0.57207  0.70226  0.37129  1.0000
  H   H3289     1.0  0.56394  0.65087  0.39834  1.0000
  H   H3290     1.0  0.60551  0.72677  0.61939  1.0000
  H   H3291     1.0  0.55291  0.58198  0.34024  1.0000
  S   S415      1.0  0.53071  0.62990  0.42014  1.0000
  H   H3292     1.0  0.59732  0.72684  0.48519  1.0000
  H   H3293     1.0  0.55260  0.55289  0.44218  1.0000
  H   H3294     1.0  0.62777  0.72355  0.34827  1.0000
  H   H3295     1.0  0.57226  0.67671  0.47936  1.0000
  C   C1854     1.0  0.56113  0.64633  0.58889  1.0000
  C   C1855     1.0  0.55527  0.70171  0.39656  1.0000
  H   H3296     1.0  0.66167  0.58753  0.35854  1.0000
  H   H3297     1.0  0.62061  0.51696  0.32927  1.0000
  C   C1856     1.0  0.55402  0.63484  0.60580  1.0000
  C   C1857     1.0  0.60464  0.71408  0.62813  1.0000
  H   H3298     1.0  0.67846  0.58335  0.62871  1.0000
  H   H3299     1.0  0.55914  0.57788  0.49061  1.0000
  H   H3300     1.0  0.55618  0.57756  0.42456  1.0000
  H   H3301     1.0  0.61550  0.59969  0.63152  1.0000
  H   H3302     1.0  0.51488  0.58925  0.34723  1.0000
  H   H3303     1.0  0.55458  0.66953  0.49548  1.0000
  Fe  Fe210     1.0  0.52561  0.63733  0.36019  1.0000
  H   H3304     1.0  0.55775  0.66000  0.59017  1.0000
  C   C1858     1.0  0.56520  0.54428  0.44391  1.0000
  C   C1859     1.0  0.62398  0.71085  0.35262  1.0000
  H   H3305     1.0  0.62728  0.51166  0.43530  1.0000
  S   S416      1.0  0.62459  0.57483  0.32804  1.0000
  H   H3306     1.0  0.53986  0.63941  0.60869  1.0000
  H   H3307     1.0  0.57219  0.66860  0.35055  1.0000
  C   C1860     1.0  0.69620  0.65631  0.62069  1.0000
  H   H3308     1.0  0.53795  0.57676  0.63458  1.0000
  C   C1861     1.0  0.64500  0.58228  0.34527  1.0000
  H   H3309     1.0  0.64353  0.57027  0.35414  1.0000
  S   S417      1.0  0.54048  0.69546  0.35020  1.0000
  H   H3310     1.0  0.57654  0.67261  0.40800  1.0000
  H   H3311     1.0  0.56074  0.69492  0.50148  1.0000
  H   H3312     1.0  0.57807  0.58667  0.39845  1.0000
  C   C1862     1.0  0.59498  0.61555  0.34668  1.0000
  N   N102      1.0  0.58866  0.69244  0.38992  1.0000
  S   S418      1.0  0.66994  0.61988  0.34071  1.0000
  H   H3313     1.0  0.55554  0.64525  0.57839  1.0000
  H   H3314     1.0  0.53646  0.66168  0.63187  1.0000
  C   C1863     1.0  0.51572  0.54696  0.39899  1.0000
  C   C1864     1.0  0.56813  0.67093  0.49319  1.0000
  H   H3315     1.0  0.67168  0.65214  0.63581  1.0000
  H   H3316     1.0  0.60212  0.60491  0.34008  1.0000
  H   H3317     1.0  0.61381  0.50866  0.45668  1.0000
  C   C1865     1.0  0.58551  0.68853  0.53063  1.0000
  H   H3318     1.0  0.56946  0.69026  0.56511  1.0000
  H   H3319     1.0  0.56554  0.60827  0.31777  1.0000
  H   H3320     1.0  0.57217  0.67423  0.37695  1.0000
  H   H3321     1.0  0.60093  0.69016  0.36368  1.0000
  C   C1866     1.0  0.56112  0.52844  0.45811  1.0000
  H   H3322     1.0  0.60280  0.67002  0.33596  1.0000
  C   C1867     1.0  0.57352  0.59396  0.40898  1.0000
  H   H3323     1.0  0.57063  0.53987  0.43151  1.0000
  H   H3324     1.0  0.58416  0.59938  0.41006  1.0000
  N   N103      1.0  0.59138  0.69596  0.51170  1.0000
  C   C1868     1.0  0.60375  0.69345  0.37484  1.0000
  H   H3325     1.0  0.52819  0.63249  0.63573  1.0000
  H   H3326     1.0  0.55430  0.57046  0.45959  1.0000
  H   H3327     1.0  0.57538  0.64245  0.58526  1.0000
  H   H3328     1.0  0.55713  0.62150  0.60366  1.0000
  C   C1869     1.0  0.60893  0.71124  0.36813  1.0000
  H   H3329     1.0  0.59114  0.62917  0.63656  1.0000
  C   C1870     1.0  0.58377  0.68755  0.56222  1.0000
  C   C1871     1.0  0.59137  0.69845  0.40471  1.0000
  C   C1872     1.0  0.54914  0.51981  0.45330  1.0000
  C   C1873     1.0  0.58315  0.71048  0.31948  1.0000
  H   H3330     1.0  0.61485  0.70294  0.47952  1.0000
  H   H3331     1.0  0.58290  0.71643  0.48008  1.0000
  C   C1874     1.0  0.59083  0.69592  0.54363  1.0000
  H   H3332     1.0  0.52768  0.55166  0.39728  1.0000
  C   C1875     1.0  0.65522  0.59218  0.34785  1.0000
  C   C1876     1.0  0.58425  0.72384  0.48897  1.0000
  H   H3333     1.0  0.57623  0.62981  0.61668  1.0000
  H   H3334     1.0  0.58804  0.69277  0.57124  1.0000
  H   H3335     1.0  0.59862  0.66560  0.39985  1.0000
  H   H3336     1.0  0.54644  0.50845  0.46356  1.0000
  C   C1877     1.0  0.56620  0.70996  0.32833  1.0000
  H   H3337     1.0  0.55271  0.68883  0.39766  1.0000
  C   C1878     1.0  0.64906  0.61358  0.32262  1.0000
  S   S419      1.0  0.51255  0.66404  0.34968  1.0000
  H   H3338     1.0  0.60505  0.69350  0.54193  1.0000
  C   C1879     1.0  0.58103  0.71403  0.50794  1.0000
  C   C1880     1.0  0.57756  0.64864  0.39137  1.0000
  H   H3339     1.0  0.59808  0.72130  0.36395  1.0000
  H   H3340     1.0  0.58579  0.70998  0.54214  1.0000
  H   H3341     1.0  0.61982  0.69158  0.40054  1.0000
  H   H3342     1.0  0.56486  0.67604  0.51814  1.0000
  H   H3343     1.0  0.61297  0.71513  0.37818  1.0000
  H   H3344     1.0  0.51711  0.54024  0.38844  1.0000
  H   H3345     1.0  0.50002  0.60926  0.36510  1.0000
  H   H3346     1.0  0.50717  0.56835  0.37140  1.0000
  H   H3347     1.0  0.56973  0.60296  0.63097  1.0000
  H   H3348     1.0  0.65078  0.49678  0.62318  1.0000
  H   H3349     1.0  0.53891  0.60762  0.62466  1.0000
  H   H3350     1.0  0.50429  0.61943  0.33067  1.0000
  C   C1881     1.0  0.63647  0.57977  0.63913  1.0000
  H   H3351     1.0  0.61758  0.70554  0.62623  1.0000
  H   H3352     1.0  0.55981  0.57943  0.62538  1.0000
  H   H3353     1.0  0.58847  0.53083  0.33039  1.0000
  S   S420      1.0  0.65981  0.69750  0.31741  1.0000
  C   C1882     1.0  0.68134  0.70423  0.64534  1.0000
  H   H3354     1.0  0.62034  0.70786  0.34179  1.0000
  H   H3355     1.0  0.60736  0.72301  0.64947  1.0000
  H   H3356     1.0  0.50612  0.65952  0.63729  1.0000
  H   H3357     1.0  0.56331  0.64371  0.64924  1.0000
  H   H3358     1.0  0.51405  0.53759  0.41145  1.0000
  N   N104      1.0  0.55479  0.62684  0.63837  1.0000
  C   C1883     1.0  0.59638  0.69615  0.32222  1.0000
  H   H3359     1.0  0.54164  0.72823  0.38961  1.0000
  H   H3360     1.0  0.69133  0.71083  0.64482  1.0000
  H   H3361     1.0  0.53642  0.69889  0.63437  1.0000
  C   C1884     1.0  0.58054  0.66925  0.64030  1.0000
  C   C1885     1.0  0.54873  0.58153  0.63632  1.0000
  C   C1886     1.0  0.55757  0.60760  0.63988  1.0000
  H   H3362     1.0  0.68508  0.65730  0.64713  1.0000
  H   H3363     1.0  0.59644  0.65196  0.32053  1.0000
  H   H3364     1.0  0.65989  0.56243  0.64457  1.0000
  H   H3365     1.0  0.70543  0.62828  0.64510  1.0000
  C   C1887     1.0  0.51159  0.66037  0.64798  1.0000
  C   C1888     1.0  0.59002  0.48827  0.34309  1.0000
  C   C1889     1.0  0.56217  0.66067  0.31725  1.0000
  N   N105      1.0  0.58485  0.63195  0.31847  1.0000
  H   H3366     1.0  0.55816  0.63602  0.31696  1.0000
  H   H3367     1.0  0.49576  0.58344  0.34595  1.0000
  Fe  Fe211     1.0  0.49414  0.66159  0.37533  1.0000
  C   C1890     1.0  0.53112  0.65386  0.64436  1.0000
  C   C1891     1.0  0.53590  0.63441  0.64402  1.0000
  C   C1892     1.0  0.64950  0.49324  0.63738  1.0000
  H   H3368     1.0  0.66496  0.61625  0.64816  1.0000
  H   H3369     1.0  0.63563  0.49578  0.64369  1.0000
  C   C1893     1.0  0.65584  0.68697  0.64614  1.0000
  H   H3370     1.0  0.64594  0.68037  0.64644  1.0000
  C   C1894     1.0  0.59852  0.71627  0.64684  1.0000
  H   H3371     1.0  0.65598  0.50152  0.64123  1.0000
  H   H3372     1.0  0.58547  0.72457  0.64789  1.0000
  H   H3373     1.0  0.50861  0.67404  0.64917  1.0000
  H   H3374     1.0  0.53162  0.60198  0.64765  1.0000
  C   C1895     1.0  0.58374  0.62155  0.64799  1.0000
  H   H3375     1.0  0.58650  0.60814  0.64621  1.0000
  H   H3376     1.0  0.50882  0.60246  0.31896  1.0000
  Fe  Fe212     1.0  0.53579  0.62792  0.70084  1.0000
  S   S421      1.0  0.52767  0.62740  0.72906  1.0000
  S   S422      1.0  0.54077  0.60421  0.69013  1.0000
  Fe  Fe213     1.0  0.53317  0.66651  0.69201  1.0000
  S   S423      1.0  0.52411  0.66918  0.71965  1.0000
  S   S424      1.0  0.53606  0.68933  0.67033  1.0000
  Fe  Fe214     1.0  0.54528  0.64589  0.72413  1.0000
  S   S425      1.0  0.56626  0.64045  0.73927  1.0000
  Fe  Fe215     1.0  0.50741  0.65047  0.72154  1.0000
  S   S426      1.0  0.55511  0.64435  0.69627  1.0000
  S   S427      1.0  0.51487  0.64989  0.69348  1.0000
  H   H3377     1.0  0.65686  0.67698  0.67313  1.0000
  Fe  Fe216     1.0  0.65167  0.55481  0.70158  1.0000
  S   S428      1.0  0.62585  0.56898  0.69618  1.0000
  S   S429      1.0  0.67153  0.56737  0.70565  1.0000
  Fe  Fe217     1.0  0.64600  0.52003  0.69861  1.0000
  S   S430      1.0  0.61985  0.53179  0.69295  1.0000
  H   H3378     1.0  0.63897  0.60287  0.66166  1.0000
  C   C1896     1.0  0.52848  0.54878  0.70726  1.0000
  Fe  Fe218     1.0  0.61631  0.54601  0.71372  1.0000
  S   S431      1.0  0.59108  0.54892  0.73255  1.0000
  S   S432      1.0  0.65856  0.54070  0.67965  1.0000
  S   S433      1.0  0.64159  0.53282  0.72098  1.0000
  Fe  Fe219     1.0  0.66970  0.68421  0.70648  1.0000
  S   S434      1.0  0.64970  0.66805  0.71608  1.0000
  S   S435      1.0  0.68315  0.69236  0.67888  1.0000
  Fe  Fe220     1.0  0.67124  0.68812  0.74264  1.0000
  S   S436      1.0  0.65095  0.67185  0.75545  1.0000
  S   S437      1.0  0.68874  0.70043  0.75227  1.0000
  Fe  Fe221     1.0  0.66463  0.65444  0.73661  1.0000
  S   S438      1.0  0.66971  0.62536  0.74501  1.0000
  Fe  Fe222     1.0  0.63707  0.68632  0.73399  1.0000
  S   S439      1.0  0.60832  0.69646  0.73646  1.0000
  S   S440      1.0  0.68599  0.66919  0.72559  1.0000
  S   S441      1.0  0.65597  0.70392  0.72259  1.0000
  H   H3379     1.0  0.71677  0.57539  0.65769  1.0000
  H   H3380     1.0  0.59836  0.72228  0.67856  1.0000
  H   H3381     1.0  0.56832  0.52496  0.73303  1.0000
  C   C1897     1.0  0.69118  0.60382  0.66689  1.0000
  H   H3382     1.0  0.70226  0.56437  0.65378  1.0000
  C   C1898     1.0  0.69383  0.71141  0.76610  1.0000
  C   C1899     1.0  0.68221  0.71569  0.78097  1.0000
  H   H3383     1.0  0.57822  0.53820  0.69086  1.0000
  H   H3384     1.0  0.83111  0.73476  0.89435  1.0000
  H   H3385     1.0  0.62316  0.68910  0.69165  1.0000
  C   C1900     1.0  0.59065  0.62092  0.66367  1.0000
  H   H3386     1.0  0.85391  0.70872  0.87084  1.0000
  C   C1901     1.0  0.58824  0.50521  0.71045  1.0000
  C   C1902     1.0  0.67002  0.58446  0.71584  1.0000
  C   C1903     1.0  0.65579  0.59824  0.71719  1.0000
  C   C1904     1.0  0.65580  0.61159  0.72518  1.0000
  C   C1905     1.0  0.66993  0.61095  0.73216  1.0000
  C   C1906     1.0  0.68404  0.59722  0.73064  1.0000
  C   C1907     1.0  0.68423  0.58432  0.72227  1.0000
  H   H3387     1.0  0.64484  0.59860  0.71208  1.0000
  H   H3388     1.0  0.64474  0.62205  0.72644  1.0000
  H   H3389     1.0  0.69489  0.59645  0.73614  1.0000
  H   H3390     1.0  0.69534  0.57387  0.72120  1.0000
  C   C1908     1.0  0.82489  0.72306  0.81013  1.0000
  H   H3391     1.0  0.63007  0.62585  0.75805  1.0000
  H   H3392     1.0  0.63527  0.59392  0.76434  1.0000
  H   H3393     1.0  0.49608  0.58975  0.67438  1.0000
  H   H3394     1.0  0.61190  0.62636  0.77614  1.0000
  C   C1909     1.0  0.62447  0.61856  0.77082  1.0000
  C   C1910     1.0  0.71010  0.71595  0.76203  1.0000
  H   H3395     1.0  0.67847  0.72131  0.69375  1.0000
  H   H3396     1.0  0.57434  0.54527  0.78826  1.0000
  H   H3397     1.0  0.59120  0.54941  0.79595  1.0000
  H   H3398     1.0  0.65577  0.54510  0.76366  1.0000
  H   H3399     1.0  0.63160  0.50202  0.67852  1.0000
  H   H3400     1.0  0.70300  0.64263  0.66654  1.0000
  C   C1911     1.0  0.62222  0.60116  0.76924  1.0000
  H   H3401     1.0  0.59100  0.59409  0.70762  1.0000
  H   H3402     1.0  0.77271  0.72977  0.88957  1.0000
  C   C1912     1.0  0.70313  0.72857  0.78762  1.0000
  H   H3403     1.0  0.62662  0.60724  0.68223  1.0000
  H   H3404     1.0  0.52646  0.57414  0.69166  1.0000
  H   H3405     1.0  0.59112  0.69156  0.65489  1.0000
  C   C1913     1.0  0.55391  0.58788  0.70204  1.0000
  C   C1914     1.0  0.56890  0.57847  0.69347  1.0000
  C   C1915     1.0  0.58018  0.56632  0.70291  1.0000
  C   C1916     1.0  0.57623  0.56313  0.72094  1.0000
  C   C1917     1.0  0.56084  0.57202  0.72954  1.0000
  C   C1918     1.0  0.54980  0.58458  0.72007  1.0000
  H   H3406     1.0  0.57223  0.58107  0.67953  1.0000
  H   H3407     1.0  0.59211  0.55975  0.69612  1.0000
  H   H3408     1.0  0.55774  0.56965  0.74347  1.0000
  H   H3409     1.0  0.53811  0.59170  0.72674  1.0000
  C   C1919     1.0  0.57756  0.65647  0.73817  1.0000
  C   C1920     1.0  0.59490  0.65148  0.73948  1.0000
  C   C1921     1.0  0.60433  0.66364  0.73901  1.0000
  C   C1922     1.0  0.59643  0.68101  0.73750  1.0000
  C   C1923     1.0  0.57894  0.68607  0.73659  1.0000
  C   C1924     1.0  0.56955  0.67385  0.73675  1.0000
  H   H3410     1.0  0.60124  0.63822  0.74051  1.0000
  H   H3411     1.0  0.61770  0.65951  0.74002  1.0000
  H   H3412     1.0  0.57264  0.69945  0.73583  1.0000
  H   H3413     1.0  0.55605  0.67781  0.73621  1.0000
  C   C1925     1.0  0.51962  0.56776  0.70425  1.0000
  C   C1926     1.0  0.62046  0.70181  0.68293  1.0000
  H   H3414     1.0  0.57078  0.66881  0.66744  1.0000
  H   H3415     1.0  0.60308  0.51018  0.73777  1.0000
  C   C1927     1.0  0.71723  0.70609  0.69602  1.0000
  H   H3416     1.0  0.77776  0.72443  0.85946  1.0000
  C   C1928     1.0  0.62433  0.49060  0.74516  1.0000
  H   H3417     1.0  0.63341  0.61654  0.77955  1.0000
  H   H3418     1.0  0.57062  0.56442  0.79666  1.0000
  H   H3419     1.0  0.73731  0.69678  0.71104  1.0000
  H   H3420     1.0  0.59487  0.61551  0.69896  1.0000
  C   C1929     1.0  0.59240  0.68043  0.68867  1.0000
  H   H3421     1.0  0.74512  0.65584  0.81500  1.0000
  H   H3422     1.0  0.61687  0.59441  0.78234  1.0000
  H   H3423     1.0  0.65828  0.60041  0.68064  1.0000
  C   C1930     1.0  0.67470  0.69387  0.66079  1.0000
  C   C1931     1.0  0.71465  0.72457  0.77256  1.0000
  H   H3424     1.0  0.67773  0.72711  0.80311  1.0000
  H   H3425     1.0  0.74257  0.62601  0.82982  1.0000
  C   C1932     1.0  0.79862  0.73364  0.87568  1.0000
  H   H3426     1.0  0.57663  0.61200  0.71629  1.0000
  H   H3427     1.0  0.50997  0.59832  0.68145  1.0000
  H   H3428     1.0  0.65697  0.56619  0.75057  1.0000
  C   C1933     1.0  0.60742  0.66622  0.68203  1.0000
  C   C1934     1.0  0.66195  0.68512  0.66124  1.0000
  H   H3429     1.0  0.52243  0.54178  0.71998  1.0000
  H   H3430     1.0  0.60186  0.61715  0.72486  1.0000
  H   H3431     1.0  0.71139  0.65323  0.84212  1.0000
  H   H3432     1.0  0.65124  0.55055  0.74238  1.0000
  H   H3433     1.0  0.64268  0.70857  0.68705  1.0000
  H   H3434     1.0  0.58918  0.63407  0.66579  1.0000
  H   H3435     1.0  0.69624  0.73621  0.73381  1.0000
  H   H3436     1.0  0.59585  0.64587  0.70069  1.0000
  C   C1935     1.0  0.60864  0.64951  0.69558  1.0000
  H   H3437     1.0  0.69979  0.56811  0.67501  1.0000
  H   H3438     1.0  0.81747  0.72704  0.92093  1.0000
  H   H3439     1.0  0.60046  0.50054  0.70175  1.0000
  C   C1936     1.0  0.49280  0.59804  0.71404  1.0000
  C   C1937     1.0  0.63222  0.48850  0.68398  1.0000
  H   H3440     1.0  0.56113  0.69336  0.70541  1.0000
  H   H3441     1.0  0.65678  0.63564  0.65565  1.0000
  H   H3442     1.0  0.70496  0.64637  0.69438  1.0000
  H   H3443     1.0  0.73720  0.66486  0.83353  1.0000
  H   H3444     1.0  0.68620  0.59843  0.68070  1.0000
  H   H3445     1.0  0.83160  0.73142  0.85773  1.0000
  H   H3446     1.0  0.68306  0.69091  0.85251  1.0000
  H   H3447     1.0  0.68351  0.65599  0.69090  1.0000
  H   H3448     1.0  0.75208  0.68526  0.82476  1.0000
  H   H3449     1.0  0.71092  0.71822  0.71801  1.0000
  C   C1938     1.0  0.57279  0.70774  0.68021  1.0000
  C   C1939     1.0  0.61104  0.49825  0.73380  1.0000
  C   C1940     1.0  0.57818  0.52732  0.68525  1.0000
  H   H3450     1.0  0.71022  0.70008  0.69011  1.0000
  C   C1941     1.0  0.70324  0.57364  0.66103  1.0000
  H   H3451     1.0  0.80229  0.71941  0.87696  1.0000
  H   H3452     1.0  0.57162  0.72166  0.67431  1.0000
  C   C1942     1.0  0.56209  0.70679  0.69896  1.0000
  H   H3453     1.0  0.82630  0.71636  0.89038  1.0000
  H   H3454     1.0  0.79747  0.71852  0.90814  1.0000
  H   H3455     1.0  0.73823  0.63379  0.84956  1.0000
  H   H3456     1.0  0.91860  0.72662  0.88612  1.0000
  C   C1943     1.0  0.56696  0.51416  0.74428  1.0000
  H   H3457     1.0  0.55793  0.62526  0.66403  1.0000
  H   H3458     1.0  0.72162  0.68329  0.71622  1.0000
  C   C1944     1.0  0.56422  0.62981  0.65047  1.0000
  H   H3459     1.0  0.66301  0.73182  0.66814  1.0000
  H   H3460     1.0  0.59044  0.51652  0.71391  1.0000
  H   H3461     1.0  0.58371  0.61314  0.67531  1.0000
  H   H3462     1.0  0.50781  0.59806  0.74119  1.0000
  H   H3463     1.0  0.59566  0.70802  0.69883  1.0000
  H   H3464     1.0  0.66964  0.71243  0.78437  1.0000
  H   H3465     1.0  0.49428  0.56219  0.71667  1.0000
  N   N106      1.0  0.69501  0.73434  0.70011  1.0000
  H   H3466     1.0  0.52774  0.54274  0.69692  1.0000
  H   H3467     1.0  0.55699  0.49824  0.73357  1.0000
  H   H3468     1.0  0.62008  0.66999  0.67857  1.0000
  C   C1945     1.0  0.60080  0.70840  0.68482  1.0000
  C   C1946     1.0  0.73228  0.63166  0.83981  1.0000
  C   C1947     1.0  0.69284  0.64363  0.69315  1.0000
  C   C1948     1.0  0.55215  0.68432  0.65257  1.0000
  C   C1949     1.0  0.69100  0.59077  0.65630  1.0000
  H   H3469     1.0  0.67933  0.70968  0.83556  1.0000
  H   H3470     1.0  0.71928  0.71278  0.75062  1.0000
  H   H3471     1.0  0.69621  0.72588  0.67684  1.0000
  C   C1950     1.0  0.54934  0.51929  0.75575  1.0000
  H   H3472     1.0  0.61357  0.65102  0.70632  1.0000
  H   H3473     1.0  0.70548  0.62213  0.68129  1.0000
  H   H3474     1.0  0.59095  0.52384  0.67672  1.0000
  H   H3475     1.0  0.55934  0.60060  0.65309  1.0000
  C   C1951     1.0  0.67952  0.63168  0.67544  1.0000
  H   H3476     1.0  0.70494  0.60371  0.66605  1.0000
  S   S442      1.0  0.62322  0.56539  0.65094  1.0000
  H   H3477     1.0  0.57675  0.51274  0.75185  1.0000
  H   H3478     1.0  0.73509  0.70417  0.82363  1.0000
  H   H3479     1.0  0.67791  0.58805  0.65890  1.0000
  H   H3480     1.0  0.76971  0.69937  0.79759  1.0000
  H   H3481     1.0  0.62717  0.72675  0.67900  1.0000
  C   C1952     1.0  0.74552  0.69598  0.81587  1.0000
  S   S443      1.0  0.65534  0.49108  0.70165  1.0000
  H   H3482     1.0  0.56787  0.71209  0.70667  1.0000
  H   H3483     1.0  0.50535  0.65280  0.66023  1.0000
  C   C1953     1.0  0.70417  0.71702  0.70848  1.0000
  N   N107      1.0  0.59153  0.69865  0.67821  1.0000
  H   H3484     1.0  0.85253  0.71650  0.80595  1.0000
  H   H3485     1.0  0.61202  0.69128  0.65681  1.0000
  H   H3486     1.0  0.56600  0.70251  0.67324  1.0000
  C   C1954     1.0  0.56808  0.67367  0.65471  1.0000
  C   C1955     1.0  0.85468  0.72252  0.86741  1.0000
  H   H3487     1.0  0.75258  0.71838  0.79687  1.0000
  C   C1956     1.0  0.75870  0.70693  0.80546  1.0000
  C   C1957     1.0  0.50020  0.57010  0.70443  1.0000
  C   C1958     1.0  0.56854  0.49706  0.73879  1.0000
  C   C1959     1.0  0.67938  0.69568  0.83977  1.0000
  C   C1960     1.0  0.62870  0.71399  0.68789  1.0000
  H   H3488     1.0  0.67066  0.64442  0.67303  1.0000
  H   H3489     1.0  0.68716  0.69073  0.81426  1.0000
  H   H3490     1.0  0.53890  0.52140  0.74869  1.0000
  H   H3491     1.0  0.63216  0.50017  0.74398  1.0000
  N   N108      1.0  0.72481  0.67851  0.81228  1.0000
  C   C1961     1.0  0.71819  0.67526  0.79814  1.0000
  C   C1962     1.0  0.71045  0.68889  0.82359  1.0000
  C   C1963     1.0  0.73848  0.68911  0.80372  1.0000
  C   C1964     1.0  0.73304  0.66206  0.82289  1.0000
  C   C1965     1.0  0.72168  0.64854  0.83161  1.0000
  C   C1966     1.0  0.73159  0.66511  0.78520  1.0000
  H   H3492     1.0  0.68750  0.63545  0.70544  1.0000
  H   H3493     1.0  0.53636  0.71607  0.71285  1.0000
  S   S444      1.0  0.79006  0.73005  0.81502  1.0000
  C   C1967     1.0  0.65192  0.61354  0.67510  1.0000
  C   C1968     1.0  0.72309  0.66204  0.77211  1.0000
  H   H3494     1.0  0.73783  0.68341  0.69655  1.0000
  H   H3495     1.0  0.71242  0.68775  0.79058  1.0000
  H   H3496     1.0  0.70752  0.66820  0.80346  1.0000
  H   H3497     1.0  0.71353  0.68713  0.83643  1.0000
  H   H3498     1.0  0.70934  0.70288  0.81797  1.0000
  H   H3499     1.0  0.73347  0.70045  0.79425  1.0000
  H   H3500     1.0  0.74992  0.68159  0.79625  1.0000
  H   H3501     1.0  0.61826  0.50176  0.72040  1.0000
  H   H3502     1.0  0.62919  0.62480  0.66392  1.0000
  H   H3503     1.0  0.71582  0.64555  0.82232  1.0000
  H   H3504     1.0  0.57352  0.50182  0.69312  1.0000
  H   H3505     1.0  0.74179  0.67235  0.77775  1.0000
  H   H3506     1.0  0.73766  0.65236  0.79197  1.0000
  C   C1969     1.0  0.49626  0.59742  0.68366  1.0000
  H   H3507     1.0  0.62278  0.71563  0.70132  1.0000
  H   H3508     1.0  0.66613  0.69381  0.84116  1.0000
  H   H3509     1.0  0.69121  0.67216  0.83087  1.0000
  C   C1970     1.0  0.69189  0.68590  0.82647  1.0000
  H   H3510     1.0  0.64788  0.62138  0.68517  1.0000
  H   H3511     1.0  0.62680  0.70080  0.66949  1.0000
  C   C1971     1.0  0.68686  0.72409  0.79161  1.0000
  H   H3512     1.0  0.59259  0.68005  0.70226  1.0000
  C   C1972     1.0  0.69646  0.63454  0.67818  1.0000
  H   H3513     1.0  0.73283  0.65450  0.76319  1.0000
  H   H3514     1.0  0.71268  0.65476  0.77867  1.0000
  H   H3515     1.0  0.71756  0.67448  0.76436  1.0000
  H   H3516     1.0  0.56133  0.51600  0.70759  1.0000
  H   H3517     1.0  0.76381  0.71143  0.81437  1.0000
  H   H3518     1.0  0.56820  0.53159  0.67733  1.0000
  N   N109      1.0  0.60567  0.58779  0.75461  1.0000
  C   C1973     1.0  0.59509  0.58017  0.77153  1.0000
  C   C1974     1.0  0.61042  0.60363  0.75654  1.0000
  C   C1975     1.0  0.59421  0.59355  0.74158  1.0000
  C   C1976     1.0  0.62153  0.57519  0.74805  1.0000
  C   C1977     1.0  0.63087  0.56199  0.76174  1.0000
  C   C1978     1.0  0.58710  0.56519  0.77102  1.0000
  C   C1979     1.0  0.60157  0.60408  0.72376  1.0000
  C   C1980     1.0  0.64984  0.55557  0.75407  1.0000
  C   C1981     1.0  0.58042  0.55552  0.78914  1.0000
  C   C1982     1.0  0.59027  0.60653  0.71091  1.0000
  H   H3519     1.0  0.58421  0.59030  0.77626  1.0000
  H   H3520     1.0  0.60263  0.57560  0.78178  1.0000
  H   H3521     1.0  0.61762  0.60990  0.74406  1.0000
  H   H3522     1.0  0.59844  0.61315  0.76036  1.0000
  H   H3523     1.0  0.58162  0.60152  0.74684  1.0000
  H   H3524     1.0  0.59105  0.58225  0.73896  1.0000
  H   H3525     1.0  0.61847  0.56742  0.74038  1.0000
  H   H3526     1.0  0.63104  0.58233  0.73873  1.0000
  H   H3527     1.0  0.62463  0.55070  0.76675  1.0000
  H   H3528     1.0  0.63052  0.56724  0.77294  1.0000
  H   H3529     1.0  0.57600  0.57030  0.76453  1.0000
  H   H3530     1.0  0.59660  0.55587  0.76385  1.0000
  H   H3531     1.0  0.61476  0.59763  0.71832  1.0000
  H   H3532     1.0  0.61787  0.48715  0.75889  1.0000
  C   C1983     1.0  0.59853  0.69852  0.65928  1.0000
  H   H3533     1.0  0.69458  0.70901  0.71609  1.0000
  C   C1984     1.0  0.63568  0.61207  0.67038  1.0000
  H   H3534     1.0  0.58055  0.67581  0.68942  1.0000
  H   H3535     1.0  0.52141  0.57315  0.71455  1.0000
  H   H3536     1.0  0.61775  0.63897  0.68981  1.0000
  H   H3537     1.0  0.72377  0.62231  0.84633  1.0000
  H   H3538     1.0  0.86106  0.72528  0.87648  1.0000
  H   H3539     1.0  0.67322  0.62469  0.68809  1.0000
  C   C1985     1.0  0.72923  0.69152  0.70559  1.0000
  Fe  Fe223     1.0  0.63176  0.55338  0.67587  1.0000
  N   N110      1.0  0.68155  0.62198  0.66153  1.0000
  C   C1986     1.0  0.66391  0.62221  0.65917  1.0000
  H   H3540     1.0  0.53093  0.62749  0.65730  1.0000
  H   H3541     1.0  0.60510  0.66344  0.67038  1.0000
  C   C1987     1.0  0.79719  0.73254  0.90604  1.0000
  H   H3542     1.0  0.54228  0.54769  0.70715  1.0000
  H   H3543     1.0  0.54869  0.53149  0.75957  1.0000
  H   H3544     1.0  0.79196  0.71671  0.94091  1.0000
  H   H3545     1.0  0.56715  0.48712  0.75089  1.0000
  N   N111      1.0  0.58478  0.49126  0.72620  1.0000
  C   C1988     1.0  0.57416  0.51191  0.69953  1.0000
  H   H3546     1.0  0.49955  0.56388  0.69417  1.0000
  H   H3547     1.0  0.60448  0.61465  0.66159  1.0000
  H   H3548     1.0  0.53703  0.71214  0.69212  1.0000
  H   H3549     1.0  0.67198  0.73296  0.72007  1.0000
  H   H3550     1.0  0.53595  0.65631  0.65472  1.0000
  C   C1989     1.0  0.83673  0.73399  0.86779  1.0000
  H   H3551     1.0  0.72513  0.71398  0.68542  1.0000
  C   C1990     1.0  0.54370  0.71716  0.69930  1.0000
  H   H3552     1.0  0.82408  0.71199  0.80581  1.0000
  H   H3553     1.0  0.79879  0.73215  0.94839  1.0000
  H   H3554     1.0  0.54726  0.50920  0.76761  1.0000
  H   H3555     1.0  0.50624  0.60015  0.71065  1.0000
  C   C1991     1.0  0.79308  0.73036  0.93829  1.0000
  H   H3556     1.0  0.86270  0.72508  0.85421  1.0000
  H   H3557     1.0  0.73237  0.73298  0.69664  1.0000
  H   H3558     1.0  0.54373  0.73095  0.69354  1.0000
  H   H3559     1.0  0.89829  0.73261  0.87952  1.0000
  C   C1992     1.0  0.82503  0.73057  0.88595  1.0000
  C   C1993     1.0  0.80983  0.73474  0.81532  1.0000
  H   H3560     1.0  0.50404  0.62151  0.65367  1.0000
  C   C1994     1.0  0.84104  0.72559  0.81026  1.0000
  C   C1995     1.0  0.68639  0.73123  0.68736  1.0000
  H   H3561     1.0  0.72721  0.72788  0.76917  1.0000
  H   H3562     1.0  0.49501  0.57612  0.73627  1.0000
  C   C1996     1.0  0.49364  0.59911  0.74444  1.0000
  C   C1997     1.0  0.80447  0.73526  0.92057  1.0000
  H   H3563     1.0  0.78483  0.88779  0.08748  1.0000
  H   H3564     1.0  0.76245  0.88112  0.00514  1.0000
  H   H3565     1.0  0.80497  0.94410  0.11815  1.0000
  H   H3566     1.0  0.82122  0.94712  0.12751  1.0000
  C   C1998     1.0  0.84157  0.93157  0.05603  1.0000
  S   S445      1.0  0.96864  0.80465  0.23018  1.0000
  H   H3567     1.0  0.97919  0.85318  0.13970  1.0000
  Fe  Fe224     1.0  0.88150  0.79656  0.15650  1.0000
  S   S446      1.0  0.85900  0.80060  0.17857  1.0000
  S   S447      1.0  0.88038  0.79124  0.13129  1.0000
  Fe  Fe225     1.0  0.90800  0.79438  0.17725  1.0000
  S   S448      1.0  0.88806  0.79789  0.20119  1.0000
  C   C1999     1.0  0.69978  0.83429  0.19281  1.0000
  Fe  Fe226     1.0  0.87520  0.78012  0.19474  1.0000
  H   H3568     1.0  0.79666  0.89556  0.10875  1.0000
  Fe  Fe227     1.0  0.87330  0.81815  0.18346  1.0000
  S   S449      1.0  0.85873  0.84219  0.19290  1.0000
  C   C2000     1.0  0.81306  0.76603  0.14924  1.0000
  S   S450      1.0  0.89433  0.81625  0.15970  1.0000
  Fe  Fe228     1.0  0.77051  0.93480  0.15397  1.0000
  S   S451      1.0  0.78065  0.91191  0.17297  1.0000
  S   S452      1.0  0.77631  0.96123  0.14887  1.0000
  Fe  Fe229     1.0  0.74955  0.91532  0.14325  1.0000
  S   S453      1.0  0.75772  0.89089  0.16124  1.0000
  S   S454      1.0  0.73071  0.91709  0.12722  1.0000
  Fe  Fe230     1.0  0.75368  0.90728  0.18029  1.0000
  S   S455      1.0  0.74030  0.90004  0.20793  1.0000
  Fe  Fe231     1.0  0.78381  0.89728  0.15241  1.0000
  S   S456      1.0  0.80527  0.87576  0.14505  1.0000
  S   S457      1.0  0.74309  0.93154  0.16307  1.0000
  S   S458      1.0  0.77609  0.92057  0.13254  1.0000
  Fe  Fe232     1.0  0.76734  0.76636  0.22129  1.0000
  S   S459      1.0  0.75167  0.77409  0.24580  1.0000
  C   C2001     1.0  0.80232  0.77154  0.16629  1.0000
  Fe  Fe233     1.0  0.74222  0.78994  0.20040  1.0000
  S   S460      1.0  0.72449  0.79959  0.22332  1.0000
  S   S461      1.0  0.73392  0.80215  0.17525  1.0000
  Fe  Fe234     1.0  0.74864  0.80088  0.23007  1.0000
  S   S462      1.0  0.74959  0.82124  0.24324  1.0000
  Fe  Fe235     1.0  0.72880  0.77201  0.23708  1.0000
  H   H3569     1.0  0.79634  0.78945  0.05588  1.0000
  S   S463      1.0  0.76634  0.79347  0.20608  1.0000
  S   S464      1.0  0.74460  0.76209  0.21356  1.0000
  Fe  Fe236     1.0  0.79901  0.82377  0.05237  1.0000
  S   S465      1.0  0.77416  0.81955  0.07044  1.0000
  S   S466      1.0  0.80605  0.81994  0.02484  1.0000
  Fe  Fe237     1.0  0.81147  0.83437  0.07909  1.0000
  S   S467      1.0  0.78752  0.83108  0.09931  1.0000
  S   S468      1.0  0.83148  0.84463  0.08535  1.0000
  Fe  Fe238     1.0  0.79018  0.80687  0.09020  1.0000
  S   S469      1.0  0.78580  0.78197  0.10850  1.0000
  Fe  Fe239     1.0  0.77361  0.84403  0.07790  1.0000
  S   S470      1.0  0.74826  0.86277  0.07976  1.0000
  S   S471      1.0  0.81541  0.80902  0.07166  1.0000
  S   S472      1.0  0.79728  0.84946  0.05820  1.0000
  C   C2002     1.0  0.71307  0.86331  0.13810  1.0000
  S   S473      1.0  0.76047  0.78306  0.00047  1.0000
  C   C2003     1.0  0.79320  0.80976  0.01821  1.0000
  C   C2004     1.0  0.77644  0.80870  0.02735  1.0000
  C   C2005     1.0  0.76651  0.80032  0.02196  1.0000
  C   C2006     1.0  0.77306  0.79356  0.00699  1.0000
  C   C2007     1.0  0.78961  0.79513  0.99749  1.0000
  C   C2008     1.0  0.79972  0.80305  0.00320  1.0000
  H   H3570     1.0  0.77100  0.81463  0.03838  1.0000
  H   H3571     1.0  0.75357  0.79947  0.02914  1.0000
  H   H3572     1.0  0.92374  0.74959  0.26366  1.0000
  H   H3573     1.0  0.81262  0.80398  0.99596  1.0000
  C   C2009     1.0  0.74784  0.79591  0.15676  1.0000
  C   C2010     1.0  0.74864  0.80778  0.14108  1.0000
  C   C2011     1.0  0.75993  0.80332  0.12615  1.0000
  C   C2012     1.0  0.77031  0.78687  0.12678  1.0000
  H   H3574     1.0  0.69792  0.85096  0.12855  1.0000
  H   H3575     1.0  0.68811  0.86142  0.18731  1.0000
  H   H3576     1.0  0.74075  0.82055  0.14050  1.0000
  H   H3577     1.0  0.76047  0.81263  0.11413  1.0000
  H   H3578     1.0  0.69515  0.85288  0.15957  1.0000
  H   H3579     1.0  0.71271  0.86226  0.11206  1.0000
  H   H3580     1.0  0.72085  0.84190  0.12476  1.0000
  C   C2013     1.0  0.84431  0.75598  0.21746  1.0000
  H   H3581     1.0  0.79139  0.91467  0.23167  1.0000
  H   H3582     1.0  0.71895  0.84899  0.00097  1.0000
  H   H3583     1.0  0.76374  0.97727  0.25611  1.0000
  H   H3584     1.0  0.72506  0.82586  0.00669  1.0000
  H   H3585     1.0  0.97080  0.78025  0.18109  1.0000
  H   H3586     1.0  0.80361  0.76810  0.14102  1.0000
  C   C2014     1.0  0.76592  0.86348  0.02887  1.0000
  C   C2015     1.0  0.73613  0.90154  0.11448  1.0000
  C   C2016     1.0  0.72525  0.90239  0.10364  1.0000
  C   C2017     1.0  0.72917  0.89040  0.09311  1.0000
  C   C2018     1.0  0.74393  0.87733  0.09344  1.0000
  C   C2019     1.0  0.75470  0.87616  0.10457  1.0000
  C   C2020     1.0  0.75089  0.88838  0.11500  1.0000
  H   H3587     1.0  0.71383  0.91250  0.10323  1.0000
  H   H3588     1.0  0.72076  0.89130  0.08461  1.0000
  H   H3589     1.0  0.76599  0.86595  0.10504  1.0000
  H   H3590     1.0  0.75937  0.88765  0.12336  1.0000
  C   C2021     1.0  0.74214  0.87791  0.21687  1.0000
  C   C2022     1.0  0.73522  0.87284  0.23440  1.0000
  C   C2023     1.0  0.73699  0.85537  0.24217  1.0000
  C   C2024     1.0  0.74536  0.84280  0.23242  1.0000
  C   C2025     1.0  0.75189  0.84777  0.21473  1.0000
  C   C2026     1.0  0.75055  0.86535  0.20704  1.0000
  H   H3591     1.0  0.72874  0.88245  0.24208  1.0000
  H   H3592     1.0  0.73207  0.85157  0.25586  1.0000
  H   H3593     1.0  0.75866  0.83811  0.20719  1.0000
  H   H3594     1.0  0.75624  0.86914  0.19363  1.0000
  H   H3595     1.0  0.73305  0.83628  0.17735  1.0000
  C   C2027     1.0  0.78156  0.96648  0.16599  1.0000
  C   C2028     1.0  0.79166  0.95424  0.17659  1.0000
  C   C2029     1.0  0.79578  0.95878  0.19016  1.0000
  H   H3596     1.0  0.79646  0.94135  0.17421  1.0000
  H   H3597     1.0  0.80371  0.94934  0.19827  1.0000
  C   C2030     1.0  0.84392  0.85228  0.17972  1.0000
  C   C2031     1.0  0.84559  0.84650  0.16473  1.0000
  C   C2032     1.0  0.83343  0.85373  0.15445  1.0000
  C   C2033     1.0  0.81969  0.86693  0.15888  1.0000
  C   C2034     1.0  0.81794  0.87282  0.17390  1.0000
  C   C2035     1.0  0.83010  0.86547  0.18437  1.0000
  H   H3598     1.0  0.85630  0.83646  0.16098  1.0000
  H   H3599     1.0  0.83457  0.84897  0.14310  1.0000
  H   H3600     1.0  0.80726  0.88290  0.17751  1.0000
  H   H3601     1.0  0.82876  0.86988  0.19606  1.0000
  C   C2036     1.0  0.86710  0.80637  0.11841  1.0000
  C   C2037     1.0  0.85832  0.82207  0.12291  1.0000
  C   C2038     1.0  0.84726  0.83362  0.11272  1.0000
  C   C2039     1.0  0.84468  0.82945  0.09828  1.0000
  C   C2040     1.0  0.85327  0.81364  0.09390  1.0000
  C   C2041     1.0  0.86467  0.80222  0.10382  1.0000
  H   H3602     1.0  0.86004  0.82523  0.13424  1.0000
  H   H3603     1.0  0.84043  0.84577  0.11608  1.0000
  H   H3604     1.0  0.85146  0.81042  0.08262  1.0000
  H   H3605     1.0  0.87147  0.79007  0.10030  1.0000
  H   H3606     1.0  0.71578  0.83900  0.15680  1.0000
  C   C2042     1.0  0.73249  0.96340  0.19102  1.0000
  C   C2043     1.0  0.79380  0.83793  0.23119  1.0000
  H   H3607     1.0  0.68928  0.83445  0.22009  1.0000
  C   C2044     1.0  0.81535  0.76535  0.21145  1.0000
  H   H3608     1.0  0.82815  0.76144  0.04675  1.0000
  H   H3609     1.0  0.70533  0.85589  0.19857  1.0000
  H   H3610     1.0  0.85481  0.86678  0.09703  1.0000
  H   H3611     1.0  0.80590  0.77490  0.20520  1.0000
  H   H3612     1.0  0.83547  0.78002  0.20111  1.0000
  C   C2045     1.0  0.95960  0.80003  0.21515  1.0000
  C   C2046     1.0  0.94182  0.80534  0.21575  1.0000
  C   C2047     1.0  0.93462  0.80234  0.20331  1.0000
  C   C2048     1.0  0.94508  0.79334  0.19072  1.0000
  C   C2049     1.0  0.96271  0.78756  0.19053  1.0000
  C   C2050     1.0  0.96998  0.79108  0.20255  1.0000
  H   H3613     1.0  0.67317  0.83871  0.20724  1.0000
  C   C2051     1.0  0.95375  0.85562  0.19098  1.0000
  C   C2052     1.0  0.70132  0.85348  0.18761  1.0000
  H   H3614     1.0  0.73384  0.75277  0.27502  1.0000
  H   H3615     1.0  0.68544  0.81720  0.21280  1.0000
  H   H3616     1.0  0.69633  0.83002  0.18264  1.0000
  H   H3617     1.0  0.79815  0.86950  0.09864  1.0000
  H   H3618     1.0  0.69607  0.91143  0.17298  1.0000
  H   H3619     1.0  0.65334  0.76037  0.25755  1.0000
  H   H3620     1.0  0.82468  0.82538  0.19708  1.0000
  H   H3621     1.0  0.95936  0.87966  0.16224  1.0000
  H   H3622     1.0  0.98961  0.88156  0.13086  1.0000
  H   H3623     1.0  0.82770  0.78315  0.04789  1.0000
  H   H3624     1.0  0.78359  0.76265  0.18881  1.0000
  S   S474      1.0  0.70631  0.76301  0.25699  1.0000
  H   H3625     1.0  0.93101  0.82979  0.16527  1.0000
  C   C2053     1.0  0.68603  0.83106  0.20924  1.0000
  C   C2054     1.0  0.82053  0.77482  0.04506  1.0000
  C   C2055     1.0  0.98185  0.88496  0.14324  1.0000
  H   H3626     1.0  0.93845  0.86554  0.16181  1.0000
  H   H3627     1.0  0.79527  0.77735  0.27225  1.0000
  C   C2056     1.0  0.82459  0.79326  0.14148  1.0000
  H   H3628     1.0  0.78097  0.94427  0.22856  1.0000
  H   H3629     1.0  0.80407  0.88774  0.22141  1.0000
  H   H3630     1.0  0.94348  0.76614  0.21948  1.0000
  H   H3631     1.0  0.78309  0.96297  0.24800  1.0000
  C   C2057     1.0  0.74518  0.92680  0.23865  1.0000
  H   H3632     1.0  0.74697  0.83912  0.01049  1.0000
  C   C2058     1.0  0.91107  0.85243  0.16465  1.0000
  H   H3633     1.0  0.96106  0.84114  0.21515  1.0000
  H   H3634     1.0  0.79253  0.78343  0.16332  1.0000
  H   H3635     1.0  0.82746  0.82953  0.22194  1.0000
  C   C2059     1.0  0.92848  0.84248  0.16880  1.0000
  S   S475      1.0  0.93677  0.78923  0.17490  1.0000
  H   H3636     1.0  0.88353  0.79647  0.24695  1.0000
  H   H3637     1.0  0.93989  0.75175  0.20141  1.0000
  H   H3638     1.0  0.67102  0.73988  0.22871  1.0000
  C   C2060     1.0  0.71081  0.87815  0.16686  1.0000
  C   C2061     1.0  0.73167  0.85040  0.17310  1.0000
  C   C2062     1.0  0.74624  0.85297  0.15696  1.0000
  C   C2063     1.0  0.71218  0.88651  0.18126  1.0000
  C   C2064     1.0  0.76396  0.84561  0.16146  1.0000
  C   C2065     1.0  0.70919  0.90607  0.17565  1.0000
  H   H3639     1.0  0.69775  0.88382  0.16397  1.0000
  H   H3640     1.0  0.71998  0.88288  0.15504  1.0000
  H   H3641     1.0  0.73460  0.85452  0.18368  1.0000
  H   H3642     1.0  0.74560  0.86670  0.15086  1.0000
  H   H3643     1.0  0.74539  0.84606  0.14737  1.0000
  H   H3644     1.0  0.70228  0.88374  0.19314  1.0000
  H   H3645     1.0  0.72507  0.88191  0.18452  1.0000
  H   H3646     1.0  0.70392  0.87593  0.13690  1.0000
  H   H3647     1.0  0.72622  0.86593  0.13417  1.0000
  H   H3648     1.0  0.77405  0.84877  0.14986  1.0000
  H   H3649     1.0  0.76546  0.85128  0.17171  1.0000
  H   H3650     1.0  0.76586  0.83140  0.16583  1.0000
  H   H3651     1.0  0.71054  0.91169  0.18603  1.0000
  H   H3652     1.0  0.71881  0.90985  0.16389  1.0000
  H   H3653     1.0  0.80625  0.87959  0.07660  1.0000
  C   C2066     1.0  0.71097  0.85398  0.12516  1.0000
  N   N112      1.0  0.71355  0.85875  0.17081  1.0000
  C   C2067     1.0  0.76149  0.86756  0.01110  1.0000
  H   H3654     1.0  0.90083  0.84531  0.17236  1.0000
  H   H3655     1.0  0.84391  0.76813  0.08778  1.0000
  C   C2068     1.0  0.79818  0.88196  0.08925  1.0000
  H   H3656     1.0  0.82360  0.87569  0.10823  1.0000
  C   C2069     1.0  0.70922  0.85269  0.15683  1.0000
  H   H3657     1.0  0.80963  0.80133  0.21495  1.0000
  C   C2070     1.0  0.80485  0.89419  0.09586  1.0000
  H   H3658     1.0  0.97499  0.75302  0.21148  1.0000
  C   C2071     1.0  0.82397  0.88715  0.09741  1.0000
  H   H3659     1.0  0.81553  0.90449  0.12361  1.0000
  H   H3660     1.0  0.83102  0.88176  0.08577  1.0000
  H   H3661     1.0  0.80291  0.90688  0.08707  1.0000
  H   H3662     1.0  0.77369  0.78609  0.26823  1.0000
  C   C2072     1.0  0.82140  0.91178  0.11098  1.0000
  H   H3663     1.0  0.81037  0.91911  0.10500  1.0000
  H   H3664     1.0  0.84055  0.88220  0.12327  1.0000
  C   C2073     1.0  0.76907  0.96406  0.25364  1.0000
  H   H3665     1.0  0.81540  0.80921  0.11857  1.0000
  H   H3666     1.0  0.74848  0.75328  0.28761  1.0000
  H   H3667     1.0  0.72753  0.83640  0.98436  1.0000
  H   H3668     1.0  0.89638  0.80711  0.25382  1.0000
  N   N113      1.0  0.83350  0.89937  0.10025  1.0000
  H   H3669     1.0  0.80487  0.77096  0.07055  1.0000
  C   C2074     1.0  0.90979  0.78233  0.24761  1.0000
  H   H3670     1.0  0.78926  0.81564  0.21498  1.0000
  H   H3671     1.0  0.67912  0.76756  0.21257  1.0000
  H   H3672     1.0  0.79663  0.81860  0.18273  1.0000
  H   H3673     1.0  0.94359  0.85445  0.14486  1.0000
  C   C2075     1.0  0.84696  0.88873  0.11037  1.0000
  C   C2076     1.0  0.82926  0.92537  0.11471  1.0000
  C   C2077     1.0  0.86073  0.87489  0.10169  1.0000
  C   C2078     1.0  0.81546  0.93733  0.12517  1.0000
  H   H3674     1.0  0.82437  0.91413  0.06641  1.0000
  H   H3675     1.0  0.83929  0.91924  0.12240  1.0000
  H   H3676     1.0  0.72544  0.95993  0.18302  1.0000
  H   H3677     1.0  0.86365  0.85662  0.12582  1.0000
  H   H3678     1.0  0.80985  0.92991  0.13787  1.0000
  C   C2079     1.0  0.84259  0.90858  0.08329  1.0000
  C   C2080     1.0  0.87179  0.86313  0.11419  1.0000
  H   H3679     1.0  0.85441  0.89693  0.11294  1.0000
  H   H3680     1.0  0.85085  0.89913  0.07542  1.0000
  H   H3681     1.0  0.86956  0.88109  0.09047  1.0000
  H   H3682     1.0  0.88119  0.85308  0.10784  1.0000
  H   H3683     1.0  0.85766  0.81291  0.22536  1.0000
  H   H3684     1.0  0.71208  0.82599  0.19553  1.0000
  H   H3685     1.0  0.85537  0.77063  0.13670  1.0000
  H   H3686     1.0  0.91826  0.76392  0.20152  1.0000
  C   C2081     1.0  0.83093  0.92133  0.07154  1.0000
  H   H3687     1.0  0.78040  0.83878  0.23005  1.0000
  H   H3688     1.0  0.76989  0.93335  0.24836  1.0000
  H   H3689     1.0  0.83493  0.93346  0.10255  1.0000
  H   H3690     1.0  0.72316  0.97211  0.19908  1.0000
  C   C2082     1.0  0.83209  0.76827  0.20917  1.0000
  H   H3691     1.0  0.87897  0.87061  0.11823  1.0000
  H   H3692     1.0  0.85165  0.91542  0.08543  1.0000
  H   H3693     1.0  0.94557  0.86087  0.21679  1.0000
  S   S476      1.0  0.89669  0.77447  0.17242  1.0000
  H   H3694     1.0  0.75690  0.87237  0.03692  1.0000
  C   C2083     1.0  0.78049  0.74900  0.08077  1.0000
  H   H3695     1.0  0.83656  0.79838  0.13590  1.0000
  H   H3696     1.0  0.95312  0.83007  0.18846  1.0000
  H   H3697     1.0  0.92706  0.84046  0.18294  1.0000
  H   H3698     1.0  0.93893  0.84249  0.21452  1.0000
  C   C2084     1.0  0.94960  0.84960  0.21054  1.0000
  H   H3699     1.0  0.94180  0.86397  0.18737  1.0000
  H   H3700     1.0  0.84255  0.77696  0.16698  1.0000
  C   C2085     1.0  0.77401  0.85531  0.99965  1.0000
  H   H3701     1.0  0.84032  0.78283  0.11290  1.0000
  H   H3702     1.0  0.80415  0.98257  0.09352  1.0000
  H   H3703     1.0  0.76783  0.79002  0.05974  1.0000
  H   H3704     1.0  0.79634  0.83243  0.13113  1.0000
  H   H3705     1.0  0.80345  0.90563  0.20330  1.0000
  H   H3706     1.0  0.69083  0.74364  0.28877  1.0000
  H   H3707     1.0  0.74792  0.86645  0.01310  1.0000
  N   N114      1.0  0.96076  0.84438  0.16268  1.0000
  C   C2086     1.0  0.79297  0.75752  0.17798  1.0000
  C   C2087     1.0  0.84430  0.76505  0.14521  1.0000
  H   H3708     1.0  0.90773  0.86532  0.16797  1.0000
  H   H3709     1.0  0.98358  0.78648  0.20229  1.0000
  H   H3710     1.0  0.74994  0.93905  0.19355  1.0000
  H   H3711     1.0  0.89178  0.75345  0.26251  1.0000
  C   C2088     1.0  0.91078  0.77102  0.23475  1.0000
  N   N115      1.0  0.75829  0.93667  0.22656  1.0000
  C   C2089     1.0  0.96687  0.87552  0.15019  1.0000
  H   H3712     1.0  0.81918  0.77947  0.03143  1.0000
  H   H3713     1.0  0.74025  0.92005  0.23144  1.0000
  C   C2090     1.0  0.76577  0.77912  0.07073  1.0000
  C   C2091     1.0  0.97352  0.85576  0.15293  1.0000
  H   H3714     1.0  0.74233  0.86631  0.98746  1.0000
  H   H3715     1.0  0.96532  0.83010  0.14262  1.0000
  H   H3716     1.0  0.93372  0.81228  0.22550  1.0000
  H   H3717     1.0  0.91130  0.85391  0.15077  1.0000
  C   C2092     1.0  0.83593  0.98062  0.16082  1.0000
  H   H3718     1.0  0.98123  0.79427  0.15281  1.0000
  C   C2093     1.0  0.76483  0.75629  0.05661  1.0000
  C   C2094     1.0  0.79190  0.76533  0.05260  1.0000
  H   H3719     1.0  0.92106  0.80709  0.20335  1.0000
  H   H3720     1.0  0.89752  0.76938  0.23557  1.0000
  C   C2095     1.0  0.94303  0.85249  0.15893  1.0000
  H   H3721     1.0  0.62649  0.75470  0.25908  1.0000
  H   H3722     1.0  0.78905  0.77226  0.03975  1.0000
  H   H3723     1.0  0.64694  0.75697  0.28568  1.0000
  N   N116      1.0  0.92315  0.75386  0.23664  1.0000
  H   H3724     1.0  0.77457  0.84188  0.00703  1.0000
  H   H3725     1.0  0.77926  0.86502  0.02764  1.0000
  N   N117      1.0  0.80383  0.81972  0.23138  1.0000
  C   C2096     1.0  0.80484  0.82283  0.13912  1.0000
  C   C2097     1.0  0.75031  0.95159  0.21401  1.0000
  H   H3726     1.0  0.79880  0.80039  0.13504  1.0000
  H   H3727     1.0  0.97681  0.89907  0.14103  1.0000
  H   H3728     1.0  0.77952  0.86763  0.25824  1.0000
  H   H3729     1.0  0.74098  0.96137  0.22071  1.0000
  H   H3730     1.0  0.79757  0.82065  0.15263  1.0000
  H   H3731     1.0  0.81619  0.82823  0.13822  1.0000
  H   H3732     1.0  0.78563  0.79137  0.23677  1.0000
  H   H3733     1.0  0.75133  0.91635  0.24811  1.0000
  H   H3734     1.0  0.99036  0.88153  0.15266  1.0000
  H   H3735     1.0  0.85028  0.80382  0.24785  1.0000
  H   H3736     1.0  0.77101  0.78130  0.08098  1.0000
  C   C2098     1.0  0.74080  0.94710  0.20231  1.0000
  H   H3737     1.0  0.74601  0.96237  0.24718  1.0000
  H   H3738     1.0  0.80532  0.84974  0.24521  1.0000
  H   H3739     1.0  0.78855  0.73705  0.07666  1.0000
  C   C2099     1.0  0.60002  0.74035  0.26219  1.0000
  H   H3740     1.0  0.79148  0.83588  0.25924  1.0000
  C   C2100     1.0  0.85202  0.80222  0.23445  1.0000
  H   H3741     1.0  0.74251  0.97028  0.18226  1.0000
  C   C2101     1.0  0.83484  0.80198  0.23077  1.0000
  C   C2102     1.0  0.79539  0.89807  0.21414  1.0000
  H   H3742     1.0  0.74150  0.77061  0.08587  1.0000
  C   C2103     1.0  0.99061  0.80290  0.14784  1.0000
  H   H3743     1.0  0.80186  0.80620  0.25822  1.0000
  C   C2104     1.0  0.77126  0.92444  0.21616  1.0000
  H   H3744     1.0  0.86519  0.74086  0.16617  1.0000
  H   H3745     1.0  0.75671  0.76990  0.16936  1.0000
  H   H3746     1.0  0.92240  0.78573  0.24603  1.0000
  H   H3747     1.0  0.72151  0.91429  0.26711  1.0000
  C   C2105     1.0  0.78691  0.77945  0.26294  1.0000
  C   C2106     1.0  0.74580  0.78179  0.07653  1.0000
  C   C2107     1.0  0.73826  0.79751  0.08480  1.0000
  H   H3748     1.0  0.82161  0.79431  0.15514  1.0000
  C   C2108     1.0  0.75776  0.77924  0.15734  1.0000
  C   C2109     1.0  0.83051  0.77514  0.12053  1.0000
  C   C2110     1.0  0.76878  0.77462  0.14225  1.0000
  H   H3749     1.0  0.91439  0.77883  0.22166  1.0000
  C   C2111     1.0  0.80281  0.77571  0.05721  1.0000
  C   C2112     1.0  0.81034  0.80600  0.13271  1.0000
  H   H3750     1.0  0.78185  0.81431  0.25215  1.0000
  C   C2113     1.0  0.75987  0.96086  0.24119  1.0000
  H   H3751     1.0  0.59579  0.75272  0.26667  1.0000
  C   C2114     1.0  0.82207  0.81926  0.23214  1.0000
  H   H3752     1.0  0.67092  0.77645  0.23174  1.0000
  H   H3753     1.0  0.72409  0.79877  0.08928  1.0000
  H   H3754     1.0  0.82116  0.93071  0.07844  1.0000
  H   H3755     1.0  0.84812  0.93947  0.06031  1.0000
  H   H3756     1.0  0.81018  0.77429  0.17390  1.0000
  H   H3757     1.0  0.77969  0.93161  0.20537  1.0000
  H   H3758     1.0  0.72310  0.94876  0.24144  1.0000
  C   C2115     1.0  0.78974  0.97553  0.19320  1.0000
  C   C2116     1.0  0.77579  0.98329  0.16883  1.0000
  H   H3759     1.0  0.84685  0.96936  0.16061  1.0000
  C   C2117     1.0  0.75199  0.85480  0.98400  1.0000
  H   H3760     1.0  0.76095  0.76679  0.04578  1.0000
  H   H3761     1.0  0.86110  0.78983  0.23297  1.0000
  C   C2118     1.0  0.98535  0.81789  0.15719  1.0000
  H   H3762     1.0  0.82990  0.79121  0.24029  1.0000
  C   C2119     1.0  0.89659  0.79913  0.24470  1.0000
  N   N118      1.0  0.82781  0.77487  0.13952  1.0000
  H   H3763     1.0  0.97376  0.83450  0.18411  1.0000
  H   H3764     1.0  0.78945  0.97460  0.11287  1.0000
  C   C2120     1.0  0.81104  0.74990  0.22162  1.0000
  H   H3765     1.0  0.83296  0.94032  0.04760  1.0000
  H   H3766     1.0  0.80382  0.83914  0.19575  1.0000
  H   H3767     1.0  0.77634  0.76170  0.14264  1.0000
  C   C2121     1.0  0.79430  0.79004  0.24559  1.0000
  C   C2122     1.0  0.72949  0.93708  0.24946  1.0000
  H   H3768     1.0  0.79472  0.79000  0.98587  1.0000
  H   H3769     1.0  0.77810  0.87012  0.23612  1.0000
  H   H3770     1.0  0.76580  0.85659  0.25319  1.0000
  C   C2123     1.0  0.81021  0.81833  0.18275  1.0000
  H   H3771     1.0  0.67214  0.74391  0.25845  1.0000
  H   H3772     1.0  0.83733  0.79948  0.21762  1.0000
  H   H3773     1.0  0.81770  0.80492  0.18358  1.0000
  C   C2124     1.0  0.79543  0.80812  0.24732  1.0000
  H   H3774     1.0  0.76465  0.91821  0.21003  1.0000
  H   H3775     1.0  0.98658  0.81261  0.17078  1.0000
  C   C2125     1.0  0.72184  0.75783  0.30008  1.0000
  C   C2126     1.0  0.66447  0.75169  0.23381  1.0000
  C   C2127     1.0  0.96055  0.84026  0.18171  1.0000
  H   H3776     1.0  0.81847  0.78170  0.11581  1.0000
  C   C2128     1.0  0.81097  0.82561  0.19779  1.0000
  H   H3777     1.0  0.95824  0.81847  0.16367  1.0000
  H   H3778     1.0  0.76480  0.85009  0.03559  1.0000
  H   H3779     1.0  0.70966  0.75403  0.30062  1.0000
  H   H3780     1.0  0.78710  0.85772  0.99816  1.0000
  H   H3781     1.0  0.80705  0.78253  0.24050  1.0000
  H   H3782     1.0  0.89997  0.80660  0.23138  1.0000
  C   C2129     1.0  0.83544  0.75936  0.09633  1.0000
  H   H3783     1.0  0.81584  0.82627  0.17044  1.0000
  C   C2130     1.0  0.74668  0.83875  0.99718  1.0000
  C   C2131     1.0  0.63162  0.74122  0.25728  1.0000
  C   C2132     1.0  0.78326  0.90961  0.22612  1.0000
  H   H3784     1.0  0.82880  0.97677  0.13908  1.0000
  H   H3785     1.0  0.85137  0.92278  0.04837  1.0000
  H   H3786     1.0  0.62592  0.75321  0.28679  1.0000
  H   H3787     1.0  0.77570  0.90138  0.23669  1.0000
  H   H3788     1.0  0.90590  0.77567  0.26116  1.0000
  C   C2133     1.0  0.77824  0.86093  0.24866  1.0000
  H   H3789     1.0  0.79930  0.84703  0.21976  1.0000
  C   C2134     1.0  0.90113  0.74102  0.26253  1.0000
  H   H3790     1.0  0.74390  0.79621  0.09609  1.0000
  C   C2135     1.0  0.80298  0.81485  0.21517  1.0000
  H   H3791     1.0  0.82230  0.82231  0.24449  1.0000
  C   C2136     1.0  0.97358  0.74591  0.22509  1.0000
  C   C2137     1.0  0.63874  0.74721  0.28996  1.0000
  H   H3792     1.0  0.78791  0.89193  0.20886  1.0000
  H   H3793     1.0  0.76044  0.95848  0.20541  1.0000
  S   S477      1.0  0.86521  0.75915  0.21577  1.0000
  H   H3794     1.0  0.94321  0.76359  0.24145  1.0000
  H   H3795     1.0  0.78622  0.76672  0.26115  1.0000
  C   C2138     1.0  0.79310  0.84543  0.24693  1.0000
  N   N119      1.0  0.77545  0.76232  0.06547  1.0000
  H   H3796     1.0  0.75260  0.75363  0.06539  1.0000
  H   H3797     1.0  0.74001  0.78397  0.06515  1.0000
  C   C2139     1.0  0.76783  0.94298  0.23637  1.0000
  C   C2140     1.0  0.67662  0.76436  0.22687  1.0000
  H   H3798     1.0  0.90678  0.74324  0.22717  1.0000
  H   H3799     1.0  0.78590  0.75298  0.17082  1.0000
  H   H3800     1.0  0.82206  0.76462  0.09435  1.0000
  H   H3801     1.0  0.65271  0.75756  0.22848  1.0000
  H   H3802     1.0  0.96382  0.86340  0.18780  1.0000
  H   H3803     1.0  0.72016  0.77196  0.29520  1.0000
  C   C2141     1.0  0.96660  0.82771  0.15626  1.0000
  H   H3804     1.0  0.75801  0.74623  0.02954  1.0000
  H   H3805     1.0  0.73046  0.94017  0.21007  1.0000
  H   H3806     1.0  0.76723  0.95471  0.26609  1.0000
  H   H3807     1.0  0.95847  0.87976  0.14061  1.0000
  S   S478      1.0  0.79445  0.98084  0.21061  1.0000
  C   C2142     1.0  0.94126  0.75703  0.23206  1.0000
  H   H3808     1.0  0.70495  0.93360  0.26655  1.0000
  H   H3809     1.0  0.73359  0.94069  0.25963  1.0000
  H   H3810     1.0  0.98461  0.85257  0.15938  1.0000
  H   H3811     1.0  0.71098  0.92244  0.24898  1.0000
  H   H3812     1.0  0.68916  0.75859  0.23080  1.0000
  H   H3813     1.0  0.82458  0.97651  0.17027  1.0000
  H   H3814     1.0  0.76127  0.97117  0.22941  1.0000
  C   C2143     1.0  0.71595  0.92613  0.25857  1.0000
  C   C2144     1.0  0.65984  0.74781  0.25384  1.0000
  H   H3815     1.0  0.60081  0.74290  0.24808  1.0000
  H   H3816     1.0  0.74078  0.80940  0.07530  1.0000
  C   C2145     1.0  0.72842  0.83752  0.99727  1.0000
  H   H3817     1.0  0.75535  0.82677  0.99396  1.0000
  C   C2146     1.0  0.92609  0.75093  0.20525  1.0000
  H   H3818     1.0  0.84706  0.75147  0.14380  1.0000
  H   H3819     1.0  0.80055  0.75284  0.05051  1.0000
  H   H3820     1.0  0.90957  0.73874  0.19741  1.0000
  H   H3821     1.0  0.87289  0.76078  0.15899  1.0000
  H   H3822     1.0  0.75591  0.74013  0.09151  1.0000
  H   H3823     1.0  0.84953  0.75144  0.11648  1.0000
  C   C2147     1.0  0.83605  0.75742  0.11520  1.0000
  H   H3824     1.0  0.78887  0.75354  0.08654  1.0000
  H   H3825     1.0  0.63302  0.74202  0.24328  1.0000
  H   H3826     1.0  0.83535  0.75673  0.17310  1.0000
  C   C2148     1.0  0.84492  0.76400  0.16412  1.0000
  C   C2149     1.0  0.63605  0.74203  0.30958  1.0000
  H   H3827     1.0  0.97524  0.75413  0.23312  1.0000
  C   C2150     1.0  0.86258  0.75434  0.16779  1.0000
  H   H3828     1.0  0.86294  0.75414  0.18124  1.0000
  H   H3829     1.0  0.81782  0.75183  0.15203  1.0000
  H   H3830     1.0  0.82747  0.74860  0.12324  1.0000
  H   H3831     1.0  0.72440  0.75475  0.31327  1.0000
  S   S479      1.0  0.79061  0.74513  0.22457  1.0000
  C   C2151     1.0  0.79173  0.98600  0.10254  1.0000
  H   H3832     1.0  0.80099  0.98691  0.13285  1.0000
  H   H3833     1.0  0.75949  0.75517  0.10232  1.0000
  H   H3834     1.0  0.80235  0.74641  0.18344  1.0000
  H   H3835     1.0  0.83995  0.74662  0.09264  1.0000
  H   H3836     1.0  0.78533  0.74201  0.03900  1.0000
  H   H3837     1.0  0.90235  0.73819  0.28936  1.0000
  C   C2152     1.0  0.83983  0.74066  0.22764  1.0000
  H   H3838     1.0  0.99133  0.80780  0.13380  1.0000
  C   C2153     1.0  0.91989  0.74367  0.25487  1.0000
  C   C2154     1.0  0.92063  0.74379  0.22484  1.0000
  C   C2155     1.0  0.73682  0.74866  0.28800  1.0000
  C   C2156     1.0  0.95599  0.74085  0.23152  1.0000
  H   H3839     1.0  0.92753  0.74469  0.18078  1.0000
  C   C2157     1.0  0.70509  0.74116  0.26317  1.0000
  C   C2158     1.0  0.76566  0.74412  0.09588  1.0000
  C   C2159     1.0  0.77357  0.73998  0.04900  1.0000
  C   C2160     1.0  0.92341  0.73935  0.19474  1.0000
  C   C2161     1.0  0.82341  0.73752  0.22946  1.0000
  H   H3840     1.0  0.62970  0.75350  0.31534  1.0000
  H   H3841     1.0  0.57240  0.74920  0.49498  1.0000
  H   H3842     1.0  0.55802  0.73884  0.48973  1.0000
  H   H3843     1.0  0.57422  0.74795  0.47298  1.0000
  C   C2162     1.0  0.57141  0.74099  0.48660  1.0000
  Fe  Fe240     1.0  0.75433  0.78374  0.93936  1.0000
  S   S480      1.0  0.75515  0.81066  0.92443  1.0000
  C   C2163     1.0  0.71347  0.97891  0.89729  1.0000
  S   S481      1.0  0.76130  0.81863  0.95950  1.0000
  Fe  Fe241     1.0  0.73901  0.81895  0.94868  1.0000
  S   S482      1.0  0.71649  0.84128  0.95109  1.0000
  Fe  Fe242     1.0  0.77736  0.80801  0.93669  1.0000
  S   S483      1.0  0.80009  0.81966  0.92178  1.0000
  S   S484      1.0  0.73626  0.79222  0.96290  1.0000
  S   S485      1.0  0.77792  0.78033  0.94998  1.0000
  H   H3844     1.0  0.66038  0.75427  0.65786  1.0000
  H   H3845     1.0  0.72947  0.91791  0.88610  1.0000
  S   S486      1.0  0.95199  0.81543  0.86993  1.0000
  Fe  Fe243     1.0  0.86473  0.77076  0.86126  1.0000
  H   H3846     1.0  0.83847  0.74745  0.86439  1.0000
  Fe  Fe244     1.0  0.86526  0.79798  0.82846  1.0000
  S   S487      1.0  0.88572  0.78080  0.81283  1.0000
  S   S488      1.0  0.85320  0.82421  0.81522  1.0000
  Fe  Fe245     1.0  0.86977  0.76089  0.82706  1.0000
  H   H3847     1.0  0.80452  0.85668  0.96403  1.0000
  Fe  Fe246     1.0  0.89836  0.77356  0.83562  1.0000
  S   S489      1.0  0.92700  0.76861  0.83499  1.0000
  S   S490      1.0  0.84870  0.77845  0.84122  1.0000
  S   S491      1.0  0.87904  0.79231  0.85024  1.0000
  H   H3848     1.0  0.69538  0.88849  0.82148  1.0000
  Fe  Fe247     1.0  0.72400  0.88645  0.85944  1.0000
  S   S492      1.0  0.72470  0.90594  0.83466  1.0000
  S   S493      1.0  0.69992  0.88554  0.87999  1.0000
  Fe  Fe248     1.0  0.76123  0.86972  0.84937  1.0000
  S   S494      1.0  0.76554  0.88800  0.82390  1.0000
  S   S495      1.0  0.77980  0.84713  0.86038  1.0000
  Fe  Fe249     1.0  0.74989  0.90845  0.83873  1.0000
  S   S496      1.0  0.75546  0.93519  0.83333  1.0000
  Fe  Fe250     1.0  0.74013  0.88377  0.82225  1.0000
  S   S497      1.0  0.73564  0.87978  0.79780  1.0000
  S   S498      1.0  0.74808  0.89040  0.86444  1.0000
  S   S499      1.0  0.73690  0.86417  0.84670  1.0000
  Fe  Fe251     1.0  0.73365  0.76772  0.83576  1.0000
  S   S500      1.0  0.75862  0.77466  0.82031  1.0000
  S   S501      1.0  0.75325  0.75700  0.79045  1.0000
  H   H3849     1.0  0.69228  0.97492  0.86824  1.0000
  Fe  Fe252     1.0  0.74521  0.78277  0.79819  1.0000
  S   S502      1.0  0.74834  0.80711  0.77839  1.0000
  S   S503      1.0  0.71955  0.77779  0.81391  1.0000
  C   C2164     1.0  0.69343  0.97749  0.88051  1.0000
  H   H3850     1.0  0.64722  0.87308  0.81463  1.0000
  C   C2165     1.0  0.74058  0.85902  0.79321  1.0000
  C   C2166     1.0  0.74137  0.84398  0.80609  1.0000
  C   C2167     1.0  0.74339  0.82787  0.80187  1.0000
  C   C2168     1.0  0.74542  0.82677  0.78468  1.0000
  C   C2169     1.0  0.74537  0.84173  0.77184  1.0000
  C   C2170     1.0  0.74280  0.85775  0.77610  1.0000
  H   H3851     1.0  0.74008  0.84478  0.81929  1.0000
  H   H3852     1.0  0.74362  0.81631  0.81182  1.0000
  H   H3853     1.0  0.74708  0.84097  0.75853  1.0000
  H   H3854     1.0  0.74252  0.86924  0.76604  1.0000
  H   H3855     1.0  0.80407  0.73887  0.86202  1.0000
  H   H3856     1.0  0.70115  0.94653  0.87217  1.0000
  C   C2171     1.0  0.76693  0.95904  0.84293  1.0000
  C   C2172     1.0  0.76230  0.94289  0.84807  1.0000
  C   C2173     1.0  0.76286  0.93351  0.86482  1.0000
  C   C2174     1.0  0.76786  0.94032  0.87636  1.0000
  H   H3857     1.0  0.67092  0.88729  0.85706  1.0000
  H   H3858     1.0  0.75933  0.92108  0.86891  1.0000
  H   H3859     1.0  0.76813  0.93307  0.88934  1.0000
  C   C2175     1.0  0.83279  0.83104  0.82748  1.0000
  C   C2176     1.0  0.82805  0.82225  0.84437  1.0000
  C   C2177     1.0  0.81171  0.82738  0.85425  1.0000
  C   C2178     1.0  0.79995  0.84124  0.84725  1.0000
  C   C2179     1.0  0.80461  0.85015  0.83031  1.0000
  C   C2180     1.0  0.82112  0.84510  0.82044  1.0000
  H   H3860     1.0  0.83710  0.81165  0.84995  1.0000
  H   H3861     1.0  0.80816  0.82067  0.86742  1.0000
  H   H3862     1.0  0.79558  0.86086  0.82482  1.0000
  H   H3863     1.0  0.82480  0.85196  0.80734  1.0000
  H   H3864     1.0  0.71547  0.91623  0.87326  1.0000
  H   H3865     1.0  0.76525  0.85976  0.89822  1.0000
  C   C2181     1.0  0.65476  0.86358  0.80660  1.0000
  C   C2182     1.0  0.71416  0.94228  0.87514  1.0000
  C   C2183     1.0  0.94540  0.80222  0.86019  1.0000
  C   C2184     1.0  0.93039  0.80856  0.85353  1.0000
  C   C2185     1.0  0.92460  0.79830  0.84587  1.0000
  C   C2186     1.0  0.93379  0.78161  0.84483  1.0000
  C   C2187     1.0  0.94881  0.77524  0.85151  1.0000
  C   C2188     1.0  0.95456  0.78547  0.85926  1.0000
  H   H3866     1.0  0.92322  0.82148  0.85425  1.0000
  H   H3867     1.0  0.91313  0.80340  0.84059  1.0000
  C   C2189     1.0  0.78637  0.87090  0.89893  1.0000
  H   H3868     1.0  0.96597  0.78037  0.86461  1.0000
  C   C2190     1.0  0.71236  0.85410  0.93137  1.0000
  C   C2191     1.0  0.69568  0.86357  0.93052  1.0000
  C   C2192     1.0  0.69192  0.87326  0.91471  1.0000
  C   C2193     1.0  0.70488  0.87368  0.89975  1.0000
  C   C2194     1.0  0.72162  0.86445  0.90065  1.0000
  C   C2195     1.0  0.72536  0.85467  0.91646  1.0000
  H   H3869     1.0  0.68561  0.86320  0.94207  1.0000
  H   H3870     1.0  0.67897  0.88042  0.91408  1.0000
  H   H3871     1.0  0.73166  0.86461  0.88913  1.0000
  H   H3872     1.0  0.73830  0.84754  0.91711  1.0000
  C   C2196     1.0  0.81612  0.80364  0.91325  1.0000
  C   C2197     1.0  0.81891  0.78681  0.92284  1.0000
  C   C2198     1.0  0.83096  0.77380  0.91552  1.0000
  C   C2199     1.0  0.84022  0.77764  0.89860  1.0000
  H   H3873     1.0  0.81196  0.78386  0.93598  1.0000
  H   H3874     1.0  0.83299  0.76076  0.92292  1.0000
  H   H3875     1.0  0.80526  0.78206  0.75658  1.0000
  H   H3876     1.0  0.97643  0.80828  0.93656  1.0000
  H   H3877     1.0  0.97148  0.79923  0.78379  1.0000
  H   H3878     1.0  0.70647  0.92035  0.89459  1.0000
  H   H3879     1.0  0.66550  0.73962  0.74880  1.0000
  H   H3880     1.0  0.78313  0.78390  0.76852  1.0000
  H   H3881     1.0  0.82356  0.82059  0.88921  1.0000
  H   H3882     1.0  0.97086  0.76976  0.78110  1.0000
  H   H3883     1.0  0.68694  0.90026  0.84751  1.0000
  S   S504      1.0  0.88475  0.75163  0.84804  1.0000
  H   H3884     1.0  0.71241  0.74476  0.67717  1.0000
  C   C2200     1.0  0.68996  0.87195  0.79819  1.0000
  C   C2201     1.0  0.69656  0.86256  0.78283  1.0000
  H   H3885     1.0  0.92805  0.74686  0.89667  1.0000
  H   H3886     1.0  0.75007  0.85392  0.97136  1.0000
  H   H3887     1.0  0.80460  0.90308  0.88006  1.0000
  C   C2202     1.0  0.70172  0.87508  0.76598  1.0000
  H   H3888     1.0  0.79130  0.76401  0.89292  1.0000
  H   H3889     1.0  0.89299  0.76142  0.88602  1.0000
  H   H3890     1.0  0.66845  0.90429  0.83818  1.0000
  C   C2203     1.0  0.67015  0.85205  0.81447  1.0000
  H   H3891     1.0  0.79291  0.79405  0.87298  1.0000
  H   H3892     1.0  0.95000  0.78392  0.78136  1.0000
  H   H3893     1.0  0.69253  0.75836  0.72263  1.0000
  H   H3894     1.0  0.67994  0.88349  0.79473  1.0000
  H   H3895     1.0  0.70093  0.87720  0.79878  1.0000
  H   H3896     1.0  0.76111  0.88461  0.97716  1.0000
  H   H3897     1.0  0.70805  0.85228  0.78477  1.0000
  C   C2204     1.0  0.90249  0.75090  0.89202  1.0000
  H   H3898     1.0  0.63161  0.86129  0.80008  1.0000
  H   H3899     1.0  0.68102  0.74008  0.65334  1.0000
  C   C2205     1.0  0.89782  0.79526  0.88817  1.0000
  H   H3900     1.0  0.78337  0.90271  0.84989  1.0000
  C   C2206     1.0  0.80136  0.91079  0.82691  1.0000
  H   H3901     1.0  0.95591  0.76228  0.85083  1.0000
  H   H3902     1.0  0.69027  0.88479  0.76262  1.0000
  H   H3903     1.0  0.71139  0.88179  0.76709  1.0000
  H   H3904     1.0  0.70753  0.86790  0.75540  1.0000
  N   N120      1.0  0.68345  0.86121  0.81548  1.0000
  C   C2207     1.0  0.77871  0.73861  0.87821  1.0000
  H   H3905     1.0  0.66228  0.75071  0.68775  1.0000
  C   C2208     1.0  0.72357  0.97766  0.86616  1.0000
  H   H3906     1.0  0.70421  0.83921  0.81189  1.0000
  C   C2209     1.0  0.67969  0.96977  0.89534  1.0000
  C   C2210     1.0  0.77273  0.73744  0.86250  1.0000
  C   C2211     1.0  0.73208  0.75996  0.68941  1.0000
  H   H3907     1.0  0.97893  0.79295  0.95643  1.0000
  H   H3908     1.0  0.80536  0.74890  0.91868  1.0000
  H   H3909     1.0  0.73723  0.97211  0.86694  1.0000
  H   H3910     1.0  0.72168  0.97270  0.85555  1.0000
  H   H3911     1.0  0.89786  0.77646  0.94128  1.0000
  H   H3912     1.0  0.67732  0.80537  0.96241  1.0000
  H   H3913     1.0  0.81598  0.87637  0.90337  1.0000
  H   H3914     1.0  0.98611  0.98419  0.83279  1.0000
  C   C2212     1.0  0.67781  0.89404  0.84465  1.0000
  H   H3915     1.0  0.64939  0.84335  0.79730  1.0000
  H   H3916     1.0  0.66085  0.97373  0.87956  1.0000
  C   C2213     1.0  0.95988  0.77716  0.78916  1.0000
  H   H3917     1.0  0.92271  0.76548  0.88114  1.0000
  C   C2214     1.0  0.68778  0.88132  0.83306  1.0000
  C   C2215     1.0  0.81517  0.89200  0.87699  1.0000
  H   H3918     1.0  0.84501  0.79752  0.87614  1.0000
  H   H3919     1.0  0.70893  0.85436  0.82088  1.0000
  N   N121      1.0  0.71179  0.97157  0.88290  1.0000
  C   C2216     1.0  0.82580  0.80757  0.89655  1.0000
  H   H3920     1.0  0.83701  0.85996  0.84792  1.0000
  H   H3921     1.0  0.78374  0.87811  0.97273  1.0000
  C   C2217     1.0  0.82746  0.75134  0.82153  1.0000
  Fe  Fe253     1.0  0.75995  0.79133  0.97208  1.0000
  C   C2218     1.0  0.77180  0.87474  0.97176  1.0000
  H   H3922     1.0  0.81617  0.78802  0.86974  1.0000
  C   C2219     1.0  0.81925  0.86174  0.87288  1.0000
  C   C2220     1.0  0.84929  0.84259  0.86749  1.0000
  H   H3923     1.0  0.66808  0.86605  0.84029  1.0000
  H   H3924     1.0  0.78191  0.89257  0.87846  1.0000
  H   H3925     1.0  0.98456  0.81375  0.83672  1.0000
  H   H3926     1.0  0.74560  0.98276  0.91602  1.0000
  C   C2221     1.0  0.80195  0.84368  0.97031  1.0000
  H   H3927     1.0  0.76029  0.90510  0.94917  1.0000
  C   C2222     1.0  0.83768  0.85968  0.86134  1.0000
  C   C2223     1.0  0.96586  0.79027  0.79524  1.0000
  H   H3928     1.0  0.79465  0.85799  0.90176  1.0000
  C   C2224     1.0  0.80479  0.78745  0.86518  1.0000
  C   C2225     1.0  0.98489  0.79666  0.94257  1.0000
  H   H3929     1.0  0.77181  0.89809  0.92948  1.0000
  H   H3930     1.0  0.69969  0.76006  0.68951  1.0000
  H   H3931     1.0  0.81047  0.81814  0.96403  1.0000
  H   H3932     1.0  0.80537  0.87685  0.84621  1.0000
  N   N122      1.0  0.91300  0.76868  0.90762  1.0000
  C   C2226     1.0  0.68678  0.74676  0.72802  1.0000
  H   H3933     1.0  0.82502  0.89791  0.86662  1.0000
  H   H3934     1.0  0.97141  0.77505  0.81944  1.0000
  H   H3935     1.0  0.68084  0.75825  0.67339  1.0000
  H   H3936     1.0  0.70969  0.94736  0.90092  1.0000
  H   H3937     1.0  0.83317  0.89272  0.91095  1.0000
  H   H3938     1.0  0.78321  0.86961  0.94560  1.0000
  H   H3939     1.0  0.80612  0.79434  0.85157  1.0000
  C   C2227     1.0  0.81291  0.83136  0.95863  1.0000
  C   C2228     1.0  0.80889  0.88632  0.85156  1.0000
  C   C2229     1.0  0.73205  0.97646  0.89988  1.0000
  H   H3940     1.0  0.69802  0.79091  0.96343  1.0000
  H   H3941     1.0  0.82217  0.88762  0.84439  1.0000
  H   H3942     1.0  0.70756  0.81517  0.85620  1.0000
  H   H3943     1.0  0.98029  0.96579  0.82949  1.0000
  H   H3944     1.0  0.78452  0.87259  0.87280  1.0000
  H   H3945     1.0  0.84428  0.83170  0.86643  1.0000
  C   C2230     1.0  0.79705  0.90399  0.84638  1.0000
  C   C2231     1.0  0.71086  0.82392  0.84364  1.0000
  C   C2232     1.0  0.83777  0.79454  0.88916  1.0000
  N   N123      1.0  0.80274  0.81005  0.79423  1.0000
  C   C2233     1.0  0.80348  0.82880  0.78779  1.0000
  C   C2234     1.0  0.81955  0.80059  0.79938  1.0000
  C   C2235     1.0  0.79964  0.80327  0.78013  1.0000
  C   C2236     1.0  0.78830  0.80732  0.80977  1.0000
  C   C2237     1.0  0.78652  0.81714  0.82410  1.0000
  C   C2238     1.0  0.78689  0.84078  0.78272  1.0000
  C   C2239     1.0  0.80164  0.78344  0.78348  1.0000
  C   C2240     1.0  0.83586  0.80084  0.78466  1.0000
  C   C2241     1.0  0.85143  0.78842  0.79067  1.0000
  C   C2242     1.0  0.77270  0.81179  0.83979  1.0000
  C   C2243     1.0  0.78797  0.85968  0.77931  1.0000
  C   C2244     1.0  0.79679  0.77807  0.76923  1.0000
  H   H3946     1.0  0.81385  0.83055  0.77606  1.0000
  H   H3947     1.0  0.80711  0.83376  0.79745  1.0000
  H   H3948     1.0  0.82191  0.80607  0.80939  1.0000
  H   H3949     1.0  0.81895  0.78699  0.80565  1.0000
  H   H3950     1.0  0.80821  0.80744  0.76756  1.0000
  H   H3951     1.0  0.78634  0.80903  0.77792  1.0000
  H   H3952     1.0  0.77568  0.81071  0.80590  1.0000
  H   H3953     1.0  0.78980  0.79342  0.81596  1.0000
  H   H3954     1.0  0.78271  0.83124  0.81958  1.0000
  H   H3955     1.0  0.79883  0.81458  0.82830  1.0000
  H   H3956     1.0  0.78483  0.83821  0.77087  1.0000
  H   H3957     1.0  0.77549  0.83885  0.79306  1.0000
  H   H3958     1.0  0.79318  0.77867  0.79580  1.0000
  H   H3959     1.0  0.81515  0.77677  0.78402  1.0000
  H   H3960     1.0  0.83433  0.79708  0.77323  1.0000
  H   H3961     1.0  0.83891  0.81388  0.78066  1.0000
  H   H3962     1.0  0.86322  0.78957  0.78043  1.0000
  H   H3963     1.0  0.85326  0.79150  0.80234  1.0000
  H   H3964     1.0  0.84963  0.77497  0.79363  1.0000
  H   H3965     1.0  0.75982  0.81557  0.83641  1.0000
  H   H3966     1.0  0.77559  0.79767  0.84477  1.0000
  H   H3967     1.0  0.77232  0.81825  0.85021  1.0000
  H   H3968     1.0  0.78912  0.86300  0.79119  1.0000
  H   H3969     1.0  0.79920  0.86242  0.76882  1.0000
  H   H3970     1.0  0.77607  0.86798  0.77538  1.0000
  H   H3971     1.0  0.79832  0.76385  0.77206  1.0000
  N   N124      1.0  0.70010  0.81166  0.91005  1.0000
  C   C2245     1.0  0.69979  0.79896  0.89984  1.0000
  C   C2246     1.0  0.71789  0.81573  0.90535  1.0000
  C   C2247     1.0  0.69697  0.80276  0.92883  1.0000
  C   C2248     1.0  0.68650  0.82795  0.90760  1.0000
  C   C2249     1.0  0.68147  0.83418  0.88970  1.0000
  C   C2250     1.0  0.68335  0.79117  0.90528  1.0000
  C   C2251     1.0  0.69854  0.81278  0.94168  1.0000
  C   C2252     1.0  0.72418  0.82459  0.88643  1.0000
  C   C2253     1.0  0.74297  0.82621  0.88289  1.0000
  C   C2254     1.0  0.66966  0.85197  0.88823  1.0000
  C   C2255     1.0  0.68163  0.78283  0.89139  1.0000
  C   C2256     1.0  0.69139  0.80459  0.96029  1.0000
  H   H3972     1.0  0.71086  0.78795  0.90110  1.0000
  H   H3973     1.0  0.70172  0.80458  0.88588  1.0000
  H   H3974     1.0  0.71866  0.82456  0.91317  1.0000
  H   H3975     1.0  0.72756  0.80379  0.90861  1.0000
  H   H3976     1.0  0.70611  0.79007  0.93075  1.0000
  H   H3977     1.0  0.68379  0.79993  0.93310  1.0000
  H   H3978     1.0  0.67426  0.82657  0.91719  1.0000
  H   H3979     1.0  0.69058  0.83872  0.91033  1.0000
  H   H3980     1.0  0.67445  0.82530  0.88764  1.0000
  H   H3981     1.0  0.69284  0.83488  0.87902  1.0000
  H   H3982     1.0  0.68404  0.78097  0.91713  1.0000
  H   H3983     1.0  0.67151  0.80103  0.90811  1.0000
  H   H3984     1.0  0.69153  0.82634  0.93912  1.0000
  H   H3985     1.0  0.71232  0.81254  0.94062  1.0000
  H   H3986     1.0  0.72332  0.81732  0.87720  1.0000
  H   H3987     1.0  0.71653  0.83787  0.88378  1.0000
  H   H3988     1.0  0.74701  0.83254  0.86928  1.0000
  H   H3989     1.0  0.74478  0.83398  0.89120  1.0000
  H   H3990     1.0  0.75167  0.81351  0.88497  1.0000
  H   H3991     1.0  0.67633  0.86157  0.88951  1.0000
  H   H3992     1.0  0.66609  0.85603  0.87544  1.0000
  H   H3993     1.0  0.65770  0.85178  0.89840  1.0000
  H   H3994     1.0  0.68132  0.79228  0.87900  1.0000
  H   H3995     1.0  0.69261  0.77186  0.88937  1.0000
  H   H3996     1.0  0.66953  0.77784  0.89551  1.0000
  H   H3997     1.0  0.89716  0.75278  0.92723  1.0000
  H   H3998     1.0  0.77545  0.97832  0.85040  1.0000
  H   H3999     1.0  0.94365  0.75519  0.92076  1.0000
  S   S505      1.0  0.74970  0.76231  0.92935  1.0000
  C   C2257     1.0  0.82375  0.88434  0.89281  1.0000
  H   H4000     1.0  0.67966  0.97289  0.90770  1.0000
  C   C2258     1.0  0.89704  0.78249  0.90579  1.0000
  H   H4001     1.0  0.79273  0.92341  0.82347  1.0000
  H   H4002     1.0  0.75855  0.88104  0.90317  1.0000
  H   H4003     1.0  0.82047  0.85642  0.88644  1.0000
  H   H4004     1.0  0.79845  0.91371  0.85281  1.0000
  H   H4005     1.0  0.78002  0.73870  0.93911  1.0000
  C   C2259     1.0  0.78998  0.87935  0.87951  1.0000
  C   C2260     1.0  0.82660  0.89854  0.89997  1.0000
  H   H4006     1.0  0.93080  0.78495  0.89245  1.0000
  H   H4007     1.0  0.68888  0.84388  0.84932  1.0000
  H   H4008     1.0  0.87665  0.81517  0.89749  1.0000
  H   H4009     1.0  0.81261  0.85288  0.87008  1.0000
  C   C2261     1.0  0.73430  0.77020  0.87759  1.0000
  H   H4010     1.0  0.87036  0.80025  0.88870  1.0000
  C   C2262     1.0  0.67531  0.87293  0.82814  1.0000
  H   H4011     1.0  0.71697  0.81583  0.83386  1.0000
  C   C2263     1.0  0.88047  0.80753  0.88725  1.0000
  H   H4012     1.0  0.91949  0.74488  0.92584  1.0000
  H   H4013     1.0  0.72379  0.94408  0.86283  1.0000
  S   S506      1.0  0.85465  0.76117  0.88934  1.0000
  H   H4014     1.0  0.73180  0.74383  0.91736  1.0000
  H   H4015     1.0  0.95397  0.76811  0.80039  1.0000
  H   H4016     1.0  0.84392  0.87024  0.86106  1.0000
  H   H4017     1.0  0.90122  0.78847  0.87736  1.0000
  H   H4018     1.0  0.89416  0.79050  0.91560  1.0000
  H   H4019     1.0  0.76663  0.96633  0.82996  1.0000
  C   C2264     1.0  0.77214  0.95664  0.87130  1.0000
  H   H4020     1.0  0.88552  0.77667  0.90843  1.0000
  H   H4021     1.0  0.95436  0.78149  0.91896  1.0000
  C   C2265     1.0  0.74501  0.76496  0.90891  1.0000
  H   H4022     1.0  0.68539  0.82820  0.83949  1.0000
  C   C2266     1.0  0.80381  0.75843  0.88504  1.0000
  C   C2267     1.0  0.70703  0.74651  0.69069  1.0000
  H   H4023     1.0  0.89152  0.74844  0.95914  1.0000
  H   H4024     1.0  0.86240  0.84199  0.85917  1.0000
  H   H4025     1.0  0.92051  0.76822  0.94048  1.0000
  H   H4026     1.0  0.79954  0.90173  0.81991  1.0000
  C   C2268     1.0  0.97570  0.80804  0.81633  1.0000
  H   H4027     1.0  0.96118  0.78364  0.89585  1.0000
  N   N125      1.0  0.80850  0.87980  0.87062  1.0000
  C   C2269     1.0  0.80397  0.76887  0.86639  1.0000
  H   H4028     1.0  0.89562  0.74453  0.90459  1.0000
  C   C2270     1.0  0.90410  0.75190  0.95774  1.0000
  C   C2271     1.0  0.95870  0.77439  0.90827  1.0000
  C   C2272     1.0  0.90952  0.75699  0.92511  1.0000
  H   H4029     1.0  0.82849  0.76214  0.82608  1.0000
  H   H4030     1.0  0.67630  0.84153  0.80721  1.0000
  C   C2273     1.0  0.67446  0.74706  0.67850  1.0000
  H   H4031     1.0  0.69690  0.87150  0.84021  1.0000
  H   H4032     1.0  0.78824  0.87931  0.90658  1.0000
  H   H4033     1.0  0.67306  0.75411  0.70790  1.0000
  H   H4034     1.0  0.85023  0.84123  0.88103  1.0000
  H   H4035     1.0  0.63732  0.84577  0.81872  1.0000
  H   H4036     1.0  0.95046  0.75736  0.89777  1.0000
  C   C2274     1.0  0.76772  0.86850  0.90521  1.0000
  C   C2275     1.0  0.71670  0.95222  0.88768  1.0000
  H   H4037     1.0  0.81407  0.90681  0.90465  1.0000
  S   S507      1.0  0.70851  0.73819  0.80242  1.0000
  H   H4038     1.0  0.76537  0.86256  0.91917  1.0000
  C   C2276     1.0  0.74462  0.78059  0.87939  1.0000
  C   C2277     1.0  0.75013  0.77781  0.89497  1.0000
  H   H4039     1.0  0.83654  0.87604  0.88902  1.0000
  C   C2278     1.0  0.71657  0.92303  0.88283  1.0000
  H   H4040     1.0  0.74774  0.79120  0.86902  1.0000
  H   H4041     1.0  0.75810  0.78571  0.89643  1.0000
  H   H4042     1.0  0.73056  0.94808  0.88829  1.0000
  C   C2279     1.0  0.77188  0.96588  0.85448  1.0000
  H   H4043     1.0  0.81486  0.91268  0.82264  1.0000
  H   H4044     1.0  0.66440  0.84548  0.82757  1.0000
  S   S508      1.0  0.72262  0.77687  0.86093  1.0000
  H   H4045     1.0  0.83480  0.90664  0.88990  1.0000
  C   C2280     1.0  0.69848  0.84798  0.82113  1.0000
  C   C2281     1.0  0.69450  0.83623  0.83915  1.0000
  H   H4046     1.0  0.68207  0.95559  0.89705  1.0000
  C   C2282     1.0  0.67151  0.75099  0.74265  1.0000
  C   C2283     1.0  0.64256  0.85278  0.80565  1.0000
  H   H4047     1.0  0.88147  0.81650  0.87452  1.0000
  C   C2284     1.0  0.81109  0.74900  0.82105  1.0000
  H   H4048     1.0  0.66169  0.76198  0.73778  1.0000
  H   H4049     1.0  0.66547  0.88368  0.82288  1.0000
  C   C2285     1.0  0.90821  0.76477  0.94085  1.0000
  H   H4050     1.0  0.81502  0.76349  0.85700  1.0000
  H   H4051     1.0  0.90744  0.80325  0.88623  1.0000
  H   H4052     1.0  0.95716  0.83482  0.83265  1.0000
  H   H4053     1.0  0.73643  0.76022  0.67536  1.0000
  C   C2286     1.0  0.73560  0.75398  0.90673  1.0000
  H   H4054     1.0  0.77382  0.75186  0.88047  1.0000
  H   H4055     1.0  0.65911  0.87067  0.79334  1.0000
  H   H4056     1.0  0.72020  0.83112  0.84457  1.0000
  H   H4057     1.0  0.68663  0.85662  0.78109  1.0000
  C   C2287     1.0  0.78257  0.84325  0.97362  1.0000
  H   H4058     1.0  0.96492  0.80359  0.82650  1.0000
  H   H4059     1.0  0.80991  0.83577  0.94557  1.0000
  H   H4060     1.0  0.79206  0.76905  0.86231  1.0000
  C   C2288     1.0  0.92791  0.77706  0.90564  1.0000
  H   H4061     1.0  0.92447  0.78641  0.91428  1.0000
  Fe  Fe254     1.0  0.97935  0.80944  0.87377  1.0000
  N   N126      1.0  0.80617  0.73913  0.88779  1.0000
  C   C2289     1.0  0.73017  0.75665  0.89122  1.0000
  H   H4062     1.0  0.73807  0.96263  0.90311  1.0000
  C   C2290     1.0  0.66163  0.97697  0.89162  1.0000
  C   C2291     1.0  0.91744  0.75806  0.89400  1.0000
  H   H4063     1.0  0.81383  0.76167  0.88985  1.0000
  H   H4064     1.0  0.97102  0.76523  0.90991  1.0000
  H   H4065     1.0  0.70601  0.97296  0.90982  1.0000
  H   H4066     1.0  0.77722  0.74714  0.85109  1.0000
  C   C2292     1.0  0.94520  0.76459  0.90835  1.0000
  S   S509      1.0  0.77732  0.96519  0.88647  1.0000
  H   H4067     1.0  0.90331  0.75772  0.96878  1.0000
  Fe  Fe255     1.0  0.76444  0.74850  0.81432  1.0000
  H   H4068     1.0  0.79953  0.75800  0.82528  1.0000
  H   H4069     1.0  0.69360  0.81159  0.96915  1.0000
  C   C2293     1.0  0.96986  0.83709  0.82460  1.0000
  Fe  Fe256     1.0  0.72827  0.75112  0.80776  1.0000
  C   C2294     1.0  0.68097  0.74195  0.71374  1.0000
  H   H4070     1.0  0.72338  0.77241  0.69145  1.0000
  H   H4071     1.0  0.97924  0.96781  0.85106  1.0000
  C   C2295     1.0  0.72287  0.74505  0.69838  1.0000
  C   C2296     1.0  0.66944  0.74302  0.66355  1.0000
  H   H4072     1.0  0.71936  0.74499  0.71232  1.0000
  H   H4073     1.0  0.96959  0.81628  0.80557  1.0000
  H   H4074     1.0  0.95420  0.79776  0.80250  1.0000
  H   H4075     1.0  0.96816  0.84442  0.81156  1.0000
  C   C2297     1.0  0.84251  0.73966  0.81594  1.0000
  H   H4076     1.0  0.82678  0.83095  0.95739  1.0000
  C   C2298     1.0  0.73213  0.98465  0.91455  1.0000
  H   H4077     1.0  0.74356  0.75837  0.69485  1.0000
  H   H4078     1.0  0.67607  0.75445  0.75265  1.0000
  S   S510      1.0  0.98491  0.80775  0.89949  1.0000
  H   H4079     1.0  0.77940  0.84345  0.96121  1.0000
  C   C2299     1.0  0.97892  0.78130  0.80706  1.0000
  H   H4080     1.0  0.75843  0.74003  0.86510  1.0000
  H   H4081     1.0  0.65205  0.97122  0.90238  1.0000
  H   H4082     1.0  0.72452  0.97862  0.92691  1.0000
  H   H4083     1.0  0.91551  0.74357  0.86743  1.0000
  H   H4084     1.0  0.78127  0.83031  0.98151  1.0000
  H   H4085     1.0  0.98773  0.77041  0.80163  1.0000
  C   C2300     1.0  0.77187  0.89639  0.94333  1.0000
  H   H4086     1.0  0.78365  0.90006  0.94425  1.0000
  H   H4087     1.0  0.78329  0.73894  0.90832  1.0000
  H   H4088     1.0  0.76001  0.87447  0.95056  1.0000
  H   H4089     1.0  0.97477  0.84495  0.83063  1.0000
  S   S511      1.0  0.74015  0.74069  0.83140  1.0000
  C   C2301     1.0  0.98660  0.97016  0.83753  1.0000
  H   H4090     1.0  0.91436  0.74005  0.95820  1.0000
  H   H4091     1.0  0.74031  0.98257  0.88814  1.0000
  H   H4092     1.0  0.98589  0.78590  0.93627  1.0000
  H   H4093     1.0  0.72198  0.74875  0.89014  1.0000
  S   S512      1.0  0.86357  0.74185  0.81533  1.0000
  C   C2302     1.0  0.77167  0.87766  0.95233  1.0000
  C   C2303     1.0  0.98264  0.82001  0.82348  1.0000
  H   H4094     1.0  0.99134  0.81598  0.95960  1.0000
  H   H4095     1.0  0.98804  0.77945  0.83685  1.0000
  N   N127      1.0  0.98873  0.79288  0.81042  1.0000
  C   C2304     1.0  0.90921  0.73762  0.88055  1.0000
  H   H4096     1.0  0.80641  0.83958  0.98268  1.0000
  N   N128      1.0  0.77010  0.85703  0.98228  1.0000
