data_image0
_chemical_formula_structural       HSHFeS2FeS2FeSFeS3CSHSFeSFeSCHFeS2FeS2C6H4CSHC3H4C6H4C6H4C6H3SCH3NC2HC2H2CH6CH2CH2CH2CHCH3CH4CHCH4FeCH3CHCFeH2CH4CH9CNHCH3SHC2H13C2H6CHCHSNC12H17CH7C2H2C2H2C2HNH2CHC2HCH2NFeS2FeSHFeSFeS3H3FeS2FeS2C6H4C6H5CH5CH3CHCHSCH2CH6FeH2CH2C2HS2CH2CH2CHCH4C4H7CHCHCHCHSCH4C2H6CH7C5H4C2H4NC11H6CH3FeNC2H3C2H4NH6CHC2HCH2SCH4CH3SCNH11CSC6H3CHNHC2H3C6H3CH3CHCH3SH6C3HCH2CHSH2CHCH8CSH2CH5FeCHNSH5CH4FeC2H2C2H4SHCH2C3H2CH4CH4C2HFeS2FeS2FeSFeS3FeSC4H3C2HC7H4C4HFeS2FeS2FeSFeS3HFeSC6H6C4HC3H4CH2NC12H19CH9SHCH3CNH2CHNH6CH2CH2C2HCH3CHC2H6CHC3H3C2H11CH4CH2CHCHCH4NH6C3H3CHCH2CH2NC6HC3H6CH13C3H2C2H6C2H6CH4CNH2CHCH8CHCH2CH6CH2C2SHSHFeSFeSFeS2FeS2FeSFeS3FeS2FeS2C6H4CH2C2HCH3C6H4CSC4H3C6H7C2H2NC9HCH31C3H3CSH2CSHCH2NC2NC2H2CH7CH3C3HC2H4C2H2FeC2SH6CH2FeH3CH3CH2C2FeH2CH3CH2C2H9NH3CHCH4C2HCH2CSH2FeHCH2SHC2HFeS2FeHSFeCFeHS2HC2FeS2FeHSH5CH4C2HC2HC4H3C6H7CH8CH6C2H2CHCHCHCSCH3C3H5CH2C3H13CHC2HC2SCSH4CSNC2SH2CH2CH5CH5C3H6CNC2H6CHC2FeS2FeS2FeSFeS5C2FeSFeSCHFeS2FeS2CHC4H3C6H5C6H4C6H4C6H4NHCHC2HC2HC2H4CH6FeH5CH4CFeH3C3NC12H33SCH10CHSH6C4H2CH2CH2CH11CH3CH2CNH3CH2CHC3H2FeS2FeSHFeSFeS3CFeH3SCSHC6H3C7H4C2FeH5CH2CHSCNC8HC3H29CH6C2H2C2H4SCHNH2CHCHCH3C2HCH4CHNH2CHC2HCHCH3SCH3CH3CH2C3H2C2H3CHCHCH2CH3SH2C2NH2NCFeSHSH2C3H8CHCH3CH2SHSC6H4SCH6C6H9C3H2CH6C3HCH10SC2HC2HCHC3HCH2C2HCNH2CH4SH2FeH4CHFeNCHCHCH6FeCH4SCHFeCH4NCH5SH3CH2SH3CH5CSH3CH3C2HNC2HCHFeS2FeS2FeSFeS3FeSC4H2CH4C6H4CH4FeS2FeS2FeSFeS3HFeSC6H4NHCH4C3H3C2H5CHCH5C2H3CNC11H14CH18SHCHCH6CH4CHC2H2CHCHCHNCH4NC8HC3H14CH6CH7C2HC4HCH2C5H2C2SHCHCH3CH2CH3CH6CHSH2C2HC2H2C2HCH2CSFeSHFeSFeSFeS2FeS2FeSFeS3FeS2FeS2C6H4CHC2HCH2CHC6H4C4SNH3C6H7CH2C2H2CHCHCHCH2CHC2H5C2H6CH2SC2HCHCH2CH3C2H2SH3SHCH4CH5C2H2NHC4H3C2H6C2H2NH4CH2CH5CH4CHC3HCH2CH11NH2C2H2CHC3HC2H9C2H2C2NHCH7CH3CH2C2HCHNH2C2H8CH3FeC2H5C2HFeHCHCNH2SC3HCH2CHCFeS2FeS2FeHFeS3H2CH3C2NHC4HSH6C3H2CHCH2C6H4NC8H11CH5C2HC2H5CHCH10SH2CHC2H5FeSH9CHFeHCHCHCH4C3HCH2CHC2H2CH2C2H8CH2C2HC2H
_chemical_formula_sum              "H1536 S192 Fe96 C864 N48"
_cell_length_a       46.365
_cell_length_b       51.1485
_cell_length_c       35.8097
_cell_angle_alpha    90.02
_cell_angle_beta     90.3423
_cell_angle_gamma    90.213

_space_group_name_H-M_alt    "P 1"
_space_group_IT_number       1

loop_
  _space_group_symop_operation_xyz
  'x, y, z'

loop_
  _atom_site_type_symbol
  _atom_site_label
  _atom_site_symmetry_multiplicity
  _atom_site_fract_x
  _atom_site_fract_y
  _atom_site_fract_z
  _atom_site_occupancy
  H   H1        1.0  0.38558  0.18655  0.05927  1.0000
  S   S1        1.0  0.43087  0.98260  0.02246  1.0000
  H   H2        1.0  0.15422  0.15245  0.20074  1.0000
  Fe  Fe1       1.0  0.36637  0.16694  0.16726  1.0000
  S   S2        1.0  0.36636  0.21081  0.15859  1.0000
  S   S3        1.0  0.37633  0.14243  0.11512  1.0000
  Fe  Fe2       1.0  0.34868  0.17263  0.24858  1.0000
  S   S4        1.0  0.34828  0.21615  0.24551  1.0000
  S   S5        1.0  0.33376  0.15320  0.30223  1.0000
  Fe  Fe3       1.0  0.32492  0.21136  0.19090  1.0000
  S   S6        1.0  0.29100  0.24317  0.18251  1.0000
  Fe  Fe4       1.0  0.38947  0.21262  0.21366  1.0000
  S   S7        1.0  0.42170  0.24479  0.22748  1.0000
  S   S8        1.0  0.32275  0.16752  0.19553  1.0000
  S   S9        1.0  0.39223  0.16892  0.22090  1.0000
  C   C1        1.0  0.37706  0.17242  0.47647  1.0000
  S   S10       1.0  0.11283  0.25559  0.23015  1.0000
  H   H3        1.0  0.28943  0.16776  0.49131  1.0000
  S   S11       1.0  0.08056  0.27834  0.15466  1.0000
  Fe  Fe5       1.0  0.06848  0.26878  0.21397  1.0000
  S   S12       1.0  0.03308  0.24206  0.23533  1.0000
  Fe  Fe6       1.0  0.12613  0.26830  0.17299  1.0000
  S   S13       1.0  0.15640  0.23986  0.14403  1.0000
  C   C2        1.0  0.34631  0.29460  0.23154  1.0000
  H   H4        1.0  0.46285  0.15442  0.21027  1.0000
  Fe  Fe7       1.0  0.20729  0.24001  0.47763  1.0000
  S   S14       1.0  0.23363  0.20401  0.46760  1.0000
  S   S15       1.0  0.16487  0.24220  0.44569  1.0000
  Fe  Fe8       1.0  0.27170  0.23066  0.47348  1.0000
  S   S16       1.0  0.31114  0.23135  0.43657  1.0000
  S   S17       1.0  0.24539  0.26744  0.47888  1.0000
  C   C3        1.0  0.15476  0.28888  0.33673  1.0000
  C   C4        1.0  0.13233  0.27310  0.34984  1.0000
  C   C5        1.0  0.13561  0.25933  0.38362  1.0000
  C   C6        1.0  0.16169  0.26028  0.40374  1.0000
  C   C7        1.0  0.18440  0.27555  0.39018  1.0000
  C   C8        1.0  0.18073  0.29015  0.35716  1.0000
  H   H5        1.0  0.11210  0.27229  0.33462  1.0000
  H   H6        1.0  0.11776  0.24810  0.39432  1.0000
  H   H7        1.0  0.20450  0.27665  0.40560  1.0000
  H   H8        1.0  0.09688  0.21165  0.35115  1.0000
  C   C9        1.0  0.45780  0.24440  0.21240  1.0000
  S   S18       1.0  0.45528  0.04180  0.08840  1.0000
  H   H9        1.0  0.07567  0.99252  0.08972  1.0000
  C   C10       1.0  0.99958  0.23905  0.21225  1.0000
  C   C11       1.0  0.17650  0.15322  0.46558  1.0000
  C   C12       1.0  0.16217  0.17000  0.49544  1.0000
  H   H10       1.0  0.24690  0.12255  0.48601  1.0000
  H   H11       1.0  0.30147  0.29306  0.43116  1.0000
  H   H12       1.0  0.01309  0.25850  0.16213  1.0000
  H   H13       1.0  0.00072  0.11185  0.03373  1.0000
  C   C13       1.0  0.25382  0.24145  0.17073  1.0000
  C   C14       1.0  0.24052  0.21844  0.15821  1.0000
  C   C15       1.0  0.21087  0.21840  0.14895  1.0000
  C   C16       1.0  0.19400  0.24095  0.15376  1.0000
  C   C17       1.0  0.20743  0.26396  0.16590  1.0000
  C   C18       1.0  0.23723  0.26428  0.17377  1.0000
  H   H14       1.0  0.25317  0.20086  0.15499  1.0000
  H   H15       1.0  0.20092  0.20077  0.13828  1.0000
  H   H16       1.0  0.19490  0.28162  0.16885  1.0000
  H   H17       1.0  0.24738  0.28228  0.18288  1.0000
  C   C19       1.0  0.32804  0.17435  0.34038  1.0000
  C   C20       1.0  0.34448  0.19712  0.34461  1.0000
  C   C21       1.0  0.33910  0.21424  0.37436  1.0000
  C   C22       1.0  0.31670  0.20922  0.39952  1.0000
  C   C23       1.0  0.30030  0.18635  0.39557  1.0000
  C   C24       1.0  0.30638  0.16869  0.36647  1.0000
  H   H18       1.0  0.36162  0.20137  0.32514  1.0000
  H   H19       1.0  0.35248  0.23144  0.37784  1.0000
  H   H20       1.0  0.28329  0.18213  0.41517  1.0000
  H   H21       1.0  0.29388  0.15091  0.36355  1.0000
  C   C25       1.0  0.43103  0.06828  0.09555  1.0000
  C   C26       1.0  0.41630  0.08034  0.06604  1.0000
  C   C27       1.0  0.39917  0.10264  0.07272  1.0000
  C   C28       1.0  0.39620  0.11297  0.10896  1.0000
  C   C29       1.0  0.41021  0.10043  0.13861  1.0000
  C   C30       1.0  0.42776  0.07843  0.13186  1.0000
  H   H22       1.0  0.41864  0.07287  0.03797  1.0000
  H   H23       1.0  0.38838  0.11211  0.04956  1.0000
  H   H24       1.0  0.40786  0.10793  0.16666  1.0000
  S   S19       1.0  0.13679  0.30927  0.19066  1.0000
  C   C31       1.0  0.29598  0.30012  0.35367  1.0000
  H   H25       1.0  0.03134  0.16682  0.15967  1.0000
  H   H26       1.0  0.06510  0.22350  0.11209  1.0000
  H   H27       1.0  0.15458  0.18503  0.18080  1.0000
  N   N1        1.0  0.99205  0.15906  0.12866  1.0000
  C   C32       1.0  0.44409  0.17711  0.07259  1.0000
  C   C33       1.0  0.42482  0.19931  0.08802  1.0000
  H   H28       1.0  0.37483  0.06929  0.48269  1.0000
  C   C34       1.0  0.39917  0.20441  0.06205  1.0000
  C   C35       1.0  0.07413  0.19976  0.45983  1.0000
  H   H29       1.0  0.34270  0.30059  0.36486  1.0000
  H   H30       1.0  0.00520  0.15212  0.07137  1.0000
  C   C36       1.0  0.29094  0.12891  0.46686  1.0000
  H   H31       1.0  0.03188  0.10105  0.06043  1.0000
  H   H32       1.0  0.25084  0.14852  0.45219  1.0000
  H   H33       1.0  0.42977  0.15967  0.06991  1.0000
  H   H34       1.0  0.32538  0.27059  0.37801  1.0000
  H   H35       1.0  0.41616  0.19383  0.11571  1.0000
  H   H36       1.0  0.12017  0.16173  0.47096  1.0000
  C   C37       1.0  0.05832  0.22113  0.43809  1.0000
  H   H37       1.0  0.18405  0.16293  0.17247  1.0000
  H   H38       1.0  0.24695  0.29149  0.31619  1.0000
  C   C38       1.0  0.00794  0.10118  0.05910  1.0000
  H   H39       1.0  0.08666  0.18814  0.43954  1.0000
  H   H40       1.0  0.07243  0.19516  0.14035  1.0000
  C   C39       1.0  0.31918  0.29516  0.29291  1.0000
  H   H41       1.0  0.41454  0.18279  0.44348  1.0000
  H   H42       1.0  0.46304  0.28593  0.22006  1.0000
  C   C40       1.0  0.99543  0.11375  0.09418  1.0000
  H   H43       1.0  0.04447  0.21211  0.41614  1.0000
  C   C41       1.0  0.34541  0.16302  0.47133  1.0000
  H   H44       1.0  0.22154  0.26017  0.24570  1.0000
  H   H45       1.0  0.17889  0.16445  0.43923  1.0000
  H   H46       1.0  0.21148  0.14355  0.36933  1.0000
  C   C42       1.0  0.98169  0.14224  0.16058  1.0000
  H   H47       1.0  0.99990  0.13025  0.17151  1.0000
  H   H48       1.0  0.45541  0.12673  0.04699  1.0000
  H   H49       1.0  0.13584  0.19212  0.45845  1.0000
  H   H50       1.0  0.40668  0.21056  0.03400  1.0000
  C   C43       1.0  0.99539  0.24904  0.17635  1.0000
  H   H51       1.0  0.45009  0.17463  0.14974  1.0000
  C   C44       1.0  0.02939  0.19594  0.11525  1.0000
  H   H52       1.0  0.19801  0.30263  0.34748  1.0000
  H   H53       1.0  0.27631  0.29584  0.37049  1.0000
  H   H54       1.0  0.23181  0.16750  0.39553  1.0000
  H   H55       1.0  0.30125  0.13381  0.43991  1.0000
  Fe  Fe9       1.0  0.46162  0.01538  0.03733  1.0000
  C   C45       1.0  0.05564  0.20963  0.13254  1.0000
  H   H56       1.0  0.43899  0.06926  0.15492  1.0000
  H   H57       1.0  0.16368  0.13521  0.46023  1.0000
  H   H58       1.0  0.10713  0.22747  0.47772  1.0000
  C   C46       1.0  0.09380  0.21173  0.49075  1.0000
  H   H59       1.0  0.05746  0.18688  0.47231  1.0000
  C   C47       1.0  0.25836  0.12876  0.46030  1.0000
  Fe  Fe10      1.0  0.12126  0.29696  0.24742  1.0000
  H   H60       1.0  0.38055  0.19012  0.42135  1.0000
  H   H61       1.0  0.47109  0.19605  0.32362  1.0000
  C   C48       1.0  0.01437  0.17785  0.14414  1.0000
  H   H62       1.0  0.19118  0.28183  0.23990  1.0000
  H   H63       1.0  0.19851  0.16417  0.23800  1.0000
  H   H64       1.0  0.44318  0.14451  0.12799  1.0000
  H   H65       1.0  0.04945  0.22077  0.15785  1.0000
  C   C49       1.0  0.31867  0.28651  0.25156  1.0000
  H   H66       1.0  0.29686  0.10877  0.47529  1.0000
  H   H67       1.0  0.00218  0.10166  0.11849  1.0000
  H   H68       1.0  0.34293  0.10551  0.46451  1.0000
  H   H69       1.0  0.03694  0.18508  0.09040  1.0000
  H   H70       1.0  0.98511  0.16873  0.20914  1.0000
  H   H71       1.0  0.01574  0.30203  0.06642  1.0000
  H   H72       1.0  0.34009  0.29589  0.43323  1.0000
  H   H73       1.0  0.09412  0.17909  0.37004  1.0000
  H   H74       1.0  0.43686  0.21796  0.09099  1.0000
  C   C50       1.0  0.00642  0.14233  0.09914  1.0000
  N   N2        1.0  0.29319  0.28753  0.31564  1.0000
  H   H75       1.0  0.25280  0.11491  0.43747  1.0000
  C   C51       1.0  0.29213  0.25803  0.32104  1.0000
  H   H76       1.0  0.12141  0.20112  0.38782  1.0000
  H   H77       1.0  0.37789  0.11697  0.47742  1.0000
  H   H78       1.0  0.20548  0.27587  0.28573  1.0000
  S   S20       1.0  0.15074  0.30820  0.29609  1.0000
  H   H79       1.0  0.01420  0.21135  0.10573  1.0000
  C   C52       1.0  0.27238  0.24206  0.29418  1.0000
  C   C53       1.0  0.27618  0.21269  0.29931  1.0000
  H   H80       1.0  0.00023  0.08065  0.05684  1.0000
  H   H81       1.0  0.26154  0.28794  0.27069  1.0000
  H   H82       1.0  0.19827  0.14738  0.47550  1.0000
  H   H83       1.0  0.45028  0.18212  0.04347  1.0000
  H   H84       1.0  0.31419  0.24952  0.31957  1.0000
  H   H85       1.0  0.28430  0.25290  0.34955  1.0000
  H   H86       1.0  0.00459  0.19140  0.16475  1.0000
  H   H87       1.0  0.30025  0.29521  0.23612  1.0000
  H   H88       1.0  0.07393  0.23445  0.42431  1.0000
  H   H89       1.0  0.33906  0.28649  0.30526  1.0000
  H   H90       1.0  0.02992  0.14025  0.10525  1.0000
  H   H91       1.0  0.31729  0.26501  0.24985  1.0000
  H   H92       1.0  0.24253  0.15946  0.34869  1.0000
  C   C54       1.0  0.26546  0.29725  0.29824  1.0000
  C   C55       1.0  0.13170  0.17903  0.48276  1.0000
  H   H93       1.0  0.34463  0.14898  0.44774  1.0000
  H   H94       1.0  0.24958  0.24657  0.30035  1.0000
  H   H95       1.0  0.27650  0.24657  0.26447  1.0000
  H   H96       1.0  0.29865  0.20709  0.29298  1.0000
  H   H97       1.0  0.27078  0.20682  0.32827  1.0000
  H   H98       1.0  0.26200  0.20187  0.27956  1.0000
  C   C56       1.0  0.32281  0.29204  0.37704  1.0000
  H   H99       1.0  0.34525  0.28785  0.20205  1.0000
  C   C57       1.0  0.46052  0.21431  0.31394  1.0000
  H   H100      1.0  0.44681  0.20951  0.28929  1.0000
  S   S21       1.0  0.07565  0.30956  0.23595  1.0000
  N   N3        1.0  0.17505  0.19853  0.29428  1.0000
  C   C58       1.0  0.19345  0.17779  0.31248  1.0000
  C   C59       1.0  0.16212  0.18759  0.25881  1.0000
  C   C60       1.0  0.19397  0.22190  0.28645  1.0000
  C   C61       1.0  0.15086  0.20693  0.31951  1.0000
  C   C62       1.0  0.13048  0.18479  0.33309  1.0000
  C   C63       1.0  0.20437  0.18405  0.35262  1.0000
  C   C64       1.0  0.18029  0.24386  0.26269  1.0000
  C   C65       1.0  0.18388  0.17984  0.22805  1.0000
  C   C66       1.0  0.16810  0.16943  0.19349  1.0000
  C   C67       1.0  0.10946  0.19489  0.36233  1.0000
  C   C68       1.0  0.22370  0.16221  0.36732  1.0000
  C   C69       1.0  0.20105  0.26677  0.25825  1.0000
  H   H101      1.0  0.21305  0.17415  0.29544  1.0000
  H   H102      1.0  0.18194  0.15866  0.31308  1.0000
  H   H103      1.0  0.14950  0.16959  0.26495  1.0000
  H   H104      1.0  0.14625  0.20151  0.24652  1.0000
  H   H105      1.0  0.21407  0.21584  0.27216  1.0000
  H   H106      1.0  0.20091  0.23125  0.31310  1.0000
  H   H107      1.0  0.15956  0.21759  0.34424  1.0000
  H   H108      1.0  0.13672  0.22132  0.30508  1.0000
  H   H109      1.0  0.14252  0.16838  0.34586  1.0000
  H   H110      1.0  0.11744  0.17709  0.30939  1.0000
  H   H111      1.0  0.21720  0.20239  0.35321  1.0000
  H   H112      1.0  0.18619  0.18614  0.37239  1.0000
  H   H113      1.0  0.16089  0.25157  0.27653  1.0000
  H   H114      1.0  0.17451  0.23686  0.23430  1.0000
  H   H115      1.0  0.19720  0.19677  0.21930  1.0000
  H   H116      1.0  0.36545  0.28539  0.24490  1.0000
  H   H117      1.0  0.45973  0.20291  0.20370  1.0000
  C   C70       1.0  0.39216  0.17564  0.43892  1.0000
  H   H118      1.0  0.44635  0.22195  0.33630  1.0000
  H   H119      1.0  0.33308  0.18024  0.46123  1.0000
  H   H120      1.0  0.39305  0.15669  0.42381  1.0000
  H   H121      1.0  0.47117  0.25210  0.29260  1.0000
  H   H122      1.0  0.38563  0.22023  0.07383  1.0000
  H   H123      1.0  0.04439  0.23271  0.45701  1.0000
  H   H124      1.0  0.37736  0.19181  0.49054  1.0000
  C   C71       1.0  0.47156  0.22113  0.20267  1.0000
  C   C72       1.0  0.46046  0.15925  0.13251  1.0000
  H   H125      1.0  0.38974  0.15868  0.49392  1.0000
  H   H126      1.0  0.98753  0.28510  0.04137  1.0000
  C   C73       1.0  0.47355  0.26789  0.21231  1.0000
  C   C74       1.0  0.32057  0.30182  0.41726  1.0000
  H   H127      1.0  0.08758  0.98311  0.13579  1.0000
  H   H128      1.0  0.45481  0.12268  0.19039  1.0000
  C   C75       1.0  0.35763  0.10850  0.48855  1.0000
  C   C76       1.0  0.29940  0.14848  0.49806  1.0000
  H   H129      1.0  0.17624  0.18732  0.50021  1.0000
  N   N4        1.0  0.47036  0.17053  0.09577  1.0000
  H   H130      1.0  0.46626  0.11499  0.09220  1.0000
  H   H131      1.0  0.98861  0.29748  0.14402  1.0000
  C   C77       1.0  0.47194  0.13761  0.19470  1.0000
  H   H132      1.0  0.47692  0.20771  0.12356  1.0000
  C   C78       1.0  0.36494  0.08164  0.50467  1.0000
  C   C79       1.0  0.47403  0.12440  0.06631  1.0000
  H   H133      1.0  0.47856  0.21786  0.05330  1.0000
  C   C80       1.0  0.99534  0.29084  0.06959  1.0000
  H   H134      1.0  0.99975  0.27279  0.08587  1.0000
  H   H135      1.0  0.98002  0.21798  0.25773  1.0000
  N   N5        1.0  0.33126  0.15201  0.50578  1.0000
  Fe  Fe11      1.0  0.06864  0.03765  0.69740  1.0000
  S   S22       1.0  0.08221  0.07618  0.72163  1.0000
  S   S23       1.0  0.02050  0.03652  0.68462  1.0000
  Fe  Fe12      1.0  0.12856  0.01588  0.71049  1.0000
  S   S24       1.0  0.14583  0.05272  0.73667  1.0000
  H   H136      1.0  0.35044  0.18242  0.61123  1.0000
  Fe  Fe13      1.0  0.10345  0.05320  0.76697  1.0000
  S   S25       1.0  0.09467  0.06802  0.82553  1.0000
  Fe  Fe14      1.0  0.12321  0.07312  0.68891  1.0000
  S   S26       1.0  0.13581  0.11343  0.66547  1.0000
  S   S27       1.0  0.08786  0.01484  0.74473  1.0000
  S   S28       1.0  0.10806  0.03593  0.66059  1.0000
  H   H137      1.0  0.32867  0.11514  0.53520  1.0000
  H   H138      1.0  0.39354  0.00447  0.83808  1.0000
  H   H139      1.0  0.22989  0.01315  0.84326  1.0000
  Fe  Fe15      1.0  0.24747  0.25929  0.54069  1.0000
  S   S29       1.0  0.27600  0.22405  0.53531  1.0000
  S   S30       1.0  0.25484  0.28911  0.58764  1.0000
  Fe  Fe16      1.0  0.23514  0.20019  0.53025  1.0000
  S   S31       1.0  0.23079  0.15858  0.55320  1.0000
  S   S32       1.0  0.20664  0.23477  0.54017  1.0000
  C   C81       1.0  0.07449  0.00997  0.91972  1.0000
  C   C82       1.0  0.08955  0.00166  0.88795  1.0000
  C   C83       1.0  0.09527  0.01912  0.85849  1.0000
  C   C84       1.0  0.08704  0.04532  0.86134  1.0000
  C   C85       1.0  0.07277  0.05382  0.89361  1.0000
  C   C86       1.0  0.06614  0.03614  0.92246  1.0000
  H   H140      1.0  0.34484  0.02452  0.76307  1.0000
  H   H141      1.0  0.10650  0.01241  0.83390  1.0000
  H   H142      1.0  0.06667  0.07413  0.89623  1.0000
  H   H143      1.0  0.05514  0.04287  0.94721  1.0000
  C   C87       1.0  0.20459  0.14640  0.58504  1.0000
  C   C88       1.0  0.18587  0.16296  0.60423  1.0000
  C   C89       1.0  0.16540  0.15247  0.62918  1.0000
  C   C90       1.0  0.16309  0.12532  0.63497  1.0000
  C   C91       1.0  0.18204  0.10875  0.61614  1.0000
  C   C92       1.0  0.20269  0.11926  0.59140  1.0000
  H   H144      1.0  0.18733  0.18386  0.60007  1.0000
  H   H145      1.0  0.15101  0.16550  0.64379  1.0000
  H   H146      1.0  0.18065  0.08784  0.62037  1.0000
  H   H147      1.0  0.21714  0.10625  0.57688  1.0000
  H   H148      1.0  0.22055  0.15521  0.76388  1.0000
  C   C93       1.0  0.20398  0.00407  0.68624  1.0000
  H   H149      1.0  0.07505  0.15028  0.59862  1.0000
  H   H150      1.0  0.24250  0.02292  0.66601  1.0000
  H   H151      1.0  0.19035  0.02083  0.68110  1.0000
  H   H152      1.0  0.13488  0.16052  0.78996  1.0000
  H   H153      1.0  0.17347  0.15214  0.82456  1.0000
  C   C94       1.0  0.00045  0.00717  0.68166  1.0000
  H   H154      1.0  0.03020  0.02186  0.85291  1.0000
  H   H155      1.0  0.22645  0.06996  0.71713  1.0000
  H   H156      1.0  0.02714  0.06750  0.84126  1.0000
  C   C95       1.0  0.00720  0.01833  0.84524  1.0000
  H   H157      1.0  0.12486  0.24749  0.61794  1.0000
  C   C96       1.0  0.98461  0.08091  0.94672  1.0000
  H   H158      1.0  0.14548  0.11356  0.83281  1.0000
  S   S33       1.0  0.47013  0.02721  0.97772  1.0000
  C   C97       1.0  0.43500  0.02714  0.75151  1.0000
  H   H159      1.0  0.28083  0.01615  0.84898  1.0000
  H   H160      1.0  0.32294  0.01842  0.72191  1.0000
  C   C98       1.0  0.08767  0.13755  0.57967  1.0000
  H   H161      1.0  0.29433  0.16953  0.56888  1.0000
  H   H162      1.0  0.18560  0.17050  0.75893  1.0000
  H   H163      1.0  0.18159  0.06398  0.89438  1.0000
  H   H164      1.0  0.15136  0.22260  0.60916  1.0000
  H   H165      1.0  0.27864  0.02656  0.75882  1.0000
  H   H166      1.0  0.10227  0.20992  0.58641  1.0000
  Fe  Fe17      1.0  0.44147  0.99290  0.96278  1.0000
  H   H167      1.0  0.23241  0.09435  0.68173  1.0000
  H   H168      1.0  0.14801  0.08076  0.88609  1.0000
  C   C99       1.0  0.29880  0.99151  0.78188  1.0000
  H   H169      1.0  0.32148  0.14627  0.58279  1.0000
  H   H170      1.0  0.20772  0.12771  0.71928  1.0000
  C   C100      1.0  0.00783  0.06085  0.78709  1.0000
  C   C101      1.0  0.32114  0.00616  0.90140  1.0000
  H   H171      1.0  0.00097  0.10186  0.77272  1.0000
  S   S34       1.0  0.41075  0.00078  0.91436  1.0000
  S   S35       1.0  0.06798  0.98765  0.95644  1.0000
  C   C102      1.0  0.24764  0.98641  0.80145  1.0000
  H   H172      1.0  0.14445  0.22310  0.52202  1.0000
  H   H173      1.0  0.43883  0.04378  0.82914  1.0000
  C   C103      1.0  0.10944  0.15372  0.55750  1.0000
  H   H174      1.0  0.39555  0.05013  0.74734  1.0000
  H   H175      1.0  0.20725  0.13650  0.82452  1.0000
  C   C104      1.0  0.09403  0.17335  0.53142  1.0000
  H   H176      1.0  0.46376  0.02591  0.66000  1.0000
  C   C105      1.0  0.13682  0.23707  0.59569  1.0000
  H   H177      1.0  0.44739  0.04507  0.89660  1.0000
  H   H178      1.0  0.19086  0.10695  0.86585  1.0000
  H   H179      1.0  0.46129  0.05316  0.72048  1.0000
  H   H180      1.0  0.15030  0.08563  0.80412  1.0000
  C   C106      1.0  0.46151  0.04330  0.83895  1.0000
  C   C107      1.0  0.11549  0.22345  0.56933  1.0000
  C   C108      1.0  0.18262  0.09103  0.84755  1.0000
  C   C109      1.0  0.33438  0.17225  0.53635  1.0000
  H   H181      1.0  0.12351  0.16384  0.57793  1.0000
  H   H182      1.0  0.32326  0.05030  0.74314  1.0000
  H   H183      1.0  0.14768  0.19605  0.55243  1.0000
  H   H184      1.0  0.08877  0.16304  0.75603  1.0000
  H   H185      1.0  0.41044  0.04006  0.70281  1.0000
  H   H186      1.0  0.19491  0.19659  0.81629  1.0000
  H   H187      1.0  0.03839  0.09293  0.77992  1.0000
  C   C110      1.0  0.32729  0.18524  0.60426  1.0000
  H   H188      1.0  0.01947  0.08313  0.73789  1.0000
  C   C111      1.0  0.39099  0.98426  0.84639  1.0000
  H   H189      1.0  0.22223  0.20164  0.78145  1.0000
  C   C112      1.0  0.16678  0.07139  0.87236  1.0000
  H   H190      1.0  0.39229  0.01667  0.73181  1.0000
  C   C113      1.0  0.01728  0.08631  0.76841  1.0000
  H   H191      1.0  0.19362  0.08123  0.77070  1.0000
  S   S36       1.0  0.98810  0.01521  0.98176  1.0000
  C   C114      1.0  0.13157  0.20850  0.53804  1.0000
  H   H192      1.0  0.00722  0.01258  0.81526  1.0000
  H   H193      1.0  0.30071  0.03297  0.79975  1.0000
  H   H194      1.0  0.99974  0.98279  0.56736  1.0000
  H   H195      1.0  0.00956  0.08774  0.89759  1.0000
  C   C115      1.0  0.25126  0.98344  0.68369  1.0000
  C   C116      1.0  0.40660  0.03411  0.73221  1.0000
  H   H196      1.0  0.02943  0.02164  0.55560  1.0000
  H   H197      1.0  0.24721  0.02983  0.80541  1.0000
  H   H198      1.0  0.34389  0.00410  0.91087  1.0000
  H   H199      1.0  0.28812  0.14118  0.52333  1.0000
  H   H200      1.0  0.44478  0.06838  0.75939  1.0000
  H   H201      1.0  0.14999  0.25162  0.58022  1.0000
  C   C117      1.0  0.20436  0.01640  0.79332  1.0000
  H   H202      1.0  0.09931  0.12294  0.59701  1.0000
  H   H203      1.0  0.24995  0.09768  0.72656  1.0000
  H   H204      1.0  0.10137  0.23886  0.55754  1.0000
  H   H205      1.0  0.07724  0.18373  0.54780  1.0000
  H   H206      1.0  0.44424  0.01036  0.73611  1.0000
  H   H207      1.0  0.43008  0.02059  0.78017  1.0000
  H   H208      1.0  0.07274  0.12687  0.56062  1.0000
  C   C118      1.0  0.45653  0.05043  0.75074  1.0000
  C   C119      1.0  0.99678  0.99386  0.86716  1.0000
  C   C120      1.0  0.23349  0.00521  0.67778  1.0000
  C   C121      1.0  0.29879  0.02123  0.77388  1.0000
  C   C122      1.0  0.00490  0.06464  0.82992  1.0000
  H   H209      1.0  0.22993  0.18131  0.82135  1.0000
  H   H210      1.0  0.99473  0.99785  0.89745  1.0000
  H   H211      1.0  0.09740  0.13424  0.72948  1.0000
  H   H212      1.0  0.18495  0.09999  0.70995  1.0000
  C   C123      1.0  0.01325  0.98374  0.67060  1.0000
  C   C124      1.0  0.98848  0.00106  0.55904  1.0000
  H   H213      1.0  0.11842  0.16378  0.72362  1.0000
  H   H214      1.0  0.98392  0.10194  0.95437  1.0000
  H   H215      1.0  0.20132  0.08084  0.83515  1.0000
  H   H216      1.0  0.11391  0.13091  0.79523  1.0000
  N   N6        1.0  0.17587  0.11885  0.78731  1.0000
  C   C125      1.0  0.15240  0.12633  0.75987  1.0000
  C   C126      1.0  0.19885  0.10244  0.76846  1.0000
  C   C127      1.0  0.16202  0.10232  0.81727  1.0000
  C   C128      1.0  0.18923  0.14249  0.80577  1.0000
  C   C129      1.0  0.20193  0.16337  0.77920  1.0000
  C   C130      1.0  0.12703  0.14267  0.77553  1.0000
  C   C131      1.0  0.32404  0.02900  0.74897  1.0000
  C   C132      1.0  0.20400  0.10687  0.72610  1.0000
  C   C133      1.0  0.22984  0.09121  0.71224  1.0000
  C   C134      1.0  0.21289  0.18712  0.80107  1.0000
  C   C135      1.0  0.10674  0.15145  0.74418  1.0000
  H   H217      1.0  0.15889  0.05450  0.85558  1.0000
  H   H218      1.0  0.14275  0.10841  0.74731  1.0000
  H   H219      1.0  0.16123  0.13747  0.73593  1.0000
  H   H220      1.0  0.21997  0.10470  0.78312  1.0000
  H   H221      1.0  0.02438  0.04583  0.78085  1.0000
  H   H222      1.0  0.32374  0.20589  0.59575  1.0000
  C   C136      1.0  0.23359  0.01280  0.81261  1.0000
  H   H223      1.0  0.12237  0.13978  0.54088  1.0000
  H   H224      1.0  0.99398  0.08362  0.83421  1.0000
  H   H225      1.0  0.98558  0.00082  0.52828  1.0000
  Fe  Fe18      1.0  0.02371  0.98576  0.98315  1.0000
  N   N7        1.0  0.98990  0.04299  0.85100  1.0000
  C   C137      1.0  0.31784  0.16660  0.57309  1.0000
  C   C138      1.0  0.46201  0.05591  0.87766  1.0000
  H   H226      1.0  0.45464  0.07652  0.87625  1.0000
  H   H227      1.0  0.08177  0.16120  0.51098  1.0000
  H   H228      1.0  0.31623  0.02734  0.89914  1.0000
  C   C139      1.0  0.28558  0.99496  0.84946  1.0000
  C   C140      1.0  0.45888  0.98413  0.66479  1.0000
  H   H229      1.0  0.00892  0.04090  0.90657  1.0000
  H   H230      1.0  0.32728  0.19179  0.52603  1.0000
  H   H231      1.0  0.01203  0.02435  0.60024  1.0000
  H   H232      1.0  0.35747  0.17472  0.54430  1.0000
  N   N8        1.0  0.27892  0.98214  0.81233  1.0000
  H   H233      1.0  0.19372  0.03429  0.80397  1.0000
  H   H234      1.0  0.18993  0.99941  0.79868  1.0000
  H   H235      1.0  0.34510  0.07165  0.51466  1.0000
  H   H236      1.0  0.20724  0.01857  0.76273  1.0000
  H   H237      1.0  0.31436  0.18136  0.62969  1.0000
  H   H238      1.0  0.03619  0.98316  0.66525  1.0000
  C   C141      1.0  0.28264  0.31322  0.59037  1.0000
  H   H239      1.0  0.36267  0.13057  0.53901  1.0000
  C   C142      1.0  0.34470  0.12669  0.51893  1.0000
  C   C143      1.0  0.00826  0.02390  0.56956  1.0000
  H   H240      1.0  0.27117  0.98674  0.87138  1.0000
  C   C144      1.0  0.31717  0.99260  0.86366  1.0000
  H   H241      1.0  0.24477  0.98384  0.77075  1.0000
  H   H242      1.0  0.07895  0.22177  0.51027  1.0000
  S   S37       1.0  0.28774  0.98549  0.67073  1.0000
  C   C145      1.0  0.98874  0.07812  0.90458  1.0000
  H   H243      1.0  0.33221  0.00208  0.84382  1.0000
  H   H244      1.0  0.99865  0.04276  0.56063  1.0000
  H   H245      1.0  0.00282  0.07172  0.96209  1.0000
  H   H246      1.0  0.47209  0.07870  0.81063  1.0000
  C   C146      1.0  0.98942  0.04893  0.89253  1.0000
  H   H247      1.0  0.16169  0.15858  0.52164  1.0000
  H   H248      1.0  0.32133  0.98516  0.78766  1.0000
  H   H249      1.0  0.30701  0.99710  0.92277  1.0000
  S   S38       1.0  0.42101  0.98550  0.65843  1.0000
  C   C147      1.0  0.47484  0.00757  0.66425  1.0000
  N   N9        1.0  0.11306  0.19272  0.51138  1.0000
  H   H250      1.0  0.17053  0.98950  0.99262  1.0000
  H   H251      1.0  0.98720  0.05487  0.77382  1.0000
  H   H252      1.0  0.47776  0.00669  0.78683  1.0000
  H   H253      1.0  0.29318  0.98205  0.75483  1.0000
  H   H254      1.0  0.38052  0.08353  0.52822  1.0000
  H   H255      1.0  0.46857  0.02274  0.84236  1.0000
  H   H256      1.0  0.29570  0.31044  0.53297  1.0000
  H   H257      1.0  0.09644  0.98153  0.88586  1.0000
  H   H258      1.0  0.18690  0.60574  0.47677  1.0000
  H   H259      1.0  0.41150  0.42465  0.10910  1.0000
  H   H260      1.0  0.21600  0.32722  0.28661  1.0000
  C   C148      1.0  0.20574  0.61232  0.49366  1.0000
  S   S39       1.0  0.07912  0.35959  0.15469  1.0000
  C   C149      1.0  0.05322  0.37150  0.12212  1.0000
  C   C150      1.0  0.04378  0.39749  0.12539  1.0000
  C   C151      1.0  0.02306  0.40784  0.10055  1.0000
  C   C152      1.0  0.01181  0.39243  0.07165  1.0000
  C   C153      1.0  0.02164  0.36656  0.06790  1.0000
  C   C154      1.0  0.04242  0.35621  0.09279  1.0000
  H   H261      1.0  0.05219  0.40960  0.14775  1.0000
  H   H262      1.0  0.01542  0.42764  0.10421  1.0000
  H   H263      1.0  0.01304  0.35442  0.04570  1.0000
  C   C155      1.0  0.45355  0.48884  0.16748  1.0000
  H   H264      1.0  0.32621  0.58804  0.48732  1.0000
  N   N10       1.0  0.47726  0.46966  0.15783  1.0000
  H   H265      1.0  0.98019  0.63330  0.22338  1.0000
  C   C156      1.0  0.44594  0.45339  0.10207  1.0000
  C   C157      1.0  0.28900  0.56284  0.47936  1.0000
  H   H266      1.0  0.29658  0.61426  0.35903  1.0000
  H   H267      1.0  0.26606  0.56176  0.48764  1.0000
  H   H268      1.0  0.04893  0.44241  0.05346  1.0000
  C   C158      1.0  0.44013  0.56897  0.09056  1.0000
  C   C159      1.0  0.41748  0.57494  0.06607  1.0000
  C   C160      1.0  0.39857  0.59573  0.07418  1.0000
  C   C161      1.0  0.40171  0.61061  0.10708  1.0000
  C   C162      1.0  0.42409  0.60435  0.13190  1.0000
  C   C163      1.0  0.44323  0.58375  0.12356  1.0000
  H   H269      1.0  0.41458  0.56366  0.04075  1.0000
  H   H270      1.0  0.38131  0.60033  0.05484  1.0000
  H   H271      1.0  0.42686  0.61563  0.15724  1.0000
  C   C164      1.0  0.23342  0.60903  0.47126  1.0000
  H   H272      1.0  0.33149  0.63323  0.47696  1.0000
  H   H273      1.0  0.30467  0.58110  0.37270  1.0000
  H   H274      1.0  0.99833  0.58633  0.05970  1.0000
  C   C165      1.0  0.46350  0.44673  0.13778  1.0000
  H   H275      1.0  0.05000  0.33637  0.08947  1.0000
  C   C166      1.0  0.09471  0.39764  0.01636  1.0000
  H   H276      1.0  0.32823  0.62984  0.41328  1.0000
  H   H277      1.0  0.23463  0.32381  0.24263  1.0000
  H   H278      1.0  0.41796  0.43438  0.06145  1.0000
  S   S40       1.0  0.00711  0.47970  0.03193  1.0000
  H   H279      1.0  0.43265  0.47840  0.17170  1.0000
  H   H280      1.0  0.00301  0.61403  0.02910  1.0000
  H   H281      1.0  0.45516  0.49325  0.22840  1.0000
  H   H282      1.0  0.27368  0.59708  0.42503  1.0000
  H   H283      1.0  0.26247  0.33801  0.31817  1.0000
  H   H284      1.0  0.03463  0.36092  0.23522  1.0000
  C   C167      1.0  0.31711  0.61054  0.41394  1.0000
  C   C168      1.0  0.30263  0.58887  0.49278  1.0000
  C   C169      1.0  0.30930  0.63623  0.48779  1.0000
  H   H285      1.0  0.46102  0.45896  0.07953  1.0000
  C   C170      1.0  0.43491  0.52729  0.20515  1.0000
  H   H286      1.0  0.27767  0.63139  0.42456  1.0000
  H   H287      1.0  0.44910  0.43580  0.15719  1.0000
  C   C171      1.0  0.26027  0.61855  0.49376  1.0000
  H   H288      1.0  0.11589  0.37698  0.08371  1.0000
  S   S41       1.0  0.37792  0.63739  0.11464  1.0000
  H   H289      1.0  0.12911  0.41733  0.04925  1.0000
  H   H290      1.0  0.28128  0.33445  0.27443  1.0000
  C   C172      1.0  0.45761  0.50572  0.20318  1.0000
  H   H291      1.0  0.44271  0.41256  0.08445  1.0000
  C   C173      1.0  0.42849  0.42975  0.08859  1.0000
  H   H292      1.0  0.26021  0.64290  0.22753  1.0000
  H   H293      1.0  0.46062  0.58262  0.01157  1.0000
  H   H294      1.0  0.00968  0.62798  0.09339  1.0000
  H   H295      1.0  0.45218  0.64427  0.02765  1.0000
  H   H296      1.0  0.29431  0.52100  0.48662  1.0000
  H   H297      1.0  0.23366  0.35502  0.26591  1.0000
  H   H298      1.0  0.10057  0.47420  0.08285  1.0000
  H   H299      1.0  0.41283  0.51876  0.20520  1.0000
  C   C174      1.0  0.23514  0.33358  0.27036  1.0000
  S   S42       1.0  0.44327  0.48412  0.01224  1.0000
  H   H300      1.0  0.23503  0.58824  0.46314  1.0000
  H   H301      1.0  0.23095  0.62085  0.44540  1.0000
  C   C175      1.0  0.07242  0.44540  0.05610  1.0000
  H   H302      1.0  0.33170  0.59624  0.42741  1.0000
  H   H303      1.0  0.08144  0.42961  0.07382  1.0000
  H   H304      1.0  0.25664  0.63982  0.49766  1.0000
  H   H305      1.0  0.47495  0.44927  0.21054  1.0000
  H   H306      1.0  0.43697  0.54075  0.18094  1.0000
  Fe  Fe19      1.0  0.09026  0.31877  0.17730  1.0000
  C   C176      1.0  0.98724  0.62367  0.08469  1.0000
  H   H307      1.0  0.46069  0.57939  0.14269  1.0000
  N   N11       1.0  0.28979  0.61365  0.47704  1.0000
  S   S43       1.0  0.46568  0.54398  0.08076  1.0000
  H   H308      1.0  0.32745  0.53935  0.49010  1.0000
  H   H309      1.0  0.32279  0.31666  0.29389  1.0000
  H   H310      1.0  0.34891  0.31619  0.23174  1.0000
  H   H311      1.0  0.14163  0.39796  0.01043  1.0000
  H   H312      1.0  0.29736  0.32174  0.35132  1.0000
  C   C177      1.0  0.13095  0.37623  0.05967  1.0000
  H   H313      1.0  0.43796  0.53883  0.23116  1.0000
  H   H314      1.0  0.43064  0.46971  0.10632  1.0000
  H   H315      1.0  0.07921  0.39324  0.03925  1.0000
  H   H316      1.0  0.44957  0.50242  0.14360  1.0000
  Fe  Fe20      1.0  0.47070  0.51890  0.02807  1.0000
  C   C178      1.0  0.46896  0.63190  0.04115  1.0000
  C   C179      1.0  0.26304  0.32711  0.29141  1.0000
  H   H317      1.0  0.06896  0.48789  0.06040  1.0000
  H   H318      1.0  0.29079  0.56059  0.44865  1.0000
  C   C180      1.0  0.31250  0.60164  0.37355  1.0000
  C   C181      1.0  0.07725  0.47114  0.07698  1.0000
  H   H319      1.0  0.06559  0.47056  0.10398  1.0000
  H   H320      1.0  0.45702  0.61755  0.05863  1.0000
  H   H321      1.0  0.99740  0.36540  0.24788  1.0000
  H   H322      1.0  0.12811  0.35726  0.04496  1.0000
  S   S44       1.0  0.98384  0.40389  0.04173  1.0000
  H   H323      1.0  0.33319  0.60286  0.35813  1.0000
  C   C182      1.0  0.28801  0.61309  0.43490  1.0000
  H   H324      1.0  0.31888  0.32347  0.41803  1.0000
  H   H325      1.0  0.15334  0.37728  0.07078  1.0000
  C   C183      1.0  0.01277  0.35194  0.23407  1.0000
  C   C184      1.0  0.12549  0.39912  0.03311  1.0000
  C   C185      1.0  0.98903  0.60539  0.05098  1.0000
  H   H326      1.0  0.99230  0.63471  0.15722  1.0000
  H   H327      1.0  0.20250  0.63320  0.50110  1.0000
  C   C186      1.0  0.00411  0.34744  0.19333  1.0000
  H   H328      1.0  0.10945  0.45180  0.02246  1.0000
  H   H329      1.0  0.03986  0.41515  0.00912  1.0000
  H   H330      1.0  0.00413  0.36676  0.17933  1.0000
  H   H331      1.0  0.02108  0.33506  0.18070  1.0000
  C   C187      1.0  0.08675  0.44603  0.01712  1.0000
  H   H332      1.0  0.00308  0.32644  0.12514  1.0000
  H   H333      1.0  0.98247  0.44898  0.46872  1.0000
  H   H334      1.0  0.97925  0.36636  0.12677  1.0000
  H   H335      1.0  0.01339  0.33310  0.24949  1.0000
  C   C188      1.0  0.98261  0.31554  0.12875  1.0000
  C   C189      1.0  0.30416  0.53941  0.49722  1.0000
  H   H336      1.0  0.47908  0.51515  0.20456  1.0000
  Fe  Fe21      1.0  0.36169  0.41073  0.64202  1.0000
  S   S45       1.0  0.36400  0.45156  0.61874  1.0000
  S   S46       1.0  0.35017  0.37997  0.59764  1.0000
  Fe  Fe22      1.0  0.37642  0.43099  0.72026  1.0000
  S   S47       1.0  0.37820  0.47290  0.70242  1.0000
  S   S48       1.0  0.38658  0.41939  0.78015  1.0000
  Fe  Fe23      1.0  0.33873  0.46331  0.66874  1.0000
  S   S49       1.0  0.30452  0.49364  0.65787  1.0000
  Fe  Fe24      1.0  0.40356  0.45799  0.65386  1.0000
  S   S50       1.0  0.43712  0.48665  0.63231  1.0000
  S   S51       1.0  0.33408  0.42241  0.69065  1.0000
  S   S52       1.0  0.40412  0.41612  0.67315  1.0000
  Fe  Fe25      1.0  0.45118  0.49600  0.95246  1.0000
  S   S53       1.0  0.41814  0.50252  0.90618  1.0000
  C   C190      1.0  0.31782  0.46523  0.85791  1.0000
  C   C191      1.0  0.27017  0.48837  0.67700  1.0000
  C   C192      1.0  0.22070  0.50295  0.68567  1.0000
  C   C193      1.0  0.24809  0.50638  0.66984  1.0000
  H   H337      1.0  0.20367  0.51682  0.67988  1.0000
  H   H338      1.0  0.25209  0.52301  0.65203  1.0000
  H   H339      1.0  0.15338  0.60401  0.76023  1.0000
  C   C194      1.0  0.05350  0.41693  0.98397  1.0000
  C   C195      1.0  0.05859  0.60604  0.69644  1.0000
  H   H340      1.0  0.00755  0.42418  0.67117  1.0000
  C   C196      1.0  0.20243  0.63318  0.58719  1.0000
  C   C197      1.0  0.39759  0.44287  0.81375  1.0000
  C   C198      1.0  0.39293  0.46957  0.80812  1.0000
  C   C199      1.0  0.39944  0.48760  0.83662  1.0000
  C   C200      1.0  0.41193  0.47929  0.87040  1.0000
  C   C201      1.0  0.41767  0.45271  0.87553  1.0000
  C   C202      1.0  0.41010  0.43454  0.84751  1.0000
  H   H341      1.0  0.38349  0.47624  0.78226  1.0000
  H   H342      1.0  0.39479  0.50811  0.83254  1.0000
  H   H343      1.0  0.42708  0.44604  0.90155  1.0000
  H   H344      1.0  0.41384  0.41391  0.85211  1.0000
  C   C203      1.0  0.32424  0.35414  0.59611  1.0000
  C   C204      1.0  0.31968  0.34069  0.56223  1.0000
  C   C205      1.0  0.22451  0.49626  0.83969  1.0000
  C   C206      1.0  0.31257  0.64156  0.53035  1.0000
  H   H345      1.0  0.33415  0.44893  0.78837  1.0000
  Fe  Fe26      1.0  0.08301  0.49681  0.67918  1.0000
  S   S54       1.0  0.07498  0.53971  0.68573  1.0000
  S   S55       1.0  0.05109  0.46394  0.66543  1.0000
  Fe  Fe27      1.0  0.14455  0.50221  0.71030  1.0000
  S   S56       1.0  0.14055  0.54542  0.72074  1.0000
  S   S57       1.0  0.18159  0.47678  0.72959  1.0000
  Fe  Fe28      1.0  0.09624  0.53571  0.74193  1.0000
  S   S58       1.0  0.07479  0.55497  0.79156  1.0000
  Fe  Fe29      1.0  0.12008  0.54639  0.66352  1.0000
  S   S59       1.0  0.12567  0.58055  0.62229  1.0000
  S   S60       1.0  0.10209  0.49267  0.73652  1.0000
  S   S61       1.0  0.12642  0.50327  0.65190  1.0000
  H   H346      1.0  0.27814  0.40692  0.54578  1.0000
  Fe  Fe30      1.0  0.00606  0.48691  0.96986  1.0000
  S   S62       1.0  0.04797  0.48742  0.93689  1.0000
  C   C207      1.0  0.05396  0.50599  0.89588  1.0000
  C   C208      1.0  0.03864  0.52891  0.88812  1.0000
  C   C209      1.0  0.04509  0.54371  0.85600  1.0000
  C   C210      1.0  0.06666  0.53560  0.83118  1.0000
  C   C211      1.0  0.08168  0.51251  0.83870  1.0000
  C   C212      1.0  0.07553  0.49793  0.87105  1.0000
  H   H347      1.0  0.02229  0.53556  0.90731  1.0000
  H   H348      1.0  0.03342  0.56158  0.85048  1.0000
  H   H349      1.0  0.09852  0.50618  0.82004  1.0000
  H   H350      1.0  0.08765  0.48037  0.87692  1.0000
  H   H351      1.0  0.01323  0.55750  0.76809  1.0000
  H   H352      1.0  0.22033  0.48377  0.86445  1.0000
  C   C213      1.0  0.15585  0.60019  0.60900  1.0000
  C   C214      1.0  0.18428  0.59362  0.61833  1.0000
  C   C215      1.0  0.20733  0.61011  0.60770  1.0000
  C   C216      1.0  0.30506  0.40057  0.77771  1.0000
  H   H353      1.0  0.18850  0.57584  0.63372  1.0000
  C   C217      1.0  0.26479  0.46689  0.70001  1.0000
  C   C218      1.0  0.23762  0.46376  0.71653  1.0000
  C   C219      1.0  0.21547  0.48166  0.70913  1.0000
  H   H354      1.0  0.28162  0.45287  0.70536  1.0000
  H   H355      1.0  0.23356  0.44725  0.73466  1.0000
  H   H356      1.0  0.15299  0.41951  0.91734  1.0000
  H   H357      1.0  0.27496  0.32098  0.64860  1.0000
  C   C220      1.0  0.01284  0.46576  0.66386  1.0000
  H   H358      1.0  0.18671  0.62163  0.68999  1.0000
  H   H359      1.0  0.01060  0.50737  0.65589  1.0000
  N   N12       1.0  0.36564  0.55266  0.62016  1.0000
  C   C221      1.0  0.36718  0.54949  0.66209  1.0000
  C   C222      1.0  0.33461  0.55140  0.60685  1.0000
  C   C223      1.0  0.38171  0.52994  0.60311  1.0000
  C   C224      1.0  0.38010  0.57753  0.60719  1.0000
  C   C225      1.0  0.36806  0.60346  0.62277  1.0000
  C   C226      1.0  0.39789  0.54943  0.67967  1.0000
  C   C227      1.0  0.37798  0.52595  0.56027  1.0000
  C   C228      1.0  0.31122  0.56347  0.63251  1.0000
  C   C229      1.0  0.28231  0.56582  0.61206  1.0000
  C   C230      1.0  0.38711  0.62662  0.61163  1.0000
  C   C231      1.0  0.39656  0.54714  0.72219  1.0000
  C   C232      1.0  0.39747  0.50406  0.54617  1.0000
  H   H360      1.0  0.35637  0.53082  0.67027  1.0000
  H   H361      1.0  0.35500  0.56503  0.67659  1.0000
  H   H362      1.0  0.33259  0.56039  0.57865  1.0000
  H   H363      1.0  0.32767  0.53062  0.60343  1.0000
  H   H364      1.0  0.37518  0.51122  0.61674  1.0000
  H   H365      1.0  0.40531  0.53198  0.60829  1.0000
  H   H366      1.0  0.40370  0.57686  0.61307  1.0000
  H   H367      1.0  0.37853  0.57933  0.57636  1.0000
  H   H368      1.0  0.36685  0.60327  0.65366  1.0000
  H   H369      1.0  0.34637  0.60719  0.61072  1.0000
  H   H370      1.0  0.41066  0.53261  0.66951  1.0000
  H   H371      1.0  0.40964  0.56776  0.67311  1.0000
  H   H372      1.0  0.38364  0.54384  0.54450  1.0000
  H   H373      1.0  0.35545  0.52041  0.55314  1.0000
  H   H374      1.0  0.30784  0.55067  0.65715  1.0000
  H   H375      1.0  0.31711  0.58304  0.64320  1.0000
  H   H376      1.0  0.28363  0.58071  0.58956  1.0000
  H   H377      1.0  0.27576  0.54671  0.59985  1.0000
  H   H378      1.0  0.26545  0.57197  0.63210  1.0000
  C   C233      1.0  0.46668  0.59879  0.99226  1.0000
  H   H379      1.0  0.19384  0.32405  0.54389  1.0000
  H   H380      1.0  0.04507  0.43434  0.96872  1.0000
  H   H381      1.0  0.38441  0.56375  0.73431  1.0000
  H   H382      1.0  0.38613  0.52845  0.73041  1.0000
  H   H383      1.0  0.41876  0.54741  0.73397  1.0000
  H   H384      1.0  0.39236  0.48534  0.56040  1.0000
  H   H385      1.0  0.10739  0.60005  0.73770  1.0000
  H   H386      1.0  0.43862  0.44880  0.75370  1.0000
  H   H387      1.0  0.26357  0.45824  0.84720  1.0000
  S   S63       1.0  0.47546  0.53259  0.96876  1.0000
  H   H388      1.0  0.25950  0.51226  0.80864  1.0000
  C   C234      1.0  0.25692  0.49897  0.83288  1.0000
  H   H389      1.0  0.29950  0.45121  0.76757  1.0000
  H   H390      1.0  0.28451  0.49779  0.75833  1.0000
  H   H391      1.0  0.47018  0.57163  0.72091  1.0000
  C   C235      1.0  0.99314  0.48020  0.82402  1.0000
  N   N13       1.0  0.99588  0.47766  0.78231  1.0000
  H   H392      1.0  0.33280  0.49463  0.94412  1.0000
  H   H393      1.0  0.12932  0.62357  0.80669  1.0000
  C   C236      1.0  0.20241  0.59094  0.72494  1.0000
  H   H394      1.0  0.44797  0.52000  0.82884  1.0000
  N   N14       1.0  0.08482  0.42115  0.99441  1.0000
  H   H395      1.0  0.30956  0.53285  0.72307  1.0000
  H   H396      1.0  0.32037  0.48870  0.74480  1.0000
  H   H397      1.0  0.98667  0.56375  0.73229  1.0000
  H   H398      1.0  0.13096  0.44546  0.89794  1.0000
  H   H399      1.0  0.32680  0.46039  0.93470  1.0000
  H   H400      1.0  0.01883  0.54593  0.72087  1.0000
  C   C237      1.0  0.28739  0.32646  0.62435  1.0000
  H   H401      1.0  0.46439  0.43142  0.78264  1.0000
  H   H402      1.0  0.32421  0.50572  0.87849  1.0000
  C   C238      1.0  0.27075  0.47193  0.82489  1.0000
  H   H403      1.0  0.31619  0.43240  0.57600  1.0000
  H   H404      1.0  0.29356  0.48857  0.89819  1.0000
  C   C239      1.0  0.00859  0.50236  0.76556  1.0000
  C   C240      1.0  0.01698  0.39291  0.94264  1.0000
  H   H405      1.0  0.08755  0.43217  0.93576  1.0000
  C   C241      1.0  0.43815  0.61036  0.97675  1.0000
  H   H406      1.0  0.19090  0.36460  0.58274  1.0000
  H   H407      1.0  0.98756  0.49939  0.89527  1.0000
  H   H408      1.0  0.40912  0.62453  0.62370  1.0000
  C   C242      1.0  0.30297  0.42083  0.80891  1.0000
  H   H409      1.0  0.38864  0.62812  0.58074  1.0000
  C   C243      1.0  0.21211  0.35529  0.57775  1.0000
  C   C244      1.0  0.33437  0.47914  0.92247  1.0000
  H   H410      1.0  0.29076  0.40584  0.75394  1.0000
  H   H411      1.0  0.21505  0.51585  0.84483  1.0000
  H   H412      1.0  0.31145  0.35673  0.65360  1.0000
  H   H413      1.0  0.02171  0.49769  0.74039  1.0000
  H   H414      1.0  0.47117  0.53813  0.88719  1.0000
  H   H415      1.0  0.31827  0.41475  0.83127  1.0000
  C   C245      1.0  0.01630  0.45540  0.77436  1.0000
  H   H416      1.0  0.06261  0.38953  0.93724  1.0000
  C   C246      1.0  0.99837  0.48942  0.65859  1.0000
  C   C247      1.0  0.10156  0.42386  0.95828  1.0000
  C   C248      1.0  0.04719  0.45839  0.79064  1.0000
  H   H417      1.0  0.32762  0.39909  0.76774  1.0000
  H   H418      1.0  0.33217  0.34608  0.53798  1.0000
  H   H419      1.0  0.22915  0.60493  0.61531  1.0000
  C   C249      1.0  0.99656  0.44258  0.66703  1.0000
  C   C250      1.0  0.06724  0.43740  0.77520  1.0000
  H   H420      1.0  0.25991  0.46474  0.79893  1.0000
  H   H421      1.0  0.21357  0.48762  0.81482  1.0000
  H   H422      1.0  0.02401  0.51165  0.78552  1.0000
  H   H423      1.0  0.33974  0.49528  0.80660  1.0000
  H   H424      1.0  0.10828  0.40429  0.94791  1.0000
  H   H425      1.0  0.44208  0.55753  0.86884  1.0000
  H   H426      1.0  0.01416  0.48600  0.83671  1.0000
  H   H427      1.0  0.16348  0.59362  0.69234  1.0000
  H   H428      1.0  0.40244  0.59973  0.94022  1.0000
  H   H429      1.0  0.30075  0.54341  0.76958  1.0000
  H   H430      1.0  0.30859  0.44732  0.87085  1.0000
  C   C251      1.0  0.30803  0.34680  0.62726  1.0000
  H   H431      1.0  0.04694  0.45619  0.82149  1.0000
  H   H432      1.0  0.05648  0.47774  0.78400  1.0000
  H   H433      1.0  0.09456  0.64330  0.84993  1.0000
  H   H434      1.0  0.29843  0.38108  0.78838  1.0000
  C   C252      1.0  0.30772  0.50150  0.76366  1.0000
  H   H435      1.0  0.00811  0.43674  0.78609  1.0000
  H   H436      1.0  0.12913  0.62843  0.58067  1.0000
  C   C253      1.0  0.17732  0.60686  0.70908  1.0000
  H   H437      1.0  0.01280  0.37453  0.92697  1.0000
  C   C254      1.0  0.42325  0.59134  0.94986  1.0000
  H   H438      1.0  0.26673  0.50869  0.85745  1.0000
  C   C255      1.0  0.14509  0.43976  0.92175  1.0000
  H   H439      1.0  0.41876  0.57242  0.96401  1.0000
  H   H440      1.0  0.05922  0.41759  0.78253  1.0000
  H   H441      1.0  0.06880  0.43905  0.74432  1.0000
  H   H442      1.0  0.08918  0.44000  0.78730  1.0000
  N   N15       1.0  0.30325  0.47093  0.82094  1.0000
  H   H443      1.0  0.44201  0.62910  0.96196  1.0000
  H   H444      1.0  0.30966  0.51301  0.82181  1.0000
  H   H445      1.0  0.29131  0.45874  0.58619  1.0000
  H   H446      1.0  0.01799  0.45232  0.74361  1.0000
  H   H447      1.0  0.33745  0.53437  0.75835  1.0000
  H   H448      1.0  0.25229  0.43255  0.55279  1.0000
  C   C256      1.0  0.31435  0.52982  0.75316  1.0000
  C   C257      1.0  0.98706  0.52374  0.75236  1.0000
  C   C258      1.0  0.31607  0.48657  0.88844  1.0000
  H   H449      1.0  0.14373  0.43663  0.98154  1.0000
  H   H450      1.0  0.00023  0.39481  0.96447  1.0000
  H   H451      1.0  0.06574  0.59589  0.67068  1.0000
  C   C259      1.0  0.04702  0.39205  0.96026  1.0000
  H   H452      1.0  0.34114  0.46095  0.85330  1.0000
  C   C260      1.0  0.31068  0.44872  0.79484  1.0000
  H   H453      1.0  0.28072  0.42007  0.82007  1.0000
  H   H454      1.0  0.04799  0.37443  0.97837  1.0000
  C   C261      1.0  0.31578  0.49575  0.80493  1.0000
  H   H455      1.0  0.45594  0.49008  0.78585  1.0000
  H   H456      1.0  0.23515  0.38548  0.54850  1.0000
  N   N16       1.0  0.23678  0.39637  0.60702  1.0000
  C   C262      1.0  0.26485  0.41131  0.60420  1.0000
  C   C263      1.0  0.23598  0.38209  0.64390  1.0000
  C   C264      1.0  0.23666  0.37596  0.57639  1.0000
  C   C265      1.0  0.21049  0.41358  0.60239  1.0000
  C   C266      1.0  0.21304  0.44226  0.61656  1.0000
  C   C267      1.0  0.27145  0.42281  0.56505  1.0000
  H   H457      1.0  0.35743  0.47719  0.91464  1.0000
  C   C268      1.0  0.23723  0.39897  0.67968  1.0000
  C   C269      1.0  0.23931  0.38178  0.71450  1.0000
  C   C270      1.0  0.18351  0.45533  0.61866  1.0000
  H   H458      1.0  0.21773  0.60386  0.74026  1.0000
  H   H459      1.0  0.28333  0.39838  0.61171  1.0000
  H   H460      1.0  0.26604  0.42747  0.62480  1.0000
  H   H461      1.0  0.21581  0.37040  0.64642  1.0000
  H   H462      1.0  0.25401  0.36786  0.64536  1.0000
  H   H463      1.0  0.25744  0.36504  0.57637  1.0000
  C   C271      1.0  0.29625  0.44246  0.56670  1.0000
  H   H464      1.0  0.20408  0.41509  0.57242  1.0000
  H   H465      1.0  0.19154  0.40438  0.61624  1.0000
  H   H466      1.0  0.22656  0.45403  0.59736  1.0000
  H   H467      1.0  0.22307  0.44362  0.64449  1.0000
  H   H468      1.0  0.18621  0.47613  0.62692  1.0000
  H   H469      1.0  0.17235  0.45464  0.59114  1.0000
  H   H470      1.0  0.21643  0.34095  0.60041  1.0000
  H   H471      1.0  0.25625  0.41211  0.67992  1.0000
  H   H472      1.0  0.21717  0.41058  0.68228  1.0000
  H   H473      1.0  0.23901  0.39427  0.73987  1.0000
  H   H474      1.0  0.22071  0.36805  0.71584  1.0000
  H   H475      1.0  0.25970  0.37042  0.71440  1.0000
  H   H476      1.0  0.16988  0.44558  0.64000  1.0000
  C   C272      1.0  0.29906  0.32038  0.55932  1.0000
  C   C273      1.0  0.46494  0.53519  0.82707  1.0000
  C   C274      1.0  0.00251  0.54927  0.74286  1.0000
  H   H477      1.0  0.30007  0.45073  0.53849  1.0000
  H   H478      1.0  0.42054  0.50893  0.55139  1.0000
  C   C275      1.0  0.15965  0.61991  0.74059  1.0000
  C   C276      1.0  0.15097  0.62321  0.58836  1.0000
  H   H479      1.0  0.45921  0.54888  0.80426  1.0000
  H   H480      1.0  0.01530  0.40956  0.92285  1.0000
  H   H481      1.0  0.19446  0.57548  0.74410  1.0000
  H   H482      1.0  0.97980  0.52062  0.83323  1.0000
  H   H483      1.0  0.98799  0.46090  0.83677  1.0000
  H   H484      1.0  0.11721  0.60498  0.69091  1.0000
  C   C277      1.0  0.08018  0.62737  0.70719  1.0000
  C   C278      1.0  0.11029  0.61563  0.71628  1.0000
  H   H485      1.0  0.47650  0.47509  0.72608  1.0000
  H   H486      1.0  0.30169  0.53981  0.52805  1.0000
  H   H487      1.0  0.16396  0.45319  0.92242  1.0000
  H   H488      1.0  0.30083  0.58872  0.52371  1.0000
  H   H489      1.0  0.05623  0.59167  0.71951  1.0000
  H   H490      1.0  0.03716  0.61487  0.69080  1.0000
  C   C279      1.0  0.12869  0.44173  0.95856  1.0000
  H   H491      1.0  0.43698  0.58774  0.92510  1.0000
  H   H492      1.0  0.32104  0.62423  0.54532  1.0000
  H   H493      1.0  0.42294  0.61411  0.00000  1.0000
  H   H494      1.0  0.23127  0.33069  0.53473  1.0000
  C   C280      1.0  0.21019  0.33986  0.54122  1.0000
  N   N17       1.0  0.13329  0.63495  0.72817  1.0000
  H   H495      1.0  0.09338  0.62351  0.78765  1.0000
  H   H496      1.0  0.25888  0.61038  0.52256  1.0000
  C   C281      1.0  0.46437  0.55068  0.86348  1.0000
  H   H497      1.0  0.39425  0.50132  0.51567  1.0000
  C   C282      1.0  0.11209  0.63615  0.79487  1.0000
  H   H498      1.0  0.09432  0.37982  0.99854  1.0000
  H   H499      1.0  0.12213  0.46250  0.96189  1.0000
  H   H500      1.0  0.14480  0.64072  0.67014  1.0000
  H   H501      1.0  0.07115  0.63787  0.73151  1.0000
  H   H502      1.0  0.46645  0.52742  0.75047  1.0000
  H   H503      1.0  0.47678  0.44557  0.65701  1.0000
  H   H504      1.0  0.21413  0.58136  0.70171  1.0000
  H   H505      1.0  0.17466  0.63262  0.75689  1.0000
  C   C283      1.0  0.47412  0.48667  0.64466  1.0000
  H   H506      1.0  0.37763  0.64505  0.62237  1.0000
  C   C284      1.0  0.17404  0.63960  0.57751  1.0000
  H   H507      1.0  0.20656  0.60044  0.51961  1.0000
  H   H508      1.0  0.08138  0.64109  0.68328  1.0000
  C   C285      1.0  0.46122  0.44186  0.75573  1.0000
  H   H509      1.0  0.20375  0.35282  0.51776  1.0000
  H   H510      1.0  0.46488  0.42790  0.73249  1.0000
  H   H511      1.0  0.47769  0.58899  0.96883  1.0000
  H   H512      1.0  0.47888  0.52782  0.63321  1.0000
  H   H513      1.0  0.07717  0.46256  0.00102  1.0000
  H   H514      1.0  0.47886  0.56793  0.86177  1.0000
  C   C286      1.0  0.47897  0.48403  0.78564  1.0000
  H   H515      1.0  0.29160  0.64697  0.54287  1.0000
  H   H516      1.0  0.45275  0.68021  0.07265  1.0000
  C   C287      1.0  0.98055  0.65161  0.16873  1.0000
  C   C288      1.0  0.10593  0.90040  0.05877  1.0000
  S   S64       1.0  0.37313  0.70815  0.15747  1.0000
  H   H517      1.0  0.21400  0.79307  0.29139  1.0000
  S   S65       1.0  0.34988  0.71335  0.24283  1.0000
  H   H518      1.0  0.02029  0.85630  0.19783  1.0000
  Fe  Fe31      1.0  0.32991  0.71064  0.18594  1.0000
  S   S66       1.0  0.29787  0.74397  0.17765  1.0000
  Fe  Fe32      1.0  0.39255  0.70773  0.21495  1.0000
  S   S67       1.0  0.42642  0.73664  0.23524  1.0000
  Fe  Fe33      1.0  0.12026  0.79753  0.25734  1.0000
  S   S68       1.0  0.11473  0.75597  0.23944  1.0000
  S   S69       1.0  0.14373  0.80980  0.31053  1.0000
  Fe  Fe34      1.0  0.09215  0.81856  0.18533  1.0000
  S   S70       1.0  0.08527  0.77804  0.16160  1.0000
  S   S71       1.0  0.08126  0.85899  0.16140  1.0000
  Fe  Fe35      1.0  0.07060  0.76771  0.21960  1.0000
  S   S72       1.0  0.03501  0.73910  0.23494  1.0000
  Fe  Fe36      1.0  0.13023  0.76924  0.18334  1.0000
  S   S73       1.0  0.16118  0.74131  0.15419  1.0000
  S   S74       1.0  0.07473  0.80855  0.24232  1.0000
  S   S75       1.0  0.13841  0.81049  0.20219  1.0000
  Fe  Fe37      1.0  0.21223  0.72650  0.47629  1.0000
  S   S76       1.0  0.23803  0.68935  0.47638  1.0000
  S   S77       1.0  0.17576  0.72494  0.43370  1.0000
  Fe  Fe38      1.0  0.27616  0.71587  0.48209  1.0000
  S   S78       1.0  0.31801  0.70963  0.45078  1.0000
  S   S79       1.0  0.25085  0.75329  0.47791  1.0000
  C   C289      1.0  0.15272  0.78613  0.34460  1.0000
  C   C290      1.0  0.13845  0.76204  0.34591  1.0000
  C   C291      1.0  0.14567  0.74369  0.37362  1.0000
  C   C292      1.0  0.16758  0.74899  0.39984  1.0000
  C   C293      1.0  0.18212  0.77298  0.39837  1.0000
  C   C294      1.0  0.17450  0.79158  0.37102  1.0000
  H   H519      1.0  0.12141  0.75777  0.32605  1.0000
  H   H520      1.0  0.13407  0.72533  0.37491  1.0000
  H   H521      1.0  0.19890  0.77732  0.41859  1.0000
  H   H522      1.0  0.18553  0.81024  0.37024  1.0000
  C   C295      1.0  0.46008  0.73996  0.21320  1.0000
  H   H523      1.0  0.23927  0.70104  0.28201  1.0000
  H   H524      1.0  0.13143  0.85801  0.09434  1.0000
  C   C296      1.0  0.00013  0.74077  0.21544  1.0000
  C   C297      1.0  0.99225  0.76055  0.19051  1.0000
  H   H525      1.0  0.06489  0.93635  0.06108  1.0000
  C   C298      1.0  0.00895  0.83773  0.20455  1.0000
  H   H526      1.0  0.00796  0.77512  0.18243  1.0000
  H   H527      1.0  0.17805  0.67302  0.38797  1.0000
  H   H528      1.0  0.45511  0.70688  0.17651  1.0000
  C   C299      1.0  0.25983  0.74215  0.17184  1.0000
  C   C300      1.0  0.24567  0.71927  0.16041  1.0000
  C   C301      1.0  0.21549  0.71929  0.15474  1.0000
  C   C302      1.0  0.19909  0.74190  0.16156  1.0000
  C   C303      1.0  0.21326  0.76464  0.17317  1.0000
  C   C304      1.0  0.24345  0.76482  0.17772  1.0000
  H   H529      1.0  0.25804  0.70183  0.15483  1.0000
  H   H530      1.0  0.20483  0.70172  0.14494  1.0000
  H   H531      1.0  0.20101  0.78230  0.17782  1.0000
  H   H532      1.0  0.25415  0.78275  0.18564  1.0000
  C   C305      1.0  0.32250  0.66937  0.33638  1.0000
  S   S80       1.0  0.32457  0.66704  0.18886  1.0000
  C   C306      1.0  0.29481  0.68145  0.39159  1.0000
  C   C307      1.0  0.31906  0.69391  0.40687  1.0000
  C   C308      1.0  0.34488  0.69426  0.38663  1.0000
  C   C309      1.0  0.34655  0.68222  0.35141  1.0000
  H   H533      1.0  0.27477  0.68120  0.40684  1.0000
  H   H534      1.0  0.36374  0.70377  0.39836  1.0000
  H   H535      1.0  0.36674  0.68203  0.33643  1.0000
  C   C310      1.0  0.05433  0.86998  0.12969  1.0000
  C   C311      1.0  0.04086  0.85331  0.10389  1.0000
  C   C312      1.0  0.02127  0.86350  0.07734  1.0000
  C   C313      1.0  0.01475  0.89037  0.07651  1.0000
  C   C314      1.0  0.02770  0.90686  0.10287  1.0000
  C   C315      1.0  0.04751  0.89676  0.12908  1.0000
  H   H536      1.0  0.04602  0.83269  0.10391  1.0000
  H   H537      1.0  0.27179  0.66669  0.26160  1.0000
  H   H538      1.0  0.02239  0.92744  0.10312  1.0000
  H   H539      1.0  0.05774  0.90981  0.14897  1.0000
  H   H540      1.0  0.04216  0.72997  0.14941  1.0000
  H   H541      1.0  0.18610  0.73498  0.24201  1.0000
  H   H542      1.0  0.17989  0.69344  0.20571  1.0000
  C   C316      1.0  0.22134  0.69609  0.26236  1.0000
  C   C317      1.0  0.09849  0.95529  0.09235  1.0000
  H   H543      1.0  0.16391  0.73576  0.28227  1.0000
  H   H544      1.0  0.12123  0.66768  0.22281  1.0000
  N   N18       1.0  0.31686  0.77424  0.32407  1.0000
  C   C318      1.0  0.28837  0.76066  0.33082  1.0000
  C   C319      1.0  0.31897  0.78308  0.28384  1.0000
  C   C320      1.0  0.34046  0.75438  0.33103  1.0000
  C   C321      1.0  0.32175  0.79675  0.35066  1.0000
  C   C322      1.0  0.29864  0.81849  0.35062  1.0000
  C   C323      1.0  0.28247  0.75252  0.37182  1.0000
  C   C324      1.0  0.37144  0.76253  0.31908  1.0000
  C   C325      1.0  0.29126  0.79390  0.26484  1.0000
  C   C326      1.0  0.29861  0.80980  0.23000  1.0000
  H   H545      1.0  0.05688  0.96699  0.11496  1.0000
  C   C327      1.0  0.25495  0.73627  0.37473  1.0000
  H   H546      1.0  0.42736  0.81928  0.08450  1.0000
  H   H547      1.0  0.28669  0.74295  0.31270  1.0000
  H   H548      1.0  0.26977  0.77293  0.32253  1.0000
  H   H549      1.0  0.33645  0.79795  0.28106  1.0000
  H   H550      1.0  0.32551  0.76643  0.26561  1.0000
  H   H551      1.0  0.33530  0.73564  0.31649  1.0000
  H   H552      1.0  0.34198  0.74936  0.36119  1.0000
  H   H553      1.0  0.32428  0.78934  0.37977  1.0000
  H   H554      1.0  0.34249  0.80677  0.34453  1.0000
  H   H555      1.0  0.27643  0.81048  0.35176  1.0000
  H   H556      1.0  0.30096  0.83068  0.32517  1.0000
  H   H557      1.0  0.30021  0.74069  0.38334  1.0000
  H   H558      1.0  0.27989  0.76997  0.38993  1.0000
  H   H559      1.0  0.37847  0.78066  0.33347  1.0000
  H   H560      1.0  0.37271  0.76577  0.28848  1.0000
  H   H561      1.0  0.27717  0.77728  0.25616  1.0000
  H   H562      1.0  0.27843  0.80656  0.28332  1.0000
  H   H563      1.0  0.30991  0.79740  0.20926  1.0000
  H   H564      1.0  0.27849  0.81734  0.21702  1.0000
  H   H565      1.0  0.31249  0.82680  0.23736  1.0000
  H   H566      1.0  0.41527  0.74781  0.32059  1.0000
  H   H567      1.0  0.36658  0.80310  0.17982  1.0000
  H   H568      1.0  0.41446  0.77295  0.13915  1.0000
  H   H569      1.0  0.25605  0.71907  0.35589  1.0000
  H   H570      1.0  0.25239  0.72897  0.40369  1.0000
  H   H571      1.0  0.23588  0.74837  0.36776  1.0000
  H   H572      1.0  0.11987  0.96469  0.08877  1.0000
  H   H573      1.0  0.21234  0.66334  0.22383  1.0000
  H   H574      1.0  0.20905  0.71222  0.33516  1.0000
  H   H575      1.0  0.36394  0.77092  0.15969  1.0000
  H   H576      1.0  0.47273  0.68001  0.31535  1.0000
  C   C328      1.0  0.12042  0.85299  0.06760  1.0000
  C   C329      1.0  0.40305  0.86754  0.07430  1.0000
  C   C330      1.0  0.20237  0.67122  0.33600  1.0000
  H   H577      1.0  0.18822  0.65571  0.32429  1.0000
  H   H578      1.0  0.05340  0.70928  0.11151  1.0000
  H   H579      1.0  0.13574  0.67469  0.17727  1.0000
  C   C331      1.0  0.14147  0.66973  0.20660  1.0000
  S   S81       1.0  0.39167  0.66384  0.22149  1.0000
  H   H580      1.0  0.42042  0.87079  0.12951  1.0000
  H   H581      1.0  0.99677  0.66628  0.17803  1.0000
  C   C332      1.0  0.20054  0.66965  0.37855  1.0000
  S   S82       1.0  0.98948  0.90232  0.04321  1.0000
  H   H582      1.0  0.00348  0.78680  0.34222  1.0000
  C   C333      1.0  0.03927  0.71042  0.13639  1.0000
  H   H583      1.0  0.38597  0.88220  0.07980  1.0000
  H   H584      1.0  0.13185  0.83622  0.05479  1.0000
  N   N19       1.0  0.10469  0.92477  0.03505  1.0000
  C   C334      1.0  0.20688  0.75105  0.29110  1.0000
  C   C335      1.0  0.46923  0.72258  0.18559  1.0000
  N   N20       1.0  0.44875  0.82120  0.13864  1.0000
  C   C336      1.0  0.18605  0.73094  0.27259  1.0000
  C   C337      1.0  0.20574  0.77775  0.27207  1.0000
  H   H585      1.0  0.22957  0.74432  0.29068  1.0000
  H   H586      1.0  0.00143  0.72324  0.10709  1.0000
  C   C338      1.0  0.00948  0.76856  0.32739  1.0000
  H   H587      1.0  0.01672  0.66551  0.11782  1.0000
  H   H588      1.0  0.17901  0.97231  0.03519  1.0000
  H   H589      1.0  0.33655  0.90813  0.50216  1.0000
  H   H590      1.0  0.29928  0.82567  0.41071  1.0000
  H   H591      1.0  0.17221  0.70355  0.33411  1.0000
  H   H592      1.0  0.28619  0.85251  0.38291  1.0000
  H   H593      1.0  0.01128  0.85052  0.05720  1.0000
  C   C339      1.0  0.46697  0.79838  0.12643  1.0000
  H   H594      1.0  0.01170  0.68282  0.07583  1.0000
  H   H595      1.0  0.47264  0.78571  0.15062  1.0000
  H   H596      1.0  0.98862  0.74355  0.36704  1.0000
  C   C340      1.0  0.47858  0.76015  0.22489  1.0000
  C   C341      1.0  0.46651  0.84129  0.15950  1.0000
  C   C342      1.0  0.22591  0.66756  0.24872  1.0000
  H   H597      1.0  0.39313  0.84597  0.12390  1.0000
  C   C343      1.0  0.08638  0.94476  0.05471  1.0000
  C   C344      1.0  0.13499  0.93479  0.02937  1.0000
  H   H598      1.0  0.08176  0.96167  0.03602  1.0000
  H   H599      1.0  0.38829  0.72301  0.31332  1.0000
  H   H600      1.0  0.14788  0.69023  0.28064  1.0000
  H   H601      1.0  0.22524  0.70864  0.23741  1.0000
  C   C345      1.0  0.40354  0.79162  0.14605  1.0000
  C   C346      1.0  0.25720  0.66329  0.23742  1.0000
  H   H602      1.0  0.22614  0.86222  0.47451  1.0000
  H   H603      1.0  0.14342  0.88061  0.03403  1.0000
  Fe  Fe39      1.0  0.98722  0.94503  0.02419  1.0000
  C   C347      1.0  0.37897  0.78522  0.17291  1.0000
  C   C348      1.0  0.00765  0.70658  0.12533  1.0000
  S   S83       1.0  0.32525  0.65108  0.29472  1.0000
  H   H604      1.0  0.43493  0.80042  0.18811  1.0000
  H   H605      1.0  0.10923  0.87008  0.01499  1.0000
  H   H606      1.0  0.41323  0.82765  0.17659  1.0000
  H   H607      1.0  0.11778  0.90433  0.08531  1.0000
  H   H608      1.0  0.17193  0.66518  0.26812  1.0000
  H   H609      1.0  0.06079  0.88780  0.01350  1.0000
  C   C349      1.0  0.30246  0.83664  0.38424  1.0000
  H   H610      1.0  0.99651  0.72859  0.32272  1.0000
  H   H611      1.0  0.32431  0.84564  0.38433  1.0000
  Fe  Fe40      1.0  0.36964  0.66423  0.16500  1.0000
  H   H612      1.0  0.27794  0.65912  0.34511  1.0000
  H   H613      1.0  0.45430  0.78544  0.10740  1.0000
  H   H614      1.0  0.98604  0.70594  0.24385  1.0000
  C   C350      1.0  0.42534  0.81111  0.16401  1.0000
  H   H615      1.0  0.03156  0.76287  0.33642  1.0000
  H   H616      1.0  0.39340  0.73724  0.35928  1.0000
  H   H617      1.0  0.39372  0.79954  0.12016  1.0000
  C   C351      1.0  0.29659  0.66911  0.35654  1.0000
  H   H618      1.0  0.99440  0.70752  0.15087  1.0000
  H   H619      1.0  0.09796  0.84680  0.07365  1.0000
  C   C352      1.0  0.16032  0.69148  0.22297  1.0000
  C   C353      1.0  0.16795  0.68638  0.26451  1.0000
  Fe  Fe41      1.0  0.34694  0.66993  0.24470  1.0000
  H   H620      1.0  0.39425  0.85260  0.05475  1.0000
  H   H621      1.0  0.38750  0.77640  0.19905  1.0000
  C   C354      1.0  0.19354  0.69862  0.32183  1.0000
  H   H622      1.0  0.21939  0.77776  0.24687  1.0000
  H   H623      1.0  0.18334  0.78282  0.26380  1.0000
  H   H624      1.0  0.14686  0.93572  0.05647  1.0000
  C   C355      1.0  0.43627  0.83412  0.10423  1.0000
  H   H625      1.0  0.01892  0.82163  0.18836  1.0000
  H   H626      1.0  0.42151  0.87777  0.06094  1.0000
  C   C356      1.0  0.98823  0.74653  0.33637  1.0000
  C   C357      1.0  0.41252  0.85489  0.11104  1.0000
  H   H627      1.0  0.45354  0.84426  0.08831  1.0000
  H   H628      1.0  0.00997  0.77238  0.29685  1.0000
  H   H629      1.0  0.46765  0.82457  0.21627  1.0000
  H   H630      1.0  0.10062  0.93929  0.11307  1.0000
  H   H631      1.0  0.30146  0.65466  0.47449  1.0000
  H   H632      1.0  0.01204  0.83367  0.23477  1.0000
  H   H633      1.0  0.08394  0.89443  0.06758  1.0000
  H   H634      1.0  0.22048  0.65291  0.27026  1.0000
  H   H635      1.0  0.21489  0.68449  0.39176  1.0000
  N   N21       1.0  0.19263  0.70246  0.28001  1.0000
  H   H636      1.0  0.04597  0.69543  0.15712  1.0000
  H   H637      1.0  0.20046  0.75389  0.32059  1.0000
  H   H638      1.0  0.45261  0.85750  0.16933  1.0000
  C   C358      1.0  0.12060  0.87629  0.04085  1.0000
  H   H639      1.0  0.14803  0.70995  0.22054  1.0000
  C   C359      1.0  0.39333  0.74129  0.32881  1.0000
  H   H640      1.0  0.26324  0.67686  0.21455  1.0000
  H   H641      1.0  0.22513  0.66723  0.32856  1.0000
  H   H642      1.0  0.12616  0.97732  0.02533  1.0000
  H   H643      1.0  0.98790  0.85627  0.14133  1.0000
  C   C360      1.0  0.00272  0.68034  0.10443  1.0000
  C   C361      1.0  0.22103  0.85092  0.50013  1.0000
  H   H644      1.0  0.15327  0.65087  0.20668  1.0000
  C   C362      1.0  0.07836  0.97572  0.10909  1.0000
  H   H645      1.0  0.04515  0.91991  0.01029  1.0000
  H   H646      1.0  0.20740  0.64999  0.38819  1.0000
  C   C363      1.0  0.46527  0.66695  0.09115  1.0000
  S   S84       1.0  0.01734  0.97653  0.04395  1.0000
  H   H647      1.0  0.47166  0.77358  0.24636  1.0000
  H   H648      1.0  0.46774  0.67563  0.26585  1.0000
  Fe  Fe42      1.0  0.47044  0.95684  0.02079  1.0000
  H   H649      1.0  0.44998  0.65452  0.10713  1.0000
  C   C364      1.0  0.13767  0.96181  0.00981  1.0000
  H   H650      1.0  0.14742  0.92082  0.01198  1.0000
  H   H651      1.0  0.22552  0.82993  0.49471  1.0000
  S   S85       1.0  0.47457  0.91445  0.04085  1.0000
  H   H652      1.0  0.47775  0.67906  0.11131  1.0000
  C   C365      1.0  0.97986  0.72152  0.22503  1.0000
  C   C366      1.0  0.16922  0.97027  0.00694  1.0000
  H   H653      1.0  0.19772  0.85292  0.50653  1.0000
  Fe  Fe43      1.0  0.35146  0.90369  0.65859  1.0000
  S   S86       1.0  0.35099  0.94418  0.63346  1.0000
  S   S87       1.0  0.34907  0.86904  0.61784  1.0000
  Fe  Fe44      1.0  0.35905  0.92559  0.73738  1.0000
  H   H654      1.0  0.18172  0.95582  0.99052  1.0000
  S   S88       1.0  0.36440  0.91585  0.79895  1.0000
  Fe  Fe45      1.0  0.32172  0.95455  0.68078  1.0000
  C   C367      1.0  0.16452  0.67280  0.70186  1.0000
  Fe  Fe46      1.0  0.38783  0.95392  0.67236  1.0000
  H   H655      1.0  0.00233  0.84777  0.68405  1.0000
  S   S89       1.0  0.31972  0.91363  0.70377  1.0000
  S   S90       1.0  0.39107  0.91266  0.69403  1.0000
  H   H656      1.0  0.05003  0.91865  0.94107  1.0000
  C   C368      1.0  0.28364  0.95308  0.81725  1.0000
  C   C369      1.0  0.13995  0.65255  0.69549  1.0000
  Fe  Fe47      1.0  0.24742  0.75042  0.54068  1.0000
  S   S91       1.0  0.27547  0.71476  0.54492  1.0000
  S   S92       1.0  0.25013  0.78458  0.58240  1.0000
  Fe  Fe48      1.0  0.23477  0.69062  0.53903  1.0000
  H   H657      1.0  0.18414  0.66385  0.71403  1.0000
  S   S93       1.0  0.20628  0.72616  0.53888  1.0000
  H   H658      1.0  0.43832  0.88693  0.85799  1.0000
  H   H659      1.0  0.18986  0.70101  0.67053  1.0000
  H   H660      1.0  0.00617  0.87236  0.78709  1.0000
  H   H661      1.0  0.27913  0.89401  0.64630  1.0000
  H   H662      1.0  0.06486  0.88596  0.94451  1.0000
  C   C370      1.0  0.23953  0.96064  0.69885  1.0000
  H   H663      1.0  0.20080  0.94157  0.71825  1.0000
  H   H664      1.0  0.25320  0.94396  0.70391  1.0000
  H   H665      1.0  0.08449  0.66735  0.81554  1.0000
  H   H666      1.0  0.15428  0.69524  0.65156  1.0000
  C   C371      1.0  0.43496  0.95552  0.76181  1.0000
  C   C372      1.0  0.45860  0.93676  0.77415  1.0000
  H   H667      1.0  0.22902  0.97784  0.60528  1.0000
  C   C373      1.0  0.37677  0.93973  0.83108  1.0000
  C   C374      1.0  0.38019  0.96589  0.82067  1.0000
  H   H668      1.0  0.32361  0.97192  0.86750  1.0000
  C   C375      1.0  0.99741  0.88686  0.70776  1.0000
  C   C376      1.0  0.39457  0.95065  0.89357  1.0000
  C   C377      1.0  0.38380  0.93222  0.86773  1.0000
  C   C378      1.0  0.45169  0.92521  0.81319  1.0000
  H   H669      1.0  0.21788  0.88846  0.61239  1.0000
  H   H670      1.0  0.39963  0.94482  0.92190  1.0000
  H   H671      1.0  0.38094  0.91208  0.87617  1.0000
  C   C379      1.0  0.32258  0.84414  0.61028  1.0000
  C   C380      1.0  0.32431  0.82850  0.57798  1.0000
  C   C381      1.0  0.30279  0.80974  0.56941  1.0000
  C   C382      1.0  0.27917  0.80638  0.59311  1.0000
  C   C383      1.0  0.27773  0.82169  0.62575  1.0000
  C   C384      1.0  0.29934  0.84031  0.63443  1.0000
  H   H672      1.0  0.34224  0.83113  0.55916  1.0000
  H   H673      1.0  0.30428  0.79815  0.54423  1.0000
  H   H674      1.0  0.25970  0.81912  0.64445  1.0000
  H   H675      1.0  0.29802  0.85166  0.65981  1.0000
  H   H676      1.0  0.99506  0.90671  0.69595  1.0000
  H   H677      1.0  0.44338  0.91199  0.95507  1.0000
  H   H678      1.0  0.29296  0.92824  0.52855  1.0000
  C   C385      1.0  0.46076  0.89387  0.86350  1.0000
  H   H679      1.0  0.43998  0.96347  0.73389  1.0000
  H   H680      1.0  0.28573  0.94004  0.75882  1.0000
  H   H681      1.0  0.32646  0.68206  0.52342  1.0000
  H   H682      1.0  0.12065  0.66732  0.83515  1.0000
  H   H683      1.0  0.03796  0.97513  0.87838  1.0000
  H   H684      1.0  0.37472  0.97206  0.79279  1.0000
  H   H685      1.0  0.23360  0.97126  0.81457  1.0000
  H   H686      1.0  0.43679  0.88268  0.77242  1.0000
  C   C386      1.0  0.05055  0.90047  0.95806  1.0000
  H   H687      1.0  0.42982  0.91623  0.81164  1.0000
  H   H688      1.0  0.01719  0.87387  0.65624  1.0000
  H   H689      1.0  0.30697  0.94871  0.82140  1.0000
  H   H690      1.0  0.44784  0.93031  0.89167  1.0000
  H   H691      1.0  0.27251  0.94600  0.84288  1.0000
  H   H692      1.0  0.41397  0.94513  0.75981  1.0000
  C   C387      1.0  0.46113  0.84895  0.75721  1.0000
  C   C388      1.0  0.32774  0.90079  0.52896  1.0000
  H   H693      1.0  0.19797  0.93027  0.57047  1.0000
  H   H694      1.0  0.10595  0.90681  0.98019  1.0000
  C   C389      1.0  0.23360  0.88962  0.54194  1.0000
  H   H695      1.0  0.44922  0.94210  0.83251  1.0000
  C   C390      1.0  0.24177  0.88799  0.60943  1.0000
  H   H696      1.0  0.46137  0.94230  0.66998  1.0000
  C   C391      1.0  0.99613  0.96132  0.66478  1.0000
  H   H697      1.0  0.23683  0.90108  0.51587  1.0000
  C   C392      1.0  0.23947  0.86034  0.53303  1.0000
  S   S94       1.0  0.47783  0.96435  0.95962  1.0000
  C   C393      1.0  0.99892  0.86819  0.67449  1.0000
  H   H698      1.0  0.29539  0.90663  0.59105  1.0000
  H   H699      1.0  0.03583  0.91337  0.84398  1.0000
  H   H700      1.0  0.15717  0.68840  0.72114  1.0000
  C   C394      1.0  0.28276  0.89683  0.56847  1.0000
  C   C395      1.0  0.01770  0.97108  0.86289  1.0000
  C   C396      1.0  0.27358  0.93533  0.78444  1.0000
  H   H701      1.0  0.01322  0.90622  0.78241  1.0000
  H   H702      1.0  0.25024  0.93759  0.77835  1.0000
  H   H703      1.0  0.19068  0.97409  0.59915  1.0000
  H   H704      1.0  0.35561  0.65892  0.52766  1.0000
  H   H705      1.0  0.30200  0.90283  0.79864  1.0000
  C   C397      1.0  0.24203  0.88657  0.68022  1.0000
  H   H706      1.0  0.01825  0.88586  0.72307  1.0000
  H   H707      1.0  0.26179  0.94025  0.59340  1.0000
  C   C398      1.0  0.25584  0.89873  0.64567  1.0000
  C   C399      1.0  0.02373  0.89592  0.85382  1.0000
  C   C400      1.0  0.21203  0.96847  0.58777  1.0000
  H   H708      1.0  0.00610  0.94356  0.65485  1.0000
  H   H709      1.0  0.47917  0.94783  0.77448  1.0000
  H   H710      1.0  0.43321  0.97199  0.78178  1.0000
  H   H711      1.0  0.98268  0.87725  0.84697  1.0000
  H   H712      1.0  0.42151  0.89343  0.92283  1.0000
  H   H713      1.0  0.44139  0.85914  0.80921  1.0000
  H   H714      1.0  0.23420  0.84765  0.55718  1.0000
  H   H715      1.0  0.21370  0.97591  0.55874  1.0000
  H   H716      1.0  0.21110  0.93244  0.61776  1.0000
  H   H717      1.0  0.25372  0.92018  0.64785  1.0000
  H   H718      1.0  0.24724  0.86689  0.60867  1.0000
  H   H719      1.0  0.45575  0.88061  0.93921  1.0000
  H   H720      1.0  0.12070  0.66422  0.68757  1.0000
  C   C401      1.0  0.27872  0.90651  0.79346  1.0000
  H   H721      1.0  0.33149  0.87937  0.53053  1.0000
  C   C402      1.0  0.39846  0.97669  0.88281  1.0000
  C   C403      1.0  0.45252  0.86944  0.78611  1.0000
  H   H722      1.0  0.25315  0.89392  0.70566  1.0000
  C   C404      1.0  0.17317  0.68581  0.66514  1.0000
  C   C405      1.0  0.33372  0.66398  0.53774  1.0000
  S   S95       1.0  0.15502  0.97880  0.71055  1.0000
  C   C406      1.0  0.20994  0.95938  0.70702  1.0000
  S   S96       1.0  0.23257  0.65288  0.57408  1.0000
  H   H723      1.0  0.02112  0.89750  0.88454  1.0000
  H   H724      1.0  0.03635  0.87803  0.84763  1.0000
  H   H725      1.0  0.10607  0.66528  0.75108  1.0000
  H   H726      1.0  0.02835  0.89226  0.95917  1.0000
  C   C407      1.0  0.99401  0.89451  0.83525  1.0000
  S   S97       1.0  0.99586  0.95261  0.96329  1.0000
  N   N22       1.0  0.25091  0.90121  0.57377  1.0000
  C   C408      1.0  0.29551  0.90676  0.53112  1.0000
  C   C409      1.0  0.24549  0.93029  0.57524  1.0000
  S   S98       1.0  0.35820  0.96698  0.71788  1.0000
  H   H727      1.0  0.28493  0.89725  0.50681  1.0000
  H   H728      1.0  0.21013  0.89114  0.54783  1.0000
  C   C410      1.0  0.21510  0.93873  0.58859  1.0000
  H   H729      1.0  0.24854  0.93912  0.54714  1.0000
  H   H730      1.0  0.08899  0.93759  0.98118  1.0000
  C   C411      1.0  0.09141  0.91918  0.99731  1.0000
  H   H731      1.0  0.21889  0.89200  0.68185  1.0000
  H   H732      1.0  0.24401  0.86493  0.67953  1.0000
  H   H733      1.0  0.26625  0.90054  0.81845  1.0000
  H   H734      1.0  0.16985  0.65719  0.56161  1.0000
  H   H735      1.0  0.00789  0.95313  0.87484  1.0000
  C   C412      1.0  0.99659  0.89200  0.79208  1.0000
  H   H736      1.0  0.33961  0.91046  0.55226  1.0000
  H   H737      1.0  0.28795  0.87577  0.57125  1.0000
  H   H738      1.0  0.26234  0.85700  0.52555  1.0000
  H   H739      1.0  0.18240  0.67114  0.64573  1.0000
  H   H740      1.0  0.27173  0.89418  0.76953  1.0000
  C   C413      1.0  0.19208  0.98107  0.70060  1.0000
  C   C414      1.0  0.06101  0.90642  0.99768  1.0000
  C   C415      1.0  0.45936  0.91198  0.89817  1.0000
  H   H741      1.0  0.44157  0.83841  0.74715  1.0000
  H   H742      1.0  0.12874  0.96103  0.98102  1.0000
  H   H743      1.0  0.47289  0.87600  0.87171  1.0000
  H   H744      1.0  0.46001  0.92130  0.75253  1.0000
  H   H745      1.0  0.98277  0.93088  0.74134  1.0000
  H   H746      1.0  0.98337  0.94534  0.80517  1.0000
  C   C416      1.0  0.44404  0.89857  0.93067  1.0000
  N   N23       1.0  0.47327  0.90597  0.82868  1.0000
  C   C417      1.0  0.10240  0.65479  0.82566  1.0000
  C   C418      1.0  0.47339  0.96047  0.66989  1.0000
  H   H747      1.0  0.14109  0.66426  0.77054  1.0000
  H   H748      1.0  0.02286  0.96757  0.83308  1.0000
  H   H749      1.0  0.47154  0.85843  0.73281  1.0000
  H   H750      1.0  0.33495  0.66802  0.56818  1.0000
  H   H751      1.0  0.98177  0.91196  0.84396  1.0000
  H   H752      1.0  0.47617  0.83447  0.76967  1.0000
  C   C419      1.0  0.12320  0.65149  0.76036  1.0000
  H   H753      1.0  0.50122  0.24775  0.10057  1.0000
  C   C420      1.0  0.49513  0.10554  0.04792  1.0000
  C   C421      1.0  0.56471  0.00088  0.09320  1.0000
  Fe  Fe49      1.0  0.86090  0.14855  0.15167  1.0000
  S   S99       1.0  0.85181  0.18738  0.12466  1.0000
  S   S100      1.0  0.87157  0.11602  0.10976  1.0000
  Fe  Fe50      1.0  0.84588  0.17126  0.22943  1.0000
  S   S101      1.0  0.83776  0.21168  0.20735  1.0000
  S   S102      1.0  0.83408  0.15870  0.28837  1.0000
  Fe  Fe51      1.0  0.81315  0.19112  0.16163  1.0000
  S   S103      1.0  0.76670  0.19813  0.14281  1.0000
  Fe  Fe52      1.0  0.87734  0.20432  0.17253  1.0000
  S   S104      1.0  0.91100  0.23435  0.15563  1.0000
  S   S105      1.0  0.81991  0.15085  0.18493  1.0000
  S   S106      1.0  0.88787  0.16540  0.19836  1.0000
  S   S107      1.0  0.97281  0.03235  0.08919  1.0000
  S   S108      1.0  0.62151  0.27445  0.22237  1.0000
  C   C422      1.0  0.71837  0.26538  0.34286  1.0000
  C   C423      1.0  0.48306  0.23476  0.30298  1.0000
  Fe  Fe53      1.0  0.58092  0.28034  0.18844  1.0000
  S   S109      1.0  0.55285  0.24474  0.17774  1.0000
  Fe  Fe54      1.0  0.64241  0.30061  0.18017  1.0000
  S   S110      1.0  0.68992  0.29989  0.16499  1.0000
  C   C424      1.0  0.78758  0.30025  0.34671  1.0000
  H   H754      1.0  0.58020  0.05320  0.45308  1.0000
  Fe  Fe55      1.0  0.69304  0.22996  0.46244  1.0000
  S   S111      1.0  0.72410  0.19669  0.45546  1.0000
  S   S112      1.0  0.65474  0.22757  0.42265  1.0000
  Fe  Fe56      1.0  0.75836  0.22770  0.45870  1.0000
  S   S113      1.0  0.79273  0.23699  0.41551  1.0000
  S   S114      1.0  0.72712  0.26105  0.46294  1.0000
  C   C425      1.0  0.62841  0.29272  0.34177  1.0000
  H   H755      1.0  0.50328  0.11373  0.02125  1.0000
  C   C426      1.0  0.64891  0.27921  0.40171  1.0000
  C   C427      1.0  0.64732  0.25300  0.39078  1.0000
  C   C428      1.0  0.63674  0.24675  0.35503  1.0000
  C   C429      1.0  0.62777  0.26656  0.33035  1.0000
  H   H756      1.0  0.54574  0.31339  0.08271  1.0000
  H   H757      1.0  0.93087  0.14843  0.11953  1.0000
  H   H758      1.0  0.63517  0.22648  0.34661  1.0000
  C   C430      1.0  0.53305  0.31074  0.31365  1.0000
  C   C431      1.0  0.94518  0.23459  0.17728  1.0000
  C   C432      1.0  0.94962  0.22380  0.21267  1.0000
  C   C433      1.0  0.50269  0.26826  0.20176  1.0000
  C   C434      1.0  0.51643  0.24504  0.19176  1.0000
  C   C435      1.0  0.50088  0.22146  0.19271  1.0000
  H   H759      1.0  0.57057  0.29074  0.06132  1.0000
  H   H760      1.0  0.93196  0.21430  0.22697  1.0000
  H   H761      1.0  0.51432  0.28656  0.20089  1.0000
  H   H762      1.0  0.51166  0.20342  0.18589  1.0000
  H   H763      1.0  0.56278  0.01399  0.06856  1.0000
  C   C436      1.0  0.74577  0.22643  0.15123  1.0000
  C   C437      1.0  0.71554  0.22461  0.14867  1.0000
  C   C438      1.0  0.69807  0.24670  0.15444  1.0000
  C   C439      1.0  0.71077  0.27103  0.16167  1.0000
  C   C440      1.0  0.74099  0.27284  0.16441  1.0000
  C   C441      1.0  0.75842  0.25058  0.15969  1.0000
  H   H764      1.0  0.70560  0.20604  0.14181  1.0000
  H   H765      1.0  0.67487  0.24510  0.15193  1.0000
  H   H766      1.0  0.75099  0.29162  0.16975  1.0000
  H   H767      1.0  0.78166  0.25224  0.16152  1.0000
  C   C442      1.0  0.82185  0.18091  0.32274  1.0000
  C   C443      1.0  0.80561  0.17144  0.35292  1.0000
  C   C444      1.0  0.79577  0.18848  0.38099  1.0000
  C   C445      1.0  0.80285  0.21507  0.37964  1.0000
  C   C446      1.0  0.81907  0.22453  0.34946  1.0000
  C   C447      1.0  0.82833  0.20760  0.32096  1.0000
  H   H768      1.0  0.80071  0.15078  0.35467  1.0000
  H   H769      1.0  0.78347  0.18093  0.40421  1.0000
  H   H770      1.0  0.82490  0.24498  0.34839  1.0000
  H   H771      1.0  0.84105  0.21508  0.29807  1.0000
  C   C448      1.0  0.94441  0.05543  0.09455  1.0000
  C   C449      1.0  0.92387  0.05975  0.06649  1.0000
  C   C450      1.0  0.90191  0.07843  0.07168  1.0000
  C   C451      1.0  0.90018  0.09312  0.10485  1.0000
  C   C452      1.0  0.92078  0.08888  0.13290  1.0000
  C   C453      1.0  0.94274  0.07014  0.12775  1.0000
  H   H772      1.0  0.92480  0.04862  0.04084  1.0000
  H   H773      1.0  0.88602  0.08144  0.04988  1.0000
  H   H774      1.0  0.91942  0.09970  0.15873  1.0000
  H   H775      1.0  0.90010  0.16639  0.07048  1.0000
  N   N24       1.0  0.52678  0.26123  0.32862  1.0000
  H   H776      1.0  0.94798  0.14603  0.07423  1.0000
  C   C454      1.0  0.54380  0.26705  0.36392  1.0000
  H   H777      1.0  0.52068  0.24700  0.05713  1.0000
  C   C455      1.0  0.54630  0.25179  0.29784  1.0000
  C   C456      1.0  0.56071  0.22483  0.30360  1.0000
  H   H778      1.0  0.80858  0.29316  0.29315  1.0000
  C   C457      1.0  0.51448  0.23530  0.08193  1.0000
  C   C458      1.0  0.54868  0.24422  0.39183  1.0000
  H   H779      1.0  0.73067  0.31410  0.43761  1.0000
  C   C459      1.0  0.57315  0.21450  0.26711  1.0000
  C   C460      1.0  0.63903  0.29894  0.37750  1.0000
  H   H780      1.0  0.60603  0.98493  0.07977  1.0000
  H   H781      1.0  0.50201  0.16033  0.16310  1.0000
  H   H782      1.0  0.51106  0.22346  0.34806  1.0000
  H   H783      1.0  0.48936  0.12877  0.21190  1.0000
  C   C461      1.0  0.48846  0.15125  0.07440  1.0000
  H   H784      1.0  0.94738  0.14862  0.24697  1.0000
  H   H785      1.0  0.51357  0.10142  0.06694  1.0000
  H   H786      1.0  0.53455  0.25151  0.27064  1.0000
  H   H787      1.0  0.56431  0.26582  0.29330  1.0000
  H   H788      1.0  0.54549  0.20979  0.31377  1.0000
  H   H789      1.0  0.57889  0.22679  0.32370  1.0000
  Fe  Fe57      1.0  0.60816  0.31126  0.25103  1.0000
  H   H790      1.0  0.49587  0.22643  0.27982  1.0000
  H   H791      1.0  0.70487  0.30750  0.30665  1.0000
  H   H792      1.0  0.53259  0.28226  0.38073  1.0000
  H   H793      1.0  0.52792  0.23844  0.40484  1.0000
  H   H794      1.0  0.55792  0.22678  0.37830  1.0000
  C   C462      1.0  0.95644  0.13762  0.22301  1.0000
  H   H795      1.0  0.59010  0.25882  0.41224  1.0000
  H   H796      1.0  0.55558  0.21060  0.24659  1.0000
  H   H797      1.0  0.58847  0.22884  0.25497  1.0000
  H   H798      1.0  0.58472  0.19590  0.27240  1.0000
  C   C463      1.0  0.97252  0.30752  0.08887  1.0000
  Fe  Fe58      1.0  0.97870  0.00344  0.04096  1.0000
  H   H799      1.0  0.96517  0.12798  0.15096  1.0000
  H   H800      1.0  0.93887  0.12563  0.21048  1.0000
  H   H801      1.0  0.57418  0.01225  0.11672  1.0000
  C   C464      1.0  0.51294  0.28639  0.31554  1.0000
  C   C465      1.0  0.48416  0.14648  0.15722  1.0000
  C   C466      1.0  0.96826  0.24672  0.15891  1.0000
  N   N25       1.0  0.72902  0.18783  0.26075  1.0000
  C   C467      1.0  0.69689  0.18819  0.26752  1.0000
  C   C468      1.0  0.74520  0.17661  0.29402  1.0000
  C   C469      1.0  0.73857  0.21592  0.25618  1.0000
  C   C470      1.0  0.73660  0.17334  0.22556  1.0000
  C   C471      1.0  0.72720  0.14438  0.22359  1.0000
  C   C472      1.0  0.67775  0.19875  0.23512  1.0000
  C   C473      1.0  0.77132  0.22041  0.25040  1.0000
  C   C474      1.0  0.73143  0.15345  0.31592  1.0000
  C   C475      1.0  0.71522  0.16214  0.35096  1.0000
  C   C476      1.0  0.73276  0.13310  0.18475  1.0000
  C   C477      1.0  0.64588  0.19809  0.24567  1.0000
  C   C478      1.0  0.77975  0.24879  0.25808  1.0000
  H   H802      1.0  0.69218  0.20027  0.29254  1.0000
  H   H803      1.0  0.68843  0.16848  0.27398  1.0000
  H   H804      1.0  0.76672  0.16943  0.28492  1.0000
  H   H805      1.0  0.75059  0.19213  0.31485  1.0000
  H   H806      1.0  0.73163  0.22756  0.28070  1.0000
  H   H807      1.0  0.72821  0.22514  0.23148  1.0000
  H   H808      1.0  0.72767  0.18361  0.20080  1.0000
  H   H809      1.0  0.76038  0.17347  0.22126  1.0000
  H   H810      1.0  0.70390  0.14199  0.22941  1.0000
  H   H811      1.0  0.73995  0.13269  0.24386  1.0000
  H   H812      1.0  0.68289  0.21938  0.22835  1.0000
  H   H813      1.0  0.68028  0.18674  0.20955  1.0000
  H   H814      1.0  0.77686  0.21582  0.22109  1.0000
  H   H815      1.0  0.78481  0.20797  0.26857  1.0000
  H   H816      1.0  0.71746  0.14066  0.29866  1.0000
  H   H817      1.0  0.74926  0.14060  0.32572  1.0000
  H   H818      1.0  0.69580  0.17371  0.34395  1.0000
  H   H819      1.0  0.70814  0.14464  0.36686  1.0000
  H   H820      1.0  0.72954  0.17392  0.36950  1.0000
  H   H821      1.0  0.72634  0.11217  0.18399  1.0000
  H   H822      1.0  0.72010  0.14383  0.16325  1.0000
  H   H823      1.0  0.75602  0.13456  0.17772  1.0000
  H   H824      1.0  0.64201  0.21053  0.27060  1.0000
  H   H825      1.0  0.63272  0.20580  0.22211  1.0000
  H   H826      1.0  0.63877  0.17775  0.25158  1.0000
  H   H827      1.0  0.77733  0.25314  0.28825  1.0000
  H   H828      1.0  0.80267  0.25195  0.25049  1.0000
  H   H829      1.0  0.76618  0.26237  0.24138  1.0000
  H   H830      1.0  0.79374  0.31035  0.37287  1.0000
  H   H831      1.0  0.93714  0.29486  0.15143  1.0000
  H   H832      1.0  0.54289  0.99414  0.10163  1.0000
  H   H833      1.0  0.91214  0.19243  0.10073  1.0000
  H   H834      1.0  0.51161  0.19959  0.05082  1.0000
  S   S115      1.0  0.60306  0.30338  0.14296  1.0000
  C   C479      1.0  0.56901  0.25244  0.42351  1.0000
  H   H835      1.0  0.78417  0.27913  0.35239  1.0000
  H   H836      1.0  0.56527  0.27558  0.35679  1.0000
  H   H837      1.0  0.71006  0.23827  0.38869  1.0000
  H   H838      1.0  0.53446  0.22956  0.09709  1.0000
  H   H839      1.0  0.96498  0.25442  0.13113  1.0000
  H   H840      1.0  0.95842  0.06690  0.14973  1.0000
  H   H841      1.0  0.92823  0.18832  0.05530  1.0000
  H   H842      1.0  0.62029  0.99026  0.02212  1.0000
  H   H843      1.0  0.65648  0.28415  0.42949  1.0000
  H   H844      1.0  0.57285  0.23565  0.44254  1.0000
  C   C480      1.0  0.50271  0.24208  0.33664  1.0000
  H   H845      1.0  0.49435  0.15940  0.04669  1.0000
  S   S116      1.0  0.50043  0.98869  0.03926  1.0000
  H   H846      1.0  0.74527  0.27995  0.38777  1.0000
  H   H847      1.0  0.61950  0.26150  0.30304  1.0000
  H   H848      1.0  0.69567  0.26815  0.33355  1.0000
  H   H849      1.0  0.95227  0.29592  0.08958  1.0000
  H   H850      1.0  0.53662  0.29804  0.03892  1.0000
  H   H851      1.0  0.54158  0.04969  0.45910  1.0000
  C   C481      1.0  0.76020  0.31260  0.32934  1.0000
  C   C482      1.0  0.81330  0.30267  0.32037  1.0000
  C   C483      1.0  0.94158  0.15951  0.09684  1.0000
  C   C484      1.0  0.91923  0.17788  0.07980  1.0000
  H   H852      1.0  0.70861  0.28920  0.39049  1.0000
  H   H853      1.0  0.49333  0.12898  0.14345  1.0000
  C   C485      1.0  0.72050  0.23841  0.36095  1.0000
  H   H854      1.0  0.91127  0.04819  0.47184  1.0000
  H   H855      1.0  0.50865  0.18906  0.11851  1.0000
  C   C486      1.0  0.49751  0.21105  0.06957  1.0000
  H   H856      1.0  0.50938  0.14785  0.08901  1.0000
  H   H857      1.0  0.97369  0.12451  0.23362  1.0000
  C   C487      1.0  0.72695  0.28730  0.37072  1.0000
  H   H858      1.0  0.74341  0.23267  0.36432  1.0000
  H   H859      1.0  0.55249  0.30671  0.29700  1.0000
  H   H860      1.0  0.97171  0.11248  0.09197  1.0000
  H   H861      1.0  0.73232  0.26551  0.31796  1.0000
  H   H862      1.0  0.70944  0.22366  0.34334  1.0000
  H   H863      1.0  0.95074  0.16981  0.18536  1.0000
  H   H864      1.0  0.50343  0.28388  0.28710  1.0000
  H   H865      1.0  0.55958  0.26873  0.43987  1.0000
  H   H866      1.0  0.48860  0.25004  0.35902  1.0000
  H   H867      1.0  0.92431  0.31006  0.21208  1.0000
  H   H868      1.0  0.75539  0.30198  0.30288  1.0000
  C   C488      1.0  0.56083  0.06166  0.46656  1.0000
  H   H869      1.0  0.55766  0.08174  0.45547  1.0000
  H   H870      1.0  0.97611  0.18661  0.08774  1.0000
  H   H871      1.0  0.87139  0.30970  0.20781  1.0000
  C   C489      1.0  0.97680  0.22600  0.23006  1.0000
  H   H872      1.0  0.48395  0.08674  0.04179  1.0000
  H   H873      1.0  0.97639  0.31408  0.20327  1.0000
  C   C490      1.0  0.90968  0.02712  0.47912  1.0000
  N   N26       1.0  0.73386  0.31363  0.35392  1.0000
  H   H874      1.0  0.88637  0.28629  0.17589  1.0000
  H   H875      1.0  0.91907  0.01554  0.45594  1.0000
  H   H876      1.0  0.96005  0.18980  0.13195  1.0000
  C   C491      1.0  0.48834  0.19454  0.10386  1.0000
  H   H877      1.0  0.83238  0.29297  0.33306  1.0000
  H   H878      1.0  0.93805  0.98250  0.50413  1.0000
  C   C492      1.0  0.55461  0.30644  0.05573  1.0000
  H   H879      1.0  0.49463  0.29173  0.33407  1.0000
  C   C493      1.0  0.96853  0.15685  0.19438  1.0000
  C   C494      1.0  0.96796  0.17498  0.11173  1.0000
  C   C495      1.0  0.88433  0.30750  0.18201  1.0000
  H   H880      1.0  0.88649  0.02199  0.48206  1.0000
  H   H881      1.0  0.76711  0.31129  0.42171  1.0000
  Fe  Fe59      1.0  0.58790  0.01466  0.69552  1.0000
  S   S117      1.0  0.57877  0.05708  0.70436  1.0000
  S   S118      1.0  0.69229  0.22723  0.52521  1.0000
  Fe  Fe60      1.0  0.64910  0.01995  0.72692  1.0000
  S   S119      1.0  0.64451  0.06307  0.73910  1.0000
  H   H882      1.0  0.86368  0.00202  0.90994  1.0000
  Fe  Fe61      1.0  0.60039  0.05202  0.76028  1.0000
  S   S120      1.0  0.57808  0.06902  0.81107  1.0000
  Fe  Fe62      1.0  0.62357  0.06492  0.68202  1.0000
  S   S121      1.0  0.62504  0.09888  0.64000  1.0000
  S   S122      1.0  0.60660  0.00914  0.75264  1.0000
  S   S123      1.0  0.63101  0.02223  0.66870  1.0000
  C   C496      1.0  0.91090  0.98469  0.59206  1.0000
  Fe  Fe63      1.0  0.50585  0.99763  0.97826  1.0000
  H   H883      1.0  0.82684  0.99415  0.92097  1.0000
  H   H884      1.0  0.67628  0.05167  0.54716  1.0000
  H   H885      1.0  0.52771  0.06330  0.76950  1.0000
  S   S124      1.0  0.93055  0.99032  0.91582  1.0000
  C   C497      1.0  0.60400  0.04843  0.57492  1.0000
  S   S125      1.0  0.72690  0.15843  0.55397  1.0000
  H   H886      1.0  0.54529  0.07208  0.52047  1.0000
  C   C498      1.0  0.55685  0.01682  0.91181  1.0000
  C   C499      1.0  0.54334  0.04100  0.90712  1.0000
  C   C500      1.0  0.55046  0.05703  0.87655  1.0000
  C   C501      1.0  0.57058  0.04874  0.84989  1.0000
  C   C502      1.0  0.58384  0.02440  0.85439  1.0000
  C   C503      1.0  0.57724  0.00866  0.88546  1.0000
  H   H887      1.0  0.52808  0.04768  0.92773  1.0000
  H   H888      1.0  0.54036  0.07595  0.87355  1.0000
  H   H889      1.0  0.59960  0.01791  0.83434  1.0000
  C   C504      1.0  0.85843  0.02132  0.75093  1.0000
  C   C505      1.0  0.69837  0.14291  0.57890  1.0000
  C   C506      1.0  0.66954  0.15035  0.57457  1.0000
  C   C507      1.0  0.64755  0.13689  0.59392  1.0000
  C   C508      1.0  0.65402  0.11595  0.61807  1.0000
  C   C509      1.0  0.68292  0.10885  0.62299  1.0000
  C   C510      1.0  0.70490  0.12218  0.60341  1.0000
  H   H890      1.0  0.66411  0.16620  0.55583  1.0000
  H   H891      1.0  0.62532  0.14261  0.58983  1.0000
  H   H892      1.0  0.68832  0.09277  0.64134  1.0000
  H   H893      1.0  0.72709  0.11618  0.60693  1.0000
  C   C511      1.0  0.75682  0.00801  0.68426  1.0000
  C   C512      1.0  0.72889  0.01004  0.69928  1.0000
  Fe  Fe64      1.0  0.73015  0.25536  0.52502  1.0000
  H   H894      1.0  0.76574  0.02413  0.66847  1.0000
  H   H895      1.0  0.71646  0.02769  0.69527  1.0000
  H   H896      1.0  0.94875  0.02316  0.85393  1.0000
  H   H897      1.0  0.89648  0.07265  0.81658  1.0000
  H   H898      1.0  0.90572  0.99449  0.84310  1.0000
  C   C513      1.0  0.77100  0.01344  0.79687  1.0000
  H   H899      1.0  0.93479  0.06853  0.86471  1.0000
  H   H900      1.0  0.74579  0.01357  0.84916  1.0000
  C   C514      1.0  0.55240  0.04242  0.59101  1.0000
  H   H901      1.0  0.52924  0.09742  0.69883  1.0000
  S   S126      1.0  0.55006  0.99711  0.95137  1.0000
  C   C515      1.0  0.52531  0.10647  0.72648  1.0000
  N   N27       1.0  0.73834  0.20753  0.66092  1.0000
  C   C516      1.0  0.74688  0.19701  0.69883  1.0000
  C   C517      1.0  0.74504  0.23653  0.65809  1.0000
  C   C518      1.0  0.70608  0.20394  0.65701  1.0000
  C   C519      1.0  0.75255  0.19278  0.62963  1.0000
  C   C520      1.0  0.78588  0.19205  0.63010  1.0000
  C   C521      1.0  0.74075  0.16752  0.70580  1.0000
  C   C522      1.0  0.69223  0.21502  0.62085  1.0000
  C   C523      1.0  0.77147  0.24696  0.68055  1.0000
  H   H902      1.0  0.77864  0.03410  0.79692  1.0000
  C   C524      1.0  0.79718  0.17389  0.59962  1.0000
  C   C525      1.0  0.75256  0.15891  0.74379  1.0000
  C   C526      1.0  0.65932  0.21376  0.62261  1.0000
  H   H903      1.0  0.73565  0.20827  0.72106  1.0000
  H   H904      1.0  0.77020  0.19994  0.70440  1.0000
  H   H905      1.0  0.74779  0.24240  0.62828  1.0000
  H   H906      1.0  0.72650  0.24841  0.66814  1.0000
  H   H907      1.0  0.69491  0.21287  0.68136  1.0000
  H   H908      1.0  0.70016  0.18283  0.65698  1.0000
  H   H909      1.0  0.74428  0.17236  0.62831  1.0000
  H   H910      1.0  0.74655  0.20150  0.60221  1.0000
  H   H911      1.0  0.79446  0.18481  0.65709  1.0000
  H   H912      1.0  0.79464  0.21185  0.62437  1.0000
  H   H913      1.0  0.71725  0.16338  0.70590  1.0000
  H   H914      1.0  0.75106  0.15514  0.68427  1.0000
  H   H915      1.0  0.69894  0.20305  0.59665  1.0000
  H   H916      1.0  0.69849  0.23565  0.61566  1.0000
  H   H917      1.0  0.76642  0.24707  0.71085  1.0000
  H   H918      1.0  0.79092  0.23486  0.67641  1.0000
  H   H919      1.0  0.70172  0.03424  0.82145  1.0000
  H   H920      1.0  0.48078  0.09513  0.72882  1.0000
  H   H921      1.0  0.96402  0.07164  0.95552  1.0000
  H   H922      1.0  0.78988  0.18060  0.57162  1.0000
  H   H923      1.0  0.82113  0.17386  0.60010  1.0000
  H   H924      1.0  0.78936  0.15357  0.60408  1.0000
  H   H925      1.0  0.66642  0.99462  0.98956  1.0000
  H   H926      1.0  0.74754  0.13789  0.74827  1.0000
  H   H927      1.0  0.77635  0.16151  0.74502  1.0000
  H   H928      1.0  0.65120  0.22639  0.64545  1.0000
  H   H929      1.0  0.65002  0.22076  0.59578  1.0000
  H   H930      1.0  0.65191  0.19333  0.62721  1.0000
  H   H931      1.0  0.55353  0.03234  0.61864  1.0000
  C   C527      1.0  0.95910  0.00287  0.57938  1.0000
  H   H932      1.0  0.58393  0.07540  0.51449  1.0000
  H   H933      1.0  0.78712  0.27522  0.64017  1.0000
  H   H934      1.0  0.54753  0.02503  0.52033  1.0000
  H   H935      1.0  0.85699  0.99410  0.62232  1.0000
  H   H936      1.0  0.71966  0.03698  0.77721  1.0000
  H   H937      1.0  0.53118  0.03664  0.57873  1.0000
  C   C528      1.0  0.71763  0.98957  0.72069  1.0000
  C   C529      1.0  0.97056  0.00779  0.68791  1.0000
  H   H938      1.0  0.50472  0.07617  0.59717  1.0000
  H   H939      1.0  0.66182  0.05747  0.59297  1.0000
  C   C530      1.0  0.52937  0.98482  0.79523  1.0000
  C   C531      1.0  0.74211  0.01297  0.81853  1.0000
  H   H940      1.0  0.52004  0.12742  0.72218  1.0000
  H   H941      1.0  0.87509  0.01170  0.76855  1.0000
  H   H942      1.0  0.97121  0.08901  0.89053  1.0000
  H   H943      1.0  0.96050  0.02592  0.69620  1.0000
  S   S127      1.0  0.55758  0.98236  0.67607  1.0000
  C   C532      1.0  0.56848  0.03505  0.52548  1.0000
  H   H944      1.0  0.90269  0.98518  0.52150  1.0000
  N   N28       1.0  0.48431  0.04765  0.77289  1.0000
  H   H945      1.0  0.89900  0.03992  0.83454  1.0000
  H   H946      1.0  0.91347  0.04771  0.78888  1.0000
  C   C533      1.0  0.50731  0.06342  0.75322  1.0000
  H   H947      1.0  0.86608  0.04126  0.74365  1.0000
  C   C534      1.0  0.56489  0.06281  0.50894  1.0000
  H   H948      1.0  0.60894  0.04703  0.60524  1.0000
  C   C535      1.0  0.52241  0.07959  0.61766  1.0000
  H   H949      1.0  0.59868  0.99655  0.55577  1.0000
  H   H950      1.0  0.52276  0.10068  0.62511  1.0000
  H   H951      1.0  0.88562  0.01922  0.57683  1.0000
  C   C536      1.0  0.48112  0.05863  0.81178  1.0000
  C   C537      1.0  0.81843  0.99566  0.78298  1.0000
  H   H952      1.0  0.55543  0.08479  0.57675  1.0000
  C   C538      1.0  0.63142  0.04008  0.55340  1.0000
  H   H953      1.0  0.49592  0.01208  0.74433  1.0000
  H   H954      1.0  0.85552  0.01010  0.72461  1.0000
  H   H955      1.0  0.52292  0.02148  0.82233  1.0000
  H   H956      1.0  0.79417  0.28360  0.55048  1.0000
  C   C539      1.0  0.77913  0.27492  0.66930  1.0000
  H   H957      1.0  0.63806  0.02001  0.56132  1.0000
  N   N29       1.0  0.57674  0.03328  0.56623  1.0000
  H   H958      1.0  0.88387  0.00025  0.65810  1.0000
  H   H959      1.0  0.51245  0.05435  0.72575  1.0000
  C   C540      1.0  0.92593  0.02197  0.51564  1.0000
  H   H960      1.0  0.58803  0.99011  0.88909  1.0000
  C   C541      1.0  0.65685  0.05810  0.56258  1.0000
  C   C542      1.0  0.55146  0.07198  0.60099  1.0000
  H   H961      1.0  0.51813  0.06816  0.64337  1.0000
  C   C543      1.0  0.82981  0.02310  0.77169  1.0000
  H   H962      1.0  0.60126  0.06968  0.57003  1.0000
  C   C544      1.0  0.93933  0.06201  0.83583  1.0000
  H   H963      1.0  0.95225  0.02360  0.57927  1.0000
  H   H964      1.0  0.48406  0.05532  0.88981  1.0000
  H   H965      1.0  0.54537  0.10532  0.74360  1.0000
  S   S128      1.0  0.80931  0.98431  0.67407  1.0000
  C   C545      1.0  0.77341  0.98544  0.69020  1.0000
  H   H966      1.0  0.51709  0.02546  0.66863  1.0000
  H   H967      1.0  0.56838  0.07642  0.62216  1.0000
  H   H968      1.0  0.49717  0.10321  0.77311  1.0000
  C   C546      1.0  0.84083  0.00605  0.90243  1.0000
  H   H969      1.0  0.54138  0.02316  0.77800  1.0000
  H   H970      1.0  0.81409  0.03268  0.75256  1.0000
  H   H971      1.0  0.83286  0.03584  0.79648  1.0000
  C   C547      1.0  0.49403  0.01950  0.77342  1.0000
  H   H972      1.0  0.91640  0.03451  0.53741  1.0000
  H   H973      1.0  0.86383  0.02695  0.63809  1.0000
  C   C548      1.0  0.52319  0.01405  0.79329  1.0000
  C   C549      1.0  0.80396  0.00494  0.84949  1.0000
  C   C550      1.0  0.58244  0.00483  0.57516  1.0000
  H   H974      1.0  0.83706  0.98400  0.79270  1.0000
  H   H975      1.0  0.76010  0.28795  0.67154  1.0000
  C   C551      1.0  0.89691  0.01125  0.60166  1.0000
  C   C552      1.0  0.87409  0.00786  0.63192  1.0000
  H   H976      1.0  0.93058  0.98588  0.68791  1.0000
  H   H977      1.0  0.81121  0.98575  0.75681  1.0000
  H   H978      1.0  0.83725  0.30766  0.57428  1.0000
  C   C553      1.0  0.91034  0.05501  0.81780  1.0000
  H   H979      1.0  0.62778  0.04088  0.52279  1.0000
  C   C554      1.0  0.50500  0.00741  0.66904  1.0000
  H   H980      1.0  0.94853  0.02858  0.51168  1.0000
  C   C555      1.0  0.92513  0.99248  0.52603  1.0000
  H   H981      1.0  0.96352  0.99848  0.60926  1.0000
  H   H982      1.0  0.65198  0.07857  0.55436  1.0000
  C   C556      1.0  0.50040  0.09275  0.74635  1.0000
  H   H983      1.0  0.83661  0.02714  0.90730  1.0000
  H   H984      1.0  0.78941  0.99689  0.87135  1.0000
  H   H985      1.0  0.94857  0.07842  0.81958  1.0000
  S   S129      1.0  0.73242  0.28902  0.56720  1.0000
  H   H986      1.0  0.96024  0.02952  0.80809  1.0000
  H   H987      1.0  0.74249  0.17036  0.76660  1.0000
  C   C557      1.0  0.79153  0.29980  0.56957  1.0000
  C   C558      1.0  0.72313  0.03624  0.80793  1.0000
  N   N30       1.0  0.93560  0.98503  0.56469  1.0000
  H   H988      1.0  0.97093  0.03875  0.90610  1.0000
  H   H989      1.0  0.80172  0.02657  0.85177  1.0000
  N   N31       1.0  0.79442  0.99549  0.81129  1.0000
  C   C559      1.0  0.95972  0.03814  0.83656  1.0000
  Fe  Fe65      1.0  0.72557  0.19582  0.51850  1.0000
  S   S130      1.0  0.76353  0.22390  0.52126  1.0000
  H   H990      1.0  0.91293  0.02561  0.61229  1.0000
  S   S131      1.0  0.68476  0.99245  0.74475  1.0000
  H   H991      1.0  0.73320  0.05486  0.81733  1.0000
  H   H992      1.0  0.79652  0.28265  0.68774  1.0000
  C   C560      1.0  0.83548  0.99893  0.86152  1.0000
  C   C561      1.0  0.95356  0.98515  0.68312  1.0000
  C   C562      1.0  0.76386  0.30674  0.58137  1.0000
  H   H993      1.0  0.50266  0.06101  0.82530  1.0000
  H   H994      1.0  0.72981  0.99491  0.81152  1.0000
  H   H995      1.0  0.76581  0.00884  0.76717  1.0000
  H   H996      1.0  0.85093  0.01044  0.84459  1.0000
  H   H997      1.0  0.58431  0.02428  0.50806  1.0000
  H   H998      1.0  0.95093  0.98401  0.79959  1.0000
  H   H999      1.0  0.97552  0.98721  0.85654  1.0000
  H   H1000     1.0  0.53960  0.99149  0.59446  1.0000
  C   C563      1.0  0.51953  0.98374  0.67354  1.0000
  H   H1001     1.0  0.59189  0.00298  0.60379  1.0000
  C   C564      1.0  0.55592  0.98615  0.57327  1.0000
  H   H1002     1.0  0.54543  0.98657  0.54541  1.0000
  H   H1003     1.0  0.55093  0.98168  0.80816  1.0000
  H   H1004     1.0  0.63800  0.98567  0.95744  1.0000
  C   C565      1.0  0.81597  0.31348  0.58319  1.0000
  H   H1005     1.0  0.94706  0.38121  0.18212  1.0000
  H   H1006     1.0  0.96891  0.32499  0.07113  1.0000
  S   S132      1.0  0.93709  0.46995  0.02688  1.0000
  H   H1007     1.0  0.54746  0.41668  0.21851  1.0000
  S   S133      1.0  0.57929  0.37963  0.15519  1.0000
  C   C566      1.0  0.55393  0.39059  0.12123  1.0000
  C   C567      1.0  0.55609  0.41642  0.10798  1.0000
  C   C568      1.0  0.53690  0.42595  0.08051  1.0000
  C   C569      1.0  0.51513  0.40979  0.06612  1.0000
  C   C570      1.0  0.51287  0.38399  0.07951  1.0000
  C   C571      1.0  0.53213  0.37442  0.10692  1.0000
  H   H1008     1.0  0.57295  0.42907  0.11873  1.0000
  H   H1009     1.0  0.53926  0.44566  0.07001  1.0000
  H   H1010     1.0  0.55425  0.52870  0.13449  1.0000
  H   H1011     1.0  0.53003  0.35458  0.11702  1.0000
  S   S134      1.0  0.51229  0.49607  0.02665  1.0000
  C   C572      1.0  0.77566  0.64563  0.27003  1.0000
  H   H1012     1.0  0.89698  0.36718  0.50571  1.0000
  H   H1013     1.0  0.61335  0.38583  0.08997  1.0000
  H   H1014     1.0  0.96296  0.41208  0.13291  1.0000
  H   H1015     1.0  0.92657  0.41856  0.14751  1.0000
  H   H1016     1.0  0.49852  0.63822  0.08858  1.0000
  H   H1017     1.0  0.55481  0.49650  0.11391  1.0000
  C   C573      1.0  0.93784  0.55911  0.08834  1.0000
  C   C574      1.0  0.92274  0.56884  0.05750  1.0000
  C   C575      1.0  0.90422  0.59045  0.06155  1.0000
  C   C576      1.0  0.90049  0.60256  0.09649  1.0000
  C   C577      1.0  0.91571  0.59293  0.12736  1.0000
  C   C578      1.0  0.93434  0.57136  0.12323  1.0000
  H   H1018     1.0  0.92585  0.55998  0.03042  1.0000
  H   H1019     1.0  0.89273  0.59786  0.03743  1.0000
  H   H1020     1.0  0.91298  0.60196  0.15441  1.0000
  H   H1021     1.0  0.89321  0.52295  0.12109  1.0000
  H   H1022     1.0  0.78558  0.52829  0.04433  1.0000
  H   H1023     1.0  0.94594  0.44735  0.45141  1.0000
  H   H1024     1.0  0.96720  0.41781  0.45571  1.0000
  H   H1025     1.0  0.53088  0.52143  0.09566  1.0000
  H   H1026     1.0  0.90798  0.42532  0.48960  1.0000
  C   C579      1.0  0.87224  0.52687  0.10703  1.0000
  C   C580      1.0  0.77694  0.61892  0.25103  1.0000
  C   C581      1.0  0.97417  0.33387  0.19039  1.0000
  H   H1027     1.0  0.72871  0.64300  0.27101  1.0000
  H   H1028     1.0  0.57662  0.32112  0.00759  1.0000
  C   C582      1.0  0.59334  0.34171  0.05771  1.0000
  H   H1029     1.0  0.54030  0.31689  0.34194  1.0000
  H   H1030     1.0  0.53390  0.44820  0.16978  1.0000
  H   H1031     1.0  0.93291  0.40227  0.10365  1.0000
  H   H1032     1.0  0.71547  0.36453  0.33183  1.0000
  H   H1033     1.0  0.72799  0.34893  0.28985  1.0000
  H   H1034     1.0  0.64051  0.39350  0.05769  1.0000
  C   C583      1.0  0.56857  0.32903  0.03437  1.0000
  C   C584      1.0  0.51753  0.33400  0.29595  1.0000
  C   C585      1.0  0.70844  0.32160  0.32994  1.0000
  H   H1035     1.0  0.77565  0.35836  0.43632  1.0000
  C   C586      1.0  0.66548  0.37501  0.12100  1.0000
  H   H1036     1.0  0.95951  0.34473  0.20909  1.0000
  H   H1037     1.0  0.68081  0.36199  0.13601  1.0000
  H   H1038     1.0  0.64977  0.38264  0.14162  1.0000
  H   H1039     1.0  0.78191  0.64293  0.29967  1.0000
  H   H1040     1.0  0.58363  0.34881  0.08418  1.0000
  H   H1041     1.0  0.79747  0.48242  0.02335  1.0000
  H   H1042     1.0  0.52801  0.49889  0.17476  1.0000
  H   H1043     1.0  0.83725  0.53737  0.04937  1.0000
  H   H1044     1.0  0.48754  0.49054  0.10703  1.0000
  H   H1045     1.0  0.76352  0.34013  0.47638  1.0000
  S   S135      1.0  0.87680  0.62969  0.09962  1.0000
  C   C587      1.0  0.96238  0.43706  0.46859  1.0000
  C   C588      1.0  0.54073  0.51322  0.12136  1.0000
  H   H1046     1.0  0.94598  0.56399  0.14727  1.0000
  C   C589      1.0  0.75707  0.34759  0.44839  1.0000
  C   C590      1.0  0.73772  0.33407  0.38439  1.0000
  H   H1047     1.0  0.63899  0.34293  0.10464  1.0000
  C   C591      1.0  0.71072  0.34889  0.31120  1.0000
  H   H1048     1.0  0.60793  0.32543  0.06584  1.0000
  C   C592      1.0  0.87007  0.51076  0.07116  1.0000
  C   C593      1.0  0.51646  0.43933  0.18669  1.0000
  C   C594      1.0  0.93940  0.37790  0.15313  1.0000
  H   H1049     1.0  0.50883  0.42125  0.17262  1.0000
  C   C595      1.0  0.74844  0.32463  0.42334  1.0000
  H   H1050     1.0  0.48006  0.43254  0.12838  1.0000
  H   H1051     1.0  0.91096  0.34071  0.19498  1.0000
  C   C596      1.0  0.58896  0.38246  0.02193  1.0000
  C   C597      1.0  0.96465  0.64238  0.20359  1.0000
  H   H1052     1.0  0.94792  0.62762  0.19622  1.0000
  C   C598      1.0  0.51717  0.50468  0.14842  1.0000
  N   N32       1.0  0.48653  0.61784  0.01193  1.0000
  H   H1053     1.0  0.76184  0.60499  0.26457  1.0000
  H   H1054     1.0  0.51350  0.42129  0.24177  1.0000
  C   C599      1.0  0.52988  0.43092  0.22385  1.0000
  H   H1055     1.0  0.87558  0.48045  0.01014  1.0000
  H   H1056     1.0  0.79917  0.61103  0.25350  1.0000
  H   H1057     1.0  0.52424  0.61590  0.04805  1.0000
  H   H1058     1.0  0.49964  0.58940  0.05315  1.0000
  S   S136      1.0  0.63127  0.33737  0.21092  1.0000
  H   H1059     1.0  0.92960  0.39747  0.49716  1.0000
  H   H1060     1.0  0.59883  0.42103  0.04565  1.0000
  Fe  Fe66      1.0  0.96689  0.50447  0.03467  1.0000
  H   H1061     1.0  0.67778  0.39155  0.10876  1.0000
  H   H1062     1.0  0.56331  0.55644  0.01328  1.0000
  H   H1063     1.0  0.87898  0.54612  0.01112  1.0000
  H   H1064     1.0  0.82775  0.64054  0.36198  1.0000
  C   C600      1.0  0.59868  0.41143  0.01778  1.0000
  H   H1065     1.0  0.85460  0.52162  0.12651  1.0000
  Fe  Fe67      1.0  0.97756  0.44587  0.02051  1.0000
  N   N33       1.0  0.96155  0.33126  0.15155  1.0000
  C   C601      1.0  0.95789  0.35740  0.13262  1.0000
  H   H1066     1.0  0.73865  0.36117  0.45202  1.0000
  C   C602      1.0  0.50974  0.60260  0.03207  1.0000
  H   H1067     1.0  0.91651  0.37156  0.15332  1.0000
  C   C603      1.0  0.49146  0.45904  0.19276  1.0000
  H   H1068     1.0  0.49850  0.33959  0.31283  1.0000
  H   H1069     1.0  0.91997  0.32085  0.12742  1.0000
  H   H1070     1.0  0.84457  0.36971  0.49469  1.0000
  H   H1071     1.0  0.96731  0.60172  0.03887  1.0000
  H   H1072     1.0  0.64217  0.33518  0.02201  1.0000
  H   H1073     1.0  0.84691  0.46618  0.03599  1.0000
  Fe  Fe68      1.0  0.59035  0.33862  0.17692  1.0000
  C   C604      1.0  0.62798  0.37687  0.06905  1.0000
  H   H1074     1.0  0.53251  0.35097  0.29459  1.0000
  H   H1075     1.0  0.87108  0.54810  0.10069  1.0000
  H   H1076     1.0  0.51037  0.32920  0.26706  1.0000
  H   H1077     1.0  0.63930  0.31910  0.38668  1.0000
  S   S137      1.0  0.49070  0.42065  0.03100  1.0000
  C   C605      1.0  0.84087  0.51584  0.05064  1.0000
  H   H1078     1.0  0.87184  0.48989  0.07935  1.0000
  Fe  Fe69      1.0  0.48544  0.46211  0.00784  1.0000
  C   C606      1.0  0.64986  0.35946  0.09051  1.0000
  H   H1079     1.0  0.88907  0.51542  0.05390  1.0000
  H   H1080     1.0  0.66641  0.35158  0.07134  1.0000
  H   H1081     1.0  0.53473  0.55391  0.04687  1.0000
  H   H1082     1.0  0.67693  0.34074  0.27025  1.0000
  N   N34       1.0  0.61021  0.36345  0.03911  1.0000
  C   C607      1.0  0.68255  0.35589  0.29133  1.0000
  H   H1083     1.0  0.72328  0.63201  0.39781  1.0000
  H   H1084     1.0  0.53924  0.44801  0.23881  1.0000
  H   H1085     1.0  0.50049  0.47494  0.21033  1.0000
  H   H1086     1.0  0.74028  0.63425  0.33389  1.0000
  H   H1087     1.0  0.75230  0.35006  0.37488  1.0000
  S   S138      1.0  0.61463  0.31793  0.31313  1.0000
  H   H1088     1.0  0.76638  0.33266  0.32036  1.0000
  H   H1089     1.0  0.94769  0.35493  0.10465  1.0000
  H   H1090     1.0  0.50340  0.52201  0.15339  1.0000
  C   C608      1.0  0.94056  0.40426  0.13300  1.0000
  H   H1091     1.0  0.87266  0.31712  0.15861  1.0000
  H   H1092     1.0  0.56920  0.38365  0.03937  1.0000
  S   S139      1.0  0.96157  0.53206  0.08449  1.0000
  H   H1093     1.0  0.82435  0.50801  0.07023  1.0000
  H   H1094     1.0  0.49611  0.37130  0.06856  1.0000
  H   H1095     1.0  0.51341  0.46719  0.12018  1.0000
  C   C609      1.0  0.54869  0.56787  0.03152  1.0000
  H   H1096     1.0  0.77142  0.62067  0.22089  1.0000
  H   H1097     1.0  0.94707  0.64144  0.07254  1.0000
  H   H1098     1.0  0.66466  0.35745  0.31171  1.0000
  H   H1099     1.0  0.81877  0.32355  0.31552  1.0000
  H   H1100     1.0  0.56197  0.57921  0.05178  1.0000
  C   C610      1.0  0.49874  0.48217  0.13184  1.0000
  S   S140      1.0  0.56596  0.31565  0.22020  1.0000
  H   H1101     1.0  0.97628  0.61280  0.10741  1.0000
  H   H1102     1.0  0.68488  0.37496  0.27682  1.0000
  H   H1103     1.0  0.90997  0.64561  0.31046  1.0000
  C   C611      1.0  0.62889  0.35111  0.00964  1.0000
  H   H1104     1.0  0.68831  0.32113  0.34678  1.0000
  H   H1105     1.0  0.71680  0.34390  0.39044  1.0000
  H   H1106     1.0  0.55128  0.34336  0.02812  1.0000
  C   C612      1.0  0.91408  0.31991  0.18771  1.0000
  C   C613      1.0  0.93324  0.31635  0.15265  1.0000
  H   H1107     1.0  0.74621  0.49825  0.02347  1.0000
  N   N35       1.0  0.83679  0.50387  0.01223  1.0000
  C   C614      1.0  0.85184  0.47773  0.01042  1.0000
  C   C615      1.0  0.53024  0.58608  0.00757  1.0000
  H   H1108     1.0  0.73881  0.53196  0.01249  1.0000
  C   C616      1.0  0.78441  0.52250  0.01449  1.0000
  H   H1109     1.0  0.66252  0.38186  0.00685  1.0000
  Fe  Fe70      1.0  0.84555  0.38702  0.66290  1.0000
  S   S141      1.0  0.84293  0.42653  0.63607  1.0000
  S   S142      1.0  0.84476  0.35083  0.62506  1.0000
  Fe  Fe71      1.0  0.85262  0.41194  0.74087  1.0000
  S   S143      1.0  0.84862  0.45299  0.71892  1.0000
  S   S144      1.0  0.86332  0.40134  0.80116  1.0000
  Fe  Fe72      1.0  0.81296  0.43654  0.68282  1.0000
  S   S145      1.0  0.77140  0.45372  0.66031  1.0000
  Fe  Fe73      1.0  0.87908  0.43930  0.67423  1.0000
  S   S146      1.0  0.91358  0.46833  0.65475  1.0000
  S   S147      1.0  0.81415  0.39637  0.70840  1.0000
  S   S148      1.0  0.88450  0.39886  0.69750  1.0000
  Fe  Fe74      1.0  0.94116  0.47869  0.96540  1.0000
  S   S149      1.0  0.90342  0.48323  0.92511  1.0000
  C   C617      1.0  0.85295  0.35971  0.52002  1.0000
  C   C618      1.0  0.75069  0.47664  0.68482  1.0000
  C   C619      1.0  0.74028  0.50286  0.73956  1.0000
  C   C620      1.0  0.75777  0.48459  0.72108  1.0000
  H   H1110     1.0  0.74576  0.50898  0.76766  1.0000
  H   H1111     1.0  0.77666  0.47666  0.73483  1.0000
  C   C621      1.0  0.95172  0.46664  0.65911  1.0000
  H   H1112     1.0  0.58150  0.37520  0.99415  1.0000
  H   H1113     1.0  0.85400  0.33839  0.51430  1.0000
  H   H1114     1.0  0.52905  0.44716  0.67322  1.0000
  H   H1115     1.0  0.50517  0.58670  0.71565  1.0000
  C   C622      1.0  0.87665  0.42483  0.83345  1.0000
  C   C623      1.0  0.89429  0.41667  0.86330  1.0000
  C   C624      1.0  0.90387  0.43460  0.89065  1.0000
  C   C625      1.0  0.89512  0.46071  0.88895  1.0000
  C   C626      1.0  0.87778  0.46894  0.85890  1.0000
  C   C627      1.0  0.86888  0.45117  0.83102  1.0000
  H   H1116     1.0  0.90033  0.39631  0.86546  1.0000
  H   H1117     1.0  0.91710  0.42798  0.91373  1.0000
  H   H1118     1.0  0.87087  0.48908  0.85739  1.0000
  H   H1119     1.0  0.85517  0.45767  0.80833  1.0000
  C   C628      1.0  0.81312  0.33446  0.60840  1.0000
  H   H1120     1.0  0.90929  0.55688  0.95663  1.0000
  H   H1121     1.0  0.95195  0.51309  0.88992  1.0000
  H   H1122     1.0  0.83766  0.36286  0.54334  1.0000
  H   H1123     1.0  0.62546  0.47245  0.57032  1.0000
  Fe  Fe75      1.0  0.59351  0.52755  0.68695  1.0000
  S   S150      1.0  0.57518  0.56806  0.68599  1.0000
  S   S151      1.0  0.57057  0.48906  0.67496  1.0000
  Fe  Fe76      1.0  0.65057  0.54662  0.72125  1.0000
  S   S152      1.0  0.63608  0.58851  0.72394  1.0000
  S   S153      1.0  0.69400  0.53575  0.74562  1.0000
  Fe  Fe77      1.0  0.59386  0.57162  0.74408  1.0000
  S   S154      1.0  0.56599  0.58638  0.79174  1.0000
  Fe  Fe78      1.0  0.61923  0.58116  0.66581  1.0000
  S   S155      1.0  0.62504  0.60711  0.61426  1.0000
  S   S156      1.0  0.60985  0.53052  0.74575  1.0000
  S   S157      1.0  0.63603  0.53991  0.66225  1.0000
  H   H1124     1.0  0.89824  0.37992  0.60955  1.0000
  Fe  Fe79      1.0  0.51443  0.50708  0.96598  1.0000
  S   S158      1.0  0.55702  0.51761  0.93940  1.0000
  C   C629      1.0  0.55868  0.53679  0.89841  1.0000
  C   C630      1.0  0.53956  0.55744  0.89188  1.0000
  C   C631      1.0  0.54263  0.57315  0.85975  1.0000
  C   C632      1.0  0.56411  0.56771  0.83332  1.0000
  C   C633      1.0  0.58332  0.54726  0.84023  1.0000
  C   C634      1.0  0.58079  0.53206  0.87275  1.0000
  H   H1125     1.0  0.52281  0.56157  0.91188  1.0000
  H   H1126     1.0  0.52798  0.58922  0.85490  1.0000
  H   H1127     1.0  0.60062  0.54348  0.82102  1.0000
  H   H1128     1.0  0.59607  0.51654  0.87802  1.0000
  N   N36       1.0  0.91036  0.41289  0.54741  1.0000
  H   H1129     1.0  0.49847  0.50913  0.84519  1.0000
  C   C635      1.0  0.65277  0.63024  0.60421  1.0000
  H   H1130     1.0  0.51849  0.57360  0.98734  1.0000
  H   H1131     1.0  0.65315  0.48946  0.72922  1.0000
  H   H1132     1.0  0.66929  0.63312  0.66029  1.0000
  H   H1133     1.0  0.94247  0.35273  0.61506  1.0000
  C   C636      1.0  0.72627  0.48708  0.66713  1.0000
  C   C637      1.0  0.70874  0.50513  0.68567  1.0000
  C   C638      1.0  0.71561  0.51300  0.72196  1.0000
  H   H1134     1.0  0.72101  0.48124  0.63885  1.0000
  H   H1135     1.0  0.69005  0.51309  0.67175  1.0000
  H   H1136     1.0  0.65546  0.49322  0.79709  1.0000
  C   C639      1.0  0.49482  0.52238  0.82096  1.0000
  C   C640      1.0  0.53347  0.48854  0.66317  1.0000
  H   H1137     1.0  0.95708  0.50812  0.65085  1.0000
  H   H1138     1.0  0.87063  0.48013  0.59164  1.0000
  H   H1139     1.0  0.66135  0.45855  0.80221  1.0000
  H   H1140     1.0  0.53092  0.52946  0.64990  1.0000
  H   H1141     1.0  0.97073  0.46888  0.73326  1.0000
  C   C641      1.0  0.93065  0.39699  0.57127  1.0000
  H   H1142     1.0  0.85866  0.42323  0.00249  1.0000
  C   C642      1.0  0.88169  0.39916  0.54232  1.0000
  H   H1143     1.0  0.58653  0.49186  0.80546  1.0000
  H   H1144     1.0  0.95399  0.42514  0.66844  1.0000
  H   H1145     1.0  0.87120  0.49865  0.54887  1.0000
  H   H1146     1.0  0.89139  0.35772  0.55344  1.0000
  H   H1147     1.0  0.88580  0.44020  0.97564  1.0000
  C   C643      1.0  0.95179  0.44612  0.77782  1.0000
  C   C644      1.0  0.51916  0.51122  0.65186  1.0000
  H   H1148     1.0  0.51744  0.61010  0.94392  1.0000
  H   H1149     1.0  0.93691  0.37869  0.55659  1.0000
  H   H1150     1.0  0.73184  0.40125  0.63319  1.0000
  C   C645      1.0  0.94048  0.37140  0.63065  1.0000
  N   N37       1.0  0.74810  0.58563  0.65712  1.0000
  C   C646      1.0  0.71987  0.57463  0.64289  1.0000
  C   C647      1.0  0.74810  0.58443  0.69924  1.0000
  C   C648      1.0  0.75103  0.61335  0.64336  1.0000
  C   C649      1.0  0.77349  0.57014  0.64306  1.0000
  C   C650      1.0  0.77168  0.54008  0.64827  1.0000
  C   C651      1.0  0.71686  0.57239  0.59981  1.0000
  C   C652      1.0  0.77694  0.62916  0.65930  1.0000
  C   C653      1.0  0.72528  0.60161  0.71910  1.0000
  C   C654      1.0  0.72959  0.60110  0.76145  1.0000
  C   C655      1.0  0.79912  0.52679  0.63453  1.0000
  C   C656      1.0  0.68937  0.55762  0.58895  1.0000
  H   H1151     1.0  0.95114  0.40788  0.57614  1.0000
  H   H1152     1.0  0.70154  0.58704  0.65203  1.0000
  H   H1153     1.0  0.71555  0.55519  0.65560  1.0000
  H   H1154     1.0  0.74398  0.56408  0.70882  1.0000
  H   H1155     1.0  0.76978  0.58941  0.71075  1.0000
  H   H1156     1.0  0.73104  0.62444  0.64895  1.0000
  H   H1157     1.0  0.75319  0.61369  0.61241  1.0000
  H   H1158     1.0  0.77735  0.57414  0.61293  1.0000
  H   H1159     1.0  0.79363  0.57657  0.65748  1.0000
  H   H1160     1.0  0.75334  0.53169  0.63222  1.0000
  H   H1161     1.0  0.76905  0.53490  0.67810  1.0000
  H   H1162     1.0  0.71556  0.59216  0.58707  1.0000
  H   H1163     1.0  0.73522  0.56186  0.58722  1.0000
  H   H1164     1.0  0.79764  0.61972  0.65193  1.0000
  C   C657      1.0  0.96802  0.48976  0.65564  1.0000
  H   H1165     1.0  0.72647  0.62233  0.71024  1.0000
  H   H1166     1.0  0.70322  0.59416  0.71312  1.0000
  H   H1167     1.0  0.96425  0.42826  0.77130  1.0000
  H   H1168     1.0  0.72869  0.58073  0.77214  1.0000
  H   H1169     1.0  0.75070  0.60995  0.76922  1.0000
  H   H1170     1.0  0.79716  0.50530  0.63824  1.0000
  H   H1171     1.0  0.48521  0.62624  0.92940  1.0000
  H   H1172     1.0  0.81818  0.53360  0.65083  1.0000
  H   H1173     1.0  0.67012  0.56792  0.59977  1.0000
  H   H1174     1.0  0.68748  0.55661  0.55806  1.0000
  H   H1175     1.0  0.68979  0.53739  0.60021  1.0000
  H   H1176     1.0  0.95721  0.47822  0.88605  1.0000
  H   H1177     1.0  0.93228  0.36689  0.65901  1.0000
  H   H1178     1.0  0.86871  0.40007  0.56838  1.0000
  H   H1179     1.0  0.51164  0.53768  0.82380  1.0000
  H   H1180     1.0  0.68394  0.34152  0.98044  1.0000
  H   H1181     1.0  0.89325  0.43574  0.59274  1.0000
  H   H1182     1.0  0.86590  0.45133  0.53645  1.0000
  S   S159      1.0  0.49072  0.47121  0.94654  1.0000
  H   H1183     1.0  0.62057  0.41345  0.00609  1.0000
  C   C658      1.0  0.76099  0.32785  0.60634  1.0000
  H   H1184     1.0  0.52913  0.46167  0.80861  1.0000
  C   C659      1.0  0.88679  0.54978  0.95282  1.0000
  H   H1185     1.0  0.92595  0.44796  0.57537  1.0000
  H   H1186     1.0  0.52890  0.54889  0.74437  1.0000
  H   H1187     1.0  0.96208  0.38069  0.63354  1.0000
  H   H1188     1.0  0.85717  0.42290  0.95211  1.0000
  H   H1189     1.0  0.64116  0.63252  0.54592  1.0000
  H   H1190     1.0  0.97065  0.52821  0.77368  1.0000
  C   C660      1.0  0.88326  0.48421  0.56598  1.0000
  H   H1191     1.0  0.49541  0.51424  0.72519  1.0000
  H   H1192     1.0  0.84592  0.51223  0.95405  1.0000
  H   H1193     1.0  0.91273  0.42423  0.76716  1.0000
  H   H1194     1.0  0.87237  0.56698  0.95012  1.0000
  C   C661      1.0  0.50547  0.55148  0.74921  1.0000
  H   H1195     1.0  0.94784  0.44699  0.80833  1.0000
  C   C662      1.0  0.88761  0.45910  0.54360  1.0000
  C   C663      1.0  0.91952  0.38975  0.61066  1.0000
  H   H1196     1.0  0.65594  0.48641  0.59487  1.0000
  H   H1197     1.0  0.48199  0.47284  0.81206  1.0000
  C   C664      1.0  0.65562  0.63968  0.56746  1.0000
  H   H1198     1.0  0.50419  0.45706  0.75036  1.0000
  C   C665      1.0  0.90521  0.43878  0.56637  1.0000
  H   H1199     1.0  0.95169  0.48717  0.76647  1.0000
  C   C666      1.0  0.49349  0.56771  0.71689  1.0000
  H   H1200     1.0  0.61238  0.44658  0.62607  1.0000
  N   N38       1.0  0.49841  0.50775  0.78476  1.0000
  C   C667      1.0  0.97130  0.50060  0.83811  1.0000
  H   H1201     1.0  0.91743  0.40760  0.62796  1.0000
  H   H1202     1.0  0.61950  0.49306  0.61023  1.0000
  H   H1203     1.0  0.92509  0.44265  0.72779  1.0000
  H   H1204     1.0  0.58072  0.45921  0.82268  1.0000
  N   N39       1.0  0.64929  0.43873  0.69013  1.0000
  C   C668      1.0  0.61890  0.43020  0.69916  1.0000
  C   C669      1.0  0.64770  0.46083  0.66236  1.0000
  C   C670      1.0  0.66534  0.41560  0.67443  1.0000
  C   C671      1.0  0.66508  0.44826  0.72452  1.0000
  C   C672      1.0  0.65071  0.47120  0.74564  1.0000
  C   C673      1.0  0.61549  0.41171  0.73317  1.0000
  C   C674      1.0  0.69605  0.42131  0.65922  1.0000
  C   C675      1.0  0.63484  0.45389  0.62351  1.0000
  H   H1205     1.0  0.90438  0.49291  0.57410  1.0000
  C   C676      1.0  0.66494  0.47566  0.78372  1.0000
  C   C677      1.0  0.58396  0.40361  0.73807  1.0000
  C   C678      1.0  0.70981  0.39658  0.64340  1.0000
  H   H1206     1.0  0.60901  0.41997  0.67479  1.0000
  H   H1207     1.0  0.60480  0.44741  0.70388  1.0000
  H   H1208     1.0  0.63430  0.47702  0.67360  1.0000
  H   H1209     1.0  0.66930  0.46957  0.65804  1.0000
  H   H1210     1.0  0.65258  0.40603  0.65177  1.0000
  H   H1211     1.0  0.66799  0.40029  0.69622  1.0000
  H   H1212     1.0  0.66897  0.43185  0.74431  1.0000
  H   H1213     1.0  0.68699  0.45546  0.71719  1.0000
  H   H1214     1.0  0.62744  0.46786  0.75041  1.0000
  H   H1215     1.0  0.62840  0.39369  0.72959  1.0000
  H   H1216     1.0  0.62244  0.42151  0.75939  1.0000
  H   H1217     1.0  0.71056  0.42856  0.68170  1.0000
  H   H1218     1.0  0.69556  0.43601  0.63649  1.0000
  H   H1219     1.0  0.64794  0.43883  0.60927  1.0000
  C   C679      1.0  0.78541  0.34168  0.61968  1.0000
  H   H1220     1.0  0.78279  0.35777  0.63897  1.0000
  H   H1221     1.0  0.68849  0.47904  0.78061  1.0000
  H   H1222     1.0  0.54374  0.51790  0.78338  1.0000
  H   H1223     1.0  0.57014  0.42108  0.74217  1.0000
  H   H1224     1.0  0.57612  0.39265  0.71319  1.0000
  H   H1225     1.0  0.58188  0.39079  0.76294  1.0000
  C   C680      1.0  0.51808  0.46485  0.66480  1.0000
  H   H1226     1.0  0.71177  0.38131  0.66533  1.0000
  H   H1227     1.0  0.50273  0.56318  0.77498  1.0000
  H   H1228     1.0  0.53401  0.49253  0.75227  1.0000
  H   H1229     1.0  0.73975  0.33342  0.61570  1.0000
  H   H1230     1.0  0.80256  0.53085  0.60441  1.0000
  H   H1231     1.0  0.90791  0.45920  0.76634  1.0000
  H   H1232     1.0  0.88575  0.53816  0.92665  1.0000
  C   C681      1.0  0.92259  0.44301  0.75854  1.0000
  C   C682      1.0  0.50574  0.62887  0.94510  1.0000
  H   H1233     1.0  0.54000  0.48831  0.83853  1.0000
  C   C683      1.0  0.48968  0.51022  0.64236  1.0000
  C   C684      1.0  0.49018  0.52447  0.75167  1.0000
  C   C685      1.0  0.52970  0.50026  0.78081  1.0000
  C   C686      1.0  0.54135  0.48032  0.80977  1.0000
  H   H1234     1.0  0.84668  0.46965  0.94986  1.0000
  C   C687      1.0  0.96616  0.44303  0.66520  1.0000
  H   H1235     1.0  0.69689  0.38881  0.61963  1.0000
  H   H1236     1.0  0.71217  0.61243  0.77507  1.0000
  C   C688      1.0  0.57300  0.47401  0.80230  1.0000
  C   C689      1.0  0.48846  0.46390  0.65566  1.0000
  C   C690      1.0  0.63398  0.47798  0.59828  1.0000
  C   C691      1.0  0.96744  0.47106  0.76378  1.0000
  C   C692      1.0  0.86255  0.43502  0.97697  1.0000
  H   H1237     1.0  0.57563  0.46611  0.77362  1.0000
  H   H1238     1.0  0.97559  0.51705  0.72674  1.0000
  C   C693      1.0  0.49956  0.63785  0.98581  1.0000
  C   C694      1.0  0.87817  0.53310  0.98642  1.0000
  S   S160      1.0  0.96868  0.51479  0.97364  1.0000
  H   H1239     1.0  0.94984  0.49845  0.82467  1.0000
  C   C695      1.0  0.96681  0.49765  0.87995  1.0000
  H   H1240     1.0  0.52721  0.64241  0.89499  1.0000
  C   C696      1.0  0.88297  0.37002  0.53030  1.0000
  H   H1241     1.0  0.57865  0.41904  0.96357  1.0000
  H   H1242     1.0  0.77575  0.63089  0.69012  1.0000
  H   H1243     1.0  0.89437  0.51738  0.98961  1.0000
  C   C697      1.0  0.48201  0.46494  0.75236  1.0000
  H   H1244     1.0  0.78959  0.53991  0.99739  1.0000
  H   H1245     1.0  0.63624  0.38241  0.96917  1.0000
  C   C698      1.0  0.67147  0.63987  0.63181  1.0000
  H   H1246     1.0  0.65754  0.34188  0.94292  1.0000
  H   H1247     1.0  0.49662  0.55744  0.68994  1.0000
  H   H1248     1.0  0.86842  0.40948  0.52100  1.0000
  C   C699      1.0  0.84388  0.45963  0.97699  1.0000
  H   H1249     1.0  0.61530  0.34127  0.98816  1.0000
  H   H1250     1.0  0.82112  0.45297  0.97885  1.0000
  H   H1251     1.0  0.68363  0.36795  0.94721  1.0000
  H   H1252     1.0  0.89875  0.46449  0.51739  1.0000
  H   H1253     1.0  0.96936  0.42405  0.52469  1.0000
  H   H1254     1.0  0.83333  0.53934  0.97936  1.0000
  C   C700      1.0  0.66976  0.35421  0.96315  1.0000
  H   H1255     1.0  0.94825  0.45331  0.52036  1.0000
  S   S161      1.0  0.97851  0.45168  0.95814  1.0000
  H   H1256     1.0  0.58427  0.44767  0.99209  1.0000
  H   H1257     1.0  0.52005  0.64563  0.99793  1.0000
  C   C701      1.0  0.64914  0.36965  0.98790  1.0000
  C   C702      1.0  0.80489  0.49921  0.00593  1.0000
  H   H1258     1.0  0.80073  0.49363  0.97626  1.0000
  C   C703      1.0  0.95176  0.43353  0.50861  1.0000
  C   C704      1.0  0.57797  0.42669  0.99258  1.0000
  H   H1259     1.0  0.54520  0.59915  0.99218  1.0000
  H   H1260     1.0  0.55550  0.42525  0.00298  1.0000
  C   C705      1.0  0.84736  0.52192  0.98178  1.0000
  C   C706      1.0  0.92382  0.41667  0.50952  1.0000
  H   H1261     1.0  0.75026  0.51009  0.97608  1.0000
  C   C707      1.0  0.75304  0.51514  0.00608  1.0000
  H   H1262     1.0  0.74518  0.82443  0.42385  1.0000
  H   H1263     1.0  0.65665  0.68778  0.24356  1.0000
  C   C708      1.0  0.94099  0.85314  0.09909  1.0000
  S   S162      1.0  0.84977  0.69640  0.13003  1.0000
  Fe  Fe80      1.0  0.85234  0.67024  0.23072  1.0000
  S   S163      1.0  0.83893  0.71127  0.21780  1.0000
  H   H1264     1.0  0.77593  0.76918  0.29495  1.0000
  Fe  Fe81      1.0  0.81341  0.69304  0.17110  1.0000
  S   S164      1.0  0.76483  0.69745  0.16379  1.0000
  Fe  Fe82      1.0  0.87674  0.71077  0.17835  1.0000
  S   S165      1.0  0.90787  0.74460  0.16892  1.0000
  Fe  Fe83      1.0  0.60755  0.80951  0.24492  1.0000
  S   S166      1.0  0.62054  0.77394  0.21275  1.0000
  S   S167      1.0  0.61345  0.81353  0.30764  1.0000
  Fe  Fe84      1.0  0.58949  0.83979  0.17348  1.0000
  S   S168      1.0  0.60229  0.80640  0.13625  1.0000
  S   S169      1.0  0.57387  0.88027  0.15527  1.0000
  Fe  Fe85      1.0  0.58003  0.78134  0.17945  1.0000
  S   S170      1.0  0.55059  0.74765  0.16333  1.0000
  Fe  Fe86      1.0  0.64166  0.80211  0.17332  1.0000
  S   S171      1.0  0.68930  0.80124  0.15818  1.0000
  S   S172      1.0  0.56531  0.81496  0.21471  1.0000
  S   S173      1.0  0.63054  0.83754  0.20736  1.0000
  Fe  Fe87      1.0  0.71175  0.73382  0.44509  1.0000
  S   S174      1.0  0.73863  0.69917  0.46249  1.0000
  S   S175      1.0  0.68247  0.72558  0.39537  1.0000
  Fe  Fe88      1.0  0.77551  0.72761  0.45970  1.0000
  S   S176      1.0  0.81819  0.72316  0.42972  1.0000
  S   S177      1.0  0.74906  0.76148  0.43985  1.0000
  C   C709      1.0  0.63254  0.78905  0.33219  1.0000
  C   C710      1.0  0.63746  0.76458  0.31617  1.0000
  C   C711      1.0  0.65244  0.74529  0.33623  1.0000
  C   C712      1.0  0.66375  0.75061  0.37181  1.0000
  C   C713      1.0  0.65920  0.77518  0.38784  1.0000
  C   C714      1.0  0.64312  0.79417  0.36834  1.0000
  H   H1265     1.0  0.62916  0.76025  0.28867  1.0000
  H   H1266     1.0  0.65538  0.72613  0.32418  1.0000
  H   H1267     1.0  0.66752  0.77932  0.41553  1.0000
  H   H1268     1.0  0.63917  0.81297  0.38115  1.0000
  C   C715      1.0  0.94357  0.74232  0.18605  1.0000
  H   H1269     1.0  0.59935  0.71114  0.40227  1.0000
  C   C716      1.0  0.50626  0.76272  0.20960  1.0000
  C   C717      1.0  0.51561  0.74528  0.18228  1.0000
  H   H1270     1.0  0.94089  0.75192  0.38774  1.0000
  C   C718      1.0  0.95172  0.72225  0.21031  1.0000
  H   H1271     1.0  0.95820  0.77643  0.15636  1.0000
  H   H1272     1.0  0.52051  0.77793  0.21947  1.0000
  C   C719      1.0  0.70915  0.69063  0.28261  1.0000
  H   H1273     1.0  0.93625  0.70746  0.21809  1.0000
  C   C720      1.0  0.74462  0.72675  0.16184  1.0000
  C   C721      1.0  0.75748  0.75142  0.16531  1.0000
  C   C722      1.0  0.74032  0.77412  0.16383  1.0000
  C   C723      1.0  0.71018  0.77231  0.15964  1.0000
  C   C724      1.0  0.69736  0.74763  0.15657  1.0000
  C   C725      1.0  0.71455  0.72502  0.15720  1.0000
  H   H1274     1.0  0.78062  0.75300  0.16870  1.0000
  H   H1275     1.0  0.75040  0.79316  0.16605  1.0000
  H   H1276     1.0  0.67424  0.74601  0.15299  1.0000
  H   H1277     1.0  0.70447  0.70603  0.15407  1.0000
  C   C726      1.0  0.83593  0.67356  0.32623  1.0000
  C   C727      1.0  0.83563  0.70085  0.32368  1.0000
  C   C728      1.0  0.82832  0.71609  0.35494  1.0000
  C   C729      1.0  0.82044  0.70414  0.38869  1.0000
  S   S178      1.0  0.84882  0.65390  0.28931  1.0000
  N   N40       1.0  0.94164  0.85063  0.14109  1.0000
  H   H1278     1.0  0.82970  0.73718  0.35342  1.0000
  H   H1279     1.0  0.66194  0.72114  0.25907  1.0000
  H   H1280     1.0  0.52998  0.78642  0.07583  1.0000
  C   C730      1.0  0.54536  0.88876  0.12421  1.0000
  C   C731      1.0  0.53614  0.91491  0.12296  1.0000
  C   C732      1.0  0.51430  0.92289  0.09798  1.0000
  C   C733      1.0  0.50155  0.90488  0.07354  1.0000
  C   C734      1.0  0.51048  0.87862  0.07504  1.0000
  C   C735      1.0  0.53239  0.87060  0.10010  1.0000
  H   H1281     1.0  0.54593  0.92912  0.14156  1.0000
  H   H1282     1.0  0.50726  0.94304  0.09771  1.0000
  H   H1283     1.0  0.50087  0.86457  0.05610  1.0000
  H   H1284     1.0  0.53964  0.85053  0.10033  1.0000
  H   H1285     1.0  0.80078  0.74399  0.28126  1.0000
  H   H1286     1.0  0.84242  0.71019  0.29823  1.0000
  H   H1287     1.0  0.77210  0.75373  0.24982  1.0000
  C   C736      1.0  0.68217  0.84721  0.31067  1.0000
  H   H1288     1.0  0.51404  0.69708  0.25296  1.0000
  H   H1289     1.0  0.94564  0.81422  0.01893  1.0000
  C   C737      1.0  0.53187  0.75148  0.30863  1.0000
  C   C738      1.0  0.66912  0.70607  0.23899  1.0000
  H   H1290     1.0  0.94090  0.65001  0.13601  1.0000
  H   H1291     1.0  0.92637  0.81346  0.08283  1.0000
  C   C739      1.0  0.76089  0.70333  0.27647  1.0000
  H   H1292     1.0  0.97719  0.82322  0.14098  1.0000
  C   C740      1.0  0.49700  0.72522  0.17026  1.0000
  H   H1293     1.0  0.87103  0.80869  0.18522  1.0000
  C   C741      1.0  0.75814  0.72990  0.29695  1.0000
  H   H1294     1.0  0.92726  0.81042  0.14553  1.0000
  C   C742      1.0  0.57213  0.96162  0.05050  1.0000
  H   H1295     1.0  0.90568  0.72654  0.08849  1.0000
  H   H1296     1.0  0.92873  0.87487  0.18793  1.0000
  C   C743      1.0  0.77797  0.75043  0.27958  1.0000
  H   H1297     1.0  0.66435  0.71326  0.21037  1.0000
  C   C744      1.0  0.88866  0.83432  0.14207  1.0000
  C   C745      1.0  0.90746  0.72199  0.43599  1.0000
  H   H1298     1.0  0.70285  0.70585  0.30323  1.0000
  H   H1299     1.0  0.75941  0.70659  0.24577  1.0000
  H   H1300     1.0  0.78347  0.69693  0.28136  1.0000
  H   H1301     1.0  0.97606  0.65521  0.04663  1.0000
  H   H1302     1.0  0.73642  0.69385  0.34651  1.0000
  C   C746      1.0  0.64511  0.89445  0.08871  1.0000
  C   C747      1.0  0.74546  0.65813  0.26548  1.0000
  H   H1303     1.0  0.95871  0.86614  0.08969  1.0000
  H   H1304     1.0  0.92096  0.86310  0.08948  1.0000
  H   H1305     1.0  0.76444  0.72781  0.32678  1.0000
  H   H1306     1.0  0.73583  0.73739  0.29574  1.0000
  H   H1307     1.0  0.71301  0.71958  0.23746  1.0000
  H   H1308     1.0  0.64822  0.90709  0.32619  1.0000
  C   C748      1.0  0.86979  0.81136  0.15446  1.0000
  H   H1309     1.0  0.92524  0.93100  0.15214  1.0000
  H   H1310     1.0  0.96078  0.84633  0.02643  1.0000
  S   S179      1.0  0.94778  0.97106  0.02500  1.0000
  C   C749      1.0  0.92199  0.68734  0.07743  1.0000
  C   C750      1.0  0.60869  0.92791  0.06608  1.0000
  H   H1311     1.0  0.70736  0.68682  0.22107  1.0000
  C   C751      1.0  0.68046  0.87667  0.32002  1.0000
  H   H1312     1.0  0.91828  0.73861  0.45040  1.0000
  C   C752      1.0  0.70148  0.70100  0.24307  1.0000
  H   H1313     1.0  0.53860  0.68500  0.31562  1.0000
  H   H1314     1.0  0.85531  0.75402  0.27772  1.0000
  C   C753      1.0  0.87463  0.76360  0.26563  1.0000
  H   H1315     1.0  0.90224  0.76578  0.33118  1.0000
  H   H1316     1.0  0.87197  0.76426  0.23479  1.0000
  H   H1317     1.0  0.87609  0.78399  0.27613  1.0000
  C   C754      1.0  0.50821  0.78155  0.08666  1.0000
  C   C755      1.0  0.57113  0.72454  0.33645  1.0000
  H   H1318     1.0  0.51496  0.70664  0.33834  1.0000
  H   H1319     1.0  0.76499  0.82047  0.34181  1.0000
  S   S180      1.0  0.89231  0.67090  0.19495  1.0000
  H   H1320     1.0  0.88672  0.73425  0.32772  1.0000
  H   H1321     1.0  0.88964  0.74529  0.39195  1.0000
  H   H1322     1.0  0.66669  0.83681  0.32906  1.0000
  S   S181      1.0  0.70202  0.74602  0.50417  1.0000
  H   H1323     1.0  0.51792  0.85993  0.19206  1.0000
  C   C756      1.0  0.74816  0.81870  0.36355  1.0000
  H   H1324     1.0  0.64599  0.96595  0.03805  1.0000
  H   H1325     1.0  0.66980  0.80389  0.26643  1.0000
  H   H1326     1.0  0.88593  0.71896  0.44883  1.0000
  H   H1327     1.0  0.54650  0.71238  0.38587  1.0000
  C   C757      1.0  0.90601  0.71206  0.06538  1.0000
  H   H1328     1.0  0.70663  0.65137  0.33762  1.0000
  H   H1329     1.0  0.67332  0.84554  0.28183  1.0000
  H   H1330     1.0  0.89189  0.71109  0.38179  1.0000
  H   H1331     1.0  0.76918  0.84706  0.40045  1.0000
  H   H1332     1.0  0.62328  0.94237  0.07950  1.0000
  C   C758      1.0  0.90548  0.74605  0.31864  1.0000
  C   C759      1.0  0.90369  0.72778  0.39440  1.0000
  H   H1333     1.0  0.57880  0.73157  0.43324  1.0000
  H   H1334     1.0  0.92009  0.75909  0.26249  1.0000
  N   N41       1.0  0.59111  0.94018  0.03507  1.0000
  H   H1335     1.0  0.59400  0.92114  0.08874  1.0000
  C   C760      1.0  0.94483  0.92496  0.16790  1.0000
  C   C761      1.0  0.52709  0.70389  0.31191  1.0000
  C   C762      1.0  0.56270  0.72446  0.26893  1.0000
  C   C763      1.0  0.90199  0.74846  0.27564  1.0000
  H   H1336     1.0  0.74846  0.83222  0.27682  1.0000
  H   H1337     1.0  0.54524  0.81886  0.30982  1.0000
  H   H1338     1.0  0.95230  0.77346  0.33046  1.0000
  C   C764      1.0  0.76710  0.88366  0.27015  1.0000
  C   C765      1.0  0.73255  0.84687  0.28691  1.0000
  H   H1339     1.0  0.74184  0.79775  0.36549  1.0000
  H   H1340     1.0  0.51747  0.75181  0.33338  1.0000
  H   H1341     1.0  0.51186  0.84615  0.23766  1.0000
  H   H1342     1.0  0.72565  0.85585  0.36305  1.0000
  H   H1343     1.0  0.76796  0.67605  0.33668  1.0000
  H   H1344     1.0  0.50072  0.66320  0.05302  1.0000
  C   C766      1.0  0.50402  0.70048  0.28058  1.0000
  C   C767      1.0  0.93322  0.73313  0.37526  1.0000
  H   H1345     1.0  0.69183  0.88821  0.29835  1.0000
  H   H1346     1.0  0.88338  0.70701  0.05792  1.0000
  N   N42       1.0  0.93349  0.73468  0.33296  1.0000
  H   H1347     1.0  0.72903  0.79601  0.30311  1.0000
  H   H1348     1.0  0.69176  0.75871  0.27693  1.0000
  H   H1349     1.0  0.63878  0.88227  0.29241  1.0000
  H   H1350     1.0  0.96415  0.70064  0.05975  1.0000
  C   C768      1.0  0.57194  0.91900  0.01883  1.0000
  H   H1351     1.0  0.90026  0.72874  0.26280  1.0000
  H   H1352     1.0  0.54711  0.72873  0.24606  1.0000
  C   C769      1.0  0.91756  0.68640  0.32413  1.0000
  H   H1353     1.0  0.81420  0.66743  0.41685  1.0000
  H   H1354     1.0  0.69479  0.79559  0.32485  1.0000
  H   H1355     1.0  0.96596  0.82215  0.20632  1.0000
  H   H1356     1.0  0.49426  0.77541  0.06288  1.0000
  H   H1357     1.0  0.54907  0.74731  0.38050  1.0000
  C   C770      1.0  0.58656  0.72942  0.40413  1.0000
  H   H1358     1.0  0.61423  0.88757  0.04540  1.0000
  H   H1359     1.0  0.89547  0.69239  0.31619  1.0000
  H   H1360     1.0  0.70243  0.81296  0.24257  1.0000
  H   H1361     1.0  0.72010  0.76856  0.24514  1.0000
  C   C771      1.0  0.58938  0.69811  0.22002  1.0000
  H   H1362     1.0  0.72100  0.85339  0.26115  1.0000
  C   C772      1.0  0.57803  0.69828  0.25999  1.0000
  C   C773      1.0  0.69744  0.77196  0.25361  1.0000
  C   C774      1.0  0.92046  0.83027  0.15440  1.0000
  H   H1363     1.0  0.75173  0.89204  0.24948  1.0000
  C   C775      1.0  0.49546  0.80541  0.10613  1.0000
  H   H1364     1.0  0.91976  0.67316  0.05412  1.0000
  H   H1365     1.0  0.65829  0.87733  0.08038  1.0000
  C   C776      1.0  0.70775  0.80600  0.30335  1.0000
  H   H1366     1.0  0.57952  0.73988  0.26635  1.0000
  H   H1367     1.0  0.58860  0.73886  0.33080  1.0000
  H   H1368     1.0  0.57118  0.69898  0.19974  1.0000
  H   H1369     1.0  0.77988  0.81362  0.40781  1.0000
  H   H1370     1.0  0.56407  0.77805  0.28389  1.0000
  H   H1371     1.0  0.60082  0.74634  0.39773  1.0000
  H   H1372     1.0  0.70364  0.82861  0.37268  1.0000
  H   H1373     1.0  0.78056  0.89982  0.28164  1.0000
  H   H1374     1.0  0.56460  0.77755  0.33413  1.0000
  H   H1375     1.0  0.91323  0.88395  0.14481  1.0000
  H   H1376     1.0  0.68972  0.88114  0.34789  1.0000
  N   N43       1.0  0.71142  0.83448  0.31370  1.0000
  H   H1377     1.0  0.65983  0.90998  0.09932  1.0000
  H   H1378     1.0  0.63047  0.88820  0.11154  1.0000
  C   C777      1.0  0.55041  0.77676  0.30910  1.0000
  C   C778      1.0  0.93962  0.70831  0.31607  1.0000
  H   H1379     1.0  0.96494  0.81774  0.08268  1.0000
  H   H1380     1.0  0.94877  0.71805  0.38518  1.0000
  C   C779      1.0  0.95625  0.89900  0.15303  1.0000
  H   H1381     1.0  0.88657  0.83591  0.11130  1.0000
  C   C780      1.0  0.74456  0.67710  0.32967  1.0000
  C   C781      1.0  0.93363  0.87675  0.15767  1.0000
  C   C782      1.0  0.69337  0.80041  0.26492  1.0000
  H   H1382     1.0  0.69433  0.67396  0.28807  1.0000
  C   C783      1.0  0.64908  0.88582  0.32009  1.0000
  C   C784      1.0  0.56086  0.72866  0.37717  1.0000
  H   H1383     1.0  0.79204  0.65827  0.25657  1.0000
  H   H1384     1.0  0.60156  0.67982  0.21487  1.0000
  H   H1385     1.0  0.68317  0.76728  0.22959  1.0000
  H   H1386     1.0  0.95980  0.75372  0.29072  1.0000
  H   H1387     1.0  0.51710  0.75328  0.28434  1.0000
  H   H1388     1.0  0.60400  0.71500  0.21514  1.0000
  H   H1389     1.0  0.92208  0.84165  0.02653  1.0000
  H   H1390     1.0  0.91820  0.68110  0.35415  1.0000
  H   H1391     1.0  0.55147  0.95330  0.06064  1.0000
  C   C785      1.0  0.53138  0.80109  0.30970  1.0000
  C   C786      1.0  0.75080  0.87022  0.30180  1.0000
  H   H1392     1.0  0.51729  0.80176  0.28452  1.0000
  H   H1393     1.0  0.91108  0.67928  0.10241  1.0000
  C   C787      1.0  0.48418  0.67725  0.28848  1.0000
  C   C788      1.0  0.72129  0.83550  0.35396  1.0000
  N   N44       1.0  0.54821  0.72606  0.30651  1.0000
  H   H1394     1.0  0.94199  0.71005  0.28540  1.0000
  C   C789      1.0  0.95417  0.69337  0.08606  1.0000
  H   H1395     1.0  0.96857  0.85712  0.21124  1.0000
  H   H1396     1.0  0.59677  0.69537  0.27894  1.0000
  H   H1397     1.0  0.58181  0.70511  0.33598  1.0000
  H   H1398     1.0  0.51784  0.80133  0.33518  1.0000
  H   H1399     1.0  0.96174  0.90199  0.12326  1.0000
  H   H1400     1.0  0.91639  0.72097  0.04056  1.0000
  H   H1401     1.0  0.76705  0.86332  0.32239  1.0000
  C   C790      1.0  0.82742  0.66163  0.35968  1.0000
  H   H1402     1.0  0.87678  0.79302  0.14058  1.0000
  H   H1403     1.0  0.56110  0.90797  0.04170  1.0000
  H   H1404     1.0  0.50420  0.71159  0.14924  1.0000
  C   C791      1.0  0.62770  0.90424  0.05515  1.0000
  H   H1405     1.0  0.94725  0.65532  0.30784  1.0000
  H   H1406     1.0  0.56324  0.68133  0.26271  1.0000
  C   C792      1.0  0.76133  0.82653  0.40119  1.0000
  C   C793      1.0  0.81950  0.67683  0.39069  1.0000
  H   H1407     1.0  0.63657  0.87524  0.34179  1.0000
  C   C794      1.0  0.95750  0.75311  0.32157  1.0000
  H   H1408     1.0  0.87982  0.85235  0.15482  1.0000
  N   N45       1.0  0.74008  0.68230  0.28855  1.0000
  H   H1409     1.0  0.73750  0.88514  0.31583  1.0000
  H   H1410     1.0  0.78147  0.86956  0.25581  1.0000
  C   C795      1.0  0.94407  0.82739  0.07654  1.0000
  C   C796      1.0  0.96404  0.76128  0.17586  1.0000
  H   H1411     1.0  0.92031  0.70392  0.44012  1.0000
  H   H1412     1.0  0.84697  0.81505  0.14653  1.0000
  H   H1413     1.0  0.51173  0.81280  0.12644  1.0000
  H   H1414     1.0  0.49219  0.82058  0.08454  1.0000
  H   H1415     1.0  0.95402  0.71028  0.10570  1.0000
  H   H1416     1.0  0.96065  0.70074  0.32634  1.0000
  H   H1417     1.0  0.96152  0.94040  0.16438  1.0000
  H   H1418     1.0  0.93964  0.92336  0.19806  1.0000
  C   C797      1.0  0.94307  0.83281  0.03457  1.0000
  H   H1419     1.0  0.64318  0.90963  0.03293  1.0000
  H   H1420     1.0  0.92033  0.82951  0.18545  1.0000
  H   H1421     1.0  0.71916  0.66693  0.40005  1.0000
  Fe  Fe89      1.0  0.86390  0.65622  0.14831  1.0000
  C   C798      1.0  0.95943  0.66377  0.13976  1.0000
  C   C799      1.0  0.73205  0.65092  0.38760  1.0000
  H   H1422     1.0  0.95004  0.68122  0.15374  1.0000
  H   H1423     1.0  0.49759  0.81516  0.18761  1.0000
  H   H1424     1.0  0.49015  0.71803  0.27860  1.0000
  H   H1425     1.0  0.74350  0.66261  0.23518  1.0000
  H   H1426     1.0  0.49669  0.65878  0.28946  1.0000
  C   C800      1.0  0.97160  0.84258  0.15295  1.0000
  C   C801      1.0  0.96972  0.64854  0.07508  1.0000
  H   H1427     1.0  0.51031  0.76496  0.10638  1.0000
  Fe  Fe90      1.0  0.74266  0.77048  0.50079  1.0000
  H   H1428     1.0  0.95439  0.65921  0.21777  1.0000
  C   C802      1.0  0.72984  0.65206  0.34510  1.0000
  H   H1429     1.0  0.56595  0.97557  0.02792  1.0000
  C   C803      1.0  0.92477  0.66168  0.30214  1.0000
  N   N46       1.0  0.97174  0.67114  0.10216  1.0000
  H   H1430     1.0  0.58442  0.96493  0.10971  1.0000
  H   H1431     1.0  0.92192  0.66518  0.27177  1.0000
  S   S182      1.0  0.82537  0.65168  0.18561  1.0000
  C   C804      1.0  0.63183  0.97205  0.01461  1.0000
  C   C805      1.0  0.50105  0.85332  0.21190  1.0000
  C   C806      1.0  0.58393  0.97751  0.08440  1.0000
  H   H1432     1.0  0.48246  0.85071  0.14059  1.0000
  C   C807      1.0  0.48290  0.83139  0.19458  1.0000
  H   H1433     1.0  0.48733  0.87025  0.21945  1.0000
  H   H1434     1.0  0.97638  0.89456  0.16867  1.0000
  C   C808      1.0  0.97680  0.84004  0.19563  1.0000
  H   H1435     1.0  0.75488  0.65272  0.39697  1.0000
  C   C809      1.0  0.48585  0.65004  0.06834  1.0000
  Fe  Fe91      1.0  0.84745  0.89110  0.67057  1.0000
  S   S183      1.0  0.85997  0.92769  0.63953  1.0000
  S   S184      1.0  0.83842  0.85110  0.64419  1.0000
  Fe  Fe92      1.0  0.86375  0.91598  0.74703  1.0000
  S   S185      1.0  0.87657  0.95411  0.72125  1.0000
  S   S186      1.0  0.87053  0.90707  0.80855  1.0000
  Fe  Fe93      1.0  0.83660  0.94856  0.68596  1.0000
  H   H1436     1.0  0.95507  0.91043  0.52393  1.0000
  Fe  Fe94      1.0  0.89853  0.92991  0.67791  1.0000
  S   S187      1.0  0.94542  0.93376  0.66096  1.0000
  S   S188      1.0  0.82192  0.91184  0.71510  1.0000
  S   S189      1.0  0.88793  0.89190  0.70558  1.0000
  H   H1437     1.0  0.94572  0.93770  0.81118  1.0000
  H   H1438     1.0  0.54731  0.89346  0.95570  1.0000
  C   C810      1.0  0.78176  0.96827  0.81342  1.0000
  H   H1439     1.0  0.52940  0.97610  0.76678  1.0000
  H   H1440     1.0  0.54514  0.65167  0.93774  1.0000
  H   H1441     1.0  0.77197  0.96298  0.78601  1.0000
  C   C811      1.0  0.78789  0.91923  0.81953  1.0000
  C   C812      1.0  0.91556  0.96631  0.88589  1.0000
  N   N47       1.0  0.96924  0.89527  0.76939  1.0000
  H   H1442     1.0  0.65680  0.77194  0.56390  1.0000
  C   C813      1.0  0.69245  0.76954  0.60329  1.0000
  C   C814      1.0  0.69260  0.65873  0.62267  1.0000
  C   C815      1.0  0.97170  0.87978  0.73355  1.0000
  C   C816      1.0  0.79828  0.72577  0.61526  1.0000
  H   H1443     1.0  0.78256  0.70986  0.60930  1.0000
  S   S190      1.0  0.77164  0.73846  0.52043  1.0000
  H   H1444     1.0  0.77407  0.94719  0.71502  1.0000
  H   H1445     1.0  0.97234  0.97842  0.75865  1.0000
  H   H1446     1.0  0.53431  0.89007  0.83596  1.0000
  H   H1447     1.0  0.70478  0.72661  0.64263  1.0000
  H   H1448     1.0  0.55901  0.93323  0.84551  1.0000
  H   H1449     1.0  0.74434  0.74120  0.60861  1.0000
  C   C817      1.0  0.88833  0.92998  0.83767  1.0000
  C   C818      1.0  0.89972  0.92193  0.87225  1.0000
  C   C819      1.0  0.91362  0.93999  0.89614  1.0000
  H   H1450     1.0  0.58502  0.90445  0.00331  1.0000
  H   H1451     1.0  0.93433  0.96972  0.75915  1.0000
  C   C820      1.0  0.89106  0.95613  0.82708  1.0000
  H   H1452     1.0  0.89761  0.90172  0.88072  1.0000
  C   C821      1.0  0.54975  0.92217  0.86936  1.0000
  H   H1453     1.0  0.55647  0.93989  0.96820  1.0000
  H   H1454     1.0  0.88254  0.96254  0.80058  1.0000
  C   C822      1.0  0.81344  0.84176  0.60867  1.0000
  C   C823      1.0  0.79039  0.85767  0.59773  1.0000
  C   C824      1.0  0.76984  0.84841  0.57157  1.0000
  C   C825      1.0  0.77230  0.82337  0.55561  1.0000
  C   C826      1.0  0.79591  0.80786  0.56562  1.0000
  C   C827      1.0  0.81611  0.81688  0.59229  1.0000
  H   H1455     1.0  0.78802  0.87685  0.61007  1.0000
  H   H1456     1.0  0.75177  0.86066  0.56391  1.0000
  H   H1457     1.0  0.79849  0.78879  0.55310  1.0000
  H   H1458     1.0  0.83392  0.80446  0.60036  1.0000
  N   N48       1.0  0.73776  0.77419  0.64594  1.0000
  C   C828      1.0  0.75651  0.75788  0.62071  1.0000
  C   C829      1.0  0.71504  0.78749  0.62237  1.0000
  C   C830      1.0  0.75645  0.79554  0.66270  1.0000
  C   C831      1.0  0.78458  0.74718  0.63892  1.0000
  C   C832      1.0  0.74101  0.81574  0.68830  1.0000
  C   C833      1.0  0.67285  0.78522  0.57719  1.0000
  C   C834      1.0  0.50097  0.92045  0.83698  1.0000
  C   C835      1.0  0.73965  0.84298  0.67076  1.0000
  H   H1459     1.0  0.76308  0.76945  0.59588  1.0000
  H   H1460     1.0  0.70231  0.80150  0.63916  1.0000
  H   H1461     1.0  0.72557  0.79951  0.60031  1.0000
  H   H1462     1.0  0.76831  0.80612  0.64026  1.0000
  H   H1463     1.0  0.77373  0.78699  0.68051  1.0000
  H   H1464     1.0  0.80079  0.76316  0.64164  1.0000
  H   H1465     1.0  0.75334  0.81764  0.71493  1.0000
  H   H1466     1.0  0.71901  0.80957  0.69645  1.0000
  H   H1467     1.0  0.81703  0.71735  0.63040  1.0000
  H   H1468     1.0  0.68568  0.79467  0.55478  1.0000
  H   H1469     1.0  0.69494  0.69633  0.69442  1.0000
  C   C836      1.0  0.76167  0.96471  0.71050  1.0000
  H   H1470     1.0  0.72727  0.85633  0.68909  1.0000
  H   H1471     1.0  0.76178  0.85110  0.66772  1.0000
  H   H1472     1.0  0.72906  0.84239  0.64288  1.0000
  H   H1473     1.0  0.78039  0.73922  0.66718  1.0000
  H   H1474     1.0  0.80301  0.90355  0.82830  1.0000
  C   C837      1.0  0.53242  0.90449  0.97400  1.0000
  C   C838      1.0  0.65118  0.97875  0.98151  1.0000
  H   H1475     1.0  0.73710  0.71755  0.66635  1.0000
  C   C839      1.0  0.69581  0.66781  0.58583  1.0000
  C   C840      1.0  0.52520  0.90431  0.85608  1.0000
  H   H1476     1.0  0.95439  0.90403  0.57375  1.0000
  H   H1477     1.0  0.49386  0.86964  0.81372  1.0000
  H   H1478     1.0  0.92301  0.89059  0.77324  1.0000
  H   H1479     1.0  0.67838  0.76042  0.62463  1.0000
  H   H1480     1.0  0.92205  0.93370  0.92291  1.0000
  C   C841      1.0  0.96231  0.94345  0.79075  1.0000
  H   H1481     1.0  0.48125  0.91740  0.90794  1.0000
  C   C842      1.0  0.95452  0.97052  0.77594  1.0000
  H   H1482     1.0  0.67831  0.72743  0.70303  1.0000
  H   H1483     1.0  0.80818  0.94758  0.85478  1.0000
  H   H1484     1.0  0.91804  0.97558  0.61876  1.0000
  H   H1485     1.0  0.96455  0.95623  0.54110  1.0000
  H   H1486     1.0  0.73882  0.75822  0.70213  1.0000
  H   H1487     1.0  0.97869  0.86922  0.65773  1.0000
  H   H1488     1.0  0.49663  0.93814  0.85423  1.0000
  H   H1489     1.0  0.80612  0.73407  0.58853  1.0000
  H   H1490     1.0  0.57615  0.95610  0.60792  1.0000
  H   H1491     1.0  0.76808  0.91776  0.83672  1.0000
  S   S191      1.0  0.72409  0.69040  0.57580  1.0000
  H   H1492     1.0  0.91932  0.82756  0.83211  1.0000
  H   H1493     1.0  0.91158  0.93243  0.58006  1.0000
  C   C843      1.0  0.72437  0.75841  0.67715  1.0000
  H   H1494     1.0  0.70418  0.76797  0.68672  1.0000
  C   C844      1.0  0.56485  0.95785  0.58061  1.0000
  C   C845      1.0  0.67707  0.65824  0.55824  1.0000
  H   H1495     1.0  0.54189  0.93627  0.89062  1.0000
  H   H1496     1.0  0.56714  0.91026  0.88224  1.0000
  H   H1497     1.0  0.70279  0.75403  0.58651  1.0000
  H   H1498     1.0  0.89289  0.97224  0.58149  1.0000
  H   H1499     1.0  0.89776  0.85538  0.81926  1.0000
  Fe  Fe95      1.0  0.73149  0.71323  0.52142  1.0000
  S   S192      1.0  0.74496  0.81194  0.52444  1.0000
  H   H1500     1.0  0.82224  0.94569  0.80779  1.0000
  H   H1501     1.0  0.52399  0.89125  0.99597  1.0000
  H   H1502     1.0  0.51296  0.97506  0.81280  1.0000
  H   H1503     1.0  0.71125  0.71858  0.72743  1.0000
  H   H1504     1.0  0.66111  0.80053  0.59294  1.0000
  H   H1505     1.0  0.72538  0.95097  0.74242  1.0000
  H   H1506     1.0  0.51738  0.89330  0.88065  1.0000
  H   H1507     1.0  0.48523  0.65521  0.98311  1.0000
  H   H1508     1.0  0.94488  0.92522  0.74091  1.0000
  C   C846      1.0  0.69934  0.71726  0.70048  1.0000
  H   H1509     1.0  0.84085  0.97808  0.85804  1.0000
  Fe  Fe96      1.0  0.95950  0.98123  0.96560  1.0000
  H   H1510     1.0  0.95917  0.95290  0.58975  1.0000
  C   C847      1.0  0.94273  0.88565  0.78955  1.0000
  H   H1511     1.0  0.78220  0.91602  0.78968  1.0000
  C   C848      1.0  0.50363  0.96029  0.67384  1.0000
  H   H1512     1.0  0.51479  0.94187  0.67685  1.0000
  C   C849      1.0  0.71709  0.72922  0.66891  1.0000
  H   H1513     1.0  0.57932  0.95075  0.55821  1.0000
  H   H1514     1.0  0.54536  0.94516  0.58132  1.0000
  H   H1515     1.0  0.92583  0.85870  0.85433  1.0000
  H   H1516     1.0  0.51057  0.92799  0.81072  1.0000
  C   C850      1.0  0.91976  0.84904  0.82761  1.0000
  C   C851      1.0  0.80239  0.94588  0.82478  1.0000
  C   C852      1.0  0.54782  0.92802  0.99143  1.0000
  H   H1517     1.0  0.51391  0.91138  0.95701  1.0000
  C   C853      1.0  0.96626  0.96192  0.67101  1.0000
  H   H1518     1.0  0.49160  0.89230  0.77667  1.0000
  H   H1519     1.0  0.76385  0.96748  0.83391  1.0000
  C   C854      1.0  0.90433  0.97422  0.85124  1.0000
  H   H1520     1.0  0.79688  0.66746  0.65400  1.0000
  C   C855      1.0  0.60981  0.95051  0.00399  1.0000
  C   C856      1.0  0.94143  0.85576  0.79705  1.0000
  H   H1521     1.0  0.67914  0.66505  0.52978  1.0000
  H   H1522     1.0  0.92480  0.89362  0.54444  1.0000
  C   C857      1.0  0.92580  0.93531  0.55553  1.0000
  H   H1523     1.0  0.96279  0.84795  0.80537  1.0000
  H   H1524     1.0  0.75809  0.66788  0.65196  1.0000
  C   C858      1.0  0.96469  0.92350  0.75857  1.0000
  C   C859      1.0  0.94109  0.90931  0.54896  1.0000
  H   H1525     1.0  0.95150  0.88165  0.71666  1.0000
  H   H1526     1.0  0.91224  0.93972  0.53069  1.0000
  H   H1527     1.0  0.93437  0.84541  0.77124  1.0000
  H   H1528     1.0  0.59625  0.95931  0.98162  1.0000
  H   H1529     1.0  0.93982  0.89594  0.81648  1.0000
  H   H1530     1.0  0.51243  0.66825  0.92325  1.0000
  H   H1531     1.0  0.62148  0.93429  0.99006  1.0000
  H   H1532     1.0  0.70659  0.66631  0.64431  1.0000
  C   C860      1.0  0.77755  0.65688  0.64337  1.0000
  H   H1533     1.0  0.66389  0.96142  0.97288  1.0000
  H   H1534     1.0  0.97413  0.85860  0.73969  1.0000
  C   C861      1.0  0.73401  0.96687  0.72592  1.0000
  C   C862      1.0  0.94780  0.95765  0.56316  1.0000
  H   H1535     1.0  0.77848  0.65644  0.61235  1.0000
  C   C863      1.0  0.47938  0.88452  0.80097  1.0000
  C   C864      1.0  0.52371  0.64914  0.92414  1.0000
  H   H1536     1.0  0.53139  0.93981  0.00615  1.0000
